REMARK SMILES Cc1oc2cc3c(cc2c1C)[C@H](C)[C@@H](CC(=O)N[C@H](CC1=c2ccccc2=NC1)C(=O)NCCCCNC(=O)c1ccc(-c2c4nc(c(-c5cccc(S(=O)(=O)[O-])c5F)c5ccc([nH]5)c(-c5cccc(S(=O)(=O)[O-])c5F)c5nc(c(-c6cccc(S(=O)(=O)[O-])c6F)c6ccc2[nH]6)C=C5)C=C4)cc1)C(=O)O3
REMARK SMILES IDX 34 1 33 2 32 3 30 4 31 5 19 7 18 8 16 9 17 10 15 12 14 13
REMARK SMILES IDX 1 14 2 15 3 16 10 17 4 18 9 19 11 20 5 21 8 22 6 23 7 24
REMARK SMILES IDX 105 25 12 26 103 27 13 28 104 29 20 30 21 31 22 32 29 33
REMARK SMILES IDX 23 34 27 35 28 36 24 37 26 38 25 39 35 40 36 41 37 42 38 43
REMARK SMILES IDX 39 45 40 46 41 47 102 48 42 49 101 50 43 51 44 52 45 53
REMARK SMILES IDX 95 54 46 55 100 56 94 57 96 58 47 59 99 60 93 61 92 62 48 64
REMARK SMILES IDX 80 65 60 66 79 67 61 68 64 69 78 70 97 71 62 72 63 73 77 75
REMARK SMILES IDX 98 76 65 77 49 78 50 79 58 80 51 81 53 82 59 83 52 84 54 85
REMARK SMILES IDX 55 86 56 87 57 88 81 89 82 90 90 91 83 92 85 93 91 94 84 95
REMARK SMILES IDX 86 96 87 97 88 98 89 99 66 100 67 101 75 102 68 103 70 104
REMARK SMILES IDX 76 105 69 106 71 107 72 108 73 109 74 110
REMARK H PARENT 32 6 18 11 37 44 96 63 64 74
REMARK Flexibility Score: inf
ROOT
ATOM      1  C   UNL     1      -1.358   8.611 -10.740  1.00  0.00     0.023 C 
ENDROOT
BRANCH   1   2
ATOM      2  C   UNL     1      -1.215   8.392  -9.228  1.00  0.00     0.116 C 
BRANCH   2   3
ATOM      3  N   UNL     1      -2.452   7.932  -8.635  1.00  0.00    -0.354 N 
ATOM      4  C   UNL     1      -3.005   6.699  -8.714  1.00  0.00     0.242 C 
ATOM      5  O   UNL     1      -4.210   6.688  -8.951  1.00  0.00    -0.273 OA
ATOM      6  H   UNL     1      -2.953   8.598  -8.110  1.00  0.00     0.163 HD
BRANCH   4   7
ATOM      7  C   UNL     1      -2.175   5.424  -8.546  1.00  0.00     0.175 C 
BRANCH   7   8
ATOM      8  N   UNL     1      -1.301   5.655  -7.361  1.00  0.00    -0.344 N 
ATOM      9  C   UNL     1      -1.518   5.567  -6.016  1.00  0.00     0.221 C 
ATOM     10  O   UNL     1      -0.699   6.141  -5.288  1.00  0.00    -0.275 OA
ATOM     11  H   UNL     1      -0.384   5.926  -7.595  1.00  0.00     0.164 HD
BRANCH   9  12
ATOM     12  C   UNL     1      -2.668   4.787  -5.363  1.00  0.00     0.116 C 
BRANCH  12  13
ATOM     13  C   UNL     1      -3.986   5.569  -5.305  1.00  0.00     0.116 C 
ATOM     14  C   UNL     1     -12.423   6.425  -5.728  1.00  0.00     0.088 C 
ATOM     15  C   UNL     1     -11.000   6.238  -5.375  1.00  0.00     0.105 A 
ATOM     16  O   UNL     1     -10.138   6.704  -6.309  1.00  0.00    -0.461 OA
ATOM     17  C   UNL     1     -10.305   5.685  -4.308  1.00  0.00    -0.002 A 
ATOM     18  C   UNL     1      -8.890   6.437  -5.870  1.00  0.00     0.138 A 
ATOM     19  C   UNL     1      -8.911   5.816  -4.628  1.00  0.00     0.024 A 
ATOM     20  C   UNL     1     -10.878   5.057  -3.096  1.00  0.00     0.049 C 
ATOM     21  C   UNL     1      -7.754   6.713  -6.593  1.00  0.00     0.095 A 
ATOM     22  C   UNL     1      -7.671   5.452  -4.027  1.00  0.00     0.020 A 
ATOM     23  C   UNL     1      -6.574   6.270  -6.010  1.00  0.00     0.138 A 
ATOM     24  C   UNL     1      -6.471   5.686  -4.728  1.00  0.00    -0.001 A 
ATOM     25  O   UNL     1      -5.492   6.370  -6.860  1.00  0.00    -0.426 OA
ATOM     26  C   UNL     1      -5.077   5.203  -4.243  1.00  0.00     0.035 C 
ATOM     27  C   UNL     1      -4.733   5.279  -6.567  1.00  0.00     0.315 C 
ATOM     28  C   UNL     1      -4.738   5.769  -2.863  1.00  0.00     0.014 C 
ATOM     29  O   UNL     1      -4.761   4.207  -7.154  1.00  0.00    -0.251 OA
ENDBRANCH  12  13
ENDBRANCH   9  12
ENDBRANCH   7   8
BRANCH   7  30
ATOM     30  C   UNL     1      -1.408   5.069  -9.846  1.00  0.00     0.068 C 
BRANCH  30  31
ATOM     31  C   UNL     1      -2.221   4.426 -10.947  1.00  0.00    -0.037 C 
ATOM     32  C   UNL     1      -3.485   4.563 -11.358  1.00  0.00     0.001 A 
ATOM     33  C   UNL     1      -1.687   3.190 -11.615  1.00  0.00     0.174 C 
ATOM     34  C   UNL     1      -4.525   5.537 -11.426  1.00  0.00     0.010 A 
ATOM     35  C   UNL     1      -3.822   3.124 -11.512  1.00  0.00     0.065 A 
ATOM     36  N   UNL     1      -2.843   2.277 -11.648  1.00  0.00    -0.280 NA
ATOM     37  C   UNL     1      -5.807   5.138 -11.477  1.00  0.00     0.001 A 
ATOM     38  C   UNL     1      -5.245   2.765 -11.315  1.00  0.00     0.028 A 
ATOM     39  C   UNL     1      -6.161   3.747 -11.277  1.00  0.00     0.002 A 
ENDBRANCH  30  31
ENDBRANCH   7  30
ENDBRANCH   4   7
ENDBRANCH   2   3
ENDBRANCH   1   2
BRANCH   1  40
ATOM     40  C   UNL     1      -2.633   9.341 -11.167  1.00  0.00     0.023 C 
BRANCH  40  41
ATOM     41  C   UNL     1      -2.938  10.596 -10.364  1.00  0.00     0.116 C 
BRANCH  41  42
ATOM     42  N   UNL     1      -2.007  11.677 -10.628  1.00  0.00    -0.352 N 
ATOM     43  C   UNL     1      -2.215  12.780 -11.422  1.00  0.00     0.251 C 
ATOM     44  H   UNL     1      -1.129  11.614 -10.188  1.00  0.00     0.163 HD
ATOM     45  O   UNL     1      -1.337  13.619 -11.592  1.00  0.00    -0.269 OA
BRANCH  43  46
ATOM     46  C   UNL     1      -3.532  12.893 -12.066  1.00  0.00     0.039 A 
ATOM     47  C   UNL     1      -4.659  13.057 -11.252  1.00  0.00     0.014 A 
ATOM     48  C   UNL     1      -3.643  12.582 -13.421  1.00  0.00     0.014 A 
ATOM     49  C   UNL     1      -5.907  12.752 -11.771  1.00  0.00     0.010 A 
ATOM     50  C   UNL     1      -4.904  12.334 -13.951  1.00  0.00     0.010 A 
ATOM     51  C   UNL     1      -6.025  12.360 -13.111  1.00  0.00    -0.014 A 
BRANCH  51  52
ATOM     52  C   UNL     1      -7.374  12.018 -13.575  1.00  0.00     0.031 A 
ATOM     53  C   UNL     1      -7.948  13.024 -14.513  1.00  0.00     0.074 A 
ATOM     54  C   UNL     1      -7.782  10.735 -13.664  1.00  0.00     0.049 A 
ATOM     55  N   UNL     1      -7.658  13.043 -15.780  1.00  0.00    -0.248 NA
ATOM     56  C   UNL     1      -8.622  14.230 -14.036  1.00  0.00     0.031 C 
ATOM     57  C   UNL     1      -6.909   9.607 -14.020  1.00  0.00     0.029 A 
ATOM     58  N   UNL     1      -9.050  10.207 -13.698  1.00  0.00    -0.354 N 
ATOM     59  C   UNL     1      -8.024  14.287 -16.260  1.00  0.00     0.074 A 
ATOM     60  C   UNL     1      -8.635  14.983 -15.148  1.00  0.00     0.031 C 
ATOM     61  C   UNL     1      -7.679   8.576 -14.422  1.00  0.00     0.029 A 
ATOM     62  C   UNL     1      -9.081   8.908 -14.198  1.00  0.00     0.049 A 
ATOM     63  H   UNL     1      -9.851  10.696 -13.400  1.00  0.00     0.167 HD
ATOM     64  C   UNL     1      -7.796  14.681 -17.541  1.00  0.00     0.034 A 
ATOM     65  C   UNL     1     -10.143   8.368 -14.857  1.00  0.00     0.034 A 
ATOM     66  C   UNL     1      -7.209  13.687 -18.394  1.00  0.00     0.049 A 
ATOM     67  C   UNL     1     -10.016   9.071 -16.188  1.00  0.00     0.074 A 
ATOM     68  C   UNL     1      -5.977  13.407 -18.940  1.00  0.00     0.029 A 
ATOM     69  N   UNL     1      -8.012  12.649 -18.799  1.00  0.00    -0.354 N 
ATOM     70  N   UNL     1      -9.154   8.773 -17.127  1.00  0.00    -0.248 NA
ATOM     71  C   UNL     1     -10.619  10.396 -16.325  1.00  0.00     0.031 C 
ATOM     72  C   UNL     1      -6.013  12.016 -19.285  1.00  0.00     0.029 A 
ATOM     73  C   UNL     1      -7.251  11.514 -18.881  1.00  0.00     0.049 A 
ATOM     74  H   UNL     1      -8.975  12.711 -18.997  1.00  0.00     0.167 HD
ATOM     75  C   UNL     1      -8.871   9.984 -17.771  1.00  0.00     0.074 A 
ATOM     76  C   UNL     1      -9.853  10.924 -17.270  1.00  0.00     0.031 C 
ATOM     77  C   UNL     1      -7.751  10.197 -18.528  1.00  0.00     0.034 A 
BRANCH  64  78
ATOM     78  C   UNL     1      -8.305  15.948 -18.117  1.00  0.00     0.023 A 
ATOM     79  C   UNL     1      -9.438  15.838 -18.948  1.00  0.00     0.012 A 
ATOM     80  C   UNL     1      -7.653  17.187 -17.998  1.00  0.00     0.148 A 
ATOM     81  C   UNL     1      -9.896  16.923 -19.686  1.00  0.00     0.002 A 
ATOM     82  C   UNL     1      -8.121  18.274 -18.735  1.00  0.00     0.091 A 
ATOM     83  F   UNL     1      -6.572  17.274 -17.209  1.00  0.00    -0.205 F 
ATOM     84  C   UNL     1      -9.234  18.139 -19.585  1.00  0.00     0.022 A 
BRANCH  82  85
ATOM     85  S   UNL     1      -7.360  19.901 -18.681  1.00  0.00     0.127 S 
ATOM     86  O   UNL     1      -6.707  19.975 -19.987  1.00  0.00    -0.237 OA
ATOM     87  O   UNL     1      -8.523  20.778 -18.533  1.00  0.00    -0.237 OA
ATOM     88  O   UNL     1      -6.470  19.885 -17.529  1.00  0.00    -0.744 OA
ENDBRANCH  82  85
ENDBRANCH  64  78
BRANCH  65  89
ATOM     89  C   UNL     1     -11.389   8.312 -14.015  1.00  0.00     0.023 A 
ATOM     90  C   UNL     1     -11.258   7.688 -12.746  1.00  0.00     0.012 A 
ATOM     91  C   UNL     1     -12.640   8.864 -14.332  1.00  0.00     0.148 A 
ATOM     92  C   UNL     1     -12.273   7.734 -11.789  1.00  0.00     0.002 A 
ATOM     93  C   UNL     1     -13.624   8.978 -13.349  1.00  0.00     0.091 A 
ATOM     94  F   UNL     1     -12.876   9.273 -15.583  1.00  0.00    -0.205 F 
ATOM     95  C   UNL     1     -13.444   8.417 -12.078  1.00  0.00     0.022 A 
BRANCH  93  96
ATOM     96  S   UNL     1     -15.114   9.956 -13.589  1.00  0.00     0.127 S 
ATOM     97  O   UNL     1     -16.166   8.985 -13.295  1.00  0.00    -0.237 OA
ATOM     98  O   UNL     1     -14.938  11.002 -12.582  1.00  0.00    -0.237 OA
ATOM     99  O   UNL     1     -15.062  10.421 -14.968  1.00  0.00    -0.744 OA
ENDBRANCH  93  96
ENDBRANCH  65  89
BRANCH  77 100
ATOM    100  C   UNL     1      -6.917   8.984 -18.838  1.00  0.00     0.023 A 
ATOM    101  C   UNL     1      -7.479   7.967 -19.635  1.00  0.00     0.012 A 
ATOM    102  C   UNL     1      -5.571   8.866 -18.433  1.00  0.00     0.148 A 
ATOM    103  C   UNL     1      -6.718   6.872 -20.042  1.00  0.00     0.002 A 
ATOM    104  C   UNL     1      -4.801   7.799 -18.887  1.00  0.00     0.091 A 
ATOM    105  F   UNL     1      -5.053   9.797 -17.619  1.00  0.00    -0.205 F 
ATOM    106  C   UNL     1      -5.375   6.798 -19.686  1.00  0.00     0.022 A 
BRANCH 104 107
ATOM    107  S   UNL     1      -3.037   7.660 -18.567  1.00  0.00     0.127 S 
ATOM    108  O   UNL     1      -2.955   6.395 -17.838  1.00  0.00    -0.237 OA
ATOM    109  O   UNL     1      -2.487   7.617 -19.923  1.00  0.00    -0.237 OA
ATOM    110  O   UNL     1      -2.664   8.838 -17.796  1.00  0.00    -0.744 OA
ENDBRANCH 104 107
ENDBRANCH  77 100
ENDBRANCH  51  52
ENDBRANCH  43  46
ENDBRANCH  41  42
ENDBRANCH  40  41
ENDBRANCH   1  40
TORSDOF 19
