REMARK SMILES Cc1cc(C(=O)NCCCCNC(=O)c2ccc(-c3c4nc(c(-c5cccc(S(=O)(=O)[O-])c5F)c5ccc([nH]5)c(-c5cccc(S(=O)(=O)[O-])c5F)c5nc(c(-c6cccc(S(=O)(=O)[O-])c6F)c6ccc3[nH]6)C=C5)C=C4)cc2)ccc1NC(=O)N1C[C@@H](C)[C@H](C)C1
REMARK SMILES IDX 10 1 9 2 8 3 7 4 5 5 6 6 4 8 1 9 2 10 3 11 80 12 79 13 78 14
REMARK SMILES IDX 81 15 82 16 83 18 84 19 85 20 90 21 86 22 88 23 87 24 89 25
REMARK SMILES IDX 11 26 12 27 13 28 14 30 15 31 16 32 77 33 17 34 76 35 18 36
REMARK SMILES IDX 19 37 20 38 70 39 21 40 75 41 69 42 71 43 22 44 74 45 68 46
REMARK SMILES IDX 67 47 23 49 55 50 35 51 54 52 36 53 39 54 53 55 72 56 37 57
REMARK SMILES IDX 38 58 52 60 73 61 40 62 24 63 25 64 33 65 26 66 28 67 34 68
REMARK SMILES IDX 27 69 29 70 30 71 31 72 32 73 56 74 57 75 65 76 58 77 60 78
REMARK SMILES IDX 66 79 59 80 61 81 62 82 63 83 64 84 41 85 42 86 50 87 43 88
REMARK SMILES IDX 45 89 51 90 44 91 46 92 47 93 48 94 49 95
REMARK H PARENT 7 7 81 17 12 29 71 48 39 59
REMARK Flexibility Score: inf
ROOT
ATOM      1  C   UNL     1      -5.400  -2.233  -2.180  1.00  0.00     0.023 C 
ENDROOT
BRANCH   1   2
ATOM      2  C   UNL     1      -4.679  -1.071  -1.505  1.00  0.00     0.023 C 
BRANCH   2   3
ATOM      3  C   UNL     1      -3.991  -1.412  -0.168  1.00  0.00     0.116 C 
BRANCH   3   4
ATOM      4  N   UNL     1      -2.998  -2.478  -0.283  1.00  0.00    -0.352 N 
ATOM      5  C   UNL     1      -1.623  -2.451  -0.358  1.00  0.00     0.251 C 
ATOM      6  O   UNL     1      -0.998  -3.508  -0.301  1.00  0.00    -0.269 OA
ATOM      7  H   UNL     1      -3.384  -3.384  -0.313  1.00  0.00     0.163 HD
BRANCH   5   8
ATOM      8  C   UNL     1      -0.872  -1.175  -0.461  1.00  0.00     0.040 A 
ATOM      9  C   UNL     1       2.538   0.154   0.524  1.00  0.00     0.046 C 
ATOM     10  C   UNL     1       1.093   0.172   0.111  1.00  0.00    -0.027 A 
ATOM     11  C   UNL     1       0.412  -1.067   0.085  1.00  0.00     0.019 A 
ATOM     12  C   UNL     1       0.413   1.322  -0.324  1.00  0.00     0.045 A 
ATOM     13  C   UNL     1      -0.761   1.155  -1.054  1.00  0.00     0.027 A 
ATOM     14  C   UNL     1      -1.375  -0.083  -1.143  1.00  0.00     0.016 A 
BRANCH  12  15
ATOM     15  N   UNL     1       0.900   2.623  -0.085  1.00  0.00    -0.308 N 
ATOM     16  C   UNL     1       0.246   3.817  -0.246  1.00  0.00     0.321 C 
ATOM     17  H   UNL     1       1.827   2.681   0.240  1.00  0.00     0.171 HD
ATOM     18  O   UNL     1       0.893   4.808  -0.588  1.00  0.00    -0.248 OA
ATOM     19  N   UNL     1      -1.107   3.871  -0.012  1.00  0.00    -0.324 N 
ATOM     20  C   UNL     1      -1.956   4.828  -0.694  1.00  0.00     0.125 C 
ATOM     21  C   UNL     1      -1.775   3.313   1.164  1.00  0.00     0.125 C 
ATOM     22  C   UNL     1      -3.113   5.104   0.261  1.00  0.00     0.010 C 
ATOM     23  C   UNL     1      -3.226   3.804   1.079  1.00  0.00     0.010 C 
ATOM     24  C   UNL     1      -4.401   5.459  -0.471  1.00  0.00     0.010 C 
ATOM     25  C   UNL     1      -3.879   4.017   2.443  1.00  0.00     0.010 C 
ENDBRANCH  12  15
ENDBRANCH   5   8
ENDBRANCH   3   4
ENDBRANCH   2   3
ENDBRANCH   1   2
BRANCH   1  26
ATOM     26  C   UNL     1      -6.655  -2.643  -1.441  1.00  0.00     0.116 C 
BRANCH  26  27
ATOM     27  N   UNL     1      -7.807  -1.831  -1.776  1.00  0.00    -0.352 N 
ATOM     28  C   UNL     1      -9.116  -1.935  -1.350  1.00  0.00     0.251 C 
ATOM     29  H   UNL     1      -7.630  -1.093  -2.403  1.00  0.00     0.163 HD
ATOM     30  O   UNL     1      -9.970  -1.325  -1.990  1.00  0.00    -0.269 OA
BRANCH  28  31
ATOM     31  C   UNL     1      -9.458  -2.611  -0.066  1.00  0.00     0.039 A 
ATOM     32  C   UNL     1     -10.510  -2.057   0.681  1.00  0.00     0.014 A 
ATOM     33  C   UNL     1      -8.615  -3.540   0.532  1.00  0.00     0.014 A 
ATOM     34  C   UNL     1     -10.515  -2.175   2.067  1.00  0.00     0.010 A 
ATOM     35  C   UNL     1      -8.553  -3.584   1.903  1.00  0.00     0.010 A 
ATOM     36  C   UNL     1      -9.444  -2.819   2.662  1.00  0.00    -0.014 A 
BRANCH  36  37
ATOM     37  C   UNL     1      -9.053  -2.691   4.053  1.00  0.00     0.031 A 
ATOM     38  C   UNL     1      -9.347  -3.778   4.997  1.00  0.00     0.074 A 
ATOM     39  C   UNL     1      -8.066  -1.797   4.287  1.00  0.00     0.049 A 
ATOM     40  N   UNL     1      -9.067  -3.744   6.253  1.00  0.00    -0.248 NA
ATOM     41  C   UNL     1     -10.020  -5.003   4.583  1.00  0.00     0.031 C 
ATOM     42  C   UNL     1      -7.034  -1.862   5.310  1.00  0.00     0.029 A 
ATOM     43  N   UNL     1      -7.886  -0.538   3.699  1.00  0.00    -0.354 N 
ATOM     44  C   UNL     1      -9.177  -5.037   6.719  1.00  0.00     0.074 A 
ATOM     45  C   UNL     1      -9.931  -5.726   5.703  1.00  0.00     0.031 C 
ATOM     46  C   UNL     1      -6.503  -0.638   5.463  1.00  0.00     0.029 A 
ATOM     47  C   UNL     1      -7.331   0.279   4.698  1.00  0.00     0.049 A 
ATOM     48  H   UNL     1      -8.103  -0.279   2.775  1.00  0.00     0.167 HD
ATOM     49  C   UNL     1      -8.446  -5.396   7.813  1.00  0.00     0.034 A 
ATOM     50  C   UNL     1      -7.976   1.368   5.215  1.00  0.00     0.034 A 
ATOM     51  C   UNL     1      -7.835  -4.204   8.436  1.00  0.00     0.049 A 
ATOM     52  C   UNL     1      -8.264   1.233   6.702  1.00  0.00     0.074 A 
ATOM     53  C   UNL     1      -6.546  -3.699   8.463  1.00  0.00     0.029 A 
ATOM     54  N   UNL     1      -8.657  -3.191   8.923  1.00  0.00    -0.354 N 
ATOM     55  N   UNL     1      -7.999   0.167   7.408  1.00  0.00    -0.248 NA
ATOM     56  C   UNL     1      -8.896   2.273   7.511  1.00  0.00     0.031 C 
ATOM     57  C   UNL     1      -6.620  -2.328   8.844  1.00  0.00     0.029 A 
ATOM     58  C   UNL     1      -7.945  -2.011   9.094  1.00  0.00     0.049 A 
ATOM     59  H   UNL     1      -9.616  -3.296   9.119  1.00  0.00     0.167 HD
ATOM     60  C   UNL     1      -8.547   0.279   8.657  1.00  0.00     0.074 A 
ATOM     61  C   UNL     1      -9.009   1.657   8.702  1.00  0.00     0.031 C 
ATOM     62  C   UNL     1      -8.639  -0.791   9.510  1.00  0.00     0.034 A 
BRANCH  49  63
ATOM     63  C   UNL     1      -8.038  -6.819   8.201  1.00  0.00     0.023 A 
ATOM     64  C   UNL     1      -7.115  -6.951   9.265  1.00  0.00     0.012 A 
ATOM     65  C   UNL     1      -8.395  -8.033   7.558  1.00  0.00     0.148 A 
ATOM     66  C   UNL     1      -6.539  -8.178   9.626  1.00  0.00     0.002 A 
ATOM     67  C   UNL     1      -7.834  -9.262   7.925  1.00  0.00     0.091 A 
ATOM     68  F   UNL     1      -9.274  -8.036   6.561  1.00  0.00    -0.205 F 
ATOM     69  C   UNL     1      -6.892  -9.335   8.950  1.00  0.00     0.022 A 
BRANCH  67  70
ATOM     70  S   UNL     1      -8.252 -10.811   7.093  1.00  0.00     0.127 S 
ATOM     71  O   UNL     1      -6.951 -11.245   6.583  1.00  0.00    -0.237 OA
ATOM     72  O   UNL     1      -8.777 -11.621   8.192  1.00  0.00    -0.237 OA
ATOM     73  O   UNL     1      -9.226 -10.480   6.060  1.00  0.00    -0.744 OA
ENDBRANCH  67  70
ENDBRANCH  49  63
BRANCH  50  74
ATOM     74  C   UNL     1      -8.826   2.079   4.213  1.00  0.00     0.023 A 
ATOM     75  C   UNL     1      -8.142   2.740   3.165  1.00  0.00     0.012 A 
ATOM     76  C   UNL     1     -10.180   1.741   4.033  1.00  0.00     0.148 A 
ATOM     77  C   UNL     1      -8.744   2.926   1.919  1.00  0.00     0.002 A 
ATOM     78  C   UNL     1     -10.771   1.919   2.781  1.00  0.00     0.091 A 
ATOM     79  F   UNL     1     -10.830   1.155   5.045  1.00  0.00    -0.205 F 
ATOM     80  C   UNL     1     -10.043   2.477   1.716  1.00  0.00     0.022 A 
BRANCH  78  81
ATOM     81  S   UNL     1     -12.419   1.300   2.409  1.00  0.00     0.127 S 
ATOM     82  O   UNL     1     -13.214   2.522   2.478  1.00  0.00    -0.237 OA
ATOM     83  O   UNL     1     -12.249   0.751   1.065  1.00  0.00    -0.237 OA
ATOM     84  O   UNL     1     -12.687   0.300   3.432  1.00  0.00    -0.744 OA
ENDBRANCH  78  81
ENDBRANCH  50  74
BRANCH  62  85
ATOM     85  C   UNL     1      -9.432  -0.809  10.805  1.00  0.00     0.023 A 
ATOM     86  C   UNL     1     -10.517   0.056  11.042  1.00  0.00     0.012 A 
ATOM     87  C   UNL     1      -9.205  -1.822  11.773  1.00  0.00     0.148 A 
ATOM     88  C   UNL     1     -11.301  -0.037  12.198  1.00  0.00     0.002 A 
ATOM     89  C   UNL     1     -10.062  -1.987  12.858  1.00  0.00     0.091 A 
ATOM     90  F   UNL     1      -8.142  -2.632  11.657  1.00  0.00    -0.205 F 
ATOM     91  C   UNL     1     -11.091  -1.076  13.095  1.00  0.00     0.022 A 
BRANCH  89  92
ATOM     92  S   UNL     1      -9.975  -3.469  13.875  1.00  0.00     0.127 S 
ATOM     93  O   UNL     1      -9.044  -3.067  14.925  1.00  0.00    -0.237 OA
ATOM     94  O   UNL     1     -11.361  -3.632  14.319  1.00  0.00    -0.237 OA
ATOM     95  O   UNL     1      -9.518  -4.513  12.967  1.00  0.00    -0.744 OA
ENDBRANCH  89  92
ENDBRANCH  62  85
ENDBRANCH  36  37
ENDBRANCH  28  31
ENDBRANCH  26  27
ENDBRANCH   1  26
TORSDOF 15
