REMARK SMILES Cc1ccc(S(=O)(=O)n2cc(C(=O)C(=O)NCC(=O)N[C@H](Cc3c[nH]c4ccccc34)C(=O)NCCCCNC(=O)c3ccc(-c4c5nc(c(-c6cccc(S(=O)(=O)[O-])c6F)c6ccc([nH]6)c(-c6cccc(S(=O)(=O)[O-])c6F)c6nc(c(-c7cccc(S(=O)(=O)[O-])c7F)c7ccc4[nH]7)C=C6)C=C5)cc3)c3ccccc32)cc1
REMARK SMILES IDX 32 1 33 2 34 3 21 5 20 6 18 7 19 8 17 10 16 11 14 12 15 13
REMARK SMILES IDX 12 15 13 16 11 17 9 18 10 19 110 20 105 21 109 22 106 23
REMARK SMILES IDX 108 24 107 25 6 26 7 27 8 28 5 29 1 30 2 31 3 32 112 33 4 34
REMARK SMILES IDX 111 35 22 36 23 37 24 38 31 39 25 40 26 41 30 42 27 44 29 45
REMARK SMILES IDX 28 46 35 47 36 48 37 49 38 50 39 51 40 52 41 54 42 55 43 56
REMARK SMILES IDX 104 57 44 58 103 59 45 60 46 61 47 62 97 63 48 64 102 65
REMARK SMILES IDX 96 66 98 67 49 68 101 69 95 70 94 71 50 73 82 74 62 75 81 76
REMARK SMILES IDX 63 77 66 78 80 79 99 80 64 81 65 82 79 84 100 85 67 86 51 87
REMARK SMILES IDX 52 88 60 89 53 90 55 91 61 92 54 93 56 94 57 95 58 96 59 97
REMARK SMILES IDX 83 98 84 99 92 100 85 101 87 102 93 103 86 104 88 105 89 106
REMARK SMILES IDX 90 107 91 108 68 109 69 110 77 111 70 112 72 113 78 114
REMARK SMILES IDX 71 115 73 116 74 117 75 118 76 119
REMARK H PARENT 34 4 20 9 16 14 25 43 39 53 98 72 66 83
REMARK Flexibility Score: inf
ROOT
ATOM      1  C   UNL     1      -9.372   0.493   3.898  1.00  0.00     0.242 C 
ATOM      2  O   UNL     1      -8.746  -0.563   3.732  1.00  0.00    -0.273 OA
ATOM      3  N   UNL     1      -9.592   0.845   5.187  1.00  0.00    -0.354 N 
ATOM      4  H   UNL     1      -9.205   0.206   5.828  1.00  0.00     0.163 HD
ENDROOT
BRANCH   1   5
ATOM      5  C   UNL     1      -9.852   1.281   2.664  1.00  0.00     0.175 C 
BRANCH   5   6
ATOM      6  N   UNL     1      -9.408   2.669   2.829  1.00  0.00    -0.342 N 
ATOM      7  C   UNL     1      -8.152   3.191   2.726  1.00  0.00     0.240 C 
ATOM      8  O   UNL     1      -8.034   4.389   3.007  1.00  0.00    -0.273 OA
ATOM      9  H   UNL     1     -10.118   3.316   3.045  1.00  0.00     0.164 HD
BRANCH   7  10
ATOM     10  C   UNL     1      -6.981   2.421   2.072  1.00  0.00     0.216 C 
BRANCH  10  11
ATOM     11  N   UNL     1      -6.785   1.006   2.382  1.00  0.00    -0.340 N 
ATOM     12  C   UNL     1      -6.481  -0.045   1.529  1.00  0.00     0.292 C 
ATOM     13  O   UNL     1      -6.253  -1.178   1.934  1.00  0.00    -0.265 OA
ATOM     14  H   UNL     1      -6.883   0.764   3.332  1.00  0.00     0.164 HD
BRANCH  12  15
ATOM     15  C   UNL     1      -6.419   0.209   0.027  1.00  0.00     0.252 C 
ATOM     16  O   UNL     1      -5.623   1.069  -0.351  1.00  0.00    -0.283 OA
BRANCH  15  17
ATOM     17  C   UNL     1      -7.381  -0.413  -0.896  1.00  0.00     0.054 A 
ATOM     18  N   UNL     1      -8.763  -1.789  -2.050  1.00  0.00    -0.240 N 
ATOM     19  C   UNL     1      -7.796  -1.745  -1.045  1.00  0.00     0.117 A 
ATOM     20  C   UNL     1      -9.105  -0.458  -2.356  1.00  0.00     0.065 A 
ATOM     21  C   UNL     1      -8.026   0.314  -1.939  1.00  0.00     0.012 A 
ATOM     22  C   UNL     1     -10.087   0.062  -3.224  1.00  0.00     0.028 A 
ATOM     23  C   UNL     1      -7.818   1.570  -2.547  1.00  0.00     0.011 A 
ATOM     24  C   UNL     1      -9.809   1.260  -3.879  1.00  0.00     0.002 A 
ATOM     25  C   UNL     1      -8.668   1.988  -3.574  1.00  0.00     0.001 A 
BRANCH  18  26
ATOM     26  S   UNL     1      -8.716  -2.754  -3.506  1.00  0.00     0.268 S 
ATOM     27  O   UNL     1      -7.583  -2.194  -4.228  1.00  0.00    -0.201 OA
ATOM     28  O   UNL     1     -10.075  -2.595  -4.014  1.00  0.00    -0.201 OA
BRANCH  26  29
ATOM     29  C   UNL     1      -8.523  -4.490  -3.668  1.00  0.00     0.088 A 
ATOM     30  C   UNL     1      -8.721  -8.590  -5.028  1.00  0.00     0.044 C 
ATOM     31  C   UNL     1      -8.588  -7.180  -4.528  1.00  0.00    -0.051 A 
ATOM     32  C   UNL     1      -8.736  -6.164  -5.459  1.00  0.00     0.005 A 
ATOM     33  C   UNL     1      -8.381  -6.838  -3.171  1.00  0.00     0.005 A 
ATOM     34  C   UNL     1      -8.689  -4.851  -5.032  1.00  0.00     0.022 A 
ATOM     35  C   UNL     1      -8.352  -5.488  -2.726  1.00  0.00     0.022 A 
ENDBRANCH  26  29
ENDBRANCH  18  26
ENDBRANCH  15  17
ENDBRANCH  12  15
ENDBRANCH  10  11
ENDBRANCH   7  10
ENDBRANCH   5   6
BRANCH   5  36
ATOM     36  C   UNL     1     -11.345   1.184   2.263  1.00  0.00     0.072 C 
BRANCH  36  37
ATOM     37  C   UNL     1     -12.178   0.000   2.691  1.00  0.00    -0.020 A 
ATOM     38  C   UNL     1     -11.785  -1.169   3.311  1.00  0.00     0.087 A 
ATOM     39  C   UNL     1     -13.610  -0.118   2.546  1.00  0.00     0.003 A 
ATOM     40  N   UNL     1     -12.894  -1.791   3.818  1.00  0.00    -0.361 N 
ATOM     41  C   UNL     1     -14.026  -1.175   3.357  1.00  0.00     0.046 A 
ATOM     42  C   UNL     1     -14.604   0.597   1.843  1.00  0.00     0.010 A 
ATOM     43  H   UNL     1     -12.880  -2.567   4.425  1.00  0.00     0.166 HD
ATOM     44  C   UNL     1     -15.368  -1.479   3.603  1.00  0.00     0.026 A 
ATOM     45  C   UNL     1     -15.953   0.243   2.001  1.00  0.00     0.001 A 
ATOM     46  C   UNL     1     -16.328  -0.756   2.897  1.00  0.00     0.002 A 
ENDBRANCH  36  37
ENDBRANCH   5  36
ENDBRANCH   1   5
BRANCH   3  47
ATOM     47  C   UNL     1     -10.271   1.952   5.836  1.00  0.00     0.116 C 
BRANCH  47  48
ATOM     48  C   UNL     1     -11.787   1.780   5.942  1.00  0.00     0.023 C 
BRANCH  48  49
ATOM     49  C   UNL     1     -12.261   0.405   6.412  1.00  0.00     0.023 C 
BRANCH  49  50
ATOM     50  C   UNL     1     -11.974   0.078   7.869  1.00  0.00     0.116 C 
BRANCH  50  51
ATOM     51  N   UNL     1     -13.189  -0.126   8.656  1.00  0.00    -0.352 N 
ATOM     52  C   UNL     1     -13.317  -0.618   9.945  1.00  0.00     0.251 C 
ATOM     53  H   UNL     1     -14.031   0.119   8.210  1.00  0.00     0.163 HD
ATOM     54  O   UNL     1     -14.430  -0.838  10.421  1.00  0.00    -0.269 OA
BRANCH  52  55
ATOM     55  C   UNL     1     -12.094  -0.742  10.764  1.00  0.00     0.039 A 
ATOM     56  C   UNL     1     -11.976   0.138  11.845  1.00  0.00     0.014 A 
ATOM     57  C   UNL     1     -10.975  -1.355  10.211  1.00  0.00     0.014 A 
ATOM     58  C   UNL     1     -10.728   0.658  12.161  1.00  0.00     0.010 A 
ATOM     59  C   UNL     1      -9.753  -0.768  10.448  1.00  0.00     0.010 A 
ATOM     60  C   UNL     1      -9.652   0.294  11.361  1.00  0.00    -0.014 A 
BRANCH  60  61
ATOM     61  C   UNL     1      -8.362   0.960  11.366  1.00  0.00     0.031 A 
ATOM     62  C   UNL     1      -7.244   0.317  12.077  1.00  0.00     0.074 A 
ATOM     63  C   UNL     1      -8.158   2.006  10.535  1.00  0.00     0.049 A 
ATOM     64  N   UNL     1      -6.104   0.869  12.301  1.00  0.00    -0.248 NA
ATOM     65  C   UNL     1      -7.364  -1.021  12.641  1.00  0.00     0.031 C 
ATOM     66  C   UNL     1      -6.877   2.481  10.029  1.00  0.00     0.029 A 
ATOM     67  N   UNL     1      -9.072   2.989  10.137  1.00  0.00    -0.354 N 
ATOM     68  C   UNL     1      -5.256  -0.111  12.775  1.00  0.00     0.074 A 
ATOM     69  C   UNL     1      -6.114  -1.235  13.056  1.00  0.00     0.031 C 
ATOM     70  C   UNL     1      -7.013   3.755   9.636  1.00  0.00     0.029 A 
ATOM     71  C   UNL     1      -8.338   4.188  10.044  1.00  0.00     0.049 A 
ATOM     72  H   UNL     1     -10.033   2.868   9.958  1.00  0.00     0.167 HD
ATOM     73  C   UNL     1      -3.913   0.114  12.735  1.00  0.00     0.034 A 
ATOM     74  C   UNL     1      -8.604   5.307  10.778  1.00  0.00     0.034 A 
ATOM     75  C   UNL     1      -3.641   1.510  12.354  1.00  0.00     0.049 A 
ATOM     76  C   UNL     1      -7.443   5.732  11.664  1.00  0.00     0.074 A 
ATOM     77  C   UNL     1      -3.315   2.123  11.155  1.00  0.00     0.029 A 
ATOM     78  N   UNL     1      -3.994   2.528  13.230  1.00  0.00    -0.354 N 
ATOM     79  N   UNL     1      -6.338   5.050  11.796  1.00  0.00    -0.248 NA
ATOM     80  C   UNL     1      -7.441   6.936  12.494  1.00  0.00     0.031 C 
ATOM     81  C   UNL     1      -3.590   3.513  11.287  1.00  0.00     0.029 A 
ATOM     82  C   UNL     1      -4.043   3.749  12.575  1.00  0.00     0.049 A 
ATOM     83  H   UNL     1      -4.185   2.401  14.188  1.00  0.00     0.167 HD
ATOM     84  C   UNL     1      -5.567   5.592  12.791  1.00  0.00     0.074 A 
ATOM     85  C   UNL     1      -6.263   6.821  13.135  1.00  0.00     0.031 C 
ATOM     86  C   UNL     1      -4.468   4.948  13.294  1.00  0.00     0.034 A 
BRANCH  73  87
ATOM     87  C   UNL     1      -2.829  -0.957  12.762  1.00  0.00     0.023 A 
ATOM     88  C   UNL     1      -1.542  -0.579  12.312  1.00  0.00     0.012 A 
ATOM     89  C   UNL     1      -2.973  -2.322  13.107  1.00  0.00     0.148 A 
ATOM     90  C   UNL     1      -0.503  -1.500  12.127  1.00  0.00     0.002 A 
ATOM     91  C   UNL     1      -1.954  -3.253  12.881  1.00  0.00     0.091 A 
ATOM     92  F   UNL     1      -4.072  -2.745  13.726  1.00  0.00    -0.205 F 
ATOM     93  C   UNL     1      -0.717  -2.845  12.383  1.00  0.00     0.022 A 
BRANCH  91  94
ATOM     94  S   UNL     1      -2.184  -5.023  13.154  1.00  0.00     0.127 S 
ATOM     95  O   UNL     1      -1.784  -5.587  11.863  1.00  0.00    -0.237 OA
ATOM     96  O   UNL     1      -1.257  -5.294  14.250  1.00  0.00    -0.237 OA
ATOM     97  O   UNL     1      -3.595  -5.210  13.472  1.00  0.00    -0.744 OA
ENDBRANCH  91  94
ENDBRANCH  73  87
BRANCH  74  98
ATOM     98  C   UNL     1     -10.054   5.500  11.063  1.00  0.00     0.023 A 
ATOM     99  C   UNL     1     -10.875   5.788   9.946  1.00  0.00     0.012 A 
ATOM    100  C   UNL     1     -10.649   5.001  12.234  1.00  0.00     0.148 A 
ATOM    101  C   UNL     1     -12.229   5.455   9.944  1.00  0.00     0.002 A 
ATOM    102  C   UNL     1     -12.002   4.663  12.222  1.00  0.00     0.091 A 
ATOM    103  F   UNL     1      -9.868   4.765  13.296  1.00  0.00    -0.205 F 
ATOM    104  C   UNL     1     -12.782   4.856  11.069  1.00  0.00     0.022 A 
BRANCH 102 105
ATOM    105  S   UNL     1     -12.790   3.813  13.597  1.00  0.00     0.127 S 
ATOM    106  O   UNL     1     -13.545   4.896  14.219  1.00  0.00    -0.237 OA
ATOM    107  O   UNL     1     -13.604   2.812  12.909  1.00  0.00    -0.237 OA
ATOM    108  O   UNL     1     -11.695   3.261  14.379  1.00  0.00    -0.744 OA
ENDBRANCH 102 105
ENDBRANCH  74  98
BRANCH  86 109
ATOM    109  C   UNL     1      -3.709   5.350  14.546  1.00  0.00     0.023 A 
ATOM    110  C   UNL     1      -4.308   6.078  15.591  1.00  0.00     0.012 A 
ATOM    111  C   UNL     1      -2.406   4.840  14.789  1.00  0.00     0.148 A 
ATOM    112  C   UNL     1      -3.638   6.327  16.796  1.00  0.00     0.002 A 
ATOM    113  C   UNL     1      -1.794   4.989  16.031  1.00  0.00     0.091 A 
ATOM    114  F   UNL     1      -1.742   4.211  13.808  1.00  0.00    -0.205 F 
ATOM    115  C   UNL     1      -2.393   5.758  17.029  1.00  0.00     0.022 A 
BRANCH 113 116
ATOM    116  S   UNL     1      -0.317   4.045  16.438  1.00  0.00     0.127 S 
ATOM    117  O   UNL     1       0.751   4.940  16.000  1.00  0.00    -0.237 OA
ATOM    118  O   UNL     1      -0.426   3.891  17.890  1.00  0.00    -0.237 OA
ATOM    119  O   UNL     1      -0.463   2.799  15.696  1.00  0.00    -0.744 OA
ENDBRANCH 113 116
ENDBRANCH  86 109
ENDBRANCH  60  61
ENDBRANCH  52  55
ENDBRANCH  50  51
ENDBRANCH  49  50
ENDBRANCH  48  49
ENDBRANCH  47  48
ENDBRANCH   3  47
TORSDOF 23
