REMARK SMILES C[NH2+][C@@]1(C(=O)NCCCCNC(=O)c2ccc(-c3c4nc(c(-c5cccc(S(=O)(=O)[O-])c5F)c5ccc([nH]5)c(-c5cccc(S(=O)(=O)[O-])c5F)c5nc(c(-c6cccc(S(=O)(=O)[O-])c6F)c6ccc3[nH]6)C=C5)C=C4)cc2)CC[C@H]([NH+]2CC[NH+](C)CC2)C1
REMARK SMILES IDX 9 1 8 2 7 3 6 4 4 5 5 6 3 8 77 9 87 10 78 11 79 12 2 13 1 14
REMARK SMILES IDX 80 17 81 18 86 19 82 21 85 22 83 23 84 24 10 26 11 27 12 28
REMARK SMILES IDX 13 30 14 31 15 32 76 33 16 34 75 35 17 36 18 37 19 38 69 39
REMARK SMILES IDX 20 40 74 41 68 42 70 43 21 44 73 45 67 46 66 47 22 49 54 50
REMARK SMILES IDX 34 51 53 52 35 53 38 54 52 55 71 56 36 57 37 58 51 60 72 61
REMARK SMILES IDX 39 62 23 63 24 64 32 65 25 66 27 67 33 68 26 69 28 70 29 71
REMARK SMILES IDX 30 72 31 73 55 74 56 75 64 76 57 77 59 78 65 79 58 80 60 81
REMARK SMILES IDX 61 82 62 83 63 84 40 85 41 86 49 87 42 88 44 89 50 90 43 91
REMARK SMILES IDX 45 92 46 93 47 94 48 95
REMARK H PARENT 6 7 2 15 2 16 80 20 83 25 11 29 70 48 38 59
REMARK Flexibility Score: inf
ROOT
ATOM      1  C   UNL     1      -5.889  -3.043   1.984  1.00  0.00     0.023 C 
ENDROOT
BRANCH   1   2
ATOM      2  C   UNL     1      -5.088  -2.266   0.704  1.00  0.00     0.023 C 
BRANCH   2   3
ATOM      3  C   UNL     1      -3.656  -0.724   0.389  1.00  0.00     0.116 C 
BRANCH   3   4
ATOM      4  N   UNL     1      -2.212  -0.440   0.998  1.00  0.00    -0.351 N 
ATOM      5  C   UNL     1      -0.903  -0.682   0.737  1.00  0.00     0.281 C 
ATOM      6  O   UNL     1      -0.164  -0.401   1.692  1.00  0.00    -0.268 OA
ATOM      7  H   UNL     1      -2.296   0.077   1.831  1.00  0.00     0.163 HD
BRANCH   5   8
ATOM      8  C   UNL     1      -0.359  -1.267  -0.597  1.00  0.00     0.181 C 
ATOM      9  C   UNL     1      -0.964  -0.551  -1.813  1.00  0.00     0.085 C 
ATOM     10  C   UNL     1      -0.762  -2.746  -0.766  1.00  0.00     0.144 C 
ATOM     11  C   UNL     1      -1.852  -1.587  -2.493  1.00  0.00     0.072 C 
ATOM     12  C   UNL     1      -2.121  -2.709  -1.459  1.00  0.00     0.191 C 
BRANCH   8  13
ATOM     13  N   UNL     1       1.136  -1.208  -0.631  1.00  0.00    -0.336 N 
ATOM     14  C   UNL     1       1.711   0.128  -0.500  1.00  0.00     0.331 C 
ATOM     15  H   UNL     1       1.492  -1.781   0.134  1.00  0.00     0.346 HD
ATOM     16  H   UNL     1       1.410  -1.544  -1.555  1.00  0.00     0.346 HD
ENDBRANCH   8  13
BRANCH  12  17
ATOM     17  N   UNL     1      -3.286  -2.571  -0.588  1.00  0.00    -0.323 N 
ATOM     18  C   UNL     1      -4.711  -1.677  -1.334  1.00  0.00     0.324 C 
ATOM     19  C   UNL     1      -3.110  -2.594   1.276  1.00  0.00     0.324 C 
ATOM     20  H   UNL     1      -3.587  -3.546  -0.571  1.00  0.00     0.348 HD
ATOM     21  C   UNL     1      -5.683  -0.353  -0.280  1.00  0.00     0.324 C 
ATOM     22  C   UNL     1      -4.141  -1.278   2.350  1.00  0.00     0.324 C 
ATOM     23  N   UNL     1      -5.529  -0.348   1.550  1.00  0.00    -0.328 N 
ATOM     24  C   UNL     1      -5.702   0.997   2.090  1.00  0.00     0.333 C 
ATOM     25  H   UNL     1      -6.309  -0.944   1.827  1.00  0.00     0.348 HD
ENDBRANCH  12  17
ENDBRANCH   5   8
ENDBRANCH   3   4
ENDBRANCH   2   3
ENDBRANCH   1   2
BRANCH   1  26
ATOM     26  C   UNL     1      -7.107  -2.379   2.647  1.00  0.00     0.116 C 
BRANCH  26  27
ATOM     27  N   UNL     1      -8.110  -1.907   1.697  1.00  0.00    -0.352 N 
ATOM     28  C   UNL     1      -9.304  -1.293   1.960  1.00  0.00     0.251 C 
ATOM     29  H   UNL     1      -7.900  -2.047   0.746  1.00  0.00     0.163 HD
ATOM     30  O   UNL     1     -10.044  -0.912   1.061  1.00  0.00    -0.269 OA
BRANCH  28  31
ATOM     31  C   UNL     1      -9.701  -1.165   3.368  1.00  0.00     0.039 A 
ATOM     32  C   UNL     1     -10.791  -1.909   3.818  1.00  0.00     0.014 A 
ATOM     33  C   UNL     1      -8.918  -0.413   4.245  1.00  0.00     0.014 A 
ATOM     34  C   UNL     1     -11.068  -1.941   5.180  1.00  0.00     0.010 A 
ATOM     35  C   UNL     1      -9.150  -0.508   5.608  1.00  0.00     0.010 A 
ATOM     36  C   UNL     1     -10.230  -1.266   6.083  1.00  0.00    -0.014 A 
BRANCH  36  37
ATOM     37  C   UNL     1     -10.480  -1.344   7.538  1.00  0.00     0.031 A 
ATOM     38  C   UNL     1     -10.876  -0.106   8.287  1.00  0.00     0.074 A 
ATOM     39  C   UNL     1     -10.282  -2.512   8.178  1.00  0.00     0.049 A 
ATOM     40  N   UNL     1     -11.144   0.034   9.557  1.00  0.00    -0.248 NA
ATOM     41  C   UNL     1     -10.949   1.147   7.516  1.00  0.00     0.031 C 
ATOM     42  C   UNL     1      -9.796  -3.746   7.553  1.00  0.00     0.029 A 
ATOM     43  N   UNL     1     -10.445  -2.850   9.495  1.00  0.00    -0.354 N 
ATOM     44  C   UNL     1     -11.381   1.390   9.744  1.00  0.00     0.074 A 
ATOM     45  C   UNL     1     -11.184   2.038   8.468  1.00  0.00     0.031 C 
ATOM     46  C   UNL     1      -9.713  -4.709   8.486  1.00  0.00     0.029 A 
ATOM     47  C   UNL     1     -10.124  -4.158   9.773  1.00  0.00     0.049 A 
ATOM     48  H   UNL     1     -10.762  -2.216  10.179  1.00  0.00     0.167 HD
ATOM     49  C   UNL     1     -11.765   2.030  10.872  1.00  0.00     0.034 A 
ATOM     50  C   UNL     1     -10.168  -4.834  10.938  1.00  0.00     0.034 A 
ATOM     51  C   UNL     1     -12.008   1.357  12.117  1.00  0.00     0.049 A 
ATOM     52  C   UNL     1     -10.682  -4.119  12.158  1.00  0.00     0.074 A 
ATOM     53  C   UNL     1     -12.496   1.882  13.299  1.00  0.00     0.029 A 
ATOM     54  N   UNL     1     -11.776   0.008  12.340  1.00  0.00    -0.354 N 
ATOM     55  N   UNL     1     -11.075  -2.873  12.278  1.00  0.00    -0.248 NA
ATOM     56  C   UNL     1     -10.803  -4.908  13.391  1.00  0.00     0.031 C 
ATOM     57  C   UNL     1     -12.543   0.851  14.243  1.00  0.00     0.029 A 
ATOM     58  C   UNL     1     -12.106  -0.320  13.642  1.00  0.00     0.049 A 
ATOM     59  H   UNL     1     -11.428  -0.623  11.669  1.00  0.00     0.167 HD
ATOM     60  C   UNL     1     -11.518  -2.736  13.587  1.00  0.00     0.074 A 
ATOM     61  C   UNL     1     -11.367  -4.034  14.214  1.00  0.00     0.031 C 
ATOM     62  C   UNL     1     -11.992  -1.634  14.221  1.00  0.00     0.034 A 
BRANCH  49  63
ATOM     63  C   UNL     1     -11.999   3.514  10.787  1.00  0.00     0.023 A 
ATOM     64  C   UNL     1     -13.112   4.004  10.072  1.00  0.00     0.012 A 
ATOM     65  C   UNL     1     -11.143   4.423  11.439  1.00  0.00     0.148 A 
ATOM     66  C   UNL     1     -13.348   5.374   9.973  1.00  0.00     0.002 A 
ATOM     67  C   UNL     1     -11.411   5.785  11.374  1.00  0.00     0.091 A 
ATOM     68  F   UNL     1     -10.077   3.941  12.093  1.00  0.00    -0.205 F 
ATOM     69  C   UNL     1     -12.504   6.263  10.632  1.00  0.00     0.022 A 
BRANCH  67  70
ATOM     70  S   UNL     1     -10.429   7.009  12.248  1.00  0.00     0.127 S 
ATOM     71  O   UNL     1      -9.751   7.687  11.144  1.00  0.00    -0.237 OA
ATOM     72  O   UNL     1     -11.458   7.809  12.915  1.00  0.00    -0.237 OA
ATOM     73  O   UNL     1      -9.563   6.262  13.149  1.00  0.00    -0.744 OA
ENDBRANCH  67  70
ENDBRANCH  49  63
BRANCH  50  74
ATOM     74  C   UNL     1      -9.803  -6.278  10.976  1.00  0.00     0.023 A 
ATOM     75  C   UNL     1     -10.812  -7.244  11.159  1.00  0.00     0.012 A 
ATOM     76  C   UNL     1      -8.474  -6.703  10.785  1.00  0.00     0.148 A 
ATOM     77  C   UNL     1     -10.500  -8.604  11.182  1.00  0.00     0.002 A 
ATOM     78  C   UNL     1      -8.178  -8.062  10.757  1.00  0.00     0.091 A 
ATOM     79  F   UNL     1      -7.526  -5.770  10.621  1.00  0.00    -0.205 F 
ATOM     80  C   UNL     1      -9.187  -9.014  10.971  1.00  0.00     0.022 A 
BRANCH  78  81
ATOM     81  S   UNL     1      -6.539  -8.682  10.360  1.00  0.00     0.127 S 
ATOM     82  O   UNL     1      -6.081  -9.170  11.658  1.00  0.00    -0.237 OA
ATOM     83  O   UNL     1      -6.839  -9.726   9.379  1.00  0.00    -0.237 OA
ATOM     84  O   UNL     1      -5.811  -7.543   9.816  1.00  0.00    -0.744 OA
ENDBRANCH  78  81
ENDBRANCH  50  74
BRANCH  62  85
ATOM     85  C   UNL     1     -12.405  -1.786  15.659  1.00  0.00     0.023 A 
ATOM     86  C   UNL     1     -11.421  -1.918  16.658  1.00  0.00     0.012 A 
ATOM     87  C   UNL     1     -13.762  -1.704  16.027  1.00  0.00     0.148 A 
ATOM     88  C   UNL     1     -11.783  -1.995  18.001  1.00  0.00     0.002 A 
ATOM     89  C   UNL     1     -14.112  -1.731  17.370  1.00  0.00     0.091 A 
ATOM     90  F   UNL     1     -14.683  -1.598  15.057  1.00  0.00    -0.205 F 
ATOM     91  C   UNL     1     -13.126  -1.888  18.358  1.00  0.00     0.022 A 
BRANCH  89  92
ATOM     92  S   UNL     1     -15.804  -1.496  17.924  1.00  0.00     0.127 S 
ATOM     93  O   UNL     1     -16.175  -2.850  18.331  1.00  0.00    -0.237 OA
ATOM     94  O   UNL     1     -15.641  -0.550  19.029  1.00  0.00    -0.237 OA
ATOM     95  O   UNL     1     -16.530  -0.964  16.779  1.00  0.00    -0.744 OA
ENDBRANCH  89  92
ENDBRANCH  62  85
ENDBRANCH  36  37
ENDBRANCH  28  31
ENDBRANCH  26  27
ENDBRANCH   1  26
TORSDOF 16
