REMARK SMILES O=C(NCCCCNC(=O)c1nnn(-c2ccc(C(F)(F)F)cc2)c1-c1cccc(Cl)c1)c1ccc(-c2c3nc(c(-c4cccc(S(=O)(=O)[O-])c4F)c4ccc([nH]4)c(-c4cccc(S(=O)(=O)[O-])c4F)c4nc(c(-c5cccc(S(=O)(=O)[O-])c5F)c5ccc2[nH]5)C=C4)C=C3)cc1
REMARK SMILES IDX 5 1 4 2 3 3 1 4 2 5 33 7 34 8 95 9 35 10 94 11 36 12 37 13
REMARK SMILES IDX 38 14 88 15 39 16 93 17 87 18 89 19 40 20 92 21 86 22 85 23
REMARK SMILES IDX 41 25 73 26 53 27 72 28 54 29 57 30 71 31 90 32 55 33 56 34
REMARK SMILES IDX 70 36 91 37 58 38 42 39 43 40 51 41 44 42 46 43 52 44 45 45
REMARK SMILES IDX 47 46 48 47 49 48 50 49 74 50 75 51 83 52 76 53 78 54 84 55
REMARK SMILES IDX 77 56 79 57 80 58 81 59 82 60 59 61 60 62 68 63 61 64 63 65
REMARK SMILES IDX 69 66 62 67 64 68 65 69 66 70 67 71 6 72 7 73 8 74 9 75
REMARK SMILES IDX 10 77 11 78 12 79 25 80 13 81 14 82 26 83 27 84 32 85 28 86
REMARK SMILES IDX 30 87 29 88 31 89 15 90 16 91 24 92 17 93 23 94 18 95 19 96
REMARK SMILES IDX 20 97 21 98 22 99
REMARK H PARENT 3 6 89 24 57 35 8 76
REMARK Flexibility Score: inf
ROOT
ATOM      1  C   UNL     1       5.070  -0.153  -2.103  1.00  0.00     0.023 C 
ENDROOT
BRANCH   1   2
ATOM      2  C   UNL     1       4.787   0.754  -0.899  1.00  0.00     0.116 C 
BRANCH   2   3
ATOM      3  N   UNL     1       3.397   1.105  -0.688  1.00  0.00    -0.352 N 
ATOM      4  O   UNL     1       1.325   1.166   0.074  1.00  0.00    -0.269 OA
ATOM      5  C   UNL     1       2.329   0.472  -0.108  1.00  0.00     0.251 C 
ATOM      6  H   UNL     1       3.170   1.996  -1.038  1.00  0.00     0.163 HD
BRANCH   5   7
ATOM      7  C   UNL     1       2.285  -0.978   0.229  1.00  0.00     0.039 A 
ATOM      8  C   UNL     1       3.392  -1.826   0.261  1.00  0.00     0.014 A 
ATOM      9  C   UNL     1       1.015  -1.525   0.486  1.00  0.00     0.014 A 
ATOM     10  C   UNL     1       3.233  -3.199   0.395  1.00  0.00     0.010 A 
ATOM     11  C   UNL     1       0.853  -2.894   0.673  1.00  0.00     0.010 A 
ATOM     12  C   UNL     1       1.960  -3.735   0.573  1.00  0.00    -0.014 A 
BRANCH  12  13
ATOM     13  C   UNL     1       1.857  -5.180   0.763  1.00  0.00     0.031 A 
ATOM     14  C   UNL     1       2.484  -5.719   2.009  1.00  0.00     0.074 A 
ATOM     15  C   UNL     1       1.105  -5.955  -0.045  1.00  0.00     0.049 A 
ATOM     16  N   UNL     1       3.315  -6.705   2.143  1.00  0.00    -0.248 NA
ATOM     17  C   UNL     1       2.196  -5.006   3.264  1.00  0.00     0.031 C 
ATOM     18  C   UNL     1       0.202  -5.503  -1.107  1.00  0.00     0.029 A 
ATOM     19  N   UNL     1       0.856  -7.295   0.033  1.00  0.00    -0.354 N 
ATOM     20  C   UNL     1       3.488  -6.867   3.521  1.00  0.00     0.074 A 
ATOM     21  C   UNL     1       2.895  -5.716   4.147  1.00  0.00     0.031 C 
ATOM     22  C   UNL     1      -0.685  -6.485  -1.373  1.00  0.00     0.029 A 
ATOM     23  C   UNL     1      -0.331  -7.658  -0.594  1.00  0.00     0.049 A 
ATOM     24  H   UNL     1       1.452  -7.936   0.484  1.00  0.00     0.167 HD
ATOM     25  C   UNL     1       3.915  -8.035   4.073  1.00  0.00     0.034 A 
ATOM     26  C   UNL     1      -1.040  -8.794  -0.396  1.00  0.00     0.034 A 
ATOM     27  C   UNL     1       4.599  -8.870   3.125  1.00  0.00     0.049 A 
ATOM     28  C   UNL     1      -0.148  -9.790   0.235  1.00  0.00     0.074 A 
ATOM     29  C   UNL     1       5.723  -8.750   2.334  1.00  0.00     0.029 A 
ATOM     30  N   UNL     1       3.939  -9.983   2.670  1.00  0.00    -0.354 N 
ATOM     31  N   UNL     1       0.870 -10.343  -0.361  1.00  0.00    -0.248 NA
ATOM     32  C   UNL     1      -0.174  -9.919   1.683  1.00  0.00     0.031 C 
ATOM     33  C   UNL     1       5.433  -9.509   1.163  1.00  0.00     0.029 A 
ATOM     34  C   UNL     1       4.157 -10.053   1.323  1.00  0.00     0.049 A 
ATOM     35  H   UNL     1       3.410 -10.612   3.211  1.00  0.00     0.167 HD
ATOM     36  C   UNL     1       1.813 -10.510   0.643  1.00  0.00     0.074 A 
ATOM     37  C   UNL     1       1.069 -10.359   1.889  1.00  0.00     0.031 C 
ATOM     38  C   UNL     1       3.151 -10.464   0.369  1.00  0.00     0.034 A 
BRANCH  25  39
ATOM     39  C   UNL     1       3.418  -8.592   5.394  1.00  0.00     0.023 A 
ATOM     40  C   UNL     1       4.051  -9.757   5.890  1.00  0.00     0.012 A 
ATOM     41  C   UNL     1       2.200  -8.221   6.007  1.00  0.00     0.148 A 
ATOM     42  C   UNL     1       3.466 -10.546   6.888  1.00  0.00     0.002 A 
ATOM     43  C   UNL     1       1.664  -8.966   7.053  1.00  0.00     0.091 A 
ATOM     44  F   UNL     1       1.469  -7.221   5.505  1.00  0.00    -0.205 F 
ATOM     45  C   UNL     1       2.273 -10.148   7.474  1.00  0.00     0.022 A 
BRANCH  43  46
ATOM     46  S   UNL     1       0.152  -8.448   7.875  1.00  0.00     0.127 S 
ATOM     47  O   UNL     1      -0.847  -9.258   7.186  1.00  0.00    -0.237 OA
ATOM     48  O   UNL     1       0.411  -8.831   9.264  1.00  0.00    -0.237 OA
ATOM     49  O   UNL     1       0.083  -7.007   7.662  1.00  0.00    -0.744 OA
ENDBRANCH  43  46
ENDBRANCH  25  39
BRANCH  26  50
ATOM     50  C   UNL     1      -2.505  -8.984  -0.472  1.00  0.00     0.023 A 
ATOM     51  C   UNL     1      -3.034 -10.267  -0.707  1.00  0.00     0.012 A 
ATOM     52  C   UNL     1      -3.394  -7.957  -0.079  1.00  0.00     0.148 A 
ATOM     53  C   UNL     1      -4.402 -10.521  -0.547  1.00  0.00     0.002 A 
ATOM     54  C   UNL     1      -4.755  -8.208   0.057  1.00  0.00     0.091 A 
ATOM     55  F   UNL     1      -2.893  -6.758   0.248  1.00  0.00    -0.205 F 
ATOM     56  C   UNL     1      -5.261  -9.493  -0.165  1.00  0.00     0.022 A 
BRANCH  54  57
ATOM     57  S   UNL     1      -5.917  -6.923   0.537  1.00  0.00     0.127 S 
ATOM     58  O   UNL     1      -7.009  -7.129  -0.415  1.00  0.00    -0.237 OA
ATOM     59  O   UNL     1      -6.228  -7.294   1.915  1.00  0.00    -0.237 OA
ATOM     60  O   UNL     1      -5.206  -5.662   0.362  1.00  0.00    -0.744 OA
ENDBRANCH  54  57
ENDBRANCH  26  50
BRANCH  38  61
ATOM     61  C   UNL     1       3.589 -10.507  -1.074  1.00  0.00     0.023 A 
ATOM     62  C   UNL     1       3.228  -9.491  -1.984  1.00  0.00     0.012 A 
ATOM     63  C   UNL     1       4.535 -11.469  -1.469  1.00  0.00     0.148 A 
ATOM     64  C   UNL     1       3.777  -9.450  -3.267  1.00  0.00     0.002 A 
ATOM     65  C   UNL     1       5.114 -11.396  -2.731  1.00  0.00     0.091 A 
ATOM     66  F   UNL     1       4.879 -12.421  -0.589  1.00  0.00    -0.205 F 
ATOM     67  C   UNL     1       4.730 -10.394  -3.636  1.00  0.00     0.022 A 
BRANCH  65  68
ATOM     68  S   UNL     1       6.450 -12.492  -3.219  1.00  0.00     0.127 S 
ATOM     69  O   UNL     1       5.770 -13.422  -4.118  1.00  0.00    -0.237 OA
ATOM     70  O   UNL     1       7.384 -11.577  -3.878  1.00  0.00    -0.237 OA
ATOM     71  O   UNL     1       6.962 -13.072  -1.983  1.00  0.00    -0.744 OA
ENDBRANCH  65  68
ENDBRANCH  38  61
ENDBRANCH  12  13
ENDBRANCH   5   7
ENDBRANCH   2   3
ENDBRANCH   1   2
BRANCH   1  72
ATOM     72  C   UNL     1       4.553   0.340  -3.454  1.00  0.00     0.023 C 
BRANCH  72  73
ATOM     73  C   UNL     1       4.925   1.769  -3.806  1.00  0.00     0.116 C 
BRANCH  73  74
ATOM     74  N   UNL     1       6.350   1.985  -3.958  1.00  0.00    -0.351 N 
ATOM     75  C   UNL     1       6.992   2.871  -4.801  1.00  0.00     0.274 C 
ATOM     76  H   UNL     1       6.933   1.431  -3.391  1.00  0.00     0.163 HD
ATOM     77  O   UNL     1       8.214   2.899  -4.814  1.00  0.00    -0.267 OA
BRANCH  75  78
ATOM     78  C   UNL     1       6.189   3.746  -5.646  1.00  0.00     0.178 A 
ATOM     79  N   UNL     1       6.266   3.694  -7.017  1.00  0.00    -0.124 NA
ATOM     80  C   UNL     1       5.230   4.680  -5.276  1.00  0.00     0.108 A 
ATOM     81  N   UNL     1       5.337   4.496  -7.518  1.00  0.00    -0.061 NA
ATOM     82  N   UNL     1       4.785   5.181  -6.494  1.00  0.00    -0.212 N 
BRANCH  80  83
ATOM     83  C   UNL     1       4.619   4.978  -3.980  1.00  0.00     0.004 A 
ATOM     84  C   UNL     1       3.242   4.748  -3.792  1.00  0.00     0.010 A 
ATOM     85  C   UNL     1       5.383   5.447  -2.909  1.00  0.00     0.031 A 
ATOM     86  C   UNL     1       2.638   4.987  -2.559  1.00  0.00     0.002 A 
ATOM     87  C   UNL     1       4.769   5.692  -1.679  1.00  0.00     0.041 A 
ATOM     88  C   UNL     1       3.404   5.463  -1.500  1.00  0.00     0.020 A 
ATOM     89  Cl  UNL     1       5.708   6.284  -0.364  1.00  0.00    -0.084 Cl
ENDBRANCH  80  83
BRANCH  82  90
ATOM     90  C   UNL     1       3.812   6.185  -6.704  1.00  0.00     0.067 A 
ATOM     91  C   UNL     1       2.806   5.982  -7.652  1.00  0.00     0.029 A 
ATOM     92  C   UNL     1       3.786   7.308  -5.867  1.00  0.00     0.029 A 
ATOM     93  C   UNL     1       1.710   6.848  -7.673  1.00  0.00     0.015 A 
ATOM     94  C   UNL     1       2.705   8.184  -5.914  1.00  0.00     0.015 A 
ATOM     95  C   UNL     1       1.637   7.942  -6.790  1.00  0.00     0.056 A 
BRANCH  95  96
ATOM     96  C   UNL     1       0.406   8.814  -6.756  1.00  0.00     0.416 C 
ATOM     97  F   UNL     1       0.122   9.368  -7.966  1.00  0.00    -0.166 F 
ATOM     98  F   UNL     1      -0.707   8.124  -6.385  1.00  0.00    -0.166 F 
ATOM     99  F   UNL     1       0.504   9.857  -5.883  1.00  0.00    -0.166 F 
ENDBRANCH  95  96
ENDBRANCH  82  90
ENDBRANCH  75  78
ENDBRANCH  73  74
ENDBRANCH  72  73
ENDBRANCH   1  72
TORSDOF 17
