REMARK SMILES C[C@@H](C(=O)NCCCCNC(=O)c1ccc(-c2c3nc(c(-c4cccc(S(=O)(=O)[O-])c4F)c4ccc([nH]4)c(-c4cccc(S(=O)(=O)[O-])c4F)c4nc(c(-c5cccc(S(=O)(=O)[O-])c5F)c5ccc2[nH]5)C=C4)C=C3)cc1)c1cccn(C(F)F)c1=O
REMARK SMILES IDX 8 1 7 2 6 3 5 4 3 5 4 6 2 8 1 9 76 10 77 11 84 12 78 13
REMARK SMILES IDX 80 14 85 15 79 16 81 17 82 18 83 19 9 20 10 21 11 22 12 24
REMARK SMILES IDX 13 25 14 26 75 27 15 28 74 29 16 30 17 31 18 32 68 33 19 34
REMARK SMILES IDX 73 35 67 36 69 37 20 38 72 39 66 40 65 41 21 43 53 44 33 45
REMARK SMILES IDX 52 46 34 47 37 48 51 49 70 50 35 51 36 52 50 54 71 55 38 56
REMARK SMILES IDX 22 57 23 58 31 59 24 60 26 61 32 62 25 63 27 64 28 65 29 66
REMARK SMILES IDX 30 67 54 68 55 69 63 70 56 71 58 72 64 73 57 74 59 75 60 76
REMARK SMILES IDX 61 77 62 78 39 79 40 80 48 81 41 82 43 83 49 84 42 85 44 86
REMARK SMILES IDX 45 87 46 88 47 89
REMARK H PARENT 5 7 10 23 69 42 37 53
REMARK Flexibility Score: inf
ROOT
ATOM      1  C   UNL     1       5.102  -1.772  -1.760  1.00  0.00     0.023 C 
ENDROOT
BRANCH   1   2
ATOM      2  C   UNL     1       4.306  -0.694  -1.019  1.00  0.00     0.023 C 
BRANCH   2   3
ATOM      3  C   UNL     1       3.465   0.222  -1.910  1.00  0.00     0.116 C 
BRANCH   3   4
ATOM      4  N   UNL     1       2.405  -0.503  -2.582  1.00  0.00    -0.356 N 
ATOM      5  C   UNL     1       1.060  -0.522  -2.353  1.00  0.00     0.227 C 
ATOM      6  O   UNL     1       0.381  -1.219  -3.111  1.00  0.00    -0.274 OA
ATOM      7  H   UNL     1       2.705  -1.075  -3.325  1.00  0.00     0.163 HD
BRANCH   5   8
ATOM      8  C   UNL     1       0.448   0.322  -1.217  1.00  0.00     0.111 C 
ATOM      9  C   UNL     1       0.872  -0.157   0.173  1.00  0.00     0.023 C 
BRANCH   8  10
ATOM     10  C   UNL     1      -1.071   0.336  -1.287  1.00  0.00     0.030 A 
ATOM     11  C   UNL     1      -1.842  -0.768  -1.228  1.00  0.00     0.012 A 
ATOM     12  C   UNL     1      -1.753   1.674  -1.367  1.00  0.00     0.258 A 
ATOM     13  C   UNL     1      -3.278  -0.695  -1.262  1.00  0.00     0.019 A 
ATOM     14  N   UNL     1      -3.139   1.659  -1.389  1.00  0.00    -0.258 N 
ATOM     15  O   UNL     1      -1.091   2.710  -1.386  1.00  0.00    -0.269 OA
ATOM     16  C   UNL     1      -3.880   0.495  -1.337  1.00  0.00     0.095 A 
BRANCH  14  17
ATOM     17  C   UNL     1      -3.820   2.926  -1.440  1.00  0.00     0.451 C 
ATOM     18  F   UNL     1      -4.731   2.923  -2.452  1.00  0.00    -0.185 F 
ATOM     19  F   UNL     1      -4.535   3.102  -0.295  1.00  0.00    -0.185 F 
ENDBRANCH  14  17
ENDBRANCH   8  10
ENDBRANCH   5   8
ENDBRANCH   3   4
ENDBRANCH   2   3
ENDBRANCH   1   2
BRANCH   1  20
ATOM     20  C   UNL     1       6.074  -1.267  -2.822  1.00  0.00     0.116 C 
BRANCH  20  21
ATOM     21  N   UNL     1       7.072  -0.346  -2.292  1.00  0.00    -0.352 N 
ATOM     22  C   UNL     1       8.432  -0.331  -2.495  1.00  0.00     0.251 C 
ATOM     23  H   UNL     1       6.723   0.364  -1.706  1.00  0.00     0.163 HD
ATOM     24  O   UNL     1       9.138   0.456  -1.870  1.00  0.00    -0.269 OA
BRANCH  22  25
ATOM     25  C   UNL     1       9.044  -1.291  -3.438  1.00  0.00     0.039 A 
ATOM     26  C   UNL     1      10.127  -2.064  -3.007  1.00  0.00     0.014 A 
ATOM     27  C   UNL     1       8.525  -1.460  -4.724  1.00  0.00     0.014 A 
ATOM     28  C   UNL     1      10.626  -3.075  -3.832  1.00  0.00     0.010 A 
ATOM     29  C   UNL     1       8.987  -2.504  -5.521  1.00  0.00     0.010 A 
ATOM     30  C   UNL     1      10.026  -3.336  -5.074  1.00  0.00    -0.014 A 
BRANCH  30  31
ATOM     31  C   UNL     1      10.400  -4.525  -5.884  1.00  0.00     0.031 A 
ATOM     32  C   UNL     1      11.001  -4.363  -7.252  1.00  0.00     0.074 A 
ATOM     33  C   UNL     1      10.063  -5.752  -5.436  1.00  0.00     0.049 A 
ATOM     34  N   UNL     1      11.281  -5.281  -8.140  1.00  0.00    -0.248 NA
ATOM     35  C   UNL     1      11.306  -2.991  -7.691  1.00  0.00     0.031 C 
ATOM     36  C   UNL     1       9.394  -6.034  -4.163  1.00  0.00     0.029 A 
ATOM     37  N   UNL     1      10.191  -6.989  -6.021  1.00  0.00    -0.354 N 
ATOM     38  C   UNL     1      11.752  -4.601  -9.256  1.00  0.00     0.074 A 
ATOM     39  C   UNL     1      11.713  -3.190  -8.938  1.00  0.00     0.031 C 
ATOM     40  C   UNL     1       9.149  -7.351  -4.075  1.00  0.00     0.029 A 
ATOM     41  C   UNL     1       9.614  -8.005  -5.294  1.00  0.00     0.049 A 
ATOM     42  H   UNL     1      10.651  -7.134  -6.880  1.00  0.00     0.167 HD
ATOM     43  C   UNL     1      12.195  -5.109 -10.430  1.00  0.00     0.034 A 
ATOM     44  C   UNL     1       9.453  -9.312  -5.583  1.00  0.00     0.034 A 
ATOM     45  C   UNL     1      12.287  -6.515 -10.720  1.00  0.00     0.049 A 
ATOM     46  C   UNL     1       9.991  -9.848  -6.881  1.00  0.00     0.074 A 
ATOM     47  C   UNL     1      12.857  -7.126 -11.824  1.00  0.00     0.029 A 
ATOM     48  N   UNL     1      11.784  -7.525  -9.918  1.00  0.00    -0.354 N 
ATOM     49  N   UNL     1      10.627  -9.213  -7.834  1.00  0.00    -0.248 NA
ATOM     50  C   UNL     1       9.815 -11.287  -7.133  1.00  0.00     0.031 C 
ATOM     51  C   UNL     1      12.675  -8.507 -11.701  1.00  0.00     0.029 A 
ATOM     52  C   UNL     1      12.004  -8.755 -10.515  1.00  0.00     0.049 A 
ATOM     53  H   UNL     1      11.335  -7.389  -9.053  1.00  0.00     0.167 HD
ATOM     54  C   UNL     1      10.946 -10.174  -8.786  1.00  0.00     0.074 A 
ATOM     55  C   UNL     1      10.462 -11.441  -8.280  1.00  0.00     0.031 C 
ATOM     56  C   UNL     1      11.564 -10.017  -9.982  1.00  0.00     0.034 A 
BRANCH  43  57
ATOM     57  C   UNL     1      12.679  -4.150 -11.482  1.00  0.00     0.023 A 
ATOM     58  C   UNL     1      13.941  -3.542 -11.335  1.00  0.00     0.012 A 
ATOM     59  C   UNL     1      11.940  -3.941 -12.664  1.00  0.00     0.148 A 
ATOM     60  C   UNL     1      14.457  -2.728 -12.343  1.00  0.00     0.002 A 
ATOM     61  C   UNL     1      12.476  -3.157 -13.678  1.00  0.00     0.091 A 
ATOM     62  F   UNL     1      10.734  -4.516 -12.773  1.00  0.00    -0.205 F 
ATOM     63  C   UNL     1      13.731  -2.546 -13.517  1.00  0.00     0.022 A 
BRANCH  61  64
ATOM     64  S   UNL     1      11.656  -2.917 -15.259  1.00  0.00     0.127 S 
ATOM     65  O   UNL     1      11.310  -1.497 -15.197  1.00  0.00    -0.237 OA
ATOM     66  O   UNL     1      12.719  -3.245 -16.209  1.00  0.00    -0.237 OA
ATOM     67  O   UNL     1      10.524  -3.832 -15.269  1.00  0.00    -0.744 OA
ENDBRANCH  61  64
ENDBRANCH  43  57
BRANCH  44  68
ATOM     68  C   UNL     1       8.780 -10.216  -4.607  1.00  0.00     0.023 A 
ATOM     69  C   UNL     1       9.537 -11.193  -3.934  1.00  0.00     0.012 A 
ATOM     70  C   UNL     1       7.403 -10.106  -4.333  1.00  0.00     0.148 A 
ATOM     71  C   UNL     1       8.929 -12.067  -3.032  1.00  0.00     0.002 A 
ATOM     72  C   UNL     1       6.815 -10.942  -3.390  1.00  0.00     0.091 A 
ATOM     73  F   UNL     1       6.691  -9.184  -4.997  1.00  0.00    -0.205 F 
ATOM     74  C   UNL     1       7.572 -11.935  -2.751  1.00  0.00     0.022 A 
BRANCH  72  75
ATOM     75  S   UNL     1       5.106 -10.732  -2.878  1.00  0.00     0.127 S 
ATOM     76  O   UNL     1       4.426 -11.751  -3.673  1.00  0.00    -0.237 OA
ATOM     77  O   UNL     1       5.173 -11.014  -1.443  1.00  0.00    -0.237 OA
ATOM     78  O   UNL     1       4.783  -9.347  -3.194  1.00  0.00    -0.744 OA
ENDBRANCH  72  75
ENDBRANCH  44  68
BRANCH  56  79
ATOM     79  C   UNL     1      11.763 -11.243 -10.833  1.00  0.00     0.023 A 
ATOM     80  C   UNL     1      10.660 -11.804 -11.505  1.00  0.00     0.012 A 
ATOM     81  C   UNL     1      13.047 -11.786 -11.034  1.00  0.00     0.148 A 
ATOM     82  C   UNL     1      10.826 -12.903 -12.346  1.00  0.00     0.002 A 
ATOM     83  C   UNL     1      13.213 -12.854 -11.909  1.00  0.00     0.091 A 
ATOM     84  F   UNL     1      14.081 -11.248 -10.371  1.00  0.00    -0.205 F 
ATOM     85  C   UNL     1      12.102 -13.420 -12.557  1.00  0.00     0.022 A 
BRANCH  83  86
ATOM     86  S   UNL     1      14.828 -13.528 -12.313  1.00  0.00     0.127 S 
ATOM     87  O   UNL     1      14.798 -14.813 -11.617  1.00  0.00    -0.237 OA
ATOM     88  O   UNL     1      14.770 -13.623 -13.772  1.00  0.00    -0.237 OA
ATOM     89  O   UNL     1      15.801 -12.567 -11.810  1.00  0.00    -0.744 OA
ENDBRANCH  83  86
ENDBRANCH  56  79
ENDBRANCH  30  31
ENDBRANCH  22  25
ENDBRANCH  20  21
ENDBRANCH   1  20
TORSDOF 16
