REMARK SMILES O=C(CCS(=O)(=O)Nc1ccc(-c2ccccc2)cc1)NCCCCNC(=O)c1ccc(-c2c3nc(c(-c4cccc(S(=O)(=O)[O-])c4F)c4ccc([nH]4)c(-c4cccc(S(=O)(=O)[O-])c4F)c4nc(c(-c5cccc(S(=O)(=O)[O-])c5F)c5ccc2[nH]5)C=C4)C=C3)cc1
REMARK SMILES IDX 22 1 21 2 1 3 2 4 3 6 4 7 5 8 6 9 7 10 8 11 9 13 10 14 20 15
REMARK SMILES IDX 11 16 19 17 12 18 13 19 14 20 18 21 15 22 17 23 16 24 23 25
REMARK SMILES IDX 24 26 25 27 26 28 27 29 28 31 29 32 30 33 91 34 31 35 90 36
REMARK SMILES IDX 32 37 33 38 34 39 84 40 35 41 89 42 83 43 85 44 36 45 88 46
REMARK SMILES IDX 82 47 81 48 37 50 69 51 49 52 68 53 50 54 53 55 67 56 86 57
REMARK SMILES IDX 51 58 52 59 66 61 87 62 54 63 38 64 39 65 47 66 40 67 42 68
REMARK SMILES IDX 48 69 41 70 43 71 44 72 45 73 46 74 70 75 71 76 79 77 72 78
REMARK SMILES IDX 74 79 80 80 73 81 75 82 76 83 77 84 78 85 55 86 56 87 64 88
REMARK SMILES IDX 57 89 59 90 65 91 58 92 60 93 61 94 62 95 63 96
REMARK H PARENT 21 5 8 12 26 30 85 49 53 60
REMARK Flexibility Score: inf
ROOT
ATOM      1  C   UNL     1       2.262  -0.539  -2.401  1.00  0.00     0.116 C 
ENDROOT
BRANCH   1   2
ATOM      2  N   UNL     1       3.127   0.147  -1.463  1.00  0.00    -0.356 N 
ATOM      3  O   UNL     1       1.497   1.146  -0.190  1.00  0.00    -0.275 OA
ATOM      4  C   UNL     1       2.673   0.845  -0.372  1.00  0.00     0.221 C 
ATOM      5  H   UNL     1       4.099   0.110  -1.617  1.00  0.00     0.163 HD
BRANCH   4   6
ATOM      6  C   UNL     1       3.749   1.226   0.630  1.00  0.00     0.118 C 
BRANCH   6   7
ATOM      7  C   UNL     1       4.194   0.150   1.617  1.00  0.00     0.170 C 
BRANCH   7   8
ATOM      8  S   UNL     1       4.881  -1.351   0.906  1.00  0.00     0.233 S 
ATOM      9  O   UNL     1       5.117  -1.164  -0.513  1.00  0.00    -0.207 OA
ATOM     10  O   UNL     1       5.988  -1.741   1.749  1.00  0.00    -0.207 OA
BRANCH   8  11
ATOM     11  N   UNL     1       3.772  -2.602   1.092  1.00  0.00    -0.284 N 
ATOM     12  H   UNL     1       4.077  -3.414   1.556  1.00  0.00     0.180 HD
BRANCH  11  13
ATOM     13  C   UNL     1       2.419  -2.574   0.628  1.00  0.00     0.049 A 
ATOM     14  C   UNL     1       1.927  -3.601  -0.189  1.00  0.00     0.027 A 
ATOM     15  C   UNL     1       1.515  -1.643   1.118  1.00  0.00     0.027 A 
ATOM     16  C   UNL     1       0.569  -3.631  -0.570  1.00  0.00     0.011 A 
ATOM     17  C   UNL     1       0.185  -1.641   0.708  1.00  0.00     0.011 A 
ATOM     18  C   UNL     1      -0.312  -2.631  -0.141  1.00  0.00    -0.018 A 
BRANCH  18  19
ATOM     19  C   UNL     1      -1.736  -2.586  -0.474  1.00  0.00    -0.018 A 
ATOM     20  C   UNL     1      -2.664  -3.280   0.317  1.00  0.00     0.009 A 
ATOM     21  C   UNL     1      -2.216  -1.704  -1.456  1.00  0.00     0.009 A 
ATOM     22  C   UNL     1      -4.036  -3.076   0.152  1.00  0.00     0.001 A 
ATOM     23  C   UNL     1      -3.588  -1.505  -1.624  1.00  0.00     0.001 A 
ATOM     24  C   UNL     1      -4.497  -2.183  -0.814  1.00  0.00     0.000 A 
ENDBRANCH  18  19
ENDBRANCH  11  13
ENDBRANCH   8  11
ENDBRANCH   7   8
ENDBRANCH   6   7
ENDBRANCH   4   6
ENDBRANCH   1   2
BRANCH   1  25
ATOM     25  C   UNL     1       2.810  -0.592  -3.827  1.00  0.00     0.023 C 
BRANCH  25  26
ATOM     26  C   UNL     1       4.233  -1.143  -3.986  1.00  0.00     0.023 C 
BRANCH  26  27
ATOM     27  C   UNL     1       4.462  -2.568  -3.485  1.00  0.00     0.116 C 
BRANCH  27  28
ATOM     28  N   UNL     1       3.869  -3.577  -4.354  1.00  0.00    -0.352 N 
ATOM     29  C   UNL     1       4.465  -4.482  -5.204  1.00  0.00     0.251 C 
ATOM     30  H   UNL     1       2.886  -3.618  -4.330  1.00  0.00     0.163 HD
ATOM     31  O   UNL     1       3.764  -5.142  -5.968  1.00  0.00    -0.269 OA
BRANCH  29  32
ATOM     32  C   UNL     1       5.938  -4.655  -5.229  1.00  0.00     0.039 A 
ATOM     33  C   UNL     1       6.587  -4.734  -6.466  1.00  0.00     0.014 A 
ATOM     34  C   UNL     1       6.682  -4.765  -4.053  1.00  0.00     0.014 A 
ATOM     35  C   UNL     1       7.982  -4.838  -6.520  1.00  0.00     0.010 A 
ATOM     36  C   UNL     1       8.077  -4.790  -4.108  1.00  0.00     0.010 A 
ATOM     37  C   UNL     1       8.746  -4.822  -5.341  1.00  0.00    -0.014 A 
BRANCH  37  38
ATOM     38  C   UNL     1      10.236  -4.802  -5.383  1.00  0.00     0.031 A 
ATOM     39  C   UNL     1      11.041  -5.914  -4.764  1.00  0.00     0.074 A 
ATOM     40  C   UNL     1      10.872  -3.733  -5.907  1.00  0.00     0.049 A 
ATOM     41  N   UNL     1      12.341  -6.037  -4.666  1.00  0.00    -0.248 NA
ATOM     42  C   UNL     1      10.290  -7.024  -4.154  1.00  0.00     0.031 C 
ATOM     43  C   UNL     1      10.217  -2.553  -6.475  1.00  0.00     0.029 A 
ATOM     44  N   UNL     1      12.213  -3.453  -6.024  1.00  0.00    -0.354 N 
ATOM     45  C   UNL     1      12.563  -7.210  -3.955  1.00  0.00     0.074 A 
ATOM     46  C   UNL     1      11.262  -7.750  -3.621  1.00  0.00     0.031 C 
ATOM     47  C   UNL     1      11.152  -1.683  -6.886  1.00  0.00     0.029 A 
ATOM     48  C   UNL     1      12.474  -2.220  -6.578  1.00  0.00     0.049 A 
ATOM     49  H   UNL     1      12.920  -4.075  -5.738  1.00  0.00     0.167 HD
ATOM     50  C   UNL     1      13.739  -7.799  -3.627  1.00  0.00     0.034 A 
ATOM     51  C   UNL     1      13.641  -1.585  -6.803  1.00  0.00     0.034 A 
ATOM     52  C   UNL     1      15.032  -7.279  -3.985  1.00  0.00     0.049 A 
ATOM     53  C   UNL     1      14.933  -2.271  -6.446  1.00  0.00     0.074 A 
ATOM     54  C   UNL     1      16.276  -7.851  -3.778  1.00  0.00     0.029 A 
ATOM     55  N   UNL     1      15.254  -6.060  -4.606  1.00  0.00    -0.354 N 
ATOM     56  N   UNL     1      15.121  -3.456  -5.919  1.00  0.00    -0.248 NA
ATOM     57  C   UNL     1      16.176  -1.545  -6.747  1.00  0.00     0.031 C 
ATOM     58  C   UNL     1      17.251  -6.960  -4.236  1.00  0.00     0.029 A 
ATOM     59  C   UNL     1      16.613  -5.853  -4.771  1.00  0.00     0.049 A 
ATOM     60  H   UNL     1      14.549  -5.433  -4.887  1.00  0.00     0.167 HD
ATOM     61  C   UNL     1      16.499  -3.634  -5.863  1.00  0.00     0.074 A 
ATOM     62  C   UNL     1      17.098  -2.443  -6.427  1.00  0.00     0.031 C 
ATOM     63  C   UNL     1      17.203  -4.687  -5.378  1.00  0.00     0.034 A 
BRANCH  50  64
ATOM     64  C   UNL     1      13.687  -9.100  -2.865  1.00  0.00     0.023 A 
ATOM     65  C   UNL     1      13.230 -10.269  -3.506  1.00  0.00     0.012 A 
ATOM     66  C   UNL     1      14.154  -9.179  -1.537  1.00  0.00     0.148 A 
ATOM     67  C   UNL     1      13.201 -11.488  -2.828  1.00  0.00     0.002 A 
ATOM     68  C   UNL     1      14.168 -10.406  -0.884  1.00  0.00     0.091 A 
ATOM     69  F   UNL     1      14.571  -8.055  -0.938  1.00  0.00    -0.205 F 
ATOM     70  C   UNL     1      13.680 -11.557  -1.522  1.00  0.00     0.022 A 
BRANCH  68  71
ATOM     71  S   UNL     1      14.843 -10.619   0.767  1.00  0.00     0.127 S 
ATOM     72  O   UNL     1      13.636 -10.898   1.545  1.00  0.00    -0.237 OA
ATOM     73  O   UNL     1      15.732 -11.768   0.589  1.00  0.00    -0.237 OA
ATOM     74  O   UNL     1      15.519  -9.371   1.091  1.00  0.00    -0.744 OA
ENDBRANCH  68  71
ENDBRANCH  50  64
BRANCH  51  75
ATOM     75  C   UNL     1      13.650  -0.240  -7.449  1.00  0.00     0.023 A 
ATOM     76  C   UNL     1      14.159  -0.103  -8.756  1.00  0.00     0.012 A 
ATOM     77  C   UNL     1      13.149   0.896  -6.785  1.00  0.00     0.148 A 
ATOM     78  C   UNL     1      14.205   1.146  -9.375  1.00  0.00     0.002 A 
ATOM     79  C   UNL     1      13.144   2.128  -7.429  1.00  0.00     0.091 A 
ATOM     80  F   UNL     1      12.678   0.747  -5.539  1.00  0.00    -0.205 F 
ATOM     81  C   UNL     1      13.689   2.259  -8.716  1.00  0.00     0.022 A 
BRANCH  79  82
ATOM     82  S   UNL     1      12.387   3.590  -6.712  1.00  0.00     0.127 S 
ATOM     83  O   UNL     1      13.551   4.437  -6.462  1.00  0.00    -0.237 OA
ATOM     84  O   UNL     1      11.518   4.041  -7.798  1.00  0.00    -0.237 OA
ATOM     85  O   UNL     1      11.678   3.127  -5.527  1.00  0.00    -0.744 OA
ENDBRANCH  79  82
ENDBRANCH  51  75
BRANCH  63  86
ATOM     86  C   UNL     1      18.707  -4.631  -5.476  1.00  0.00     0.023 A 
ATOM     87  C   UNL     1      19.438  -3.744  -4.662  1.00  0.00     0.012 A 
ATOM     88  C   UNL     1      19.399  -5.513  -6.330  1.00  0.00     0.148 A 
ATOM     89  C   UNL     1      20.831  -3.710  -4.723  1.00  0.00     0.002 A 
ATOM     90  C   UNL     1      20.789  -5.512  -6.346  1.00  0.00     0.091 A 
ATOM     91  F   UNL     1      18.686  -6.339  -7.111  1.00  0.00    -0.205 F 
ATOM     92  C   UNL     1      21.506  -4.601  -5.554  1.00  0.00     0.022 A 
BRANCH  90  93
ATOM     93  S   UNL     1      21.745  -6.689  -7.308  1.00  0.00     0.127 S 
ATOM     94  O   UNL     1      22.319  -5.831  -8.344  1.00  0.00    -0.237 OA
ATOM     95  O   UNL     1      22.707  -7.184  -6.323  1.00  0.00    -0.237 OA
ATOM     96  O   UNL     1      20.796  -7.688  -7.783  1.00  0.00    -0.744 OA
ENDBRANCH  90  93
ENDBRANCH  63  86
ENDBRANCH  37  38
ENDBRANCH  29  32
ENDBRANCH  27  28
ENDBRANCH  26  27
ENDBRANCH  25  26
ENDBRANCH   1  25
TORSDOF 19
