REMARK SMILES Cc1nc(Oc2ccc(F)cc2)c(C(=O)NCCCCNC(=O)c2ccc(-c3c4nc(c(-c5cccc(S(=O)(=O)[O-])c5F)c5ccc([nH]5)c(-c5cccc(S(=O)(=O)[O-])c5F)c5nc(c(-c6cccc(S(=O)(=O)[O-])c6F)c6ccc3[nH]6)C=C5)C=C4)cc2)c(C)c1Cl
REMARK SMILES IDX 19 1 18 2 17 3 16 4 14 5 15 6 13 8 1 9 2 10 3 11 89 12 4 13
REMARK SMILES IDX 87 14 90 15 88 16 5 17 6 18 7 19 12 20 8 21 11 22 9 23 10 24
REMARK SMILES IDX 20 25 21 26 22 27 23 29 24 30 25 31 86 32 26 33 85 34 27 35
REMARK SMILES IDX 28 36 29 37 79 38 30 39 84 40 78 41 80 42 31 43 83 44 77 45
REMARK SMILES IDX 76 46 32 48 64 49 44 50 63 51 45 52 48 53 62 54 81 55 46 56
REMARK SMILES IDX 47 57 61 59 82 60 49 61 33 62 34 63 42 64 35 65 37 66 43 67
REMARK SMILES IDX 36 68 38 69 39 70 40 71 41 72 65 73 66 74 74 75 67 76 69 77
REMARK SMILES IDX 75 78 68 79 70 80 71 81 72 82 73 83 50 84 51 85 59 86 52 87
REMARK SMILES IDX 54 88 60 89 53 90 55 91 56 92 57 93 58 94
REMARK H PARENT 16 7 21 28 80 47 48 58
REMARK Flexibility Score: inf
ROOT
ATOM      1  C   UNL     1      -3.334   3.033   7.229  1.00  0.00     0.023 C 
ENDROOT
BRANCH   1   2
ATOM      2  C   UNL     1      -3.036   2.722   5.765  1.00  0.00     0.023 C 
BRANCH   2   3
ATOM      3  C   UNL     1      -1.605   2.372   5.383  1.00  0.00     0.116 C 
BRANCH   3   4
ATOM      4  N   UNL     1      -1.091   1.096   5.835  1.00  0.00    -0.352 N 
ATOM      5  C   UNL     1      -0.024   0.427   5.257  1.00  0.00     0.257 C 
ATOM      6  O   UNL     1       0.876  -0.031   5.953  1.00  0.00    -0.269 OA
ATOM      7  H   UNL     1      -1.532   0.674   6.608  1.00  0.00     0.163 HD
BRANCH   5   8
ATOM      8  C   UNL     1       0.027   0.202   3.794  1.00  0.00     0.106 A 
ATOM      9  C   UNL     1       0.602  -0.800  -0.319  1.00  0.00     0.068 C 
ATOM     10  C   UNL     1       0.349  -0.370   1.098  1.00  0.00     0.060 A 
ATOM     11  N   UNL     1      -0.023  -1.355   1.945  1.00  0.00    -0.216 NA
ATOM     12  C   UNL     1       0.573   0.933   1.535  1.00  0.00     0.066 A 
ATOM     13  C   UNL     1      -0.176  -1.087   3.272  1.00  0.00     0.232 A 
ATOM     14  C   UNL     1       0.464   1.226   2.911  1.00  0.00    -0.012 A 
ATOM     15  Cl  UNL     1       1.010   2.162   0.391  1.00  0.00    -0.082 Cl
ATOM     16  C   UNL     1       0.872   2.596   3.396  1.00  0.00     0.047 C 
BRANCH  13  17
ATOM     17  O   UNL     1      -0.374  -2.269   3.936  1.00  0.00    -0.438 OA
BRANCH  17  18
ATOM     18  C   UNL     1      -0.939  -2.340   5.175  1.00  0.00     0.129 A 
ATOM     19  C   UNL     1      -0.156  -2.900   6.191  1.00  0.00     0.050 A 
ATOM     20  C   UNL     1      -2.276  -2.014   5.405  1.00  0.00     0.050 A 
ATOM     21  C   UNL     1      -0.688  -3.068   7.466  1.00  0.00     0.043 A 
ATOM     22  C   UNL     1      -2.808  -2.189   6.684  1.00  0.00     0.043 A 
ATOM     23  C   UNL     1      -2.008  -2.706   7.702  1.00  0.00     0.123 A 
ATOM     24  F   UNL     1      -2.522  -2.869   8.927  1.00  0.00    -0.207 F 
ENDBRANCH  17  18
ENDBRANCH  13  17
ENDBRANCH   5   8
ENDBRANCH   3   4
ENDBRANCH   2   3
ENDBRANCH   1   2
BRANCH   1  25
ATOM     25  C   UNL     1      -2.348   3.923   7.979  1.00  0.00     0.116 C 
BRANCH  25  26
ATOM     26  N   UNL     1      -2.038   5.186   7.321  1.00  0.00    -0.352 N 
ATOM     27  C   UNL     1      -1.965   6.448   7.876  1.00  0.00     0.251 C 
ATOM     28  H   UNL     1      -1.856   5.132   6.355  1.00  0.00     0.163 HD
ATOM     29  O   UNL     1      -1.671   7.418   7.197  1.00  0.00    -0.269 OA
BRANCH  27  30
ATOM     30  C   UNL     1      -2.311   6.602   9.303  1.00  0.00     0.039 A 
ATOM     31  C   UNL     1      -3.430   7.368   9.637  1.00  0.00     0.014 A 
ATOM     32  C   UNL     1      -1.615   5.881  10.275  1.00  0.00     0.014 A 
ATOM     33  C   UNL     1      -3.915   7.333  10.945  1.00  0.00     0.010 A 
ATOM     34  C   UNL     1      -2.136   5.800  11.562  1.00  0.00     0.010 A 
ATOM     35  C   UNL     1      -3.297   6.513  11.903  1.00  0.00    -0.014 A 
BRANCH  35  36
ATOM     36  C   UNL     1      -3.854   6.383  13.270  1.00  0.00     0.031 A 
ATOM     37  C   UNL     1      -3.081   6.919  14.439  1.00  0.00     0.074 A 
ATOM     38  C   UNL     1      -5.015   5.726  13.465  1.00  0.00     0.049 A 
ATOM     39  N   UNL     1      -3.373   6.863  15.711  1.00  0.00    -0.248 NA
ATOM     40  C   UNL     1      -1.801   7.586  14.143  1.00  0.00     0.031 C 
ATOM     41  C   UNL     1      -5.826   5.105  12.415  1.00  0.00     0.029 A 
ATOM     42  N   UNL     1      -5.707   5.455  14.619  1.00  0.00    -0.354 N 
ATOM     43  C   UNL     1      -2.307   7.463  16.367  1.00  0.00     0.074 A 
ATOM     44  C   UNL     1      -1.344   7.847  15.359  1.00  0.00     0.031 C 
ATOM     45  C   UNL     1      -6.911   4.540  12.972  1.00  0.00     0.029 A 
ATOM     46  C   UNL     1      -6.866   4.742  14.417  1.00  0.00     0.049 A 
ATOM     47  H   UNL     1      -5.402   5.746  15.509  1.00  0.00     0.167 HD
ATOM     48  C   UNL     1      -2.160   7.709  17.688  1.00  0.00     0.034 A 
ATOM     49  C   UNL     1      -7.790   4.309  15.297  1.00  0.00     0.034 A 
ATOM     50  C   UNL     1      -3.141   7.383  18.682  1.00  0.00     0.049 A 
ATOM     51  C   UNL     1      -7.619   4.626  16.758  1.00  0.00     0.074 A 
ATOM     52  C   UNL     1      -3.113   7.661  20.037  1.00  0.00     0.029 A 
ATOM     53  N   UNL     1      -4.329   6.718  18.429  1.00  0.00    -0.354 N 
ATOM     54  N   UNL     1      -6.662   5.303  17.344  1.00  0.00    -0.248 NA
ATOM     55  C   UNL     1      -8.665   4.147  17.675  1.00  0.00     0.031 C 
ATOM     56  C   UNL     1      -4.290   7.165  20.604  1.00  0.00     0.029 A 
ATOM     57  C   UNL     1      -5.047   6.579  19.602  1.00  0.00     0.049 A 
ATOM     58  H   UNL     1      -4.618   6.391  17.547  1.00  0.00     0.167 HD
ATOM     59  C   UNL     1      -7.002   5.356  18.691  1.00  0.00     0.074 A 
ATOM     60  C   UNL     1      -8.258   4.650  18.835  1.00  0.00     0.031 C 
ATOM     61  C   UNL     1      -6.324   5.925  19.716  1.00  0.00     0.034 A 
BRANCH  48  62
ATOM     62  C   UNL     1      -0.926   8.444  18.124  1.00  0.00     0.023 A 
ATOM     63  C   UNL     1      -0.865   9.839  17.935  1.00  0.00     0.012 A 
ATOM     64  C   UNL     1       0.130   7.780  18.775  1.00  0.00     0.148 A 
ATOM     65  C   UNL     1       0.240  10.564  18.374  1.00  0.00     0.002 A 
ATOM     66  C   UNL     1       1.216   8.514  19.236  1.00  0.00     0.091 A 
ATOM     67  F   UNL     1       0.051   6.451  18.926  1.00  0.00    -0.205 F 
ATOM     68  C   UNL     1       1.275   9.904  19.032  1.00  0.00     0.022 A 
BRANCH  66  69
ATOM     69  S   UNL     1       2.581   7.774  20.136  1.00  0.00     0.127 S 
ATOM     70  O   UNL     1       3.699   8.008  19.221  1.00  0.00    -0.237 OA
ATOM     71  O   UNL     1       2.613   8.578  21.357  1.00  0.00    -0.237 OA
ATOM     72  O   UNL     1       2.226   6.375  20.331  1.00  0.00    -0.744 OA
ENDBRANCH  66  69
ENDBRANCH  48  62
BRANCH  49  73
ATOM     73  C   UNL     1      -9.011   3.614  14.804  1.00  0.00     0.023 A 
ATOM     74  C   UNL     1     -10.227   4.323  14.763  1.00  0.00     0.012 A 
ATOM     75  C   UNL     1      -8.970   2.287  14.337  1.00  0.00     0.148 A 
ATOM     76  C   UNL     1     -11.387   3.719  14.277  1.00  0.00     0.002 A 
ATOM     77  C   UNL     1     -10.122   1.702  13.822  1.00  0.00     0.091 A 
ATOM     78  F   UNL     1      -7.802   1.632  14.390  1.00  0.00    -0.205 F 
ATOM     79  C   UNL     1     -11.333   2.413  13.800  1.00  0.00     0.022 A 
BRANCH  77  80
ATOM     80  S   UNL     1     -10.139   0.058  13.097  1.00  0.00     0.127 S 
ATOM     81  O   UNL     1     -11.033  -0.660  14.004  1.00  0.00    -0.237 OA
ATOM     82  O   UNL     1     -10.693   0.323  11.769  1.00  0.00    -0.237 OA
ATOM     83  O   UNL     1      -8.754  -0.391  13.098  1.00  0.00    -0.744 OA
ENDBRANCH  77  80
ENDBRANCH  49  73
BRANCH  61  84
ATOM     84  C   UNL     1      -6.914   5.836  21.095  1.00  0.00     0.023 A 
ATOM     85  C   UNL     1      -6.742   4.654  21.839  1.00  0.00     0.012 A 
ATOM     86  C   UNL     1      -7.494   6.967  21.702  1.00  0.00     0.148 A 
ATOM     87  C   UNL     1      -7.141   4.598  23.174  1.00  0.00     0.002 A 
ATOM     88  C   UNL     1      -7.858   6.914  23.042  1.00  0.00     0.091 A 
ATOM     89  F   UNL     1      -7.651   8.076  20.966  1.00  0.00    -0.205 F 
ATOM     90  C   UNL     1      -7.685   5.729  23.778  1.00  0.00     0.022 A 
BRANCH  88  91
ATOM     91  S   UNL     1      -8.490   8.341  23.931  1.00  0.00     0.127 S 
ATOM     92  O   UNL     1      -9.868   7.936  24.203  1.00  0.00    -0.237 OA
ATOM     93  O   UNL     1      -7.622   8.381  25.108  1.00  0.00    -0.237 OA
ATOM     94  O   UNL     1      -8.345   9.476  23.029  1.00  0.00    -0.744 OA
ENDBRANCH  88  91
ENDBRANCH  61  84
ENDBRANCH  35  36
ENDBRANCH  27  30
ENDBRANCH  25  26
ENDBRANCH   1  25
TORSDOF 16
