REMARK SMILES CC(=O)Nc1ccc(/N=C2\C(=O)N(c3ccc(NC(C)=O)cc3)[C@H](c3ccccc3)[C@H]2CC(=O)NCCCCNC(=O)c2ccc(-c3c4nc(c(-c5cccc(S(=O)(=O)[O-])c5F)c5ccc([nH]5)c(-c5cccc(S(=O)(=O)[O-])c5F)c5nc(c(-c6cccc(S(=O)(=O)[O-])c6F)c6ccc3[nH]6)C=C5)C=C4)cc2)cc1
REMARK SMILES IDX 37 1 36 2 35 3 33 4 34 5 32 7 31 8 9 9 10 10 11 11 12 12
REMARK SMILES IDX 13 13 24 14 8 15 5 16 6 17 107 18 7 19 106 20 4 21 1 22 2 23
REMARK SMILES IDX 3 24 14 26 15 27 23 28 16 29 22 30 17 31 18 32 19 33 20 35
REMARK SMILES IDX 21 36 25 37 26 38 30 39 27 40 29 41 28 42 38 43 39 44 40 45
REMARK SMILES IDX 41 46 42 48 43 49 44 50 105 51 45 52 104 53 46 54 47 55
REMARK SMILES IDX 48 56 98 57 49 58 103 59 97 60 99 61 50 62 102 63 96 64
REMARK SMILES IDX 95 65 51 67 83 68 63 69 82 70 64 71 67 72 81 73 100 74 65 75
REMARK SMILES IDX 66 76 80 78 101 79 68 80 52 81 53 82 61 83 54 84 56 85 62 86
REMARK SMILES IDX 55 87 57 88 58 89 59 90 60 91 84 92 85 93 93 94 86 95 88 96
REMARK SMILES IDX 94 97 87 98 89 99 90 100 91 101 92 102 69 103 70 104 78 105
REMARK SMILES IDX 71 106 73 107 79 108 72 109 74 110 75 111 76 112 77 113
REMARK H PARENT 35 6 4 25 18 34 40 47 99 66 67 77
REMARK Flexibility Score: inf
ROOT
ATOM      1  C   UNL     1       4.841  -5.987  -2.990  1.00  0.00     0.023 C 
ENDROOT
BRANCH   1   2
ATOM      2  C   UNL     1       6.314  -6.389  -3.054  1.00  0.00     0.116 C 
BRANCH   2   3
ATOM      3  N   UNL     1       6.895  -6.156  -4.368  1.00  0.00    -0.356 N 
ATOM      4  C   UNL     1       7.235  -4.992  -4.985  1.00  0.00     0.220 C 
ATOM      5  O   UNL     1       7.744  -5.026  -6.107  1.00  0.00    -0.275 OA
ATOM      6  H   UNL     1       7.071  -6.970  -4.894  1.00  0.00     0.163 HD
BRANCH   4   7
ATOM      7  C   UNL     1       6.974  -3.667  -4.310  1.00  0.00     0.112 C 
BRANCH   7   8
ATOM      8  C   UNL     1       5.930  -2.878  -5.121  1.00  0.00     0.081 C 
ATOM      9  N   UNL     1       3.757  -2.979  -3.989  1.00  0.00    -0.247 NA
ATOM     10  C   UNL     1       4.887  -2.372  -4.173  1.00  0.00     0.112 C 
ATOM     11  C   UNL     1       5.358  -1.050  -3.632  1.00  0.00     0.273 C 
ATOM     12  O   UNL     1       5.072  -0.631  -2.534  1.00  0.00    -0.267 OA
ATOM     13  N   UNL     1       6.120  -0.504  -4.658  1.00  0.00    -0.299 N 
ATOM     14  C   UNL     1       6.454  -1.516  -5.669  1.00  0.00     0.131 C 
BRANCH   9  15
ATOM     15  C   UNL     1       2.776  -2.487  -3.111  1.00  0.00     0.064 A 
ATOM     16  C   UNL     1       0.889  -1.621  -1.185  1.00  0.00     0.041 A 
ATOM     17  C   UNL     1       1.261  -2.962  -1.265  1.00  0.00     0.028 A 
ATOM     18  C   UNL     1       1.384  -0.737  -2.142  1.00  0.00     0.028 A 
ATOM     19  C   UNL     1       2.198  -3.382  -2.213  1.00  0.00     0.030 A 
ATOM     20  C   UNL     1       2.299  -1.175  -3.113  1.00  0.00     0.030 A 
BRANCH  16  21
ATOM     21  N   UNL     1      -0.007  -1.274  -0.162  1.00  0.00    -0.326 N 
ATOM     22  C   UNL     1       0.552   1.127   0.203  1.00  0.00     0.114 C 
ATOM     23  C   UNL     1      -0.304  -0.086   0.436  1.00  0.00     0.221 C 
ATOM     24  O   UNL     1      -1.260  -0.029   1.213  1.00  0.00    -0.275 OA
ATOM     25  H   UNL     1      -0.520  -2.037   0.193  1.00  0.00     0.169 HD
ENDBRANCH  16  21
ENDBRANCH   9  15
BRANCH  13  26
ATOM     26  C   UNL     1       6.518   0.861  -4.665  1.00  0.00     0.045 A 
ATOM     27  C   UNL     1       6.732   1.544  -3.463  1.00  0.00     0.028 A 
ATOM     28  C   UNL     1       6.578   1.611  -5.841  1.00  0.00     0.028 A 
ATOM     29  C   UNL     1       6.924   2.932  -3.423  1.00  0.00     0.028 A 
ATOM     30  C   UNL     1       6.734   3.006  -5.804  1.00  0.00     0.028 A 
ATOM     31  C   UNL     1       6.881   3.681  -4.591  1.00  0.00     0.041 A 
BRANCH  31  32
ATOM     32  N   UNL     1       6.901   5.089  -4.627  1.00  0.00    -0.326 N 
ATOM     33  C   UNL     1       7.049   5.949  -3.554  1.00  0.00     0.221 C 
ATOM     34  H   UNL     1       6.798   5.507  -5.512  1.00  0.00     0.169 HD
ATOM     35  C   UNL     1       6.794   7.389  -3.922  1.00  0.00     0.114 C 
ATOM     36  O   UNL     1       7.370   5.649  -2.409  1.00  0.00    -0.275 OA
ENDBRANCH  31  32
ENDBRANCH  13  26
BRANCH  14  37
ATOM     37  C   UNL     1       5.949  -1.270  -7.082  1.00  0.00    -0.024 A 
ATOM     38  C   UNL     1       6.884  -1.129  -8.126  1.00  0.00     0.006 A 
ATOM     39  C   UNL     1       4.585  -1.197  -7.396  1.00  0.00     0.006 A 
ATOM     40  C   UNL     1       6.468  -0.898  -9.437  1.00  0.00     0.000 A 
ATOM     41  C   UNL     1       4.172  -0.982  -8.713  1.00  0.00     0.000 A 
ATOM     42  C   UNL     1       5.111  -0.826  -9.730  1.00  0.00     0.000 A 
ENDBRANCH  14  37
ENDBRANCH   7   8
ENDBRANCH   4   7
ENDBRANCH   2   3
ENDBRANCH   1   2
BRANCH   1  43
ATOM     43  C   UNL     1       3.938  -7.005  -2.289  1.00  0.00     0.023 C 
BRANCH  43  44
ATOM     44  C   UNL     1       4.196  -7.202  -0.795  1.00  0.00     0.116 C 
BRANCH  44  45
ATOM     45  N   UNL     1       3.908  -6.014  -0.003  1.00  0.00    -0.352 N 
ATOM     46  C   UNL     1       3.037  -5.815   1.043  1.00  0.00     0.251 C 
ATOM     47  H   UNL     1       4.425  -5.217  -0.261  1.00  0.00     0.163 HD
ATOM     48  O   UNL     1       2.875  -4.673   1.470  1.00  0.00    -0.269 OA
BRANCH  46  49
ATOM     49  C   UNL     1       2.254  -6.927   1.636  1.00  0.00     0.039 A 
ATOM     50  C   UNL     1       0.924  -6.677   2.000  1.00  0.00     0.014 A 
ATOM     51  C   UNL     1       2.803  -8.188   1.873  1.00  0.00     0.014 A 
ATOM     52  C   UNL     1       0.124  -7.710   2.499  1.00  0.00     0.010 A 
ATOM     53  C   UNL     1       1.989  -9.233   2.317  1.00  0.00     0.010 A 
ATOM     54  C   UNL     1       0.635  -9.011   2.609  1.00  0.00    -0.014 A 
BRANCH  54  55
ATOM     55  C   UNL     1      -0.225 -10.161   2.989  1.00  0.00     0.031 A 
ATOM     56  C   UNL     1       0.089 -10.969   4.214  1.00  0.00     0.074 A 
ATOM     57  C   UNL     1      -1.241 -10.547   2.191  1.00  0.00     0.049 A 
ATOM     58  N   UNL     1      -0.321 -12.170   4.528  1.00  0.00    -0.248 NA
ATOM     59  C   UNL     1       0.999 -10.362   5.197  1.00  0.00     0.031 C 
ATOM     60  C   UNL     1      -1.660  -9.876   0.960  1.00  0.00     0.029 A 
ATOM     61  N   UNL     1      -2.099 -11.613   2.297  1.00  0.00    -0.354 N 
ATOM     62  C   UNL     1       0.371 -12.511   5.681  1.00  0.00     0.074 A 
ATOM     63  C   UNL     1       1.155 -11.355   6.064  1.00  0.00     0.031 C 
ATOM     64  C   UNL     1      -2.718 -10.524   0.445  1.00  0.00     0.029 A 
ATOM     65  C   UNL     1      -3.021 -11.682   1.280  1.00  0.00     0.049 A 
ATOM     66  H   UNL     1      -2.059 -12.267   3.033  1.00  0.00     0.167 HD
ATOM     67  C   UNL     1       0.373 -13.697   6.334  1.00  0.00     0.034 A 
ATOM     68  C   UNL     1      -3.995 -12.581   1.040  1.00  0.00     0.034 A 
ATOM     69  C   UNL     1      -0.470 -14.809   5.987  1.00  0.00     0.049 A 
ATOM     70  C   UNL     1      -4.156 -13.761   1.954  1.00  0.00     0.074 A 
ATOM     71  C   UNL     1      -0.428 -16.115   6.441  1.00  0.00     0.029 A 
ATOM     72  N   UNL     1      -1.563 -14.715   5.142  1.00  0.00    -0.354 N 
ATOM     73  N   UNL     1      -3.404 -14.123   2.964  1.00  0.00    -0.248 NA
ATOM     74  C   UNL     1      -5.299 -14.651   1.704  1.00  0.00     0.031 C 
ATOM     75  C   UNL     1      -1.548 -16.790   5.931  1.00  0.00     0.029 A 
ATOM     76  C   UNL     1      -2.261 -15.910   5.134  1.00  0.00     0.049 A 
ATOM     77  H   UNL     1      -1.808 -13.915   4.623  1.00  0.00     0.167 HD
ATOM     78  C   UNL     1      -3.968 -15.293   3.456  1.00  0.00     0.074 A 
ATOM     79  C   UNL     1      -5.157 -15.551   2.669  1.00  0.00     0.031 C 
ATOM     80  C   UNL     1      -3.501 -16.112   4.430  1.00  0.00     0.034 A 
BRANCH  67  81
ATOM     81  C   UNL     1       1.312 -13.837   7.492  1.00  0.00     0.023 A 
ATOM     82  C   UNL     1       0.812 -13.720   8.801  1.00  0.00     0.012 A 
ATOM     83  C   UNL     1       2.682 -14.083   7.294  1.00  0.00     0.148 A 
ATOM     84  C   UNL     1       1.669 -13.835   9.897  1.00  0.00     0.002 A 
ATOM     85  C   UNL     1       3.531 -14.189   8.391  1.00  0.00     0.091 A 
ATOM     86  F   UNL     1       3.151 -14.192   6.041  1.00  0.00    -0.205 F 
ATOM     87  C   UNL     1       3.030 -14.066   9.694  1.00  0.00     0.022 A 
BRANCH  85  88
ATOM     88  S   UNL     1       5.287 -14.441   8.124  1.00  0.00     0.127 S 
ATOM     89  O   UNL     1       5.660 -13.295   7.300  1.00  0.00    -0.237 OA
ATOM     90  O   UNL     1       5.843 -14.408   9.478  1.00  0.00    -0.237 OA
ATOM     91  O   UNL     1       5.339 -15.750   7.484  1.00  0.00    -0.744 OA
ENDBRANCH  85  88
ENDBRANCH  67  81
BRANCH  68  92
ATOM     92  C   UNL     1      -4.943 -12.344  -0.078  1.00  0.00     0.023 A 
ATOM     93  C   UNL     1      -6.210 -11.803   0.212  1.00  0.00     0.012 A 
ATOM     94  C   UNL     1      -4.588 -12.581  -1.416  1.00  0.00     0.148 A 
ATOM     95  C   UNL     1      -7.112 -11.516  -0.812  1.00  0.00     0.002 A 
ATOM     96  C   UNL     1      -5.481 -12.261  -2.435  1.00  0.00     0.091 A 
ATOM     97  F   UNL     1      -3.372 -13.081  -1.685  1.00  0.00    -0.205 F 
ATOM     98  C   UNL     1      -6.746 -11.738  -2.138  1.00  0.00     0.022 A 
BRANCH  96  99
ATOM     99  S   UNL     1      -4.972 -12.459  -4.144  1.00  0.00     0.127 S 
ATOM    100  O   UNL     1      -4.722 -13.892  -4.246  1.00  0.00    -0.237 OA
ATOM    101  O   UNL     1      -6.137 -11.993  -4.898  1.00  0.00    -0.237 OA
ATOM    102  O   UNL     1      -3.809 -11.582  -4.236  1.00  0.00    -0.744 OA
ENDBRANCH  96  99
ENDBRANCH  68  92
BRANCH  80 103
ATOM    103  C   UNL     1      -4.280 -17.364   4.700  1.00  0.00     0.023 A 
ATOM    104  C   UNL     1      -3.897 -18.553   4.051  1.00  0.00     0.012 A 
ATOM    105  C   UNL     1      -5.378 -17.379   5.577  1.00  0.00     0.148 A 
ATOM    106  C   UNL     1      -4.595 -19.740   4.272  1.00  0.00     0.002 A 
ATOM    107  C   UNL     1      -6.074 -18.566   5.787  1.00  0.00     0.091 A 
ATOM    108  F   UNL     1      -5.746 -16.238   6.179  1.00  0.00    -0.205 F 
ATOM    109  C   UNL     1      -5.685 -19.748   5.140  1.00  0.00     0.022 A 
BRANCH 107 110
ATOM    110  S   UNL     1      -7.501 -18.572   6.875  1.00  0.00     0.127 S 
ATOM    111  O   UNL     1      -8.410 -17.632   6.224  1.00  0.00    -0.237 OA
ATOM    112  O   UNL     1      -7.952 -19.965   6.836  1.00  0.00    -0.237 OA
ATOM    113  O   UNL     1      -6.944 -18.159   8.158  1.00  0.00    -0.744 OA
ENDBRANCH 107 110
ENDBRANCH  80 103
ENDBRANCH  54  55
ENDBRANCH  46  49
ENDBRANCH  44  45
ENDBRANCH  43  44
ENDBRANCH   1  43
TORSDOF 20
