REMARK SMILES O=C(NCCCCNC(=O)c1ccc(-c2c3nc(c(-c4cccc(S(=O)(=O)[O-])c4F)c4ccc([nH]4)c(-c4cccc(S(=O)(=O)[O-])c4F)c4nc(c(-c5cccc(S(=O)(=O)[O-])c5F)c5ccc2[nH]5)C=C4)C=C3)cc1)C1=Cc2cc(S(F)(F)(F)(F)F)ccc2O[C@@H]1C(F)(F)F
REMARK SMILES IDX 6 1 5 2 4 3 3 4 1 5 2 6 74 8 75 9 89 10 76 11 88 12 77 13
REMARK SMILES IDX 87 14 78 15 86 16 85 17 90 18 91 19 92 20 93 21 79 22 80 23
REMARK SMILES IDX 81 24 82 25 83 26 84 27 7 28 8 29 9 30 10 32 11 33 12 34
REMARK SMILES IDX 73 35 13 36 72 37 14 38 15 39 16 40 66 41 17 42 71 43 65 44
REMARK SMILES IDX 67 45 18 46 70 47 64 48 63 49 19 51 51 52 31 53 50 54 32 55
REMARK SMILES IDX 35 56 49 57 68 58 33 59 34 60 48 62 69 63 36 64 20 65 21 66
REMARK SMILES IDX 29 67 22 68 24 69 30 70 23 71 25 72 26 73 27 74 28 75 52 76
REMARK SMILES IDX 53 77 61 78 54 79 56 80 62 81 55 82 57 83 58 84 59 85 60 86
REMARK SMILES IDX 37 87 38 88 46 89 39 90 41 91 47 92 40 93 42 94 43 95 44 96
REMARK SMILES IDX 45 97
REMARK H PARENT 3 7 8 31 67 50 35 61
REMARK Flexibility Score: inf
ROOT
ATOM      1  C   UNL     1       4.459   1.721   3.261  1.00  0.00     0.023 C 
ENDROOT
BRANCH   1   2
ATOM      2  C   UNL     1       4.965   1.491   1.847  1.00  0.00     0.023 C 
BRANCH   2   3
ATOM      3  C   UNL     1       4.459   0.151   1.339  1.00  0.00     0.116 C 
BRANCH   3   4
ATOM      4  N   UNL     1       2.989   0.151   1.339  1.00  0.00    -0.352 N 
ATOM      5  O   UNL     1       0.983  -0.054   0.083  1.00  0.00    -0.270 OA
ATOM      6  C   UNL     1       2.254  -0.054   0.083  1.00  0.00     0.251 C 
ATOM      7  H   UNL     1       2.496   0.288   2.181  1.00  0.00     0.163 HD
BRANCH   6   8
ATOM      8  C   UNL     1       3.014  -0.265  -1.217  1.00  0.00     0.067 C 
ATOM      9  C   UNL     1       4.374  -0.265  -1.217  1.00  0.00     0.025 C 
ATOM     10  C   UNL     1       2.254  -0.477  -2.516  1.00  0.00     0.314 C 
ATOM     11  C   UNL     1       5.134  -0.054   0.083  1.00  0.00     0.019 A 
ATOM     12  O   UNL     1       3.535  -1.444   1.159  1.00  0.00    -0.475 OA
ATOM     13  C   UNL     1       6.226   0.798   0.103  1.00  0.00     0.036 A 
ATOM     14  C   UNL     1       4.749  -0.707   1.173  1.00  0.00     0.128 A 
ATOM     15  C   UNL     1       7.029   0.673   1.262  1.00  0.00     0.107 A 
ATOM     16  C   UNL     1       5.514  -0.675   2.314  1.00  0.00     0.048 A 
ATOM     17  C   UNL     1       6.638   0.100   2.385  1.00  0.00     0.028 A 
BRANCH  10  18
ATOM     18  C   UNL     1       2.621  -1.829  -3.103  1.00  0.00     0.429 C 
ATOM     19  F   UNL     1       2.300  -2.789  -2.241  1.00  0.00    -0.167 F 
ATOM     20  F   UNL     1       1.956  -2.014  -4.240  1.00  0.00    -0.167 F 
ATOM     21  F   UNL     1       3.929  -1.869  -3.343  1.00  0.00    -0.167 F 
ENDBRANCH  10  18
BRANCH  15  22
ATOM     22  S   UNL     1       8.708   1.346   1.199  1.00  0.00     0.310 S 
ATOM     23  F   UNL     1       8.832   1.352   2.780  1.00  0.00    -0.094 F 
ATOM     24  F   UNL     1       8.101   2.796   1.310  1.00  0.00    -0.094 F 
ATOM     25  F   UNL     1      10.150   1.924   1.145  1.00  0.00    -0.094 F 
ATOM     26  F   UNL     1       9.304  -0.117   1.230  1.00  0.00    -0.094 F 
ATOM     27  F   UNL     1       7.257   0.743   1.367  1.00  0.00    -0.094 F 
ENDBRANCH  15  22
ENDBRANCH   6   8
ENDBRANCH   3   4
ENDBRANCH   2   3
ENDBRANCH   1   2
BRANCH   1  28
ATOM     28  C   UNL     1       4.965   0.611   4.168  1.00  0.00     0.116 C 
BRANCH  28  29
ATOM     29  N   UNL     1       6.435   0.611   4.168  1.00  0.00    -0.352 N 
ATOM     30  C   UNL     1       7.170   0.815   5.425  1.00  0.00     0.251 C 
ATOM     31  H   UNL     1       6.928   0.474   3.326  1.00  0.00     0.163 HD
ATOM     32  O   UNL     1       8.441   0.815   5.425  1.00  0.00    -0.269 OA
BRANCH  30  33
ATOM     33  C   UNL     1       6.410   1.027   6.724  1.00  0.00     0.039 A 
ATOM     34  C   UNL     1       6.824   2.019   7.597  1.00  0.00     0.014 A 
ATOM     35  C   UNL     1       5.376   0.245   7.010  1.00  0.00     0.014 A 
ATOM     36  C   UNL     1       6.256   1.920   8.889  1.00  0.00     0.010 A 
ATOM     37  C   UNL     1       4.782   0.296   8.248  1.00  0.00     0.010 A 
ATOM     38  C   UNL     1       5.179   1.213   9.181  1.00  0.00    -0.014 A 
BRANCH  38  39
ATOM     39  C   UNL     1       4.423   1.408  10.485  1.00  0.00     0.031 A 
ATOM     40  C   UNL     1       4.306   0.316  11.348  1.00  0.00     0.074 A 
ATOM     41  C   UNL     1       3.905   2.664  10.752  1.00  0.00     0.049 A 
ATOM     42  N   UNL     1       3.732   0.288  12.551  1.00  0.00    -0.248 NA
ATOM     43  C   UNL     1       4.825  -1.027  11.052  1.00  0.00     0.031 C 
ATOM     44  C   UNL     1       4.026   3.772   9.890  1.00  0.00     0.029 A 
ATOM     45  N   UNL     1       3.199   3.068  11.862  1.00  0.00    -0.354 N 
ATOM     46  C   UNL     1       3.834  -0.932  13.083  1.00  0.00     0.074 A 
ATOM     47  C   UNL     1       4.533  -1.797  12.123  1.00  0.00     0.031 C 
ATOM     48  C   UNL     1       3.392   4.826  10.468  1.00  0.00     0.029 A 
ATOM     49  C   UNL     1       2.865   4.395  11.700  1.00  0.00     0.049 A 
ATOM     50  H   UNL     1       2.972   2.507  12.638  1.00  0.00     0.167 HD
ATOM     51  C   UNL     1       3.374  -1.356  14.330  1.00  0.00     0.034 A 
ATOM     52  C   UNL     1       2.140   5.199  12.565  1.00  0.00     0.034 A 
ATOM     53  C   UNL     1       2.687  -0.539  15.214  1.00  0.00     0.049 A 
ATOM     54  C   UNL     1       1.628   4.759  13.788  1.00  0.00     0.074 A 
ATOM     55  C   UNL     1       2.222  -0.949  16.479  1.00  0.00     0.029 A 
ATOM     56  N   UNL     1       2.331   0.780  15.041  1.00  0.00    -0.354 N 
ATOM     57  N   UNL     1       1.765   3.551  14.336  1.00  0.00    -0.248 NA
ATOM     58  C   UNL     1       0.831   5.593  14.697  1.00  0.00     0.031 C 
ATOM     59  C   UNL     1       1.587   0.106  17.056  1.00  0.00     0.029 A 
ATOM     60  C   UNL     1       1.644   1.192  16.162  1.00  0.00     0.049 A 
ATOM     61  H   UNL     1       2.533   1.334  14.252  1.00  0.00     0.167 HD
ATOM     62  C   UNL     1       1.154   3.512  15.522  1.00  0.00     0.074 A 
ATOM     63  C   UNL     1       0.538   4.823  15.768  1.00  0.00     0.031 C 
ATOM     64  C   UNL     1       1.088   2.437  16.410  1.00  0.00     0.034 A 
BRANCH  51  65
ATOM     65  C   UNL     1       3.641  -2.794  14.742  1.00  0.00     0.023 A 
ATOM     66  C   UNL     1       4.944  -3.264  14.756  1.00  0.00     0.012 A 
ATOM     67  C   UNL     1       2.617  -3.597  15.006  1.00  0.00     0.148 A 
ATOM     68  C   UNL     1       5.044  -4.675  14.776  1.00  0.00     0.002 A 
ATOM     69  C   UNL     1       2.807  -4.950  15.148  1.00  0.00     0.091 A 
ATOM     70  F   UNL     1       1.395  -3.086  15.134  1.00  0.00    -0.205 F 
ATOM     71  C   UNL     1       4.062  -5.491  15.113  1.00  0.00     0.022 A 
BRANCH  69  72
ATOM     72  S   UNL     1       1.375  -6.032  15.386  1.00  0.00     0.127 S 
ATOM     73  O   UNL     1       1.313  -7.053  14.247  1.00  0.00    -0.237 OA
ATOM     74  O   UNL     1       1.506  -6.766  16.722  1.00  0.00    -0.237 OA
ATOM     75  O   UNL     1      -0.054  -5.093  15.388  1.00  0.00    -0.744 OA
ENDBRANCH  69  72
ENDBRANCH  51  65
BRANCH  52  76
ATOM     76  C   UNL     1       1.887   6.642  12.159  1.00  0.00     0.023 A 
ATOM     77  C   UNL     1       2.413   7.615  12.993  1.00  0.00     0.012 A 
ATOM     78  C   UNL     1       1.229   6.966  11.053  1.00  0.00     0.148 A 
ATOM     79  C   UNL     1       1.940   8.920  12.722  1.00  0.00     0.002 A 
ATOM     80  C   UNL     1       0.917   8.277  10.783  1.00  0.00     0.091 A 
ATOM     81  F   UNL     1       0.867   6.014  10.198  1.00  0.00    -0.205 F 
ATOM     82  C   UNL     1       1.355   9.286  11.596  1.00  0.00     0.022 A 
BRANCH  80  83
ATOM     83  S   UNL     1      -0.086   8.675   9.330  1.00  0.00     0.127 S 
ATOM     84  O   UNL     1      -1.368   9.383   9.773  1.00  0.00    -0.237 OA
ATOM     85  O   UNL     1       0.708   9.593   8.397  1.00  0.00    -0.237 OA
ATOM     86  O   UNL     1      -0.488   7.233   8.503  1.00  0.00    -0.744 OA
ENDBRANCH  80  83
ENDBRANCH  52  76
BRANCH  64  87
ATOM     87  C   UNL     1       0.363   2.645  17.729  1.00  0.00     0.023 A 
ATOM     88  C   UNL     1      -0.971   3.018  17.718  1.00  0.00     0.012 A 
ATOM     89  C   UNL     1       1.024   2.486  18.870  1.00  0.00     0.148 A 
ATOM     90  C   UNL     1      -1.447   3.484  18.967  1.00  0.00     0.002 A 
ATOM     91  C   UNL     1       0.448   2.835  20.067  1.00  0.00     0.091 A 
ATOM     92  F   UNL     1       2.255   1.983  18.853  1.00  0.00    -0.205 F 
ATOM     93  C   UNL     1      -0.848   3.268  20.124  1.00  0.00     0.022 A 
BRANCH  91  94
ATOM     94  S   UNL     1       1.417   2.721  21.591  1.00  0.00     0.127 S 
ATOM     95  O   UNL     1       1.510   4.104  22.241  1.00  0.00    -0.237 OA
ATOM     96  O   UNL     1       0.738   1.748  22.557  1.00  0.00    -0.237 OA
ATOM     97  O   UNL     1       2.990   2.157  21.225  1.00  0.00    -0.744 OA
ENDBRANCH  91  94
ENDBRANCH  64  87
ENDBRANCH  38  39
ENDBRANCH  30  33
ENDBRANCH  28  29
ENDBRANCH   1  28
TORSDOF 16
