REMARK SMILES O=C(NCCCCNC(=O)[C@H]1CC[C@@H](CNc2ccccc2[N+](=O)[O-])O1)c1ccc(-c2c3nc(c(-c4cccc(S(=O)(=O)[O-])c4F)c4ccc([nH]4)c(-c4cccc(S(=O)(=O)[O-])c4F)c4nc(c(-c5cccc(S(=O)(=O)[O-])c5F)c5ccc2[nH]5)C=C4)C=C3)cc1
REMARK SMILES IDX 6 1 5 2 4 3 3 4 1 5 2 6 27 8 28 9 89 10 29 11 88 12 30 13
REMARK SMILES IDX 31 14 32 15 82 16 33 17 87 18 81 19 83 20 34 21 86 22 80 23
REMARK SMILES IDX 79 24 35 26 67 27 47 28 66 29 48 30 51 31 65 32 84 33 49 34
REMARK SMILES IDX 50 35 64 37 85 38 52 39 36 40 37 41 45 42 38 43 40 44 46 45
REMARK SMILES IDX 39 46 41 47 42 48 43 49 44 50 68 51 69 52 77 53 70 54 72 55
REMARK SMILES IDX 78 56 71 57 73 58 74 59 75 60 76 61 53 62 54 63 62 64 55 65
REMARK SMILES IDX 57 66 63 67 56 68 58 69 59 70 60 71 61 72 7 73 8 74 9 75
REMARK SMILES IDX 10 77 11 78 12 79 26 80 13 81 14 82 15 83 16 84 17 86 18 87
REMARK SMILES IDX 22 88 19 89 21 90 20 91 23 92 24 93 25 94
REMARK H PARENT 3 7 83 25 51 36 8 76 16 85
REMARK Flexibility Score: inf
ROOT
ATOM      1  C   UNL     1       3.516   8.954   3.247  1.00  0.00     0.023 C 
ENDROOT
BRANCH   1   2
ATOM      2  C   UNL     1       2.886   9.268   4.598  1.00  0.00     0.023 C 
BRANCH   2   3
ATOM      3  C   UNL     1       3.674  10.233   5.478  1.00  0.00     0.116 C 
BRANCH   3   4
ATOM      4  N   UNL     1       3.948  11.532   4.878  1.00  0.00    -0.352 N 
ATOM      5  O   UNL     1       4.285  13.782   4.921  1.00  0.00    -0.269 OA
ATOM      6  C   UNL     1       4.031  12.746   5.528  1.00  0.00     0.251 C 
ATOM      7  H   UNL     1       4.089  11.545   3.903  1.00  0.00     0.163 HD
BRANCH   6   8
ATOM      8  C   UNL     1       3.757  12.776   6.979  1.00  0.00     0.039 A 
ATOM      9  C   UNL     1       4.469  11.940   7.841  1.00  0.00     0.014 A 
ATOM     10  C   UNL     1       2.699  13.556   7.452  1.00  0.00     0.014 A 
ATOM     11  C   UNL     1       4.018  11.764   9.144  1.00  0.00     0.010 A 
ATOM     12  C   UNL     1       2.302  13.437   8.786  1.00  0.00     0.010 A 
ATOM     13  C   UNL     1       2.928  12.508   9.630  1.00  0.00    -0.014 A 
BRANCH  13  14
ATOM     14  C   UNL     1       2.503  12.337  11.043  1.00  0.00     0.031 A 
ATOM     15  C   UNL     1       1.145  11.794  11.399  1.00  0.00     0.074 A 
ATOM     16  C   UNL     1       3.370  12.681  12.015  1.00  0.00     0.049 A 
ATOM     17  N   UNL     1       0.639  11.568  12.585  1.00  0.00    -0.248 NA
ATOM     18  C   UNL     1       0.232  11.470  10.291  1.00  0.00     0.031 C 
ATOM     19  C   UNL     1       4.695  13.265  11.788  1.00  0.00     0.029 A 
ATOM     20  N   UNL     1       3.275  12.595  13.380  1.00  0.00    -0.354 N 
ATOM     21  C   UNL     1      -0.660  11.120  12.372  1.00  0.00     0.074 A 
ATOM     22  C   UNL     1      -0.867  11.102  10.940  1.00  0.00     0.031 C 
ATOM     23  C   UNL     1       5.298  13.461  12.968  1.00  0.00     0.029 A 
ATOM     24  C   UNL     1       4.388  13.065  14.037  1.00  0.00     0.049 A 
ATOM     25  H   UNL     1       2.486  12.233  13.844  1.00  0.00     0.167 HD
ATOM     26  C   UNL     1      -1.585  10.742  13.287  1.00  0.00     0.034 A 
ATOM     27  C   UNL     1       4.647  13.178  15.353  1.00  0.00     0.034 A 
ATOM     28  C   UNL     1      -1.353  10.710  14.708  1.00  0.00     0.049 A 
ATOM     29  C   UNL     1       3.618  12.706  16.338  1.00  0.00     0.074 A 
ATOM     30  C   UNL     1      -2.203  10.267  15.707  1.00  0.00     0.029 A 
ATOM     31  N   UNL     1      -0.193  11.139  15.332  1.00  0.00    -0.354 N 
ATOM     32  N   UNL     1       2.451  12.156  16.108  1.00  0.00    -0.248 NA
ATOM     33  C   UNL     1       3.950  12.847  17.762  1.00  0.00     0.031 C 
ATOM     34  C   UNL     1      -1.558  10.438  16.938  1.00  0.00     0.029 A 
ATOM     35  C   UNL     1      -0.305  10.979  16.703  1.00  0.00     0.049 A 
ATOM     36  H   UNL     1       0.596  11.503  14.869  1.00  0.00     0.167 HD
ATOM     37  C   UNL     1       1.914  11.870  17.356  1.00  0.00     0.074 A 
ATOM     38  C   UNL     1       2.899  12.277  18.338  1.00  0.00     0.031 C 
ATOM     39  C   UNL     1       0.704  11.344  17.663  1.00  0.00     0.034 A 
BRANCH  26  40
ATOM     40  C   UNL     1      -2.930  10.276  12.791  1.00  0.00     0.023 A 
ATOM     41  C   UNL     1      -3.056   8.979  12.255  1.00  0.00     0.012 A 
ATOM     42  C   UNL     1      -4.082  11.071  12.959  1.00  0.00     0.148 A 
ATOM     43  C   UNL     1      -4.305   8.485  11.880  1.00  0.00     0.002 A 
ATOM     44  C   UNL     1      -5.328  10.559  12.613  1.00  0.00     0.091 A 
ATOM     45  F   UNL     1      -3.938  12.308  13.454  1.00  0.00    -0.205 F 
ATOM     46  C   UNL     1      -5.441   9.268  12.069  1.00  0.00     0.022 A 
BRANCH  44  47
ATOM     47  S   UNL     1      -6.858  11.462  12.884  1.00  0.00     0.127 S 
ATOM     48  O   UNL     1      -7.232  11.825  11.518  1.00  0.00    -0.237 OA
ATOM     49  O   UNL     1      -7.713  10.447  13.500  1.00  0.00    -0.237 OA
ATOM     50  O   UNL     1      -6.516  12.576  13.757  1.00  0.00    -0.744 OA
ENDBRANCH  44  47
ENDBRANCH  26  40
BRANCH  27  51
ATOM     51  C   UNL     1       5.962  13.714  15.797  1.00  0.00     0.023 A 
ATOM     52  C   UNL     1       6.897  12.849  16.395  1.00  0.00     0.012 A 
ATOM     53  C   UNL     1       6.319  15.057  15.566  1.00  0.00     0.148 A 
ATOM     54  C   UNL     1       8.157  13.316  16.771  1.00  0.00     0.002 A 
ATOM     55  C   UNL     1       7.597  15.499  15.885  1.00  0.00     0.091 A 
ATOM     56  F   UNL     1       5.409  15.875  15.016  1.00  0.00    -0.205 F 
ATOM     57  C   UNL     1       8.513  14.636  16.502  1.00  0.00     0.022 A 
BRANCH  55  58
ATOM     58  S   UNL     1       8.162  17.137  15.409  1.00  0.00     0.127 S 
ATOM     59  O   UNL     1       7.905  17.910  16.620  1.00  0.00    -0.237 OA
ATOM     60  O   UNL     1       9.577  16.908  15.112  1.00  0.00    -0.237 OA
ATOM     61  O   UNL     1       7.363  17.482  14.239  1.00  0.00    -0.744 OA
ENDBRANCH  55  58
ENDBRANCH  27  51
BRANCH  39  62
ATOM     62  C   UNL     1       0.378  11.173  19.121  1.00  0.00     0.023 A 
ATOM     63  C   UNL     1       0.043  12.305  19.890  1.00  0.00     0.012 A 
ATOM     64  C   UNL     1       0.348   9.897  19.715  1.00  0.00     0.148 A 
ATOM     65  C   UNL     1      -0.290  12.173  21.237  1.00  0.00     0.002 A 
ATOM     66  C   UNL     1      -0.025   9.768  21.048  1.00  0.00     0.091 A 
ATOM     67  F   UNL     1       0.693   8.835  18.972  1.00  0.00    -0.205 F 
ATOM     68  C   UNL     1      -0.335  10.905  21.813  1.00  0.00     0.022 A 
BRANCH  66  69
ATOM     69  S   UNL     1      -0.185   8.165  21.841  1.00  0.00     0.127 S 
ATOM     70  O   UNL     1       1.062   8.078  22.597  1.00  0.00    -0.237 OA
ATOM     71  O   UNL     1      -1.385   8.336  22.662  1.00  0.00    -0.237 OA
ATOM     72  O   UNL     1      -0.335   7.203  20.756  1.00  0.00    -0.744 OA
ENDBRANCH  66  69
ENDBRANCH  39  62
ENDBRANCH  13  14
ENDBRANCH   6   8
ENDBRANCH   3   4
ENDBRANCH   2   3
ENDBRANCH   1   2
BRANCH   1  73
ATOM     73  C   UNL     1       4.917   8.361   3.329  1.00  0.00     0.116 C 
BRANCH  73  74
ATOM     74  N   UNL     1       4.925   6.917   3.364  1.00  0.00    -0.354 N 
ATOM     75  C   UNL     1       5.583   6.038   2.553  1.00  0.00     0.249 C 
ATOM     76  H   UNL     1       4.379   6.508   4.074  1.00  0.00     0.163 HD
ATOM     77  O   UNL     1       5.512   4.837   2.837  1.00  0.00    -0.272 OA
BRANCH  75  78
ATOM     78  C   UNL     1       6.330   6.487   1.267  1.00  0.00     0.207 C 
ATOM     79  C   UNL     1       5.391   6.636   0.079  1.00  0.00     0.045 C 
ATOM     80  O   UNL     1       7.128   7.667   1.338  1.00  0.00    -0.363 OA
ATOM     81  C   UNL     1       5.391   8.117  -0.218  1.00  0.00     0.037 C 
ATOM     82  C   UNL     1       6.763   8.570   0.259  1.00  0.00     0.138 C 
BRANCH  82  83
ATOM     83  C   UNL     1       6.798  10.045   0.755  1.00  0.00     0.145 C 
BRANCH  83  84
ATOM     84  N   UNL     1       7.592  10.124   1.977  1.00  0.00    -0.377 N 
ATOM     85  H   UNL     1       8.137   9.324   2.159  1.00  0.00     0.160 HD
BRANCH  84  86
ATOM     86  C   UNL     1       7.713  11.122   2.920  1.00  0.00     0.113 A 
ATOM     87  C   UNL     1       8.566  10.836   4.007  1.00  0.00     0.033 A 
ATOM     88  C   UNL     1       7.151  12.408   2.928  1.00  0.00     0.292 A 
ATOM     89  C   UNL     1       8.839  11.762   5.022  1.00  0.00     0.003 A 
ATOM     90  C   UNL     1       7.421  13.358   3.933  1.00  0.00     0.088 A 
ATOM     91  C   UNL     1       8.272  13.029   4.981  1.00  0.00     0.007 A 
BRANCH  88  92
ATOM     92  N   UNL     1       6.195  12.817   1.928  1.00  0.00     0.064 N 
ATOM     93  O   UNL     1       6.602  13.561   1.024  1.00  0.00    -0.258 OA
ATOM     94  O   UNL     1       5.037  12.384   2.041  1.00  0.00    -0.258 OA
ENDBRANCH  88  92
ENDBRANCH  84  86
ENDBRANCH  83  84
ENDBRANCH  82  83
ENDBRANCH  75  78
ENDBRANCH  73  74
ENDBRANCH   1  73
TORSDOF 18
