REMARK SMILES O=C(Cc1ccccc1)Nc1cccc(C(=O)Nc2ccccc2C(=O)NCCCCNC(=O)c2ccc(-c3c4nc(c(-c5cccc(S(=O)(=O)[O-])c5F)c5ccc([nH]5)c(-c5cccc(S(=O)(=O)[O-])c5F)c5nc(c(-c6cccc(S(=O)(=O)[O-])c6F)c6ccc3[nH]6)C=C5)C=C4)cc2)c1
REMARK SMILES IDX 28 1 27 2 25 3 26 4 24 6 19 7 20 8 21 9 23 10 22 11 18 12
REMARK SMILES IDX 16 13 17 14 15 16 11 17 12 18 98 19 13 20 14 21 10 22 1 23
REMARK SMILES IDX 2 24 3 26 4 27 5 28 9 29 6 30 8 31 7 32 29 33 30 34 31 35
REMARK SMILES IDX 32 36 33 37 34 39 35 40 36 41 97 42 37 43 96 44 38 45 39 46
REMARK SMILES IDX 40 47 90 48 41 49 95 50 89 51 91 52 42 53 94 54 88 55 87 56
REMARK SMILES IDX 43 58 75 59 55 60 74 61 56 62 59 63 73 64 92 65 57 66 58 67
REMARK SMILES IDX 72 69 93 70 60 71 44 72 45 73 53 74 46 75 48 76 54 77 47 78
REMARK SMILES IDX 49 79 50 80 51 81 52 82 76 83 77 84 85 85 78 86 80 87 86 88
REMARK SMILES IDX 79 89 81 90 82 91 83 92 84 93 61 94 62 95 70 96 63 97 65 98
REMARK SMILES IDX 71 99 64 100 66 101 67 102 68 103 69 104
REMARK H PARENT 27 5 18 15 10 25 32 38 91 57 59 68
REMARK Flexibility Score: inf
ROOT
ATOM      1  C   UNL     1      -0.360   4.696   3.382  1.00  0.00     0.116 C 
ENDROOT
BRANCH   1   2
ATOM      2  N   UNL     1       0.952   4.389   2.857  1.00  0.00    -0.352 N 
ATOM      3  C   UNL     1       1.473   3.186   2.454  1.00  0.00     0.253 C 
ATOM      4  O   UNL     1       2.650   3.150   2.091  1.00  0.00    -0.269 OA
ATOM      5  H   UNL     1       1.562   5.157   2.777  1.00  0.00     0.163 HD
BRANCH   3   6
ATOM      6  C   UNL     1       0.712   1.908   2.549  1.00  0.00     0.063 A 
ATOM      7  C   UNL     1      -0.632   1.666   2.195  1.00  0.00     0.054 A 
ATOM      8  C   UNL     1      -1.198   0.421   2.534  1.00  0.00     0.027 A 
ATOM      9  C   UNL     1      -0.427  -0.608   3.078  1.00  0.00     0.002 A 
ATOM     10  C   UNL     1       1.479   0.849   3.085  1.00  0.00     0.016 A 
ATOM     11  C   UNL     1       0.921  -0.404   3.330  1.00  0.00     0.001 A 
BRANCH   7  12
ATOM     12  N   UNL     1      -1.510   2.503   1.463  1.00  0.00    -0.321 N 
ATOM     13  C   UNL     1      -1.293   3.374   0.413  1.00  0.00     0.255 C 
ATOM     14  O   UNL     1      -2.186   4.151   0.078  1.00  0.00    -0.269 OA
ATOM     15  H   UNL     1      -2.448   2.454   1.756  1.00  0.00     0.170 HD
BRANCH  13  16
ATOM     16  C   UNL     1      -0.026   3.353  -0.344  1.00  0.00     0.042 A 
ATOM     17  C   UNL     1       1.955   2.148  -0.959  1.00  0.00     0.041 A 
ATOM     18  C   UNL     1       2.571   3.364  -1.288  1.00  0.00     0.026 A 
ATOM     19  C   UNL     1       0.620   2.139  -0.586  1.00  0.00     0.040 A 
ATOM     20  C   UNL     1       1.861   4.564  -1.216  1.00  0.00     0.003 A 
ATOM     21  C   UNL     1       0.559   4.563  -0.724  1.00  0.00     0.014 A 
BRANCH  17  22
ATOM     22  N   UNL     1       2.769   1.010  -0.847  1.00  0.00    -0.326 N 
ATOM     23  O   UNL     1       1.235  -0.742  -0.693  1.00  0.00    -0.274 OA
ATOM     24  C   UNL     1       2.379  -0.299  -0.618  1.00  0.00     0.228 C 
ATOM     25  H   UNL     1       3.737   1.161  -0.944  1.00  0.00     0.169 HD
BRANCH  24  26
ATOM     26  C   UNL     1       3.541  -1.196  -0.217  1.00  0.00     0.135 C 
BRANCH  26  27
ATOM     27  C   UNL     1       4.385  -1.654  -1.383  1.00  0.00    -0.039 A 
ATOM     28  C   UNL     1       4.352  -2.993  -1.794  1.00  0.00     0.004 A 
ATOM     29  C   UNL     1       5.218  -0.760  -2.073  1.00  0.00     0.004 A 
ATOM     30  C   UNL     1       5.124  -3.420  -2.877  1.00  0.00     0.000 A 
ATOM     31  C   UNL     1       5.968  -1.182  -3.169  1.00  0.00     0.000 A 
ATOM     32  C   UNL     1       5.922  -2.513  -3.570  1.00  0.00     0.000 A 
ENDBRANCH  26  27
ENDBRANCH  24  26
ENDBRANCH  17  22
ENDBRANCH  13  16
ENDBRANCH   7  12
ENDBRANCH   3   6
ENDBRANCH   1   2
BRANCH   1  33
ATOM     33  C   UNL     1      -0.405   5.952   4.245  1.00  0.00     0.023 C 
BRANCH  33  34
ATOM     34  C   UNL     1       0.050   7.251   3.574  1.00  0.00     0.023 C 
BRANCH  34  35
ATOM     35  C   UNL     1      -0.455   7.510   2.157  1.00  0.00     0.116 C 
BRANCH  35  36
ATOM     36  N   UNL     1      -1.906   7.538   2.039  1.00  0.00    -0.352 N 
ATOM     37  C   UNL     1      -2.748   8.566   1.680  1.00  0.00     0.251 C 
ATOM     38  H   UNL     1      -2.355   6.688   2.251  1.00  0.00     0.163 HD
ATOM     39  O   UNL     1      -3.962   8.423   1.754  1.00  0.00    -0.269 OA
BRANCH  37  40
ATOM     40  C   UNL     1      -2.185   9.862   1.239  1.00  0.00     0.039 A 
ATOM     41  C   UNL     1      -2.671  11.039   1.814  1.00  0.00     0.014 A 
ATOM     42  C   UNL     1      -1.170   9.916   0.283  1.00  0.00     0.014 A 
ATOM     43  C   UNL     1      -2.064  12.261   1.508  1.00  0.00     0.010 A 
ATOM     44  C   UNL     1      -0.517  11.121   0.038  1.00  0.00     0.010 A 
ATOM     45  C   UNL     1      -0.947  12.305   0.659  1.00  0.00    -0.014 A 
BRANCH  45  46
ATOM     46  C   UNL     1      -0.182  13.562   0.444  1.00  0.00     0.031 A 
ATOM     47  C   UNL     1      -0.059  14.154  -0.934  1.00  0.00     0.074 A 
ATOM     48  C   UNL     1       0.502  14.106   1.472  1.00  0.00     0.049 A 
ATOM     49  N   UNL     1       0.643  15.185  -1.327  1.00  0.00    -0.248 NA
ATOM     50  C   UNL     1      -0.795  13.481  -2.017  1.00  0.00     0.031 C 
ATOM     51  C   UNL     1       0.542  13.578   2.837  1.00  0.00     0.029 A 
ATOM     52  N   UNL     1       1.323  15.206   1.521  1.00  0.00    -0.354 N 
ATOM     53  C   UNL     1       0.472  15.258  -2.704  1.00  0.00     0.074 A 
ATOM     54  C   UNL     1      -0.379  14.150  -3.083  1.00  0.00     0.031 C 
ATOM     55  C   UNL     1       1.341  14.353   3.588  1.00  0.00     0.029 A 
ATOM     56  C   UNL     1       1.892  15.417   2.756  1.00  0.00     0.049 A 
ATOM     57  H   UNL     1       1.489  15.789   0.745  1.00  0.00     0.167 HD
ATOM     58  C   UNL     1       0.952  16.180  -3.572  1.00  0.00     0.034 A 
ATOM     59  C   UNL     1       2.761  16.359   3.172  1.00  0.00     0.034 A 
ATOM     60  C   UNL     1       1.742  17.318  -3.187  1.00  0.00     0.049 A 
ATOM     61  C   UNL     1       3.219  17.415   2.203  1.00  0.00     0.074 A 
ATOM     62  C   UNL     1       2.190  18.361  -3.978  1.00  0.00     0.029 A 
ATOM     63  N   UNL     1       2.200  17.565  -1.902  1.00  0.00    -0.354 N 
ATOM     64  N   UNL     1       2.908  17.562   0.938  1.00  0.00    -0.248 NA
ATOM     65  C   UNL     1       4.115  18.457   2.725  1.00  0.00     0.031 C 
ATOM     66  C   UNL     1       2.924  19.238  -3.171  1.00  0.00     0.029 A 
ATOM     67  C   UNL     1       2.924  18.744  -1.876  1.00  0.00     0.049 A 
ATOM     68  H   UNL     1       2.034  16.986  -1.123  1.00  0.00     0.167 HD
ATOM     69  C   UNL     1       3.539  18.729   0.523  1.00  0.00     0.074 A 
ATOM     70  C   UNL     1       4.234  19.261   1.677  1.00  0.00     0.031 C 
ATOM     71  C   UNL     1       3.555  19.299  -0.707  1.00  0.00     0.034 A 
BRANCH  58  72
ATOM     72  C   UNL     1       0.570  16.038  -5.022  1.00  0.00     0.023 A 
ATOM     73  C   UNL     1      -0.749  16.335  -5.420  1.00  0.00     0.012 A 
ATOM     74  C   UNL     1       1.519  15.669  -5.995  1.00  0.00     0.148 A 
ATOM     75  C   UNL     1      -1.128  16.234  -6.757  1.00  0.00     0.002 A 
ATOM     76  C   UNL     1       1.144  15.611  -7.333  1.00  0.00     0.091 A 
ATOM     77  F   UNL     1       2.764  15.368  -5.596  1.00  0.00    -0.205 F 
ATOM     78  C   UNL     1      -0.180  15.883  -7.714  1.00  0.00     0.022 A 
BRANCH  76  79
ATOM     79  S   UNL     1       2.312  15.241  -8.647  1.00  0.00     0.127 S 
ATOM     80  O   UNL     1       1.950  13.866  -8.986  1.00  0.00    -0.237 OA
ATOM     81  O   UNL     1       1.960  16.232  -9.665  1.00  0.00    -0.237 OA
ATOM     82  O   UNL     1       3.635  15.417  -8.065  1.00  0.00    -0.744 OA
ENDBRANCH  76  79
ENDBRANCH  58  72
BRANCH  59  83
ATOM     83  C   UNL     1       3.187  16.398   4.601  1.00  0.00     0.023 A 
ATOM     84  C   UNL     1       2.697  17.424   5.433  1.00  0.00     0.012 A 
ATOM     85  C   UNL     1       4.037  15.418   5.147  1.00  0.00     0.148 A 
ATOM     86  C   UNL     1       3.069  17.491   6.775  1.00  0.00     0.002 A 
ATOM     87  C   UNL     1       4.363  15.461   6.499  1.00  0.00     0.091 A 
ATOM     88  F   UNL     1       4.505  14.458   4.337  1.00  0.00    -0.205 F 
ATOM     89  C   UNL     1       3.893  16.505   7.311  1.00  0.00     0.022 A 
BRANCH  87  90
ATOM     90  S   UNL     1       5.312  14.161   7.297  1.00  0.00     0.127 S 
ATOM     91  O   UNL     1       6.616  14.798   7.460  1.00  0.00    -0.237 OA
ATOM     92  O   UNL     1       4.567  13.957   8.540  1.00  0.00    -0.237 OA
ATOM     93  O   UNL     1       5.265  13.029   6.382  1.00  0.00    -0.744 OA
ENDBRANCH  87  90
ENDBRANCH  59  83
BRANCH  71  94
ATOM     94  C   UNL     1       4.320  20.584  -0.874  1.00  0.00     0.023 A 
ATOM     95  C   UNL     1       5.727  20.557  -0.914  1.00  0.00     0.012 A 
ATOM     96  C   UNL     1       3.644  21.804  -1.079  1.00  0.00     0.148 A 
ATOM     97  C   UNL     1       6.453  21.727  -1.132  1.00  0.00     0.002 A 
ATOM     98  C   UNL     1       4.373  22.959  -1.338  1.00  0.00     0.091 A 
ATOM     99  F   UNL     1       2.305  21.813  -1.014  1.00  0.00    -0.205 F 
ATOM    100  C   UNL     1       5.776  22.924  -1.357  1.00  0.00     0.022 A 
BRANCH  98 101
ATOM    101  S   UNL     1       3.579  24.523  -1.729  1.00  0.00     0.127 S 
ATOM    102  O   UNL     1       3.734  25.258  -0.475  1.00  0.00    -0.237 OA
ATOM    103  O   UNL     1       4.399  25.023  -2.834  1.00  0.00    -0.237 OA
ATOM    104  O   UNL     1       2.210  24.192  -2.100  1.00  0.00    -0.744 OA
ENDBRANCH  98 101
ENDBRANCH  71  94
ENDBRANCH  45  46
ENDBRANCH  37  40
ENDBRANCH  35  36
ENDBRANCH  34  35
ENDBRANCH  33  34
ENDBRANCH   1  33
TORSDOF 19
