REMARK SMILES COC(=O)c1ccccc1N1C(=O)/C(=C\c2ccc(-c3ccc(Cl)c(C(=O)NCCCCNC(=O)c4ccc(-c5c6nc(c(-c7cccc(S(=O)(=O)[O-])c7F)c7ccc([nH]7)c(-c7cccc(S(=O)(=O)[O-])c7F)c7nc(c(-c8cccc(S(=O)(=O)[O-])c8F)c8ccc5[nH]8)C=C7)C=C6)cc4)c3)o2)SC1=S
REMARK SMILES IDX 29 1 28 2 26 3 27 4 25 6 20 7 21 8 99 9 22 10 23 11 24 12
REMARK SMILES IDX 19 13 16 14 17 15 100 16 18 17 15 18 11 19 12 20 102 21
REMARK SMILES IDX 13 22 14 23 101 24 103 25 10 26 5 27 6 28 7 29 9 30 8 31
REMARK SMILES IDX 3 32 4 33 2 34 1 35 30 36 31 37 32 38 33 39 34 40 35 42
REMARK SMILES IDX 36 43 37 44 98 45 38 46 97 47 39 48 40 49 41 50 91 51 42 52
REMARK SMILES IDX 96 53 90 54 92 55 43 56 95 57 89 58 88 59 44 61 76 62 56 63
REMARK SMILES IDX 75 64 57 65 60 66 74 67 93 68 58 69 59 70 73 72 94 73 61 74
REMARK SMILES IDX 45 75 46 76 54 77 47 78 49 79 55 80 48 81 50 82 51 83 52 84
REMARK SMILES IDX 53 85 77 86 78 87 86 88 79 89 81 90 87 91 80 92 82 93 83 94
REMARK SMILES IDX 84 95 85 96 62 97 63 98 71 99 64 100 66 101 72 102 65 103
REMARK SMILES IDX 67 104 68 105 69 106 70 107
REMARK H PARENT 28 5 33 41 92 60 60 71
REMARK Flexibility Score: inf
ROOT
ATOM      1  C   UNL     1      -5.858   6.701   7.009  1.00  0.00     0.116 C 
ENDROOT
BRANCH   1   2
ATOM      2  N   UNL     1      -6.551   6.598   8.288  1.00  0.00    -0.352 N 
ATOM      3  C   UNL     1      -6.899   5.500   9.060  1.00  0.00     0.252 C 
ATOM      4  O   UNL     1      -7.357   5.695  10.182  1.00  0.00    -0.269 OA
ATOM      5  H   UNL     1      -6.821   7.463   8.672  1.00  0.00     0.163 HD
BRANCH   3   6
ATOM      6  C   UNL     1      -6.736   4.109   8.552  1.00  0.00     0.059 A 
ATOM      7  C   UNL     1      -5.542   2.657   7.005  1.00  0.00     0.018 A 
ATOM      8  C   UNL     1      -6.528   1.682   7.159  1.00  0.00     0.013 A 
ATOM      9  C   UNL     1      -5.592   3.797   7.813  1.00  0.00     0.027 A 
ATOM     10  C   UNL     1      -7.580   1.891   8.056  1.00  0.00     0.022 A 
ATOM     11  C   UNL     1      -7.713   3.119   8.722  1.00  0.00     0.053 A 
ATOM     12  Cl  UNL     1      -9.138   3.326   9.675  1.00  0.00    -0.083 Cl
BRANCH   7  13
ATOM     13  C   UNL     1      -4.569   2.628   5.923  1.00  0.00     0.134 A 
ATOM     14  C   UNL     1      -3.999   2.210   3.819  1.00  0.00     0.128 A 
ATOM     15  C   UNL     1      -3.013   3.016   4.371  1.00  0.00     0.051 A 
ATOM     16  O   UNL     1      -4.960   1.998   4.778  1.00  0.00    -0.457 OA
ATOM     17  C   UNL     1      -3.358   3.253   5.719  1.00  0.00     0.051 A 
BRANCH  14  18
ATOM     18  C   UNL     1      -4.054   1.631   2.527  1.00  0.00     0.068 C 
ATOM     19  N   UNL     1      -1.857  -1.282   2.486  1.00  0.00    -0.260 N 
ATOM     20  C   UNL     1      -2.389  -0.172   3.127  1.00  0.00     0.270 C 
ATOM     21  C   UNL     1      -2.268  -1.510   1.185  1.00  0.00     0.152 C 
ATOM     22  O   UNL     1      -2.130   0.176   4.271  1.00  0.00    -0.268 OA
ATOM     23  C   UNL     1      -3.315   0.558   2.215  1.00  0.00     0.084 C 
ATOM     24  S   UNL     1      -3.336  -0.202   0.668  1.00  0.00    -0.054 SA
ATOM     25  S   UNL     1      -1.965  -2.828   0.201  1.00  0.00    -0.051 S 
BRANCH  19  26
ATOM     26  C   UNL     1      -0.952  -2.100   3.222  1.00  0.00     0.065 A 
ATOM     27  C   UNL     1       0.388  -2.324   2.855  1.00  0.00     0.084 A 
ATOM     28  C   UNL     1       1.206  -3.115   3.685  1.00  0.00     0.018 A 
ATOM     29  C   UNL     1       0.714  -3.656   4.875  1.00  0.00     0.001 A 
ATOM     30  C   UNL     1      -1.425  -2.647   4.433  1.00  0.00     0.028 A 
ATOM     31  C   UNL     1      -0.602  -3.419   5.250  1.00  0.00     0.002 A 
BRANCH  27  32
ATOM     32  C   UNL     1       1.072  -1.721   1.677  1.00  0.00     0.339 C 
ATOM     33  O   UNL     1       2.018  -2.237   1.121  1.00  0.00    -0.246 OA
BRANCH  32  34
ATOM     34  O   UNL     1       0.530  -0.511   1.369  1.00  0.00    -0.465 OA
ATOM     35  C   UNL     1       1.120   0.108   0.225  1.00  0.00     0.282 C 
ENDBRANCH  32  34
ENDBRANCH  27  32
ENDBRANCH  19  26
ENDBRANCH  14  18
ENDBRANCH   7  13
ENDBRANCH   3   6
ENDBRANCH   1   2
BRANCH   1  36
ATOM     36  C   UNL     1      -6.433   7.711   6.024  1.00  0.00     0.023 C 
BRANCH  36  37
ATOM     37  C   UNL     1      -6.415   9.173   6.448  1.00  0.00     0.023 C 
BRANCH  37  38
ATOM     38  C   UNL     1      -5.079   9.725   6.933  1.00  0.00     0.116 C 
BRANCH  38  39
ATOM     39  N   UNL     1      -3.993   9.589   5.970  1.00  0.00    -0.352 N 
ATOM     40  C   UNL     1      -3.112  10.539   5.503  1.00  0.00     0.251 C 
ATOM     41  H   UNL     1      -3.871   8.685   5.600  1.00  0.00     0.163 HD
ATOM     42  O   UNL     1      -2.298  10.241   4.633  1.00  0.00    -0.269 OA
BRANCH  40  43
ATOM     43  C   UNL     1      -3.175  11.927   6.016  1.00  0.00     0.039 A 
ATOM     44  C   UNL     1      -3.180  12.986   5.103  1.00  0.00     0.014 A 
ATOM     45  C   UNL     1      -3.268  12.185   7.385  1.00  0.00     0.014 A 
ATOM     46  C   UNL     1      -3.374  14.294   5.558  1.00  0.00     0.010 A 
ATOM     47  C   UNL     1      -3.544  13.476   7.828  1.00  0.00     0.010 A 
ATOM     48  C   UNL     1      -3.606  14.545   6.920  1.00  0.00    -0.014 A 
BRANCH  48  49
ATOM     49  C   UNL     1      -3.945  15.908   7.413  1.00  0.00     0.031 A 
ATOM     50  C   UNL     1      -3.058  16.594   8.420  1.00  0.00     0.074 A 
ATOM     51  C   UNL     1      -5.108  16.483   7.042  1.00  0.00     0.049 A 
ATOM     52  N   UNL     1      -3.232  17.742   9.022  1.00  0.00    -0.248 NA
ATOM     53  C   UNL     1      -1.833  15.887   8.828  1.00  0.00     0.031 C 
ATOM     54  C   UNL     1      -6.103  15.883   6.149  1.00  0.00     0.029 A 
ATOM     55  N   UNL     1      -5.670  17.685   7.397  1.00  0.00    -0.354 N 
ATOM     56  C   UNL     1      -2.172  17.871   9.912  1.00  0.00     0.074 A 
ATOM     57  C   UNL     1      -1.368  16.676   9.787  1.00  0.00     0.031 C 
ATOM     58  C   UNL     1      -7.152  16.713   6.034  1.00  0.00     0.029 A 
ATOM     59  C   UNL     1      -6.923  17.891   6.864  1.00  0.00     0.049 A 
ATOM     60  H   UNL     1      -5.220  18.339   7.980  1.00  0.00     0.167 HD
ATOM     61  C   UNL     1      -1.880  18.901  10.740  1.00  0.00     0.034 A 
ATOM     62  C   UNL     1      -7.795  18.905   7.034  1.00  0.00     0.034 A 
ATOM     63  C   UNL     1      -2.643  20.117  10.815  1.00  0.00     0.049 A 
ATOM     64  C   UNL     1      -7.404  20.069   7.906  1.00  0.00     0.074 A 
ATOM     65  C   UNL     1      -2.354  21.268  11.528  1.00  0.00     0.029 A 
ATOM     66  N   UNL     1      -3.845  20.340  10.165  1.00  0.00    -0.354 N 
ATOM     67  N   UNL     1      -6.300  20.256   8.586  1.00  0.00    -0.248 NA
ATOM     68  C   UNL     1      -8.361  21.182   8.002  1.00  0.00     0.031 C 
ATOM     69  C   UNL     1      -3.396  22.177  11.331  1.00  0.00     0.029 A 
ATOM     70  C   UNL     1      -4.318  21.604  10.471  1.00  0.00     0.049 A 
ATOM     71  H   UNL     1      -4.295  19.696   9.573  1.00  0.00     0.167 HD
ATOM     72  C   UNL     1      -6.412  21.519   9.157  1.00  0.00     0.074 A 
ATOM     73  C   UNL     1      -7.682  22.063   8.723  1.00  0.00     0.031 C 
ATOM     74  C   UNL     1      -5.550  22.163   9.980  1.00  0.00     0.034 A 
BRANCH  61  75
ATOM     75  C   UNL     1      -0.651  18.796  11.602  1.00  0.00     0.023 A 
ATOM     76  C   UNL     1       0.624  18.927  11.016  1.00  0.00     0.012 A 
ATOM     77  C   UNL     1      -0.762  18.680  13.002  1.00  0.00     0.148 A 
ATOM     78  C   UNL     1       1.772  18.923  11.808  1.00  0.00     0.002 A 
ATOM     79  C   UNL     1       0.383  18.721  13.788  1.00  0.00     0.091 A 
ATOM     80  F   UNL     1      -1.984  18.539  13.536  1.00  0.00    -0.205 F 
ATOM     81  C   UNL     1       1.651  18.833  13.192  1.00  0.00     0.022 A 
BRANCH  79  82
ATOM     82  S   UNL     1       0.332  18.699  15.583  1.00  0.00     0.127 S 
ATOM     83  O   UNL     1       0.968  17.416  15.880  1.00  0.00    -0.237 OA
ATOM     84  O   UNL     1       1.136  19.872  15.926  1.00  0.00    -0.237 OA
ATOM     85  O   UNL     1      -1.074  18.793  15.949  1.00  0.00    -0.744 OA
ENDBRANCH  79  82
ENDBRANCH  61  75
BRANCH  62  86
ATOM     86  C   UNL     1      -9.110  18.896   6.329  1.00  0.00     0.023 A 
ATOM     87  C   UNL     1      -9.356  19.834   5.306  1.00  0.00     0.012 A 
ATOM     88  C   UNL     1     -10.118  17.975   6.669  1.00  0.00     0.148 A 
ATOM     89  C   UNL     1     -10.597  19.885   4.669  1.00  0.00     0.002 A 
ATOM     90  C   UNL     1     -11.331  17.992   5.989  1.00  0.00     0.091 A 
ATOM     91  F   UNL     1      -9.875  17.099   7.654  1.00  0.00    -0.205 F 
ATOM     92  C   UNL     1     -11.581  18.959   5.004  1.00  0.00     0.022 A 
BRANCH  90  93
ATOM     93  S   UNL     1     -12.597  16.748   6.266  1.00  0.00     0.127 S 
ATOM     94  O   UNL     1     -13.564  17.479   7.080  1.00  0.00    -0.237 OA
ATOM     95  O   UNL     1     -13.039  16.451   4.903  1.00  0.00    -0.237 OA
ATOM     96  O   UNL     1     -11.913  15.642   6.924  1.00  0.00    -0.744 OA
ENDBRANCH  90  93
ENDBRANCH  62  86
BRANCH  74  97
ATOM     97  C   UNL     1      -5.915  23.551  10.435  1.00  0.00     0.023 A 
ATOM     98  C   UNL     1      -6.944  23.734  11.380  1.00  0.00     0.012 A 
ATOM     99  C   UNL     1      -5.180  24.666   9.987  1.00  0.00     0.148 A 
ATOM    100  C   UNL     1      -7.257  25.010  11.847  1.00  0.00     0.002 A 
ATOM    101  C   UNL     1      -5.463  25.928  10.495  1.00  0.00     0.091 A 
ATOM    102  F   UNL     1      -4.216  24.473   9.074  1.00  0.00    -0.205 F 
ATOM    103  C   UNL     1      -6.509  26.104  11.415  1.00  0.00     0.022 A 
BRANCH 101 104
ATOM    104  S   UNL     1      -4.487  27.376  10.072  1.00  0.00     0.127 S 
ATOM    105  O   UNL     1      -5.402  28.106   9.196  1.00  0.00    -0.237 OA
ATOM    106  O   UNL     1      -4.269  27.996  11.380  1.00  0.00    -0.237 OA
ATOM    107  O   UNL     1      -3.278  26.872   9.435  1.00  0.00    -0.744 OA
ENDBRANCH 101 104
ENDBRANCH  74  97
ENDBRANCH  48  49
ENDBRANCH  40  43
ENDBRANCH  38  39
ENDBRANCH  37  38
ENDBRANCH  36  37
ENDBRANCH   1  36
TORSDOF 19
