REMARK SMILES [NH3+][C@H](C(=O)NCCCCNC(=O)c1ccc(-c2c3nc(c(-c4cccc(S(=O)(=O)[O-])c4F)c4ccc([nH]4)c(-c4cccc(S(=O)(=O)[O-])c4F)c4nc(c(-c5cccc(S(=O)(=O)[O-])c5F)c5ccc2[nH]5)C=C4)C=C3)cc1)c1c(F)cc(I)cc1F
REMARK SMILES IDX 8 1 7 2 6 3 5 4 3 5 4 6 2 8 1 9 76 13 77 14 83 15 78 16
REMARK SMILES IDX 79 17 82 18 84 19 80 20 81 21 9 22 10 23 11 24 12 26 13 27
REMARK SMILES IDX 14 28 75 29 15 30 74 31 16 32 17 33 18 34 68 35 19 36 73 37
REMARK SMILES IDX 67 38 69 39 20 40 72 41 66 42 65 43 21 45 53 46 33 47 52 48
REMARK SMILES IDX 34 49 37 50 51 51 70 52 35 53 36 54 50 56 71 57 38 58 22 59
REMARK SMILES IDX 23 60 31 61 24 62 26 63 32 64 25 65 27 66 28 67 29 68 30 69
REMARK SMILES IDX 54 70 55 71 63 72 56 73 58 74 64 75 57 76 59 77 60 78 61 79
REMARK SMILES IDX 62 80 39 81 40 82 48 83 41 84 43 85 49 86 42 87 44 88 45 89
REMARK SMILES IDX 46 90 47 91
REMARK H PARENT 5 7 1 10 1 11 1 12 10 25 69 44 37 55
REMARK Flexibility Score: inf
ROOT
ATOM      1  C   UNL     1      -1.172  -3.741  -0.478  1.00  0.00     0.023 C 
ENDROOT
BRANCH   1   2
ATOM      2  C   UNL     1      -1.057  -2.701   0.635  1.00  0.00     0.023 C 
BRANCH   2   3
ATOM      3  C   UNL     1       0.361  -2.185   0.878  1.00  0.00     0.116 C 
BRANCH   3   4
ATOM      4  N   UNL     1       0.710  -1.139  -0.065  1.00  0.00    -0.351 N 
ATOM      5  C   UNL     1       0.623   0.218   0.075  1.00  0.00     0.283 C 
ATOM      6  O   UNL     1       0.926   0.920  -0.895  1.00  0.00    -0.268 OA
ATOM      7  H   UNL     1       1.061  -1.452  -0.930  1.00  0.00     0.163 HD
BRANCH   5   8
ATOM      8  C   UNL     1       0.206   0.851   1.435  1.00  0.00     0.308 C 
BRANCH   8   9
ATOM      9  N   UNL     1       0.967   2.114   1.625  1.00  0.00    -0.343 N 
ATOM     10  H   UNL     1       0.703   2.540   2.513  1.00  0.00     0.345 HD
ATOM     11  H   UNL     1       0.753   2.757   0.863  1.00  0.00     0.345 HD
ATOM     12  H   UNL     1       1.967   1.911   1.629  1.00  0.00     0.345 HD
ENDBRANCH   8   9
BRANCH   8  13
ATOM     13  C   UNL     1      -1.288   1.067   1.510  1.00  0.00     0.090 A 
ATOM     14  C   UNL     1      -1.935   2.113   0.846  1.00  0.00     0.136 A 
ATOM     15  C   UNL     1      -2.095   0.160   2.201  1.00  0.00     0.136 A 
ATOM     16  F   UNL     1      -1.224   3.030   0.173  1.00  0.00    -0.206 F 
ATOM     17  C   UNL     1      -3.325   2.245   0.856  1.00  0.00     0.054 A 
ATOM     18  C   UNL     1      -3.486   0.248   2.195  1.00  0.00     0.054 A 
ATOM     19  F   UNL     1      -1.534  -0.854   2.876  1.00  0.00    -0.206 F 
ATOM     20  C   UNL     1      -4.098   1.296   1.518  1.00  0.00     0.019 A 
ATOM     21  I   UNL     1      -6.168   1.439   1.489  1.00  0.00    -0.044 I 
ENDBRANCH   8  13
ENDBRANCH   5   8
ENDBRANCH   3   4
ENDBRANCH   2   3
ENDBRANCH   1   2
BRANCH   1  22
ATOM     22  C   UNL     1      -0.455  -5.057  -0.205  1.00  0.00     0.116 C 
BRANCH  22  23
ATOM     23  N   UNL     1      -0.909  -5.729   1.006  1.00  0.00    -0.352 N 
ATOM     24  C   UNL     1      -1.112  -7.075   1.217  1.00  0.00     0.251 C 
ATOM     25  H   UNL     1      -1.096  -5.143   1.775  1.00  0.00     0.163 HD
ATOM     26  O   UNL     1      -1.592  -7.472   2.269  1.00  0.00    -0.269 OA
BRANCH  24  27
ATOM     27  C   UNL     1      -0.778  -8.028   0.136  1.00  0.00     0.039 A 
ATOM     28  C   UNL     1      -1.724  -8.983  -0.241  1.00  0.00     0.014 A 
ATOM     29  C   UNL     1       0.442  -7.935  -0.538  1.00  0.00     0.014 A 
ATOM     30  C   UNL     1      -1.476  -9.796  -1.349  1.00  0.00     0.010 A 
ATOM     31  C   UNL     1       0.649  -8.685  -1.689  1.00  0.00     0.010 A 
ATOM     32  C   UNL     1      -0.306  -9.625  -2.106  1.00  0.00    -0.014 A 
BRANCH  32  33
ATOM     33  C   UNL     1      -0.057 -10.408  -3.343  1.00  0.00     0.031 A 
ATOM     34  C   UNL     1       1.140 -11.317  -3.429  1.00  0.00     0.074 A 
ATOM     35  C   UNL     1      -0.843 -10.220  -4.422  1.00  0.00     0.049 A 
ATOM     36  N   UNL     1       1.573 -12.015  -4.446  1.00  0.00    -0.248 NA
ATOM     37  C   UNL     1       1.982 -11.426  -2.226  1.00  0.00     0.031 C 
ATOM     38  C   UNL     1      -1.977  -9.296  -4.495  1.00  0.00     0.029 A 
ATOM     39  N   UNL     1      -0.789 -10.775  -5.676  1.00  0.00    -0.354 N 
ATOM     40  C   UNL     1       2.755 -12.609  -4.022  1.00  0.00     0.074 A 
ATOM     41  C   UNL     1       2.993 -12.159  -2.668  1.00  0.00     0.031 C 
ATOM     42  C   UNL     1      -2.514  -9.352  -5.724  1.00  0.00     0.029 A 
ATOM     43  C   UNL     1      -1.750 -10.295  -6.536  1.00  0.00     0.049 A 
ATOM     44  H   UNL     1      -0.124 -11.454  -5.937  1.00  0.00     0.167 HD
ATOM     45  C   UNL     1       3.554 -13.479  -4.684  1.00  0.00     0.034 A 
ATOM     46  C   UNL     1      -1.987 -10.580  -7.831  1.00  0.00     0.034 A 
ATOM     47  C   UNL     1       3.278 -13.974  -6.004  1.00  0.00     0.049 A 
ATOM     48  C   UNL     1      -1.126 -11.604  -8.521  1.00  0.00     0.074 A 
ATOM     49  C   UNL     1       3.965 -14.937  -6.722  1.00  0.00     0.029 A 
ATOM     50  N   UNL     1       2.231 -13.548  -6.805  1.00  0.00    -0.354 N 
ATOM     51  N   UNL     1      -0.111 -12.284  -8.045  1.00  0.00    -0.248 NA
ATOM     52  C   UNL     1      -1.466 -11.928  -9.915  1.00  0.00     0.031 C 
ATOM     53  C   UNL     1       3.337 -15.084  -7.964  1.00  0.00     0.029 A 
ATOM     54  C   UNL     1       2.252 -14.224  -8.012  1.00  0.00     0.049 A 
ATOM     55  H   UNL     1       1.569 -12.864  -6.553  1.00  0.00     0.167 HD
ATOM     56  C   UNL     1       0.288 -13.139  -9.066  1.00  0.00     0.074 A 
ATOM     57  C   UNL     1      -0.611 -12.908 -10.179  1.00  0.00     0.031 C 
ATOM     58  C   UNL     1       1.315 -14.023  -9.088  1.00  0.00     0.034 A 
BRANCH  45  59
ATOM     59  C   UNL     1       4.765 -14.004  -3.960  1.00  0.00     0.023 A 
ATOM     60  C   UNL     1       4.595 -14.916  -2.897  1.00  0.00     0.012 A 
ATOM     61  C   UNL     1       6.066 -13.638  -4.354  1.00  0.00     0.148 A 
ATOM     62  C   UNL     1       5.697 -15.427  -2.215  1.00  0.00     0.002 A 
ATOM     63  C   UNL     1       7.163 -14.186  -3.697  1.00  0.00     0.091 A 
ATOM     64  F   UNL     1       6.209 -12.752  -5.350  1.00  0.00    -0.205 F 
ATOM     65  C   UNL     1       6.980 -15.071  -2.621  1.00  0.00     0.022 A 
BRANCH  63  66
ATOM     66  S   UNL     1       8.856 -13.850  -4.194  1.00  0.00     0.127 S 
ATOM     67  O   UNL     1       9.313 -12.980  -3.111  1.00  0.00    -0.237 OA
ATOM     68  O   UNL     1       9.450 -15.187  -4.193  1.00  0.00    -0.237 OA
ATOM     69  O   UNL     1       8.771 -13.225  -5.506  1.00  0.00    -0.744 OA
ENDBRANCH  63  66
ENDBRANCH  45  59
BRANCH  46  70
ATOM     70  C   UNL     1      -3.140  -9.950  -8.534  1.00  0.00     0.023 A 
ATOM     71  C   UNL     1      -4.263 -10.738  -8.856  1.00  0.00     0.012 A 
ATOM     72  C   UNL     1      -3.149  -8.579  -8.856  1.00  0.00     0.148 A 
ATOM     73  C   UNL     1      -5.360 -10.180  -9.513  1.00  0.00     0.002 A 
ATOM     74  C   UNL     1      -4.268  -8.018  -9.463  1.00  0.00     0.091 A 
ATOM     75  F   UNL     1      -2.067  -7.848  -8.553  1.00  0.00    -0.205 F 
ATOM     76  C   UNL     1      -5.367  -8.820  -9.807  1.00  0.00     0.022 A 
BRANCH  74  77
ATOM     77  S   UNL     1      -4.416  -6.252  -9.759  1.00  0.00     0.127 S 
ATOM     78  O   UNL     1      -4.248  -6.176 -11.207  1.00  0.00    -0.237 OA
ATOM     79  O   UNL     1      -5.771  -5.976  -9.279  1.00  0.00    -0.237 OA
ATOM     80  O   UNL     1      -3.364  -5.634  -8.962  1.00  0.00    -0.744 OA
ENDBRANCH  74  77
ENDBRANCH  46  70
BRANCH  58  81
ATOM     81  C   UNL     1       1.514 -14.833 -10.341  1.00  0.00     0.023 A 
ATOM     82  C   UNL     1       2.046 -14.218 -11.491  1.00  0.00     0.012 A 
ATOM     83  C   UNL     1       1.252 -16.217 -10.353  1.00  0.00     0.148 A 
ATOM     84  C   UNL     1       2.289 -14.963 -12.644  1.00  0.00     0.002 A 
ATOM     85  C   UNL     1       1.541 -16.962 -11.490  1.00  0.00     0.091 A 
ATOM     86  F   UNL     1       0.727 -16.779  -9.255  1.00  0.00    -0.205 F 
ATOM     87  C   UNL     1       2.049 -16.335 -12.640  1.00  0.00     0.022 A 
BRANCH  85  88
ATOM     88  S   UNL     1       1.353 -18.748 -11.541  1.00  0.00     0.127 S 
ATOM     89  O   UNL     1       0.146 -18.898 -12.351  1.00  0.00    -0.237 OA
ATOM     90  O   UNL     1       2.588 -19.174 -12.200  1.00  0.00    -0.237 OA
ATOM     91  O   UNL     1       1.234 -19.176 -10.153  1.00  0.00    -0.744 OA
ENDBRANCH  85  88
ENDBRANCH  58  81
ENDBRANCH  32  33
ENDBRANCH  24  27
ENDBRANCH  22  23
ENDBRANCH   1  22
TORSDOF 16
