REMARK SMILES Cc1ccc(S(=O)(=O)N[C@@H](Cc2cccc(F)c2)C(=O)NCCCCNC(=O)c2ccc(-c3c4nc(c(-c5cccc(S(=O)(=O)[O-])c5F)c5ccc([nH]5)c(-c5cccc(S(=O)(=O)[O-])c5F)c5nc(c(-c6cccc(S(=O)(=O)[O-])c6F)c6ccc3[nH]6)C=C5)C=C4)cc2)cc1
REMARK SMILES IDX 23 1 22 2 21 3 19 4 20 5 10 7 9 8 6 10 7 11 8 12 5 13 1 14
REMARK SMILES IDX 2 15 3 16 93 17 4 18 92 19 11 20 12 21 13 22 18 23 14 24
REMARK SMILES IDX 16 25 15 26 17 27 24 28 25 29 26 30 27 31 28 33 29 34 30 35
REMARK SMILES IDX 91 36 31 37 90 38 32 39 33 40 34 41 84 42 35 43 89 44 83 45
REMARK SMILES IDX 85 46 36 47 88 48 82 49 81 50 37 52 69 53 49 54 68 55 50 56
REMARK SMILES IDX 53 57 67 58 86 59 51 60 52 61 66 63 87 64 54 65 38 66 39 67
REMARK SMILES IDX 47 68 40 69 42 70 48 71 41 72 43 73 44 74 45 75 46 76 70 77
REMARK SMILES IDX 71 78 79 79 72 80 74 81 80 82 73 83 75 84 76 85 77 86 78 87
REMARK SMILES IDX 55 88 56 89 64 90 57 91 59 92 65 93 58 94 60 95 61 96 62 97
REMARK SMILES IDX 63 98
REMARK H PARENT 21 6 9 9 26 32 85 51 53 62
REMARK Flexibility Score: inf
ROOT
ATOM      1  C   UNL     1      -7.422   2.640   0.531  1.00  0.00     0.023 C 
ENDROOT
BRANCH   1   2
ATOM      2  C   UNL     1      -6.614   2.802  -0.759  1.00  0.00     0.116 C 
BRANCH   2   3
ATOM      3  N   UNL     1      -5.534   3.762  -0.593  1.00  0.00    -0.355 N 
ATOM      4  C   UNL     1      -4.193   3.618  -0.779  1.00  0.00     0.238 C 
ATOM      5  O   UNL     1      -3.457   4.553  -0.449  1.00  0.00    -0.273 OA
ATOM      6  H   UNL     1      -5.818   4.658  -0.299  1.00  0.00     0.163 HD
BRANCH   4   7
ATOM      7  C   UNL     1      -3.598   2.304  -1.306  1.00  0.00     0.163 C 
BRANCH   7   8
ATOM      8  N   UNL     1      -3.863   1.369  -0.184  1.00  0.00    -0.198 NA
ATOM      9  H   UNL     1      -3.480   1.830   0.641  1.00  0.00     0.142 HD
BRANCH   8  10
ATOM     10  S   UNL     1      -3.359  -0.198  -0.072  1.00  0.00     0.241 S 
ATOM     11  O   UNL     1      -3.662  -0.854  -1.332  1.00  0.00    -0.207 OA
ATOM     12  O   UNL     1      -3.872  -0.686   1.180  1.00  0.00    -0.207 OA
BRANCH  10  13
ATOM     13  C   UNL     1      -1.599  -0.133   0.082  1.00  0.00     0.082 A 
ATOM     14  C   UNL     1       2.689  -0.073   0.046  1.00  0.00     0.044 C 
ATOM     15  C   UNL     1       1.191  -0.094   0.093  1.00  0.00    -0.051 A 
ATOM     16  C   UNL     1       0.504  -1.295  -0.124  1.00  0.00     0.005 A 
ATOM     17  C   UNL     1       0.467   1.074   0.364  1.00  0.00     0.005 A 
ATOM     18  C   UNL     1      -0.889  -1.315  -0.142  1.00  0.00     0.022 A 
ATOM     19  C   UNL     1      -0.928   1.055   0.375  1.00  0.00     0.022 A 
ENDBRANCH  10  13
ENDBRANCH   8  10
ENDBRANCH   7   8
BRANCH   7  20
ATOM     20  C   UNL     1      -4.097   1.817  -2.676  1.00  0.00     0.065 C 
BRANCH  20  21
ATOM     21  C   UNL     1      -4.484   2.775  -3.791  1.00  0.00    -0.043 A 
ATOM     22  C   UNL     1      -5.002   2.201  -4.968  1.00  0.00     0.004 A 
ATOM     23  C   UNL     1      -4.408   4.172  -3.739  1.00  0.00     0.043 A 
ATOM     24  C   UNL     1      -5.476   2.992  -6.018  1.00  0.00     0.003 A 
ATOM     25  C   UNL     1      -4.931   4.955  -4.770  1.00  0.00     0.123 A 
ATOM     26  C   UNL     1      -5.470   4.378  -5.906  1.00  0.00     0.039 A 
ATOM     27  F   UNL     1      -4.915   6.288  -4.646  1.00  0.00    -0.207 F 
ENDBRANCH  20  21
ENDBRANCH   7  20
ENDBRANCH   4   7
ENDBRANCH   2   3
ENDBRANCH   1   2
BRANCH   1  28
ATOM     28  C   UNL     1      -8.020   3.937   1.080  1.00  0.00     0.023 C 
BRANCH  28  29
ATOM     29  C   UNL     1      -9.021   4.587   0.141  1.00  0.00     0.116 C 
BRANCH  29  30
ATOM     30  N   UNL     1     -10.365   4.072   0.286  1.00  0.00    -0.352 N 
ATOM     31  C   UNL     1     -11.532   4.453  -0.347  1.00  0.00     0.251 C 
ATOM     32  H   UNL     1     -10.462   3.339   0.935  1.00  0.00     0.163 HD
ATOM     33  O   UNL     1     -12.592   4.095   0.160  1.00  0.00    -0.269 OA
BRANCH  31  34
ATOM     34  C   UNL     1     -11.504   5.130  -1.674  1.00  0.00     0.039 A 
ATOM     35  C   UNL     1     -12.522   4.809  -2.584  1.00  0.00     0.014 A 
ATOM     36  C   UNL     1     -10.413   5.875  -2.112  1.00  0.00     0.014 A 
ATOM     37  C   UNL     1     -12.319   4.993  -3.951  1.00  0.00     0.010 A 
ATOM     38  C   UNL     1     -10.167   5.981  -3.462  1.00  0.00     0.010 A 
ATOM     39  C   UNL     1     -11.087   5.468  -4.376  1.00  0.00    -0.014 A 
BRANCH  39  40
ATOM     40  C   UNL     1     -10.615   5.468  -5.747  1.00  0.00     0.031 A 
ATOM     41  C   UNL     1     -10.796   6.656  -6.590  1.00  0.00     0.074 A 
ATOM     42  C   UNL     1      -9.811   4.459  -6.142  1.00  0.00     0.049 A 
ATOM     43  N   UNL     1     -10.485   6.705  -7.836  1.00  0.00    -0.248 NA
ATOM     44  C   UNL     1     -11.354   7.896  -6.076  1.00  0.00     0.031 C 
ATOM     45  C   UNL     1      -8.877   4.436  -7.258  1.00  0.00     0.029 A 
ATOM     46  N   UNL     1      -9.795   3.156  -5.678  1.00  0.00    -0.354 N 
ATOM     47  C   UNL     1     -10.562   8.018  -8.239  1.00  0.00     0.074 A 
ATOM     48  C   UNL     1     -11.172   8.705  -7.123  1.00  0.00     0.031 C 
ATOM     49  C   UNL     1      -8.557   3.161  -7.534  1.00  0.00     0.029 A 
ATOM     50  C   UNL     1      -9.425   2.317  -6.734  1.00  0.00     0.049 A 
ATOM     51  H   UNL     1     -10.007   2.869  -4.760  1.00  0.00     0.167 HD
ATOM     52  C   UNL     1      -9.985   8.359  -9.426  1.00  0.00     0.034 A 
ATOM     53  C   UNL     1     -10.345   1.442  -7.253  1.00  0.00     0.034 A 
ATOM     54  C   UNL     1      -9.533   7.155 -10.153  1.00  0.00     0.049 A 
ATOM     55  C   UNL     1     -10.754   1.767  -8.689  1.00  0.00     0.074 A 
ATOM     56  C   UNL     1      -8.324   6.498 -10.318  1.00  0.00     0.029 A 
ATOM     57  N   UNL     1     -10.501   6.276 -10.611  1.00  0.00    -0.354 N 
ATOM     58  N   UNL     1     -10.259   2.743  -9.403  1.00  0.00    -0.248 NA
ATOM     59  C   UNL     1     -11.813   1.053  -9.404  1.00  0.00     0.031 C 
ATOM     60  C   UNL     1      -8.598   5.182 -10.812  1.00  0.00     0.029 A 
ATOM     61  C   UNL     1      -9.967   5.052 -10.977  1.00  0.00     0.049 A 
ATOM     62  H   UNL     1     -11.459   6.497 -10.668  1.00  0.00     0.167 HD
ATOM     63  C   UNL     1     -11.014   2.917 -10.531  1.00  0.00     0.074 A 
ATOM     64  C   UNL     1     -11.944   1.800 -10.514  1.00  0.00     0.031 C 
ATOM     65  C   UNL     1     -10.886   3.988 -11.372  1.00  0.00     0.034 A 
BRANCH  52  66
ATOM     66  C   UNL     1      -9.633   9.771  -9.868  1.00  0.00     0.023 A 
ATOM     67  C   UNL     1      -8.684   9.900 -10.908  1.00  0.00     0.012 A 
ATOM     68  C   UNL     1     -10.106  10.985  -9.317  1.00  0.00     0.148 A 
ATOM     69  C   UNL     1      -8.178  11.140 -11.319  1.00  0.00     0.002 A 
ATOM     70  C   UNL     1      -9.560  12.220  -9.682  1.00  0.00     0.091 A 
ATOM     71  F   UNL     1     -11.145  10.983  -8.484  1.00  0.00    -0.205 F 
ATOM     72  C   UNL     1      -8.594  12.300 -10.684  1.00  0.00     0.022 A 
BRANCH  70  73
ATOM     73  S   UNL     1     -10.007  13.760  -8.856  1.00  0.00     0.127 S 
ATOM     74  O   UNL     1      -8.699  14.270  -8.436  1.00  0.00    -0.237 OA
ATOM     75  O   UNL     1     -10.637  14.523  -9.931  1.00  0.00    -0.237 OA
ATOM     76  O   UNL     1     -10.884  13.396  -7.750  1.00  0.00    -0.744 OA
ENDBRANCH  70  73
ENDBRANCH  52  66
BRANCH  53  77
ATOM     77  C   UNL     1     -11.260   0.911  -6.185  1.00  0.00     0.023 A 
ATOM     78  C   UNL     1     -10.646   0.271  -5.077  1.00  0.00     0.012 A 
ATOM     79  C   UNL     1     -12.577   1.377  -6.043  1.00  0.00     0.148 A 
ATOM     80  C   UNL     1     -11.249   0.283  -3.817  1.00  0.00     0.002 A 
ATOM     81  C   UNL     1     -13.189   1.347  -4.791  1.00  0.00     0.091 A 
ATOM     82  F   UNL     1     -13.203   1.898  -7.105  1.00  0.00    -0.205 F 
ATOM     83  C   UNL     1     -12.506   0.859  -3.667  1.00  0.00     0.022 A 
BRANCH  81  84
ATOM     84  S   UNL     1     -14.841   2.018  -4.569  1.00  0.00     0.127 S 
ATOM     85  O   UNL     1     -15.671   0.862  -4.898  1.00  0.00    -0.237 OA
ATOM     86  O   UNL     1     -14.854   2.395  -3.156  1.00  0.00    -0.237 OA
ATOM     87  O   UNL     1     -14.908   3.146  -5.486  1.00  0.00    -0.744 OA
ENDBRANCH  81  84
ENDBRANCH  53  77
BRANCH  65  88
ATOM     88  C   UNL     1     -11.657   4.088 -12.668  1.00  0.00     0.023 A 
ATOM     89  C   UNL     1     -11.799   2.950 -13.489  1.00  0.00     0.012 A 
ATOM     90  C   UNL     1     -12.124   5.320 -13.186  1.00  0.00     0.148 A 
ATOM     91  C   UNL     1     -12.427   3.018 -14.736  1.00  0.00     0.002 A 
ATOM     92  C   UNL     1     -12.647   5.402 -14.472  1.00  0.00     0.091 A 
ATOM     93  F   UNL     1     -12.113   6.414 -12.415  1.00  0.00    -0.205 F 
ATOM     94  C   UNL     1     -12.830   4.248 -15.238  1.00  0.00     0.022 A 
BRANCH  92  95
ATOM     95  S   UNL     1     -12.973   6.981 -15.269  1.00  0.00     0.127 S 
ATOM     96  O   UNL     1     -12.367   6.782 -16.588  1.00  0.00    -0.237 OA
ATOM     97  O   UNL     1     -14.432   7.022 -15.269  1.00  0.00    -0.237 OA
ATOM     98  O   UNL     1     -12.303   7.981 -14.451  1.00  0.00    -0.744 OA
ENDBRANCH  92  95
ENDBRANCH  65  88
ENDBRANCH  39  40
ENDBRANCH  31  34
ENDBRANCH  29  30
ENDBRANCH  28  29
ENDBRANCH   1  28
TORSDOF 19
