REMARK SMILES O=C(NCc1ccc(C(=O)NCCCCNC(=O)c2ccc(-c3c4nc(c(-c5cccc(S(=O)(=O)[O-])c5F)c5ccc([nH]5)c(-c5cccc(S(=O)(=O)[O-])c5F)c5nc(c(-c6cccc(S(=O)(=O)[O-])c6F)c6ccc3[nH]6)C=C5)C=C4)cc2)o1)Nc1ccc(F)c(Cl)c1
REMARK SMILES IDX 13 1 12 2 11 3 9 4 10 5 8 7 5 8 6 9 82 10 7 11 4 12 3 13
REMARK SMILES IDX 1 14 2 15 83 16 84 19 85 20 91 21 86 22 89 23 87 24 90 25
REMARK SMILES IDX 88 26 14 27 15 28 16 29 17 30 18 32 19 33 20 34 81 35 21 36
REMARK SMILES IDX 80 37 22 38 23 39 24 40 74 41 25 42 79 43 73 44 75 45 26 46
REMARK SMILES IDX 78 47 72 48 71 49 27 51 59 52 39 53 58 54 40 55 43 56 57 57
REMARK SMILES IDX 76 58 41 59 42 60 56 62 77 63 44 64 28 65 29 66 37 67 30 68
REMARK SMILES IDX 32 69 38 70 31 71 33 72 34 73 35 74 36 75 60 76 61 77 69 78
REMARK SMILES IDX 62 79 64 80 70 81 63 82 65 83 66 84 67 85 68 86 45 87 46 88
REMARK SMILES IDX 54 89 47 90 49 91 55 92 48 93 50 94 51 95 52 96 53 97
REMARK H PARENT 11 6 3 17 83 18 16 31 75 50 43 61
REMARK Flexibility Score: inf
ROOT
ATOM      1  C   UNL     1       6.603   7.086  -2.860  1.00  0.00     0.023 C 
ENDROOT
BRANCH   1   2
ATOM      2  C   UNL     1       5.542   6.140  -3.419  1.00  0.00     0.116 C 
BRANCH   2   3
ATOM      3  N   UNL     1       6.127   4.883  -3.828  1.00  0.00    -0.349 N 
ATOM      4  C   UNL     1       6.170   3.661  -3.197  1.00  0.00     0.286 C 
ATOM      5  O   UNL     1       6.669   2.737  -3.840  1.00  0.00    -0.266 OA
ATOM      6  H   UNL     1       6.569   4.904  -4.707  1.00  0.00     0.163 HD
BRANCH   4   7
ATOM      7  C   UNL     1       5.636   3.481  -1.857  1.00  0.00     0.191 A 
ATOM      8  C   UNL     1       4.866   2.200  -0.220  1.00  0.00     0.124 A 
ATOM      9  C   UNL     1       4.802   3.493   0.245  1.00  0.00     0.048 A 
ATOM     10  O   UNL     1       5.377   2.184  -1.478  1.00  0.00    -0.454 OA
ATOM     11  C   UNL     1       5.319   4.309  -0.792  1.00  0.00     0.056 A 
BRANCH   8  12
ATOM     12  C   UNL     1       4.485   0.885   0.348  1.00  0.00     0.193 C 
BRANCH  12  13
ATOM     13  N   UNL     1       3.040   0.819   0.383  1.00  0.00    -0.331 N 
ATOM     14  O   UNL     1       1.006   0.114  -0.133  1.00  0.00    -0.248 OA
ATOM     15  C   UNL     1       2.203  -0.152  -0.056  1.00  0.00     0.319 C 
ATOM     16  N   UNL     1       2.765  -1.367  -0.331  1.00  0.00    -0.308 N 
ATOM     17  H   UNL     1       2.597   1.599   0.789  1.00  0.00     0.165 HD
ATOM     18  H   UNL     1       3.699  -1.504  -0.052  1.00  0.00     0.171 HD
BRANCH  16  19
ATOM     19  C   UNL     1       2.121  -2.439  -0.980  1.00  0.00     0.044 A 
ATOM     20  C   UNL     1       2.639  -3.726  -0.789  1.00  0.00     0.029 A 
ATOM     21  C   UNL     1       1.007  -2.262  -1.810  1.00  0.00     0.049 A 
ATOM     22  C   UNL     1       2.016  -4.830  -1.374  1.00  0.00     0.043 A 
ATOM     23  C   UNL     1       0.399  -3.365  -2.411  1.00  0.00     0.078 A 
ATOM     24  C   UNL     1       0.897  -4.644  -2.179  1.00  0.00     0.141 A 
ATOM     25  Cl  UNL     1      -0.964  -3.131  -3.438  1.00  0.00    -0.081 Cl
ATOM     26  F   UNL     1       0.310  -5.720  -2.724  1.00  0.00    -0.205 F 
ENDBRANCH  16  19
ENDBRANCH  12  13
ENDBRANCH   8  12
ENDBRANCH   4   7
ENDBRANCH   2   3
ENDBRANCH   1   2
BRANCH   1  27
ATOM     27  C   UNL     1       7.406   7.820  -3.937  1.00  0.00     0.023 C 
BRANCH  27  28
ATOM     28  C   UNL     1       6.581   8.702  -4.869  1.00  0.00     0.116 C 
BRANCH  28  29
ATOM     29  N   UNL     1       5.790   9.705  -4.167  1.00  0.00    -0.352 N 
ATOM     30  C   UNL     1       5.514  10.994  -4.558  1.00  0.00     0.251 C 
ATOM     31  H   UNL     1       5.406   9.425  -3.304  1.00  0.00     0.163 HD
ATOM     32  O   UNL     1       4.926  11.763  -3.804  1.00  0.00    -0.269 OA
BRANCH  30  33
ATOM     33  C   UNL     1       5.974  11.445  -5.886  1.00  0.00     0.039 A 
ATOM     34  C   UNL     1       6.742  12.607  -5.980  1.00  0.00     0.014 A 
ATOM     35  C   UNL     1       5.709  10.673  -7.020  1.00  0.00     0.014 A 
ATOM     36  C   UNL     1       7.310  12.955  -7.207  1.00  0.00     0.010 A 
ATOM     37  C   UNL     1       6.342  10.978  -8.219  1.00  0.00     0.010 A 
ATOM     38  C   UNL     1       7.150  12.120  -8.325  1.00  0.00    -0.014 A 
BRANCH  38  39
ATOM     39  C   UNL     1       7.834  12.409  -9.612  1.00  0.00     0.031 A 
ATOM     40  C   UNL     1       7.025  12.656 -10.856  1.00  0.00     0.074 A 
ATOM     41  C   UNL     1       9.179  12.351  -9.681  1.00  0.00     0.049 A 
ATOM     42  N   UNL     1       7.437  12.845 -12.082  1.00  0.00    -0.248 NA
ATOM     43  C   UNL     1       5.560  12.663 -10.709  1.00  0.00     0.031 C 
ATOM     44  C   UNL     1      10.073  12.044  -8.561  1.00  0.00     0.029 A 
ATOM     45  N   UNL     1      10.030  12.517 -10.746  1.00  0.00    -0.354 N 
ATOM     46  C   UNL     1       6.288  12.955 -12.856  1.00  0.00     0.074 A 
ATOM     47  C   UNL     1       5.162  12.776 -11.967  1.00  0.00     0.031 C 
ATOM     48  C   UNL     1      11.343  12.049  -8.996  1.00  0.00     0.029 A 
ATOM     49  C   UNL     1      11.355  12.319 -10.431  1.00  0.00     0.049 A 
ATOM     50  H   UNL     1       9.721  12.755 -11.650  1.00  0.00     0.167 HD
ATOM     51  C   UNL     1       6.178  13.210 -14.181  1.00  0.00     0.034 A 
ATOM     52  C   UNL     1      12.454  12.337 -11.210  1.00  0.00     0.034 A 
ATOM     53  C   UNL     1       7.300  13.423 -15.054  1.00  0.00     0.049 A 
ATOM     54  C   UNL     1      12.305  12.645 -12.676  1.00  0.00     0.074 A 
ATOM     55  C   UNL     1       7.293  13.774 -16.392  1.00  0.00     0.029 A 
ATOM     56  N   UNL     1       8.629  13.292 -14.682  1.00  0.00    -0.354 N 
ATOM     57  N   UNL     1      11.216  12.901 -13.359  1.00  0.00    -0.248 NA
ATOM     58  C   UNL     1      13.539  12.701 -13.473  1.00  0.00     0.031 C 
ATOM     59  C   UNL     1       8.617  13.819 -16.839  1.00  0.00     0.029 A 
ATOM     60  C   UNL     1       9.450  13.540 -15.768  1.00  0.00     0.049 A 
ATOM     61  H   UNL     1       8.942  13.057 -13.779  1.00  0.00     0.167 HD
ATOM     62  C   UNL     1      11.635  13.187 -14.653  1.00  0.00     0.074 A 
ATOM     63  C   UNL     1      13.080  13.090 -14.655  1.00  0.00     0.031 C 
ATOM     64  C   UNL     1      10.890  13.492 -15.744  1.00  0.00     0.034 A 
BRANCH  51  65
ATOM     65  C   UNL     1       4.792  13.315 -14.762  1.00  0.00     0.023 A 
ATOM     66  C   UNL     1       3.976  14.416 -14.430  1.00  0.00     0.012 A 
ATOM     67  C   UNL     1       4.319  12.357 -15.680  1.00  0.00     0.148 A 
ATOM     68  C   UNL     1       2.697  14.542 -14.971  1.00  0.00     0.002 A 
ATOM     69  C   UNL     1       3.064  12.516 -16.254  1.00  0.00     0.091 A 
ATOM     70  F   UNL     1       5.101  11.307 -15.969  1.00  0.00    -0.205 F 
ATOM     71  C   UNL     1       2.246  13.599 -15.890  1.00  0.00     0.022 A 
BRANCH  69  72
ATOM     72  S   UNL     1       2.424  11.404 -17.511  1.00  0.00     0.127 S 
ATOM     73  O   UNL     1       1.341  10.737 -16.790  1.00  0.00    -0.237 OA
ATOM     74  O   UNL     1       1.982  12.337 -18.548  1.00  0.00    -0.237 OA
ATOM     75  O   UNL     1       3.537  10.548 -17.896  1.00  0.00    -0.744 OA
ENDBRANCH  69  72
ENDBRANCH  51  65
BRANCH  52  76
ATOM     76  C   UNL     1      13.800  12.105 -10.613  1.00  0.00     0.023 A 
ATOM     77  C   UNL     1      14.719  13.171 -10.538  1.00  0.00     0.012 A 
ATOM     78  C   UNL     1      14.168  10.845 -10.105  1.00  0.00     0.148 A 
ATOM     79  C   UNL     1      15.993  12.976 -10.004  1.00  0.00     0.002 A 
ATOM     80  C   UNL     1      15.418  10.672  -9.522  1.00  0.00     0.091 A 
ATOM     81  F   UNL     1      13.283   9.842 -10.192  1.00  0.00    -0.205 F 
ATOM     82  C   UNL     1      16.340  11.730  -9.488  1.00  0.00     0.022 A 
BRANCH  80  83
ATOM     83  S   UNL     1      15.902   9.142  -8.715  1.00  0.00     0.127 S 
ATOM     84  O   UNL     1      16.941   8.645  -9.613  1.00  0.00    -0.237 OA
ATOM     85  O   UNL     1      16.385   9.625  -7.420  1.00  0.00    -0.237 OA
ATOM     86  O   UNL     1      14.692   8.335  -8.640  1.00  0.00    -0.744 OA
ENDBRANCH  80  83
ENDBRANCH  52  76
BRANCH  64  87
ATOM     87  C   UNL     1      11.616  13.796 -17.029  1.00  0.00     0.023 A 
ATOM     88  C   UNL     1      12.244  12.760 -17.748  1.00  0.00     0.012 A 
ATOM     89  C   UNL     1      11.600  15.099 -17.564  1.00  0.00     0.148 A 
ATOM     90  C   UNL     1      12.873  13.024 -18.965  1.00  0.00     0.002 A 
ATOM     91  C   UNL     1      12.181  15.344 -18.802  1.00  0.00     0.091 A 
ATOM     92  F   UNL     1      11.011  16.073 -16.856  1.00  0.00    -0.205 F 
ATOM     93  C   UNL     1      12.830  14.310 -19.497  1.00  0.00     0.022 A 
BRANCH  91  94
ATOM     94  S   UNL     1      12.088  16.944 -19.613  1.00  0.00     0.127 S 
ATOM     95  O   UNL     1      13.478  17.392 -19.547  1.00  0.00    -0.237 OA
ATOM     96  O   UNL     1      11.625  16.583 -20.953  1.00  0.00    -0.237 OA
ATOM     97  O   UNL     1      11.142  17.735 -18.838  1.00  0.00    -0.744 OA
ENDBRANCH  91  94
ENDBRANCH  64  87
ENDBRANCH  38  39
ENDBRANCH  30  33
ENDBRANCH  28  29
ENDBRANCH  27  28
ENDBRANCH   1  27
TORSDOF 17
