REMARK SMILES Cn1c(C[NH+]2CCCC2)nnc1[C@@H]1CCCN(c2cccc(C(=O)NCCCCNC(=O)c3ccc(-c4c5nc(c(-c6cccc(S(=O)(=O)[O-])c6F)c6ccc([nH]6)c(-c6cccc(S(=O)(=O)[O-])c6F)c6nc(c(-c7cccc(S(=O)(=O)[O-])c7F)c7ccc4[nH]7)C=C6)C=C5)cc3)n2)C1
REMARK SMILES IDX 27 1 26 2 25 3 23 4 24 5 22 7 18 8 19 9 96 10 20 11 21 12
REMARK SMILES IDX 17 13 13 14 14 15 97 16 15 17 16 18 12 19 1 20 2 21 3 22
REMARK SMILES IDX 10 23 11 24 4 25 5 26 6 27 9 28 7 30 8 31 28 32 29 33 30 34
REMARK SMILES IDX 31 35 32 37 33 38 34 39 95 40 35 41 94 42 36 43 37 44 38 45
REMARK SMILES IDX 88 46 39 47 93 48 87 49 89 50 40 51 92 52 86 53 85 54 41 56
REMARK SMILES IDX 73 57 53 58 72 59 54 60 57 61 71 62 90 63 55 64 56 65 70 67
REMARK SMILES IDX 91 68 58 69 42 70 43 71 51 72 44 73 46 74 52 75 45 76 47 77
REMARK SMILES IDX 48 78 49 79 50 80 74 81 75 82 83 83 76 84 78 85 84 86 77 87
REMARK SMILES IDX 79 88 80 89 81 90 82 91 59 92 60 93 68 94 61 95 63 96 69 97
REMARK SMILES IDX 62 98 64 99 65 100 66 101 67 102
REMARK H PARENT 25 6 5 29 30 36 89 55 57 66
REMARK Flexibility Score: inf
ROOT
ATOM      1  C   UNL     1      -2.276   5.160   2.209  1.00  0.00     0.023 C 
ENDROOT
BRANCH   1   2
ATOM      2  C   UNL     1      -1.934   4.093   3.261  1.00  0.00     0.116 C 
BRANCH   2   3
ATOM      3  N   UNL     1      -2.112   2.706   2.837  1.00  0.00    -0.351 N 
ATOM      4  C   UNL     1      -1.359   1.533   2.916  1.00  0.00     0.269 C 
ATOM      5  O   UNL     1      -2.025   0.494   2.968  1.00  0.00    -0.268 OA
ATOM      6  H   UNL     1      -2.974   2.563   2.384  1.00  0.00     0.163 HD
BRANCH   4   7
ATOM      7  C   UNL     1       0.165   1.422   2.886  1.00  0.00     0.130 A 
ATOM      8  C   UNL     1       1.996   0.005   2.324  1.00  0.00     0.129 A 
ATOM      9  C   UNL     1       2.877   1.057   2.520  1.00  0.00     0.047 A 
ATOM     10  N   UNL     1       0.668   0.188   2.530  1.00  0.00    -0.226 NA
ATOM     11  C   UNL     1       2.392   2.285   2.962  1.00  0.00     0.006 A 
ATOM     12  C   UNL     1       1.023   2.470   3.145  1.00  0.00     0.034 A 
BRANCH   8  13
ATOM     13  N   UNL     1       2.536  -1.246   1.993  1.00  0.00    -0.356 N 
ATOM     14  C   UNL     1       1.129  -2.007   0.080  1.00  0.00     0.077 C 
ATOM     15  C   UNL     1       0.445  -3.003   1.070  1.00  0.00     0.015 C 
ATOM     16  C   UNL     1       2.535  -1.746   0.615  1.00  0.00     0.129 C 
ATOM     17  C   UNL     1       0.838  -2.933   2.571  1.00  0.00     0.022 C 
ATOM     18  C   UNL     1       2.187  -2.306   2.923  1.00  0.00     0.118 C 
BRANCH  14  19
ATOM     19  C   UNL     1       0.298  -0.786  -0.251  1.00  0.00     0.137 A 
ATOM     20  C   UNL     1       1.992   0.957  -1.088  1.00  0.00     0.153 C 
ATOM     21  N   UNL     1       0.717   0.473  -0.640  1.00  0.00    -0.313 N 
ATOM     22  C   UNL     1      -0.394   1.288  -0.548  1.00  0.00     0.187 A 
ATOM     23  N   UNL     1      -1.450   0.526  -0.376  1.00  0.00    -0.129 NA
ATOM     24  N   UNL     1      -1.024  -0.769  -0.241  1.00  0.00    -0.135 NA
BRANCH  22  25
ATOM     25  C   UNL     1      -0.351   2.783  -0.549  1.00  0.00     0.341 C 
BRANCH  25  26
ATOM     26  N   UNL     1      -0.821   3.502  -1.739  1.00  0.00    -0.329 N 
ATOM     27  C   UNL     1      -2.280   3.447  -1.888  1.00  0.00     0.262 C 
ATOM     28  C   UNL     1      -0.287   3.034  -3.014  1.00  0.00     0.262 C 
ATOM     29  H   UNL     1      -0.479   4.445  -1.555  1.00  0.00     0.348 HD
ATOM     30  C   UNL     1      -2.578   2.289  -2.826  1.00  0.00     0.067 C 
ATOM     31  C   UNL     1      -1.267   1.998  -3.542  1.00  0.00     0.067 C 
ENDBRANCH  25  26
ENDBRANCH  22  25
ENDBRANCH  14  19
ENDBRANCH   8  13
ENDBRANCH   4   7
ENDBRANCH   2   3
ENDBRANCH   1   2
BRANCH   1  32
ATOM     32  C   UNL     1      -3.717   5.690   2.183  1.00  0.00     0.023 C 
BRANCH  32  33
ATOM     33  C   UNL     1      -4.272   6.300   3.473  1.00  0.00     0.116 C 
BRANCH  33  34
ATOM     34  N   UNL     1      -3.489   7.406   4.009  1.00  0.00    -0.352 N 
ATOM     35  C   UNL     1      -3.919   8.565   4.620  1.00  0.00     0.251 C 
ATOM     36  H   UNL     1      -2.513   7.312   3.923  1.00  0.00     0.163 HD
ATOM     37  O   UNL     1      -3.092   9.409   4.968  1.00  0.00    -0.269 OA
BRANCH  35  38
ATOM     38  C   UNL     1      -5.365   8.824   4.825  1.00  0.00     0.039 A 
ATOM     39  C   UNL     1      -5.879  10.086   4.505  1.00  0.00     0.014 A 
ATOM     40  C   UNL     1      -6.219   7.834   5.314  1.00  0.00     0.014 A 
ATOM     41  C   UNL     1      -7.256  10.323   4.591  1.00  0.00     0.010 A 
ATOM     42  C   UNL     1      -7.597   8.049   5.329  1.00  0.00     0.010 A 
ATOM     43  C   UNL     1      -8.134   9.292   4.959  1.00  0.00    -0.014 A 
BRANCH  43  44
ATOM     44  C   UNL     1      -9.612   9.480   4.929  1.00  0.00     0.031 A 
ATOM     45  C   UNL     1     -10.429   9.335   6.186  1.00  0.00     0.074 A 
ATOM     46  C   UNL     1     -10.235   9.682   3.750  1.00  0.00     0.049 A 
ATOM     47  N   UNL     1     -11.727   9.397   6.339  1.00  0.00    -0.248 NA
ATOM     48  C   UNL     1      -9.694   9.059   7.431  1.00  0.00     0.031 C 
ATOM     49  C   UNL     1      -9.572   9.758   2.446  1.00  0.00     0.029 A 
ATOM     50  N   UNL     1     -11.568   9.829   3.450  1.00  0.00    -0.354 N 
ATOM     51  C   UNL     1     -11.967   9.132   7.682  1.00  0.00     0.074 A 
ATOM     52  C   UNL     1     -10.682   8.873   8.294  1.00  0.00     0.031 C 
ATOM     53  C   UNL     1     -10.497   9.940   1.490  1.00  0.00     0.029 A 
ATOM     54  C   UNL     1     -11.821   9.959   2.103  1.00  0.00     0.049 A 
ATOM     55  H   UNL     1     -12.275   9.841   4.135  1.00  0.00     0.167 HD
ATOM     56  C   UNL     1     -13.144   9.130   8.354  1.00  0.00     0.034 A 
ATOM     57  C   UNL     1     -12.986  10.069   1.434  1.00  0.00     0.034 A 
ATOM     58  C   UNL     1     -14.418   9.419   7.751  1.00  0.00     0.049 A 
ATOM     59  C   UNL     1     -14.277  10.097   2.206  1.00  0.00     0.074 A 
ATOM     60  C   UNL     1     -15.655   9.528   8.364  1.00  0.00     0.029 A 
ATOM     61  N   UNL     1     -14.625   9.630   6.397  1.00  0.00    -0.354 N 
ATOM     62  N   UNL     1     -14.467  10.006   3.500  1.00  0.00    -0.248 NA
ATOM     63  C   UNL     1     -15.513  10.279   1.430  1.00  0.00     0.031 C 
ATOM     64  C   UNL     1     -16.613   9.775   7.375  1.00  0.00     0.029 A 
ATOM     65  C   UNL     1     -15.969   9.858   6.152  1.00  0.00     0.049 A 
ATOM     66  H   UNL     1     -13.919   9.621   5.710  1.00  0.00     0.167 HD
ATOM     67  C   UNL     1     -15.835  10.156   3.696  1.00  0.00     0.074 A 
ATOM     68  C   UNL     1     -16.424  10.365   2.390  1.00  0.00     0.031 C 
ATOM     69  C   UNL     1     -16.540  10.114   4.854  1.00  0.00     0.034 A 
BRANCH  56  70
ATOM     70  C   UNL     1     -13.103   8.851   9.836  1.00  0.00     0.023 A 
ATOM     71  C   UNL     1     -12.537   9.803  10.708  1.00  0.00     0.012 A 
ATOM     72  C   UNL     1     -13.668   7.676  10.371  1.00  0.00     0.148 A 
ATOM     73  C   UNL     1     -12.493   9.573  12.083  1.00  0.00     0.002 A 
ATOM     74  C   UNL     1     -13.665   7.477  11.747  1.00  0.00     0.091 A 
ATOM     75  F   UNL     1     -14.187   6.774   9.527  1.00  0.00    -0.205 F 
ATOM     76  C   UNL     1     -13.065   8.416  12.602  1.00  0.00     0.022 A 
BRANCH  74  77
ATOM     77  S   UNL     1     -14.450   6.060  12.524  1.00  0.00     0.127 S 
ATOM     78  O   UNL     1     -13.291   5.301  12.992  1.00  0.00    -0.237 OA
ATOM     79  O   UNL     1     -15.235   6.689  13.587  1.00  0.00    -0.237 OA
ATOM     80  O   UNL     1     -15.240   5.417  11.484  1.00  0.00    -0.744 OA
ENDBRANCH  74  77
ENDBRANCH  56  70
BRANCH  57  81
ATOM     81  C   UNL     1     -12.980  10.222  -0.050  1.00  0.00     0.023 A 
ATOM     82  C   UNL     1     -13.345  11.457  -0.621  1.00  0.00     0.012 A 
ATOM     83  C   UNL     1     -12.590   9.164  -0.894  1.00  0.00     0.148 A 
ATOM     84  C   UNL     1     -13.355  11.626  -2.006  1.00  0.00     0.002 A 
ATOM     85  C   UNL     1     -12.546   9.357  -2.270  1.00  0.00     0.091 A 
ATOM     86  F   UNL     1     -12.255   7.994  -0.332  1.00  0.00    -0.205 F 
ATOM     87  C   UNL     1     -12.946  10.581  -2.830  1.00  0.00     0.022 A 
BRANCH  85  88
ATOM     88  S   UNL     1     -11.909   8.114  -3.400  1.00  0.00     0.127 S 
ATOM     89  O   UNL     1     -13.114   7.725  -4.127  1.00  0.00    -0.237 OA
ATOM     90  O   UNL     1     -10.941   8.887  -4.180  1.00  0.00    -0.237 OA
ATOM     91  O   UNL     1     -11.316   7.083  -2.559  1.00  0.00    -0.744 OA
ENDBRANCH  85  88
ENDBRANCH  57  81
BRANCH  69  92
ATOM     92  C   UNL     1     -18.029  10.339   4.777  1.00  0.00     0.023 A 
ATOM     93  C   UNL     1     -18.864   9.349   4.223  1.00  0.00     0.012 A 
ATOM     94  C   UNL     1     -18.606  11.502   5.325  1.00  0.00     0.148 A 
ATOM     95  C   UNL     1     -20.247   9.529   4.183  1.00  0.00     0.002 A 
ATOM     96  C   UNL     1     -19.987  11.652   5.329  1.00  0.00     0.091 A 
ATOM     97  F   UNL     1     -17.793  12.441   5.832  1.00  0.00    -0.205 F 
ATOM     98  C   UNL     1     -20.808  10.673   4.747  1.00  0.00     0.022 A 
BRANCH  96  99
ATOM     99  S   UNL     1     -20.805  13.043   6.119  1.00  0.00     0.127 S 
ATOM    100  O   UNL     1     -21.300  13.791   4.965  1.00  0.00    -0.237 OA
ATOM    101  O   UNL     1     -21.843  12.383   6.910  1.00  0.00    -0.237 OA
ATOM    102  O   UNL     1     -19.781  13.717   6.907  1.00  0.00    -0.744 OA
ENDBRANCH  96  99
ENDBRANCH  69  92
ENDBRANCH  43  44
ENDBRANCH  35  38
ENDBRANCH  33  34
ENDBRANCH  32  33
ENDBRANCH   1  32
TORSDOF 18
