REMARK SMILES C[C@H](C(=O)NCCCCNC(=O)c1ccc(-c2c3nc(c(-c4cccc(S(=O)(=O)[O-])c4F)c4ccc([nH]4)c(-c4cccc(S(=O)(=O)[O-])c4F)c4nc(c(-c5cccc(S(=O)(=O)[O-])c5F)c5ccc2[nH]5)C=C4)C=C3)cc1)c1ccc(C[C@@H]2CCC[C@H]2O)cc1
REMARK SMILES IDX 7 1 6 2 5 3 3 4 4 5 2 7 1 8 76 9 77 10 88 11 78 12 87 13
REMARK SMILES IDX 79 14 80 15 81 16 82 17 85 18 83 19 84 20 86 21 8 23 9 24
REMARK SMILES IDX 10 25 11 26 12 28 13 29 14 30 75 31 15 32 74 33 16 34 17 35
REMARK SMILES IDX 18 36 68 37 19 38 73 39 67 40 69 41 20 42 72 43 66 44 65 45
REMARK SMILES IDX 21 47 53 48 33 49 52 50 34 51 37 52 51 53 70 54 35 55 36 56
REMARK SMILES IDX 50 58 71 59 38 60 22 61 23 62 31 63 24 64 26 65 32 66 25 67
REMARK SMILES IDX 27 68 28 69 29 70 30 71 54 72 55 73 63 74 56 75 58 76 64 77
REMARK SMILES IDX 57 78 59 79 60 80 61 81 62 82 39 83 40 84 48 85 41 86 43 87
REMARK SMILES IDX 49 88 42 89 44 90 45 91 46 92 47 93
REMARK H PARENT 5 6 86 22 10 27 69 46 37 57
REMARK Flexibility Score: inf
ROOT
ATOM      1  C   UNL     1     -11.255   1.139   9.180  1.00  0.00     0.023 C 
ENDROOT
BRANCH   1   2
ATOM      2  C   UNL     1     -10.682   2.117   8.160  1.00  0.00     0.116 C 
BRANCH   2   3
ATOM      3  N   UNL     1      -9.320   1.794   7.780  1.00  0.00    -0.356 N 
ATOM      4  C   UNL     1      -8.771   1.667   6.533  1.00  0.00     0.227 C 
ATOM      5  O   UNL     1      -7.550   1.522   6.464  1.00  0.00    -0.274 OA
ATOM      6  H   UNL     1      -8.699   1.645   8.530  1.00  0.00     0.163 HD
BRANCH   4   7
ATOM      7  C   UNL     1      -9.685   1.739   5.298  1.00  0.00     0.105 C 
ATOM      8  C   UNL     1      -9.981   3.228   5.054  1.00  0.00     0.023 C 
BRANCH   7   9
ATOM      9  C   UNL     1      -9.129   1.007   4.073  1.00  0.00    -0.036 A 
ATOM     10  C   UNL     1      -8.525  -0.253   4.219  1.00  0.00     0.005 A 
ATOM     11  C   UNL     1      -9.231   1.529   2.775  1.00  0.00     0.005 A 
ATOM     12  C   UNL     1      -7.942  -0.906   3.130  1.00  0.00     0.004 A 
ATOM     13  C   UNL     1      -8.642   0.880   1.686  1.00  0.00     0.004 A 
ATOM     14  C   UNL     1      -7.947  -0.320   1.862  1.00  0.00    -0.048 A 
BRANCH  14  15
ATOM     15  C   UNL     1      -7.175  -0.926   0.719  1.00  0.00     0.041 C 
BRANCH  15  16
ATOM     16  C   UNL     1      -5.651  -0.668   0.680  1.00  0.00     0.022 C 
ATOM     17  C   UNL     1      -4.862  -1.335   1.815  1.00  0.00     0.007 C 
ATOM     18  C   UNL     1      -5.230   0.804   0.767  1.00  0.00     0.117 C 
ATOM     19  C   UNL     1      -4.553  -0.250   2.848  1.00  0.00     0.003 C 
ATOM     20  C   UNL     1      -4.998   1.082   2.248  1.00  0.00     0.032 C 
BRANCH  18  21
ATOM     21  O   UNL     1      -4.001   0.983   0.056  1.00  0.00    -0.393 OA
ATOM     22  H   UNL     1      -3.324   0.396   0.427  1.00  0.00     0.210 HD
ENDBRANCH  18  21
ENDBRANCH  15  16
ENDBRANCH  14  15
ENDBRANCH   7   9
ENDBRANCH   4   7
ENDBRANCH   2   3
ENDBRANCH   1   2
BRANCH   1  23
ATOM     23  C   UNL     1     -10.521   1.086  10.521  1.00  0.00     0.023 C 
BRANCH  23  24
ATOM     24  C   UNL     1     -10.312   2.428  11.219  1.00  0.00     0.116 C 
BRANCH  24  25
ATOM     25  N   UNL     1     -11.555   3.142  11.463  1.00  0.00    -0.352 N 
ATOM     26  C   UNL     1     -12.030   3.713  12.618  1.00  0.00     0.251 C 
ATOM     27  H   UNL     1     -12.147   3.229  10.681  1.00  0.00     0.163 HD
ATOM     28  O   UNL     1     -13.179   4.157  12.637  1.00  0.00    -0.269 OA
BRANCH  26  29
ATOM     29  C   UNL     1     -11.195   3.774  13.839  1.00  0.00     0.039 A 
ATOM     30  C   UNL     1     -11.793   3.489  15.069  1.00  0.00     0.014 A 
ATOM     31  C   UNL     1      -9.841   4.118  13.789  1.00  0.00     0.014 A 
ATOM     32  C   UNL     1     -11.021   3.486  16.234  1.00  0.00     0.010 A 
ATOM     33  C   UNL     1      -9.056   4.037  14.940  1.00  0.00     0.010 A 
ATOM     34  C   UNL     1      -9.637   3.720  16.177  1.00  0.00    -0.014 A 
BRANCH  34  35
ATOM     35  C   UNL     1      -8.797   3.592  17.399  1.00  0.00     0.031 A 
ATOM     36  C   UNL     1      -8.036   4.770  17.949  1.00  0.00     0.074 A 
ATOM     37  C   UNL     1      -8.681   2.386  17.993  1.00  0.00     0.049 A 
ATOM     38  N   UNL     1      -7.275   4.833  19.012  1.00  0.00    -0.248 NA
ATOM     39  C   UNL     1      -8.122   6.035  17.201  1.00  0.00     0.031 C 
ATOM     40  C   UNL     1      -9.288   1.143  17.507  1.00  0.00     0.029 A 
ATOM     41  N   UNL     1      -8.001   2.000  19.121  1.00  0.00    -0.354 N 
ATOM     42  C   UNL     1      -6.780   6.132  19.053  1.00  0.00     0.074 A 
ATOM     43  C   UNL     1      -7.293   6.812  17.884  1.00  0.00     0.031 C 
ATOM     44  C   UNL     1      -8.964   0.140  18.337  1.00  0.00     0.029 A 
ATOM     45  C   UNL     1      -8.104   0.656  19.397  1.00  0.00     0.049 A 
ATOM     46  H   UNL     1      -7.488   2.627  19.681  1.00  0.00     0.167 HD
ATOM     47  C   UNL     1      -5.999   6.716  19.994  1.00  0.00     0.034 A 
ATOM     48  C   UNL     1      -7.565  -0.081  20.387  1.00  0.00     0.034 A 
ATOM     49  C   UNL     1      -5.510   6.046  21.170  1.00  0.00     0.049 A 
ATOM     50  C   UNL     1      -6.735   0.603  21.438  1.00  0.00     0.074 A 
ATOM     51  C   UNL     1      -4.769   6.573  22.215  1.00  0.00     0.029 A 
ATOM     52  N   UNL     1      -5.703   4.704  21.458  1.00  0.00    -0.354 N 
ATOM     53  N   UNL     1      -6.416   1.870  21.544  1.00  0.00    -0.248 NA
ATOM     54  C   UNL     1      -6.225  -0.237  22.532  1.00  0.00     0.031 C 
ATOM     55  C   UNL     1      -4.494   5.544  23.121  1.00  0.00     0.029 A 
ATOM     56  C   UNL     1      -5.091   4.383  22.659  1.00  0.00     0.049 A 
ATOM     57  H   UNL     1      -6.201   4.072  20.892  1.00  0.00     0.167 HD
ATOM     58  C   UNL     1      -5.695   1.984  22.727  1.00  0.00     0.074 A 
ATOM     59  C   UNL     1      -5.659   0.664  23.322  1.00  0.00     0.031 C 
ATOM     60  C   UNL     1      -5.097   3.076  23.263  1.00  0.00     0.034 A 
BRANCH  47  61
ATOM     61  C   UNL     1      -5.674   8.179  19.829  1.00  0.00     0.023 A 
ATOM     62  C   UNL     1      -6.688   9.139  20.028  1.00  0.00     0.012 A 
ATOM     63  C   UNL     1      -4.359   8.611  19.565  1.00  0.00     0.148 A 
ATOM     64  C   UNL     1      -6.407  10.501  19.941  1.00  0.00     0.002 A 
ATOM     65  C   UNL     1      -4.077   9.972  19.524  1.00  0.00     0.091 A 
ATOM     66  F   UNL     1      -3.411   7.685  19.363  1.00  0.00    -0.205 F 
ATOM     67  C   UNL     1      -5.101  10.918  19.701  1.00  0.00     0.022 A 
BRANCH  65  68
ATOM     68  S   UNL     1      -2.415  10.617  19.302  1.00  0.00     0.127 S 
ATOM     69  O   UNL     1      -2.523  11.267  17.996  1.00  0.00    -0.237 OA
ATOM     70  O   UNL     1      -2.291  11.538  20.432  1.00  0.00    -0.237 OA
ATOM     71  O   UNL     1      -1.525   9.467  19.350  1.00  0.00    -0.744 OA
ENDBRANCH  65  68
ENDBRANCH  47  61
BRANCH  48  72
ATOM     72  C   UNL     1      -7.830  -1.547  20.462  1.00  0.00     0.023 A 
ATOM     73  C   UNL     1      -8.609  -2.065  21.516  1.00  0.00     0.012 A 
ATOM     74  C   UNL     1      -7.315  -2.429  19.493  1.00  0.00     0.148 A 
ATOM     75  C   UNL     1      -8.830  -3.438  21.629  1.00  0.00     0.002 A 
ATOM     76  C   UNL     1      -7.592  -3.788  19.577  1.00  0.00     0.091 A 
ATOM     77  F   UNL     1      -6.566  -1.921  18.504  1.00  0.00    -0.205 F 
ATOM     78  C   UNL     1      -8.330  -4.298  20.656  1.00  0.00     0.022 A 
BRANCH  76  79
ATOM     79  S   UNL     1      -7.106  -4.944  18.291  1.00  0.00     0.127 S 
ATOM     80  O   UNL     1      -6.006  -5.660  18.931  1.00  0.00    -0.237 OA
ATOM     81  O   UNL     1      -8.329  -5.727  18.108  1.00  0.00    -0.237 OA
ATOM     82  O   UNL     1      -6.748  -4.121  17.143  1.00  0.00    -0.744 OA
ENDBRANCH  76  79
ENDBRANCH  48  72
BRANCH  60  83
ATOM     83  C   UNL     1      -4.375   2.896  24.575  1.00  0.00     0.023 A 
ATOM     84  C   UNL     1      -3.178   2.152  24.621  1.00  0.00     0.012 A 
ATOM     85  C   UNL     1      -4.864   3.488  25.755  1.00  0.00     0.148 A 
ATOM     86  C   UNL     1      -2.508   1.957  25.828  1.00  0.00     0.002 A 
ATOM     87  C   UNL     1      -4.162   3.335  26.945  1.00  0.00     0.091 A 
ATOM     88  F   UNL     1      -6.012   4.178  25.698  1.00  0.00    -0.205 F 
ATOM     89  C   UNL     1      -2.995   2.556  26.987  1.00  0.00     0.022 A 
BRANCH  87  90
ATOM     90  S   UNL     1      -4.662   4.148  28.467  1.00  0.00     0.127 S 
ATOM     91  O   UNL     1      -5.207   3.031  29.237  1.00  0.00    -0.237 OA
ATOM     92  O   UNL     1      -3.392   4.672  28.971  1.00  0.00    -0.237 OA
ATOM     93  O   UNL     1      -5.624   5.170  28.078  1.00  0.00    -0.744 OA
ENDBRANCH  87  90
ENDBRANCH  60  83
ENDBRANCH  34  35
ENDBRANCH  26  29
ENDBRANCH  24  25
ENDBRANCH  23  24
ENDBRANCH   1  23
TORSDOF 18
