REMARK SMILES C[C@@H]1C[C@@H]1C[N@@H+](C)Cc1cc(F)cc(/C=C/C(=O)NCCCCNC(=O)c2ccc(-c3c4nc(c(-c5cccc(S(=O)(=O)[O-])c5F)c5ccc([nH]5)c(-c5cccc(S(=O)(=O)[O-])c5F)c5nc(c(-c6cccc(S(=O)(=O)[O-])c6F)c6ccc3[nH]6)C=C5)C=C4)cc2)c1
REMARK SMILES IDX 20 1 19 2 17 3 18 4 16 6 15 7 14 8 9 9 10 10 90 11 11 12
REMARK SMILES IDX 12 13 13 14 8 15 6 16 7 17 5 19 4 20 1 21 2 22 3 23 21 24
REMARK SMILES IDX 22 25 23 26 24 27 25 28 26 30 27 31 28 32 89 33 29 34 88 35
REMARK SMILES IDX 30 36 31 37 32 38 82 39 33 40 87 41 81 42 83 43 34 44 86 45
REMARK SMILES IDX 80 46 79 47 35 49 67 50 47 51 66 52 48 53 51 54 65 55 84 56
REMARK SMILES IDX 49 57 50 58 64 60 85 61 52 62 36 63 37 64 45 65 38 66 40 67
REMARK SMILES IDX 46 68 39 69 41 70 42 71 43 72 44 73 68 74 69 75 77 76 70 77
REMARK SMILES IDX 72 78 78 79 71 80 73 81 74 82 75 83 76 84 53 85 54 86 62 87
REMARK SMILES IDX 55 88 57 89 63 90 56 91 58 92 59 93 60 94 61 95
REMARK H PARENT 19 5 6 18 24 29 83 48 51 59
REMARK Flexibility Score: inf
ROOT
ATOM      1  C   UNL     1       7.175   4.867  -3.979  1.00  0.00     0.116 C 
ENDROOT
BRANCH   1   2
ATOM      2  N   UNL     1       8.211   5.572  -3.241  1.00  0.00    -0.353 N 
ATOM      3  C   UNL     1       8.685   5.373  -1.979  1.00  0.00     0.243 C 
ATOM      4  O   UNL     1       9.659   5.999  -1.572  1.00  0.00    -0.270 OA
ATOM      5  H   UNL     1       8.638   6.312  -3.731  1.00  0.00     0.163 HD
BRANCH   3   6
ATOM      6  C   UNL     1       8.075   4.340  -1.114  1.00  0.00     0.072 C 
ATOM      7  C   UNL     1       6.755   4.296  -0.894  1.00  0.00     0.014 C 
BRANCH   7   8
ATOM      8  C   UNL     1       6.092   3.261  -0.105  1.00  0.00    -0.022 A 
ATOM      9  C   UNL     1       4.311   1.586  -0.013  1.00  0.00     0.010 A 
ATOM     10  C   UNL     1       4.617   1.386   1.342  1.00  0.00     0.048 A 
ATOM     11  C   UNL     1       5.082   2.511  -0.728  1.00  0.00     0.018 A 
ATOM     12  C   UNL     1       5.647   2.102   1.947  1.00  0.00     0.124 A 
ATOM     13  F   UNL     1       5.923   1.885   3.240  1.00  0.00    -0.207 F 
ATOM     14  C   UNL     1       6.385   3.043   1.239  1.00  0.00     0.047 A 
BRANCH   9  15
ATOM     15  C   UNL     1       3.232   0.748  -0.666  1.00  0.00     0.298 C 
BRANCH  15  16
ATOM     16  N   UNL     1       2.160   1.411  -1.418  1.00  0.00    -0.333 N 
ATOM     17  C   UNL     1       2.511   1.748  -2.793  1.00  0.00     0.333 C 
ATOM     18  H   UNL     1       1.457   0.672  -1.454  1.00  0.00     0.348 HD
BRANCH  16  19
ATOM     19  C   UNL     1       1.502   2.528  -0.752  1.00  0.00     0.266 C 
BRANCH  19  20
ATOM     20  C   UNL     1       0.709   2.196   0.479  1.00  0.00     0.047 C 
ATOM     21  C   UNL     1       0.039  -0.381   0.117  1.00  0.00     0.008 C 
ATOM     22  C   UNL     1      -0.003   0.903   0.869  1.00  0.00    -0.005 C 
ATOM     23  C   UNL     1      -0.794   2.048   0.316  1.00  0.00     0.013 C 
ENDBRANCH  19  20
ENDBRANCH  16  19
ENDBRANCH  15  16
ENDBRANCH   9  15
ENDBRANCH   7   8
ENDBRANCH   3   6
ENDBRANCH   1   2
BRANCH   1  24
ATOM     24  C   UNL     1       5.944   5.747  -4.201  1.00  0.00     0.023 C 
BRANCH  24  25
ATOM     25  C   UNL     1       6.124   6.835  -5.265  1.00  0.00     0.023 C 
BRANCH  25  26
ATOM     26  C   UNL     1       6.431   6.325  -6.670  1.00  0.00     0.116 C 
BRANCH  26  27
ATOM     27  N   UNL     1       5.402   5.441  -7.197  1.00  0.00    -0.352 N 
ATOM     28  C   UNL     1       5.009   5.263  -8.504  1.00  0.00     0.251 C 
ATOM     29  H   UNL     1       4.923   4.899  -6.529  1.00  0.00     0.163 HD
ATOM     30  O   UNL     1       4.047   4.560  -8.762  1.00  0.00    -0.269 OA
BRANCH  28  31
ATOM     31  C   UNL     1       5.741   5.963  -9.587  1.00  0.00     0.039 A 
ATOM     32  C   UNL     1       5.006   6.636 -10.566  1.00  0.00     0.014 A 
ATOM     33  C   UNL     1       7.137   5.965  -9.630  1.00  0.00     0.014 A 
ATOM     34  C   UNL     1       5.675   7.361 -11.555  1.00  0.00     0.010 A 
ATOM     35  C   UNL     1       7.800   6.744 -10.575  1.00  0.00     0.010 A 
ATOM     36  C   UNL     1       7.077   7.445 -11.551  1.00  0.00    -0.014 A 
BRANCH  36  37
ATOM     37  C   UNL     1       7.799   8.270 -12.553  1.00  0.00     0.031 A 
ATOM     38  C   UNL     1       8.736   7.626 -13.538  1.00  0.00     0.074 A 
ATOM     39  C   UNL     1       7.666   9.612 -12.528  1.00  0.00     0.049 A 
ATOM     40  N   UNL     1       9.465   8.188 -14.466  1.00  0.00    -0.248 NA
ATOM     41  C   UNL     1       8.897   6.164 -13.455  1.00  0.00     0.031 C 
ATOM     42  C   UNL     1       6.854  10.361 -11.567  1.00  0.00     0.029 A 
ATOM     43  N   UNL     1       8.224  10.585 -13.320  1.00  0.00    -0.354 N 
ATOM     44  C   UNL     1      10.190   7.160 -15.055  1.00  0.00     0.074 A 
ATOM     45  C   UNL     1       9.844   5.943 -14.356  1.00  0.00     0.031 C 
ATOM     46  C   UNL     1       6.953  11.672 -11.835  1.00  0.00     0.029 A 
ATOM     47  C   UNL     1       7.854  11.863 -12.969  1.00  0.00     0.049 A 
ATOM     48  H   UNL     1       8.831  10.387 -14.069  1.00  0.00     0.167 HD
ATOM     49  C   UNL     1      11.040   7.218 -16.107  1.00  0.00     0.034 A 
ATOM     50  C   UNL     1       8.196  13.053 -13.500  1.00  0.00     0.034 A 
ATOM     51  C   UNL     1      11.335   8.420 -16.836  1.00  0.00     0.049 A 
ATOM     52  C   UNL     1       9.101  13.086 -14.702  1.00  0.00     0.074 A 
ATOM     53  C   UNL     1      12.105   8.562 -17.977  1.00  0.00     0.029 A 
ATOM     54  N   UNL     1      10.879   9.684 -16.499  1.00  0.00    -0.354 N 
ATOM     55  N   UNL     1       9.649  12.084 -15.345  1.00  0.00    -0.248 NA
ATOM     56  C   UNL     1       9.410  14.405 -15.273  1.00  0.00     0.031 C 
ATOM     57  C   UNL     1      12.130   9.917 -18.319  1.00  0.00     0.029 A 
ATOM     58  C   UNL     1      11.357  10.615 -17.405  1.00  0.00     0.049 A 
ATOM     59  H   UNL     1      10.300   9.890 -15.730  1.00  0.00     0.167 HD
ATOM     60  C   UNL     1      10.340  12.645 -16.412  1.00  0.00     0.074 A 
ATOM     61  C   UNL     1      10.129  14.076 -16.340  1.00  0.00     0.031 C 
ATOM     62  C   UNL     1      11.094  12.030 -17.356  1.00  0.00     0.034 A 
BRANCH  49  63
ATOM     63  C   UNL     1      11.658   5.932 -16.591  1.00  0.00     0.023 A 
ATOM     64  C   UNL     1      10.856   4.997 -17.277  1.00  0.00     0.012 A 
ATOM     65  C   UNL     1      13.040   5.694 -16.459  1.00  0.00     0.148 A 
ATOM     66  C   UNL     1      11.414   3.834 -17.803  1.00  0.00     0.002 A 
ATOM     67  C   UNL     1      13.597   4.553 -17.026  1.00  0.00     0.091 A 
ATOM     68  F   UNL     1      13.782   6.586 -15.788  1.00  0.00    -0.205 F 
ATOM     69  C   UNL     1      12.784   3.618 -17.689  1.00  0.00     0.022 A 
BRANCH  67  70
ATOM     70  S   UNL     1      15.363   4.222 -17.008  1.00  0.00     0.127 S 
ATOM     71  O   UNL     1      15.438   3.074 -16.105  1.00  0.00    -0.237 OA
ATOM     72  O   UNL     1      15.630   3.911 -18.413  1.00  0.00    -0.237 OA
ATOM     73  O   UNL     1      15.996   5.439 -16.522  1.00  0.00    -0.744 OA
ENDBRANCH  67  70
ENDBRANCH  49  63
BRANCH  50  74
ATOM     74  C   UNL     1       7.598  14.302 -12.948  1.00  0.00     0.023 A 
ATOM     75  C   UNL     1       6.625  14.989 -13.699  1.00  0.00     0.012 A 
ATOM     76  C   UNL     1       7.930  14.772 -11.662  1.00  0.00     0.148 A 
ATOM     77  C   UNL     1       6.005  16.130 -13.188  1.00  0.00     0.002 A 
ATOM     78  C   UNL     1       7.269  15.876 -11.136  1.00  0.00     0.091 A 
ATOM     79  F   UNL     1       8.867  14.110 -10.968  1.00  0.00    -0.205 F 
ATOM     80  C   UNL     1       6.316  16.565 -11.903  1.00  0.00     0.022 A 
BRANCH  78  81
ATOM     81  S   UNL     1       7.499  16.422  -9.440  1.00  0.00     0.127 S 
ATOM     82  O   UNL     1       8.187  17.697  -9.626  1.00  0.00    -0.237 OA
ATOM     83  O   UNL     1       6.118  16.529  -8.968  1.00  0.00    -0.237 OA
ATOM     84  O   UNL     1       8.275  15.373  -8.791  1.00  0.00    -0.744 OA
ENDBRANCH  78  81
ENDBRANCH  50  74
BRANCH  62  85
ATOM     85  C   UNL     1      11.746  12.880 -18.415  1.00  0.00     0.023 A 
ATOM     86  C   UNL     1      12.881  13.646 -18.087  1.00  0.00     0.012 A 
ATOM     87  C   UNL     1      11.323  12.803 -19.757  1.00  0.00     0.148 A 
ATOM     88  C   UNL     1      13.581  14.331 -19.079  1.00  0.00     0.002 A 
ATOM     89  C   UNL     1      12.054  13.449 -20.747  1.00  0.00     0.091 A 
ATOM     90  F   UNL     1      10.232  12.078 -20.043  1.00  0.00    -0.205 F 
ATOM     91  C   UNL     1      13.178  14.220 -20.408  1.00  0.00     0.022 A 
BRANCH  89  92
ATOM     92  S   UNL     1      11.676  13.280 -22.495  1.00  0.00     0.127 S 
ATOM     93  O   UNL     1      11.208  14.624 -22.830  1.00  0.00    -0.237 OA
ATOM     94  O   UNL     1      12.979  12.930 -23.060  1.00  0.00    -0.237 OA
ATOM     95  O   UNL     1      10.671  12.231 -22.592  1.00  0.00    -0.744 OA
ENDBRANCH  89  92
ENDBRANCH  62  85
ENDBRANCH  36  37
ENDBRANCH  28  31
ENDBRANCH  26  27
ENDBRANCH  25  26
ENDBRANCH  24  25
ENDBRANCH   1  24
TORSDOF 19
