REMARK SMILES C[NH2+]CCCC(=O)NC[C@@H]1CC[C@H](C(=O)NCCCCNC(=O)c2ccc(-c3c4nc(c(-c5cccc(S(=O)(=O)[O-])c5F)c5ccc([nH]5)c(-c5cccc(S(=O)(=O)[O-])c5F)c5nc(c(-c6cccc(S(=O)(=O)[O-])c6F)c6ccc3[nH]6)C=C5)C=C4)cc2)O1
REMARK SMILES IDX 17 1 16 2 14 3 15 4 13 6 10 7 11 8 87 9 12 10 9 11 8 12 6 13
REMARK SMILES IDX 7 14 5 16 4 17 3 18 2 19 1 20 18 23 19 24 20 25 21 26 22 27
REMARK SMILES IDX 23 29 24 30 25 31 86 32 26 33 85 34 27 35 28 36 29 37 79 38
REMARK SMILES IDX 30 39 84 40 78 41 80 42 31 43 83 44 77 45 76 46 32 48 64 49
REMARK SMILES IDX 44 50 63 51 45 52 48 53 62 54 81 55 46 56 47 57 61 59 82 60
REMARK SMILES IDX 49 61 33 62 34 63 42 64 35 65 37 66 43 67 36 68 38 69 39 70
REMARK SMILES IDX 40 71 41 72 65 73 66 74 74 75 67 76 69 77 75 78 68 79 70 80
REMARK SMILES IDX 71 81 72 82 73 83 50 84 51 85 59 86 52 87 54 88 60 89 53 90
REMARK SMILES IDX 55 91 56 92 57 93 58 94
REMARK H PARENT 16 5 8 15 2 21 2 22 21 28 80 47 48 58
REMARK Flexibility Score: inf
ROOT
ATOM      1  C   UNL     1       1.942   3.630   2.178  1.00  0.00     0.116 C 
ENDROOT
BRANCH   1   2
ATOM      2  N   UNL     1       1.753   5.022   2.522  1.00  0.00    -0.354 N 
ATOM      3  C   UNL     1       0.624   5.684   2.907  1.00  0.00     0.249 C 
ATOM      4  O   UNL     1       0.709   6.899   3.111  1.00  0.00    -0.272 OA
ATOM      5  H   UNL     1       2.564   5.578   2.471  1.00  0.00     0.163 HD
BRANCH   3   6
ATOM      6  C   UNL     1      -0.733   4.965   3.053  1.00  0.00     0.207 C 
ATOM      7  C   UNL     1      -1.477   2.760   3.244  1.00  0.00     0.138 C 
ATOM      8  C   UNL     1      -1.506   3.096   1.761  1.00  0.00     0.037 C 
ATOM      9  O   UNL     1      -0.690   3.789   3.865  1.00  0.00    -0.363 OA
ATOM     10  C   UNL     1      -1.385   4.602   1.727  1.00  0.00     0.045 C 
BRANCH   7  11
ATOM     11  C   UNL     1      -0.865   1.389   3.594  1.00  0.00     0.147 C 
BRANCH  11  12
ATOM     12  N   UNL     1      -1.874   0.396   3.927  1.00  0.00    -0.353 N 
ATOM     13  C   UNL     1      -1.958  -0.922   3.611  1.00  0.00     0.220 C 
ATOM     14  O   UNL     1      -2.881  -1.579   4.098  1.00  0.00    -0.275 OA
ATOM     15  H   UNL     1      -2.621   0.736   4.471  1.00  0.00     0.163 HD
BRANCH  13  16
ATOM     16  C   UNL     1      -0.960  -1.568   2.674  1.00  0.00     0.106 C 
BRANCH  16  17
ATOM     17  C   UNL     1      -1.418  -1.548   1.212  1.00  0.00     0.071 C 
BRANCH  17  18
ATOM     18  C   UNL     1      -1.078  -0.273   0.439  1.00  0.00     0.260 C 
BRANCH  18  19
ATOM     19  N   UNL     1       0.356   0.014   0.343  1.00  0.00    -0.349 N 
ATOM     20  C   UNL     1       0.936  -0.516  -0.887  1.00  0.00     0.330 C 
ATOM     21  H   UNL     1       0.492   1.024   0.363  1.00  0.00     0.346 HD
ATOM     22  H   UNL     1       0.821  -0.436   1.131  1.00  0.00     0.346 HD
ENDBRANCH  18  19
ENDBRANCH  17  18
ENDBRANCH  16  17
ENDBRANCH  13  16
ENDBRANCH  11  12
ENDBRANCH   7  11
ENDBRANCH   3   6
ENDBRANCH   1   2
BRANCH   1  23
ATOM     23  C   UNL     1       2.089   3.439   0.670  1.00  0.00     0.023 C 
BRANCH  23  24
ATOM     24  C   UNL     1       3.501   3.696   0.143  1.00  0.00     0.023 C 
BRANCH  24  25
ATOM     25  C   UNL     1       4.580   2.788   0.725  1.00  0.00     0.116 C 
BRANCH  25  26
ATOM     26  N   UNL     1       4.323   1.368   0.521  1.00  0.00    -0.352 N 
ATOM     27  C   UNL     1       5.245   0.358   0.346  1.00  0.00     0.251 C 
ATOM     28  H   UNL     1       3.377   1.097   0.506  1.00  0.00     0.163 HD
ATOM     29  O   UNL     1       4.883  -0.780   0.088  1.00  0.00    -0.269 OA
BRANCH  27  30
ATOM     30  C   UNL     1       6.684   0.694   0.438  1.00  0.00     0.039 A 
ATOM     31  C   UNL     1       7.532   0.350  -0.617  1.00  0.00     0.014 A 
ATOM     32  C   UNL     1       7.167   1.420   1.529  1.00  0.00     0.014 A 
ATOM     33  C   UNL     1       8.853   0.805  -0.613  1.00  0.00     0.010 A 
ATOM     34  C   UNL     1       8.458   1.936   1.492  1.00  0.00     0.010 A 
ATOM     35  C   UNL     1       9.314   1.636   0.422  1.00  0.00    -0.014 A 
BRANCH  35  36
ATOM     36  C   UNL     1      10.677   2.225   0.400  1.00  0.00     0.031 A 
ATOM     37  C   UNL     1      11.662   1.892   1.488  1.00  0.00     0.074 A 
ATOM     38  C   UNL     1      10.991   3.147  -0.531  1.00  0.00     0.049 A 
ATOM     39  N   UNL     1      12.869   2.356   1.678  1.00  0.00    -0.248 NA
ATOM     40  C   UNL     1      11.217   0.937   2.516  1.00  0.00     0.031 C 
ATOM     41  C   UNL     1      10.095   3.623  -1.587  1.00  0.00     0.029 A 
ATOM     42  N   UNL     1      12.142   3.869  -0.724  1.00  0.00    -0.354 N 
ATOM     43  C   UNL     1      13.310   1.788   2.867  1.00  0.00     0.074 A 
ATOM     44  C   UNL     1      12.226   0.974   3.373  1.00  0.00     0.031 C 
ATOM     45  C   UNL     1      10.734   4.545  -2.325  1.00  0.00     0.029 A 
ATOM     46  C   UNL     1      12.073   4.748  -1.780  1.00  0.00     0.049 A 
ATOM     47  H   UNL     1      12.943   3.768  -0.160  1.00  0.00     0.167 HD
ATOM     48  C   UNL     1      14.518   1.904   3.469  1.00  0.00     0.034 A 
ATOM     49  C   UNL     1      12.986   5.616  -2.259  1.00  0.00     0.034 A 
ATOM     50  C   UNL     1      15.611   2.671   2.935  1.00  0.00     0.049 A 
ATOM     51  C   UNL     1      14.338   5.692  -1.603  1.00  0.00     0.074 A 
ATOM     52  C   UNL     1      16.909   2.763   3.404  1.00  0.00     0.029 A 
ATOM     53  N   UNL     1      15.531   3.484   1.814  1.00  0.00    -0.354 N 
ATOM     54  N   UNL     1      14.799   5.012  -0.581  1.00  0.00    -0.248 NA
ATOM     55  C   UNL     1      15.309   6.628  -2.188  1.00  0.00     0.031 C 
ATOM     56  C   UNL     1      17.609   3.649   2.578  1.00  0.00     0.029 A 
ATOM     57  C   UNL     1      16.753   4.093   1.583  1.00  0.00     0.049 A 
ATOM     58  H   UNL     1      14.725   3.610   1.264  1.00  0.00     0.167 HD
ATOM     59  C   UNL     1      16.121   5.410  -0.421  1.00  0.00     0.074 A 
ATOM     60  C   UNL     1      16.392   6.380  -1.464  1.00  0.00     0.031 C 
ATOM     61  C   UNL     1      17.025   5.018   0.511  1.00  0.00     0.034 A 
BRANCH  48  62
ATOM     62  C   UNL     1      14.731   1.135   4.747  1.00  0.00     0.023 A 
ATOM     63  C   UNL     1      14.819  -0.272   4.705  1.00  0.00     0.012 A 
ATOM     64  C   UNL     1      14.863   1.797   5.983  1.00  0.00     0.148 A 
ATOM     65  C   UNL     1      14.985  -1.011   5.876  1.00  0.00     0.002 A 
ATOM     66  C   UNL     1      15.074   1.056   7.141  1.00  0.00     0.091 A 
ATOM     67  F   UNL     1      14.751   3.133   6.011  1.00  0.00    -0.205 F 
ATOM     68  C   UNL     1      15.121  -0.347   7.092  1.00  0.00     0.022 A 
BRANCH  66  69
ATOM     69  S   UNL     1      15.340   1.831   8.739  1.00  0.00     0.127 S 
ATOM     70  O   UNL     1      14.031   1.666   9.370  1.00  0.00    -0.237 OA
ATOM     71  O   UNL     1      16.402   1.005   9.315  1.00  0.00    -0.237 OA
ATOM     72  O   UNL     1      15.735   3.203   8.451  1.00  0.00    -0.744 OA
ENDBRANCH  66  69
ENDBRANCH  48  62
BRANCH  49  73
ATOM     73  C   UNL     1      12.682   6.407  -3.485  1.00  0.00     0.023 A 
ATOM     74  C   UNL     1      13.324   6.065  -4.691  1.00  0.00     0.012 A 
ATOM     75  C   UNL     1      11.734   7.448  -3.481  1.00  0.00     0.148 A 
ATOM     76  C   UNL     1      13.044   6.759  -5.869  1.00  0.00     0.002 A 
ATOM     77  C   UNL     1      11.423   8.102  -4.668  1.00  0.00     0.091 A 
ATOM     78  F   UNL     1      11.140   7.761  -2.321  1.00  0.00    -0.205 F 
ATOM     79  C   UNL     1      12.087   7.770  -5.859  1.00  0.00     0.022 A 
BRANCH  77  80
ATOM     80  S   UNL     1      10.116   9.330  -4.785  1.00  0.00     0.127 S 
ATOM     81  O   UNL     1      10.871  10.543  -5.089  1.00  0.00    -0.237 OA
ATOM     82  O   UNL     1       9.314   8.809  -5.892  1.00  0.00    -0.237 OA
ATOM     83  O   UNL     1       9.443   9.315  -3.493  1.00  0.00    -0.744 OA
ENDBRANCH  77  80
ENDBRANCH  49  73
BRANCH  61  84
ATOM     84  C   UNL     1      18.407   5.611   0.438  1.00  0.00     0.023 A 
ATOM     85  C   UNL     1      18.615   6.950   0.824  1.00  0.00     0.012 A 
ATOM     86  C   UNL     1      19.511   4.820   0.064  1.00  0.00     0.148 A 
ATOM     87  C   UNL     1      19.896   7.501   0.812  1.00  0.00     0.002 A 
ATOM     88  C   UNL     1      20.791   5.361   0.099  1.00  0.00     0.091 A 
ATOM     89  F   UNL     1      19.291   3.554  -0.321  1.00  0.00    -0.205 F 
ATOM     90  C   UNL     1      20.984   6.704   0.462  1.00  0.00     0.022 A 
BRANCH  88  91
ATOM     91  S   UNL     1      22.258   4.382  -0.241  1.00  0.00     0.127 S 
ATOM     92  O   UNL     1      22.638   4.864  -1.568  1.00  0.00    -0.237 OA
ATOM     93  O   UNL     1      23.161   4.787   0.837  1.00  0.00    -0.237 OA
ATOM     94  O   UNL     1      21.832   2.990  -0.177  1.00  0.00    -0.744 OA
ENDBRANCH  88  91
ENDBRANCH  61  84
ENDBRANCH  35  36
ENDBRANCH  27  30
ENDBRANCH  25  26
ENDBRANCH  24  25
ENDBRANCH  23  24
ENDBRANCH   1  23
TORSDOF 20
