REMARK SMILES C[C@H](C(=O)NCCCCNC(=O)c1ccc(-c2c3nc(c(-c4cccc(S(=O)(=O)[O-])c4F)c4ccc([nH]4)c(-c4cccc(S(=O)(=O)[O-])c4F)c4nc(c(-c5cccc(S(=O)(=O)[O-])c5F)c5ccc2[nH]5)C=C4)C=C3)cc1)N1C(=O)C[C@@H](N2C(=O)/C(=C/c3ccccc3)SC2=S)C1=O
REMARK SMILES IDX 7 1 6 2 5 3 3 4 4 5 2 7 1 8 76 9 77 10 95 11 78 12 79 13
REMARK SMILES IDX 80 14 96 15 81 16 82 17 93 18 83 19 84 20 92 21 94 22 85 23
REMARK SMILES IDX 86 24 87 25 91 26 88 27 90 28 89 29 8 30 9 31 10 32 11 33
REMARK SMILES IDX 12 35 13 36 14 37 75 38 15 39 74 40 16 41 17 42 18 43 68 44
REMARK SMILES IDX 19 45 73 46 67 47 69 48 20 49 72 50 66 51 65 52 21 54 53 55
REMARK SMILES IDX 33 56 52 57 34 58 37 59 51 60 70 61 35 62 36 63 50 65 71 66
REMARK SMILES IDX 38 67 22 68 23 69 31 70 24 71 26 72 32 73 25 74 27 75 28 76
REMARK SMILES IDX 29 77 30 78 54 79 55 80 63 81 56 82 58 83 64 84 57 85 59 86
REMARK SMILES IDX 60 87 61 88 62 89 39 90 40 91 48 92 41 93 43 94 49 95 42 96
REMARK SMILES IDX 44 97 45 98 46 99 47 100
REMARK H PARENT 5 6 10 34 69 53 37 64
REMARK Flexibility Score: inf
ROOT
ATOM      1  C   UNL     1      -0.913   2.178   2.575  1.00  0.00     0.023 C 
ENDROOT
BRANCH   1   2
ATOM      2  C   UNL     1      -0.849   1.348   1.298  1.00  0.00     0.116 C 
BRANCH   2   3
ATOM      3  N   UNL     1       0.488   1.089   0.808  1.00  0.00    -0.354 N 
ATOM      4  C   UNL     1       0.956   0.130  -0.043  1.00  0.00     0.243 C 
ATOM      5  O   UNL     1       2.112   0.296  -0.455  1.00  0.00    -0.273 OA
ATOM      6  H   UNL     1       1.175   1.708   1.146  1.00  0.00     0.163 HD
BRANCH   4   7
ATOM      7  C   UNL     1       0.260  -1.237  -0.289  1.00  0.00     0.179 C 
ATOM      8  C   UNL     1       0.837  -2.162   0.797  1.00  0.00     0.042 C 
BRANCH   7   9
ATOM      9  N   UNL     1      -1.205  -1.267  -0.348  1.00  0.00    -0.268 N 
ATOM     10  C   UNL     1      -1.912  -0.320  -1.039  1.00  0.00     0.232 C 
ATOM     11  C   UNL     1      -1.958  -2.414  -0.261  1.00  0.00     0.253 C 
ATOM     12  O   UNL     1      -1.472   0.636  -1.658  1.00  0.00    -0.274 OA
ATOM     13  C   UNL     1      -3.373  -0.584  -0.846  1.00  0.00     0.136 C 
ATOM     14  C   UNL     1      -3.400  -2.083  -0.614  1.00  0.00     0.191 C 
ATOM     15  O   UNL     1      -1.572  -3.555  -0.053  1.00  0.00    -0.272 OA
BRANCH  14  16
ATOM     16  N   UNL     1      -3.891  -2.843  -1.777  1.00  0.00    -0.280 N 
ATOM     17  C   UNL     1      -3.280  -2.655  -3.003  1.00  0.00     0.266 C 
ATOM     18  C   UNL     1      -4.982  -3.686  -1.773  1.00  0.00     0.149 C 
ATOM     19  O   UNL     1      -2.235  -2.052  -3.193  1.00  0.00    -0.268 OA
ATOM     20  C   UNL     1      -4.089  -3.251  -4.087  1.00  0.00     0.081 C 
ATOM     21  S   UNL     1      -5.349  -4.198  -3.422  1.00  0.00    -0.054 SA
ATOM     22  S   UNL     1      -5.920  -4.157  -0.477  1.00  0.00    -0.052 S 
ATOM     23  C   UNL     1      -3.819  -2.959  -5.365  1.00  0.00     0.029 C 
BRANCH  23  24
ATOM     24  C   UNL     1      -4.580  -3.379  -6.542  1.00  0.00    -0.024 A 
ATOM     25  C   UNL     1      -3.935  -4.115  -7.540  1.00  0.00     0.008 A 
ATOM     26  C   UNL     1      -5.914  -2.994  -6.722  1.00  0.00     0.008 A 
ATOM     27  C   UNL     1      -4.625  -4.487  -8.694  1.00  0.00     0.001 A 
ATOM     28  C   UNL     1      -6.602  -3.367  -7.877  1.00  0.00     0.001 A 
ATOM     29  C   UNL     1      -5.958  -4.117  -8.861  1.00  0.00     0.000 A 
ENDBRANCH  23  24
ENDBRANCH  14  16
ENDBRANCH   7   9
ENDBRANCH   4   7
ENDBRANCH   2   3
ENDBRANCH   1   2
BRANCH   1  30
ATOM     30  C   UNL     1      -0.209   3.535   2.544  1.00  0.00     0.023 C 
BRANCH  30  31
ATOM     31  C   UNL     1      -0.566   4.468   1.389  1.00  0.00     0.116 C 
BRANCH  31  32
ATOM     32  N   UNL     1      -1.968   4.852   1.366  1.00  0.00    -0.352 N 
ATOM     33  C   UNL     1      -2.567   6.087   1.466  1.00  0.00     0.251 C 
ATOM     34  H   UNL     1      -2.596   4.101   1.261  1.00  0.00     0.163 HD
ATOM     35  O   UNL     1      -3.794   6.143   1.535  1.00  0.00    -0.269 OA
BRANCH  33  36
ATOM     36  C   UNL     1      -1.771   7.339   1.525  1.00  0.00     0.039 A 
ATOM     37  C   UNL     1      -2.184   8.350   2.399  1.00  0.00     0.014 A 
ATOM     38  C   UNL     1      -0.650   7.549   0.718  1.00  0.00     0.014 A 
ATOM     39  C   UNL     1      -1.436   9.526   2.518  1.00  0.00     0.010 A 
ATOM     40  C   UNL     1       0.143   8.686   0.898  1.00  0.00     0.010 A 
ATOM     41  C   UNL     1      -0.239   9.690   1.800  1.00  0.00    -0.014 A 
BRANCH  41  42
ATOM     42  C   UNL     1       0.624  10.884   2.021  1.00  0.00     0.031 A 
ATOM     43  C   UNL     1       0.919  11.855   0.907  1.00  0.00     0.074 A 
ATOM     44  C   UNL     1       1.196  11.069   3.229  1.00  0.00     0.049 A 
ATOM     45  N   UNL     1       1.626  12.957   0.941  1.00  0.00    -0.248 NA
ATOM     46  C   UNL     1       0.373  11.539  -0.423  1.00  0.00     0.031 C 
ATOM     47  C   UNL     1       1.087  10.150   4.365  1.00  0.00     0.029 A 
ATOM     48  N   UNL     1       1.999  12.080   3.699  1.00  0.00    -0.354 N 
ATOM     49  C   UNL     1       1.626  13.454  -0.358  1.00  0.00     0.074 A 
ATOM     50  C   UNL     1       0.887  12.509  -1.167  1.00  0.00     0.031 C 
ATOM     51  C   UNL     1       1.784  10.644   5.400  1.00  0.00     0.029 A 
ATOM     52  C   UNL     1       2.405  11.903   5.002  1.00  0.00     0.049 A 
ATOM     53  H   UNL     1       2.260  12.858   3.155  1.00  0.00     0.167 HD
ATOM     54  C   UNL     1       2.156  14.609  -0.831  1.00  0.00     0.034 A 
ATOM     55  C   UNL     1       3.183  12.669   5.793  1.00  0.00     0.034 A 
ATOM     56  C   UNL     1       2.863  15.568  -0.022  1.00  0.00     0.049 A 
ATOM     57  C   UNL     1       3.698  13.980   5.265  1.00  0.00     0.074 A 
ATOM     58  C   UNL     1       3.373  16.800  -0.395  1.00  0.00     0.029 A 
ATOM     59  N   UNL     1       3.163  15.404   1.321  1.00  0.00    -0.354 N 
ATOM     60  N   UNL     1       3.535  14.514   4.079  1.00  0.00    -0.248 NA
ATOM     61  C   UNL     1       4.464  14.818   6.200  1.00  0.00     0.031 C 
ATOM     62  C   UNL     1       3.991  17.376   0.722  1.00  0.00     0.029 A 
ATOM     63  C   UNL     1       3.848  16.512   1.794  1.00  0.00     0.049 A 
ATOM     64  H   UNL     1       2.923  14.616   1.861  1.00  0.00     0.167 HD
ATOM     65  C   UNL     1       4.154  15.757   4.132  1.00  0.00     0.074 A 
ATOM     66  C   UNL     1       4.662  15.913   5.480  1.00  0.00     0.031 C 
ATOM     67  C   UNL     1       4.310  16.677   3.148  1.00  0.00     0.034 A 
BRANCH  54  68
ATOM     68  C   UNL     1       1.922  14.942  -2.283  1.00  0.00     0.023 A 
ATOM     69  C   UNL     1       0.628  15.317  -2.700  1.00  0.00     0.012 A 
ATOM     70  C   UNL     1       2.977  14.952  -3.217  1.00  0.00     0.148 A 
ATOM     71  C   UNL     1       0.379  15.665  -4.027  1.00  0.00     0.002 A 
ATOM     72  C   UNL     1       2.729  15.342  -4.529  1.00  0.00     0.091 A 
ATOM     73  F   UNL     1       4.197  14.577  -2.808  1.00  0.00    -0.205 F 
ATOM     74  C   UNL     1       1.430  15.687  -4.938  1.00  0.00     0.022 A 
BRANCH  72  75
ATOM     75  S   UNL     1       4.027  15.481  -5.765  1.00  0.00     0.127 S 
ATOM     76  O   UNL     1       3.707  14.366  -6.655  1.00  0.00    -0.237 OA
ATOM     77  O   UNL     1       3.771  16.805  -6.332  1.00  0.00    -0.237 OA
ATOM     78  O   UNL     1       5.285  15.361  -5.042  1.00  0.00    -0.744 OA
ENDBRANCH  72  75
ENDBRANCH  54  68
BRANCH  55  79
ATOM     79  C   UNL     1       3.457  12.249   7.197  1.00  0.00     0.023 A 
ATOM     80  C   UNL     1       2.874  12.963   8.262  1.00  0.00     0.012 A 
ATOM     81  C   UNL     1       4.266  11.132   7.481  1.00  0.00     0.148 A 
ATOM     82  C   UNL     1       3.122  12.595   9.585  1.00  0.00     0.002 A 
ATOM     83  C   UNL     1       4.461  10.735   8.799  1.00  0.00     0.091 A 
ATOM     84  F   UNL     1       4.824  10.474   6.455  1.00  0.00    -0.205 F 
ATOM     85  C   UNL     1       3.905  11.476   9.854  1.00  0.00     0.022 A 
BRANCH  83  86
ATOM     86  S   UNL     1       5.335   9.224   9.222  1.00  0.00     0.127 S 
ATOM     87  O   UNL     1       6.612   9.741   9.703  1.00  0.00    -0.237 OA
ATOM     88  O   UNL     1       4.471   8.651  10.256  1.00  0.00    -0.237 OA
ATOM     89  O   UNL     1       5.383   8.447   7.990  1.00  0.00    -0.744 OA
ENDBRANCH  83  86
ENDBRANCH  55  79
BRANCH  67  90
ATOM     90  C   UNL     1       5.048  17.945   3.496  1.00  0.00     0.023 A 
ATOM     91  C   UNL     1       6.440  17.902   3.720  1.00  0.00     0.012 A 
ATOM     92  C   UNL     1       4.377  19.181   3.563  1.00  0.00     0.148 A 
ATOM     93  C   UNL     1       7.142  19.061   4.050  1.00  0.00     0.002 A 
ATOM     94  C   UNL     1       5.093  20.340   3.844  1.00  0.00     0.091 A 
ATOM     95  F   UNL     1       3.050  19.203   3.367  1.00  0.00    -0.205 F 
ATOM     96  C   UNL     1       6.471  20.280   4.102  1.00  0.00     0.022 A 
BRANCH  94  97
ATOM     97  S   UNL     1       4.322  21.963   3.843  1.00  0.00     0.127 S 
ATOM     98  O   UNL     1       4.165  22.221   5.273  1.00  0.00    -0.237 OA
ATOM     99  O   UNL     1       5.333  22.790   3.182  1.00  0.00    -0.237 OA
ATOM    100  O   UNL     1       3.084  21.812   3.089  1.00  0.00    -0.744 OA
ENDBRANCH  94  97
ENDBRANCH  67  90
ENDBRANCH  41  42
ENDBRANCH  33  36
ENDBRANCH  31  32
ENDBRANCH  30  31
ENDBRANCH   1  30
TORSDOF 17
