REMARK SMILES Cc1ccc([C@H](Nc2ccc(Cl)c(Br)c2)C(=O)NCCCCNC(=O)c2ccc(-c3c4nc(c(-c5cccc(S(=O)(=O)[O-])c5F)c5ccc([nH]5)c(-c5cccc(S(=O)(=O)[O-])c5F)c5nc(c(-c6cccc(S(=O)(=O)[O-])c6F)c6ccc3[nH]6)C=C5)C=C4)cc2)s1
REMARK SMILES IDX 21 1 20 2 19 3 18 4 16 5 17 6 6 8 5 9 1 10 2 11 3 12 89 13
REMARK SMILES IDX 4 14 7 15 8 17 9 18 15 19 10 20 13 21 11 22 14 23 12 24
REMARK SMILES IDX 22 25 23 26 24 27 25 29 26 30 27 31 88 32 28 33 87 34 29 35
REMARK SMILES IDX 30 36 31 37 81 38 32 39 86 40 80 41 82 42 33 43 85 44 79 45
REMARK SMILES IDX 78 46 34 48 66 49 46 50 65 51 47 52 50 53 64 54 83 55 48 56
REMARK SMILES IDX 49 57 63 59 84 60 51 61 35 62 36 63 44 64 37 65 39 66 45 67
REMARK SMILES IDX 38 68 40 69 41 70 42 71 43 72 67 73 68 74 76 75 69 76 71 77
REMARK SMILES IDX 77 78 70 79 72 80 73 81 74 82 75 83 52 84 53 85 61 86 54 87
REMARK SMILES IDX 56 88 62 89 55 90 57 91 58 92 59 93 60 94
REMARK H PARENT 18 7 7 16 23 28 82 47 50 58
REMARK Flexibility Score: inf
ROOT
ATOM      1  C   UNL     1       0.564   3.812  -2.385  1.00  0.00     0.023 C 
ENDROOT
BRANCH   1   2
ATOM      2  C   UNL     1       0.394   2.889  -1.181  1.00  0.00     0.023 C 
BRANCH   2   3
ATOM      3  C   UNL     1      -0.911   3.065  -0.413  1.00  0.00     0.116 C 
BRANCH   3   4
ATOM      4  N   UNL     1      -2.081   2.896  -1.254  1.00  0.00    -0.354 N 
ATOM      5  C   UNL     1      -3.112   2.009  -1.112  1.00  0.00     0.247 C 
ATOM      6  O   UNL     1      -4.070   2.117  -1.887  1.00  0.00    -0.272 OA
ATOM      7  H   UNL     1      -2.140   3.499  -2.030  1.00  0.00     0.163 HD
BRANCH   5   8
ATOM      8  C   UNL     1      -3.099   0.926  -0.000  1.00  0.00     0.210 C 
BRANCH   8   9
ATOM      9  C   UNL     1      -3.328   1.635   1.341  1.00  0.00     0.037 A 
ATOM     10  C   UNL     1      -3.119   2.259   5.224  1.00  0.00     0.056 C 
ATOM     11  C   UNL     1      -3.312   2.251   3.746  1.00  0.00     0.002 A 
ATOM     12  C   UNL     1      -3.819   3.258   2.956  1.00  0.00     0.015 A 
ATOM     13  S   UNL     1      -2.905   0.870   2.823  1.00  0.00    -0.143 S 
ATOM     14  C   UNL     1      -3.858   2.894   1.582  1.00  0.00     0.018 A 
ENDBRANCH   8   9
BRANCH   8  15
ATOM     15  N   UNL     1      -1.896   0.067  -0.038  1.00  0.00    -0.369 N 
ATOM     16  H   UNL     1      -1.413  -0.025   0.815  1.00  0.00     0.161 HD
BRANCH  15  17
ATOM     17  C   UNL     1      -1.356  -0.623  -1.104  1.00  0.00     0.036 A 
ATOM     18  C   UNL     1      -1.675  -0.399  -2.446  1.00  0.00     0.027 A 
ATOM     19  C   UNL     1      -0.370  -1.589  -0.840  1.00  0.00     0.043 A 
ATOM     20  C   UNL     1      -1.015  -1.075  -3.483  1.00  0.00     0.024 A 
ATOM     21  C   UNL     1       0.274  -2.297  -1.868  1.00  0.00     0.038 A 
ATOM     22  C   UNL     1      -0.041  -2.028  -3.199  1.00  0.00     0.055 A 
ATOM     23  Br  UNL     1       1.556  -3.605  -1.362  1.00  0.00    -0.049 Br
ATOM     24  Cl  UNL     1       0.721  -2.825  -4.527  1.00  0.00    -0.083 Cl
ENDBRANCH  15  17
ENDBRANCH   8  15
ENDBRANCH   5   8
ENDBRANCH   3   4
ENDBRANCH   2   3
ENDBRANCH   1   2
BRANCH   1  25
ATOM     25  C   UNL     1       0.271   5.284  -2.129  1.00  0.00     0.116 C 
BRANCH  25  26
ATOM     26  N   UNL     1       1.103   5.875  -1.091  1.00  0.00    -0.352 N 
ATOM     27  C   UNL     1       1.715   7.109  -1.101  1.00  0.00     0.251 C 
ATOM     28  H   UNL     1       1.246   5.327  -0.285  1.00  0.00     0.163 HD
ATOM     29  O   UNL     1       2.441   7.460  -0.178  1.00  0.00    -0.269 OA
BRANCH  27  30
ATOM     30  C   UNL     1       1.512   7.971  -2.282  1.00  0.00     0.039 A 
ATOM     31  C   UNL     1       0.214   8.278  -2.700  1.00  0.00     0.014 A 
ATOM     32  C   UNL     1       2.618   8.336  -3.050  1.00  0.00     0.014 A 
ATOM     33  C   UNL     1       0.018   8.792  -3.976  1.00  0.00     0.010 A 
ATOM     34  C   UNL     1       2.417   8.923  -4.301  1.00  0.00     0.010 A 
ATOM     35  C   UNL     1       1.116   9.098  -4.799  1.00  0.00    -0.014 A 
BRANCH  35  36
ATOM     36  C   UNL     1       0.884   9.583  -6.182  1.00  0.00     0.031 A 
ATOM     37  C   UNL     1       1.319   8.770  -7.373  1.00  0.00     0.074 A 
ATOM     38  C   UNL     1       0.249  10.756  -6.366  1.00  0.00     0.049 A 
ATOM     39  N   UNL     1       1.203   9.053  -8.645  1.00  0.00    -0.248 NA
ATOM     40  C   UNL     1       1.973   7.477  -7.107  1.00  0.00     0.031 C 
ATOM     41  C   UNL     1      -0.206  11.641  -5.293  1.00  0.00     0.029 A 
ATOM     42  N   UNL     1      -0.129  11.401  -7.515  1.00  0.00    -0.354 N 
ATOM     43  C   UNL     1       1.816   8.010  -9.328  1.00  0.00     0.074 A 
ATOM     44  C   UNL     1       2.293   7.076  -8.331  1.00  0.00     0.031 C 
ATOM     45  C   UNL     1      -0.832  12.697  -5.831  1.00  0.00     0.029 A 
ATOM     46  C   UNL     1      -0.778  12.590  -7.286  1.00  0.00     0.049 A 
ATOM     47  H   UNL     1       0.047  11.047  -8.416  1.00  0.00     0.167 HD
ATOM     48  C   UNL     1       1.955   7.839 -10.663  1.00  0.00     0.034 A 
ATOM     49  C   UNL     1      -1.268  13.503  -8.146  1.00  0.00     0.034 A 
ATOM     50  C   UNL     1       1.417   8.728 -11.656  1.00  0.00     0.049 A 
ATOM     51  C   UNL     1      -1.143  13.266  -9.621  1.00  0.00     0.074 A 
ATOM     52  C   UNL     1       1.455   8.599 -13.034  1.00  0.00     0.029 A 
ATOM     53  N   UNL     1       0.736   9.903 -11.382  1.00  0.00    -0.354 N 
ATOM     54  N   UNL     1      -0.627  12.235 -10.244  1.00  0.00    -0.248 NA
ATOM     55  C   UNL     1      -1.677  14.305 -10.511  1.00  0.00     0.031 C 
ATOM     56  C   UNL     1       0.794   9.697 -13.594  1.00  0.00     0.029 A 
ATOM     57  C   UNL     1       0.347  10.509 -12.564  1.00  0.00     0.049 A 
ATOM     58  H   UNL     1       0.555  10.255 -10.481  1.00  0.00     0.167 HD
ATOM     59  C   UNL     1      -0.776  12.497 -11.599  1.00  0.00     0.074 A 
ATOM     60  C   UNL     1      -1.455  13.773 -11.707  1.00  0.00     0.031 C 
ATOM     61  C   UNL     1      -0.366  11.756 -12.656  1.00  0.00     0.034 A 
BRANCH  48  62
ATOM     62  C   UNL     1       2.680   6.614 -11.148  1.00  0.00     0.023 A 
ATOM     63  C   UNL     1       1.986   5.391 -11.232  1.00  0.00     0.012 A 
ATOM     64  C   UNL     1       4.008   6.694 -11.610  1.00  0.00     0.148 A 
ATOM     65  C   UNL     1       2.607   4.262 -11.765  1.00  0.00     0.002 A 
ATOM     66  C   UNL     1       4.612   5.571 -12.162  1.00  0.00     0.091 A 
ATOM     67  F   UNL     1       4.652   7.865 -11.499  1.00  0.00    -0.205 F 
ATOM     68  C   UNL     1       3.914   4.354 -12.239  1.00  0.00     0.022 A 
BRANCH  66  69
ATOM     69  S   UNL     1       6.272   5.600 -12.849  1.00  0.00     0.127 S 
ATOM     70  O   UNL     1       7.010   4.806 -11.868  1.00  0.00    -0.237 OA
ATOM     71  O   UNL     1       6.082   4.946 -14.144  1.00  0.00    -0.237 OA
ATOM     72  O   UNL     1       6.649   7.004 -12.927  1.00  0.00    -0.744 OA
ENDBRANCH  66  69
ENDBRANCH  48  62
BRANCH  49  73
ATOM     73  C   UNL     1      -1.966  14.696  -7.599  1.00  0.00     0.023 A 
ATOM     74  C   UNL     1      -3.371  14.747  -7.639  1.00  0.00     0.012 A 
ATOM     75  C   UNL     1      -1.252  15.710  -6.932  1.00  0.00     0.148 A 
ATOM     76  C   UNL     1      -4.058  15.789  -7.017  1.00  0.00     0.002 A 
ATOM     77  C   UNL     1      -1.944  16.718  -6.273  1.00  0.00     0.091 A 
ATOM     78  F   UNL     1       0.086  15.635  -6.913  1.00  0.00    -0.205 F 
ATOM     79  C   UNL     1      -3.346  16.765  -6.322  1.00  0.00     0.022 A 
BRANCH  77  80
ATOM     80  S   UNL     1      -1.125  17.938  -5.240  1.00  0.00     0.127 S 
ATOM     81  O   UNL     1      -1.423  19.179  -5.951  1.00  0.00    -0.237 OA
ATOM     82  O   UNL     1      -1.830  17.771  -3.968  1.00  0.00    -0.237 OA
ATOM     83  O   UNL     1       0.279  17.555  -5.209  1.00  0.00    -0.744 OA
ENDBRANCH  77  80
ENDBRANCH  49  73
BRANCH  61  84
ATOM     84  C   UNL     1      -0.627  12.298 -14.033  1.00  0.00     0.023 A 
ATOM     85  C   UNL     1       0.241  13.274 -14.559  1.00  0.00     0.012 A 
ATOM     86  C   UNL     1      -1.655  11.773 -14.837  1.00  0.00     0.148 A 
ATOM     87  C   UNL     1       0.084  13.726 -15.868  1.00  0.00     0.002 A 
ATOM     88  C   UNL     1      -1.788  12.207 -16.150  1.00  0.00     0.091 A 
ATOM     89  F   UNL     1      -2.479  10.858 -14.305  1.00  0.00    -0.205 F 
ATOM     90  C   UNL     1      -0.922  13.186 -16.666  1.00  0.00     0.022 A 
BRANCH  88  91
ATOM     91  S   UNL     1      -3.010  11.515 -17.271  1.00  0.00     0.127 S 
ATOM     92  O   UNL     1      -3.999  12.589 -17.333  1.00  0.00    -0.237 OA
ATOM     93  O   UNL     1      -2.237  11.326 -18.499  1.00  0.00    -0.237 OA
ATOM     94  O   UNL     1      -3.465  10.278 -16.650  1.00  0.00    -0.744 OA
ENDBRANCH  88  91
ENDBRANCH  61  84
ENDBRANCH  35  36
ENDBRANCH  27  30
ENDBRANCH  25  26
ENDBRANCH   1  25
TORSDOF 17
