REMARK SMILES C#CC[C@]1(C(=O)NCCCCNC(=O)c2ccc(-c3c4nc(c(-c5cccc(S(=O)(=O)[O-])c5F)c5ccc([nH]5)c(-c5cccc(S(=O)(=O)[O-])c5F)c5nc(c(-c6cccc(S(=O)(=O)[O-])c6F)c6ccc3[nH]6)C=C5)C=C4)cc2)CCCN(C(=O)OC(C)(C)C)C1
REMARK SMILES IDX 9 1 8 2 7 3 5 4 6 5 4 7 78 8 89 9 79 10 81 11 80 12 3 13
REMARK SMILES IDX 2 14 1 15 82 16 83 17 84 18 85 19 86 20 87 21 88 22 10 23
REMARK SMILES IDX 11 24 12 25 13 26 14 28 15 29 16 30 77 31 17 32 76 33 18 34
REMARK SMILES IDX 19 35 20 36 70 37 21 38 75 39 69 40 71 41 22 42 74 43 68 44
REMARK SMILES IDX 67 45 23 47 55 48 35 49 54 50 36 51 39 52 53 53 72 54 37 55
REMARK SMILES IDX 38 56 52 58 73 59 40 60 24 61 25 62 33 63 26 64 28 65 34 66
REMARK SMILES IDX 27 67 29 68 30 69 31 70 32 71 56 72 57 73 65 74 58 75 60 76
REMARK SMILES IDX 66 77 59 78 61 79 62 80 63 81 64 82 41 83 42 84 50 85 43 86
REMARK SMILES IDX 45 87 51 88 44 89 46 90 47 91 48 92 49 93
REMARK H PARENT 7 6 12 27 71 46 39 57
REMARK Flexibility Score: inf
ROOT
ATOM      1  C   UNL     1      -5.174  -4.814  -1.613  1.00  0.00     0.023 C 
ENDROOT
BRANCH   1   2
ATOM      2  C   UNL     1      -4.000  -4.049  -1.015  1.00  0.00     0.116 C 
BRANCH   2   3
ATOM      3  N   UNL     1      -3.743  -2.800  -1.719  1.00  0.00    -0.356 N 
ATOM      4  C   UNL     1      -3.068  -1.663  -1.373  1.00  0.00     0.228 C 
ATOM      5  O   UNL     1      -3.008  -0.798  -2.251  1.00  0.00    -0.274 OA
ATOM      6  H   UNL     1      -4.132  -2.768  -2.623  1.00  0.00     0.163 HD
BRANCH   4   7
ATOM      7  C   UNL     1      -2.421  -1.455   0.022  1.00  0.00     0.078 C 
ATOM      8  C   UNL     1      -3.522  -1.421   1.112  1.00  0.00     0.021 C 
ATOM      9  C   UNL     1      -1.418  -2.615   0.225  1.00  0.00     0.141 C 
ATOM     10  C   UNL     1      -2.938  -1.629   2.507  1.00  0.00     0.023 C 
ATOM     11  N   UNL     1      -1.208  -3.150   1.566  1.00  0.00    -0.307 N 
ATOM     12  C   UNL     1      -2.207  -2.959   2.606  1.00  0.00     0.123 C 
BRANCH   7  13
ATOM     13  C   UNL     1      -1.743  -0.031   0.050  1.00  0.00     0.108 C 
BRANCH  13  14
ATOM     14  C   UNL     1      -0.223  -0.031   0.050  1.00  0.00    -0.106 C 
ATOM     15  C   UNL     1       1.081  -0.031   0.050  1.00  0.00     0.004 C 
ENDBRANCH  13  14
ENDBRANCH   7  13
BRANCH  11  16
ATOM     16  C   UNL     1      -0.257  -4.167   1.644  1.00  0.00     0.410 C 
ATOM     17  O   UNL     1       0.367  -4.556   0.658  1.00  0.00    -0.224 OA
BRANCH  16  18
ATOM     18  O   UNL     1      -0.099  -4.684   2.890  1.00  0.00    -0.444 OA
BRANCH  18  19
ATOM     19  C   UNL     1       0.904  -5.719   3.097  1.00  0.00     0.106 C 
ATOM     20  C   UNL     1       0.484  -7.033   2.424  1.00  0.00     0.056 C 
ATOM     21  C   UNL     1       2.302  -5.266   2.646  1.00  0.00     0.056 C 
ATOM     22  C   UNL     1       0.952  -5.944   4.616  1.00  0.00     0.056 C 
ENDBRANCH  18  19
ENDBRANCH  16  18
ENDBRANCH  11  16
ENDBRANCH   4   7
ENDBRANCH   2   3
ENDBRANCH   1   2
BRANCH   1  23
ATOM     23  C   UNL     1      -4.797  -5.639  -2.847  1.00  0.00     0.023 C 
BRANCH  23  24
ATOM     24  C   UNL     1      -3.744  -6.723  -2.604  1.00  0.00     0.116 C 
BRANCH  24  25
ATOM     25  N   UNL     1      -4.125  -7.654  -1.547  1.00  0.00    -0.352 N 
ATOM     26  C   UNL     1      -4.373  -9.004  -1.627  1.00  0.00     0.251 C 
ATOM     27  H   UNL     1      -4.219  -7.260  -0.650  1.00  0.00     0.163 HD
ATOM     28  O   UNL     1      -4.847  -9.610  -0.672  1.00  0.00    -0.269 OA
BRANCH  26  29
ATOM     29  C   UNL     1      -4.080  -9.709  -2.890  1.00  0.00     0.039 A 
ATOM     30  C   UNL     1      -5.089 -10.451  -3.508  1.00  0.00     0.014 A 
ATOM     31  C   UNL     1      -2.825  -9.571  -3.488  1.00  0.00     0.014 A 
ATOM     32  C   UNL     1      -4.867 -10.979  -4.781  1.00  0.00     0.010 A 
ATOM     33  C   UNL     1      -2.632 -10.037  -4.783  1.00  0.00     0.010 A 
ATOM     34  C   UNL     1      -3.655 -10.732  -5.448  1.00  0.00    -0.014 A 
BRANCH  34  35
ATOM     35  C   UNL     1      -3.443 -11.142  -6.859  1.00  0.00     0.031 A 
ATOM     36  C   UNL     1      -2.358 -12.122  -7.205  1.00  0.00     0.074 A 
ATOM     37  C   UNL     1      -4.144 -10.533  -7.836  1.00  0.00     0.049 A 
ATOM     38  N   UNL     1      -1.947 -12.514  -8.382  1.00  0.00    -0.248 NA
ATOM     39  C   UNL     1      -1.618 -12.718  -6.080  1.00  0.00     0.031 C 
ATOM     40  C   UNL     1      -5.169  -9.506  -7.631  1.00  0.00     0.029 A 
ATOM     41  N   UNL     1      -4.077 -10.664  -9.201  1.00  0.00    -0.354 N 
ATOM     42  C   UNL     1      -0.879 -13.369  -8.145  1.00  0.00     0.074 A 
ATOM     43  C   UNL     1      -0.685 -13.417  -6.711  1.00  0.00     0.031 C 
ATOM     44  C   UNL     1      -5.633  -9.101  -8.824  1.00  0.00     0.029 A 
ATOM     45  C   UNL     1      -4.919  -9.812  -9.879  1.00  0.00     0.049 A 
ATOM     46  H   UNL     1      -3.482 -11.305  -9.652  1.00  0.00     0.167 HD
ATOM     47  C   UNL     1      -0.145 -14.076  -9.036  1.00  0.00     0.034 A 
ATOM     48  C   UNL     1      -5.091  -9.620 -11.202  1.00  0.00     0.034 A 
ATOM     49  C   UNL     1      -0.374 -14.065 -10.455  1.00  0.00     0.049 A 
ATOM     50  C   UNL     1      -4.284 -10.441 -12.170  1.00  0.00     0.074 A 
ATOM     51  C   UNL     1       0.249 -14.820 -11.433  1.00  0.00     0.029 A 
ATOM     52  N   UNL     1      -1.296 -13.256 -11.101  1.00  0.00    -0.354 N 
ATOM     53  N   UNL     1      -3.391 -11.368 -11.920  1.00  0.00    -0.248 NA
ATOM     54  C   UNL     1      -4.527 -10.213 -13.602  1.00  0.00     0.031 C 
ATOM     55  C   UNL     1      -0.289 -14.458 -12.672  1.00  0.00     0.029 A 
ATOM     56  C   UNL     1      -1.254 -13.486 -12.465  1.00  0.00     0.049 A 
ATOM     57  H   UNL     1      -1.894 -12.613 -10.654  1.00  0.00     0.167 HD
ATOM     58  C   UNL     1      -2.989 -11.855 -13.158  1.00  0.00     0.074 A 
ATOM     59  C   UNL     1      -3.751 -11.134 -14.158  1.00  0.00     0.031 C 
ATOM     60  C   UNL     1      -2.060 -12.801 -13.443  1.00  0.00     0.034 A 
BRANCH  47  61
ATOM     61  C   UNL     1       0.931 -14.977  -8.492  1.00  0.00     0.023 A 
ATOM     62  C   UNL     1       0.563 -16.164  -7.825  1.00  0.00     0.012 A 
ATOM     63  C   UNL     1       2.295 -14.683  -8.677  1.00  0.00     0.148 A 
ATOM     64  C   UNL     1       1.534 -17.027  -7.320  1.00  0.00     0.002 A 
ATOM     65  C   UNL     1       3.259 -15.568  -8.206  1.00  0.00     0.091 A 
ATOM     66  F   UNL     1       2.627 -13.538  -9.291  1.00  0.00    -0.205 F 
ATOM     67  C   UNL     1       2.881 -16.734  -7.519  1.00  0.00     0.022 A 
BRANCH  65  68
ATOM     68  S   UNL     1       5.017 -15.315  -8.476  1.00  0.00     0.127 S 
ATOM     69  O   UNL     1       5.460 -14.885  -7.151  1.00  0.00    -0.237 OA
ATOM     70  O   UNL     1       5.467 -16.652  -8.865  1.00  0.00    -0.237 OA
ATOM     71  O   UNL     1       5.117 -14.315  -9.530  1.00  0.00    -0.744 OA
ENDBRANCH  65  68
ENDBRANCH  47  61
BRANCH  48  72
ATOM     72  C   UNL     1      -6.122  -8.660 -11.687  1.00  0.00     0.023 A 
ATOM     73  C   UNL     1      -7.292  -9.161 -12.291  1.00  0.00     0.012 A 
ATOM     74  C   UNL     1      -5.976  -7.269 -11.523  1.00  0.00     0.148 A 
ATOM     75  C   UNL     1      -8.286  -8.294 -12.747  1.00  0.00     0.002 A 
ATOM     76  C   UNL     1      -6.993  -6.413 -11.933  1.00  0.00     0.091 A 
ATOM     77  F   UNL     1      -4.850  -6.809 -10.959  1.00  0.00    -0.205 F 
ATOM     78  C   UNL     1      -8.142  -6.923 -12.559  1.00  0.00     0.022 A 
BRANCH  76  79
ATOM     79  S   UNL     1      -6.950  -4.646 -11.611  1.00  0.00     0.127 S 
ATOM     80  O   UNL     1      -6.673  -4.107 -12.940  1.00  0.00    -0.237 OA
ATOM     81  O   UNL     1      -8.303  -4.394 -11.113  1.00  0.00    -0.237 OA
ATOM     82  O   UNL     1      -5.904  -4.457 -10.616  1.00  0.00    -0.744 OA
ENDBRANCH  76  79
ENDBRANCH  48  72
BRANCH  60  83
ATOM     83  C   UNL     1      -1.824 -13.135 -14.891  1.00  0.00     0.023 A 
ATOM     84  C   UNL     1      -1.098 -12.240 -15.701  1.00  0.00     0.012 A 
ATOM     85  C   UNL     1      -2.239 -14.372 -15.424  1.00  0.00     0.148 A 
ATOM     86  C   UNL     1      -0.806 -12.561 -17.025  1.00  0.00     0.002 A 
ATOM     87  C   UNL     1      -1.906 -14.704 -16.732  1.00  0.00     0.091 A 
ATOM     88  F   UNL     1      -2.945 -15.201 -14.641  1.00  0.00    -0.205 F 
ATOM     89  C   UNL     1      -1.198 -13.796 -17.536  1.00  0.00     0.022 A 
BRANCH  87  90
ATOM     90  S   UNL     1      -2.289 -16.307 -17.446  1.00  0.00     0.127 S 
ATOM     91  O   UNL     1      -3.360 -15.969 -18.382  1.00  0.00    -0.237 OA
ATOM     92  O   UNL     1      -1.022 -16.677 -18.077  1.00  0.00    -0.237 OA
ATOM     93  O   UNL     1      -2.680 -17.160 -16.331  1.00  0.00    -0.744 OA
ENDBRANCH  87  90
ENDBRANCH  60  83
ENDBRANCH  34  35
ENDBRANCH  26  29
ENDBRANCH  24  25
ENDBRANCH  23  24
ENDBRANCH   1  23
TORSDOF 19
