REMARK SMILES Cc1nsc(NC(=O)[C@]2([NH3+])CCC[C@@H](C)C2)c1C(=O)NCCCCNC(=O)c1ccc(-c2c3nc(c(-c4cccc(S(=O)(=O)[O-])c4F)c4ccc([nH]4)c(-c4cccc(S(=O)(=O)[O-])c4F)c4nc(c(-c5cccc(S(=O)(=O)[O-])c5F)c5ccc2[nH]5)C=C4)C=C3)cc1
REMARK SMILES IDX 22 1 21 2 20 3 18 4 19 5 17 7 1 8 2 9 3 10 4 11 5 12 6 13
REMARK SMILES IDX 7 14 8 16 9 17 11 18 16 19 12 20 14 21 13 22 15 23 10 24
REMARK SMILES IDX 23 28 24 29 25 30 26 31 27 33 28 34 29 35 90 36 30 37 89 38
REMARK SMILES IDX 31 39 32 40 33 41 83 42 34 43 88 44 82 45 84 46 35 47 87 48
REMARK SMILES IDX 81 49 80 50 36 52 68 53 48 54 67 55 49 56 52 57 66 58 85 59
REMARK SMILES IDX 50 60 51 61 65 63 86 64 53 65 37 66 38 67 46 68 39 69 41 70
REMARK SMILES IDX 47 71 40 72 42 73 43 74 44 75 45 76 69 77 70 78 78 79 71 80
REMARK SMILES IDX 73 81 79 82 72 83 74 84 75 85 76 86 77 87 54 88 55 89 63 90
REMARK SMILES IDX 56 91 58 92 64 93 57 94 59 95 60 96 61 97 62 98
REMARK H PARENT 20 6 6 15 10 25 10 26 10 27 25 32 84 51 52 62
REMARK Flexibility Score: inf
ROOT
ATOM      1  C   UNL     1       4.798  -1.086   1.157  1.00  0.00     0.023 C 
ENDROOT
BRANCH   1   2
ATOM      2  C   UNL     1       4.763  -2.608   0.995  1.00  0.00     0.116 C 
BRANCH   2   3
ATOM      3  N   UNL     1       3.423  -3.122   0.921  1.00  0.00    -0.352 N 
ATOM      4  C   UNL     1       2.517  -3.319  -0.078  1.00  0.00     0.256 C 
ATOM      5  O   UNL     1       1.491  -3.893   0.309  1.00  0.00    -0.269 OA
ATOM      6  H   UNL     1       3.078  -3.398   1.801  1.00  0.00     0.163 HD
BRANCH   4   7
ATOM      7  C   UNL     1       2.588  -2.839  -1.472  1.00  0.00     0.097 A 
ATOM      8  C   UNL     1       4.998  -1.832  -2.154  1.00  0.00     0.069 C 
ATOM      9  C   UNL     1       3.545  -2.111  -2.306  1.00  0.00     0.066 A 
ATOM     10  N   UNL     1       3.044  -1.606  -3.442  1.00  0.00    -0.195 NA
ATOM     11  S   UNL     1       1.470  -2.036  -3.575  1.00  0.00    -0.017 S 
ATOM     12  C   UNL     1       1.508  -3.160  -2.320  1.00  0.00     0.129 A 
BRANCH  12  13
ATOM     13  N   UNL     1       0.489  -4.057  -2.087  1.00  0.00    -0.310 N 
ATOM     14  C   UNL     1      -0.457  -4.686  -2.823  1.00  0.00     0.286 C 
ATOM     15  H   UNL     1       0.435  -4.305  -1.136  1.00  0.00     0.171 HD
ATOM     16  O   UNL     1      -1.349  -5.220  -2.137  1.00  0.00    -0.267 OA
BRANCH  14  17
ATOM     17  C   UNL     1      -0.607  -4.742  -4.396  1.00  0.00     0.174 C 
ATOM     18  C   UNL     1      -1.356  -6.086  -4.688  1.00  0.00     0.079 C 
ATOM     19  C   UNL     1       0.675  -4.759  -5.255  1.00  0.00     0.082 C 
ATOM     20  C   UNL     1      -1.550  -6.438  -6.162  1.00  0.00     0.007 C 
ATOM     21  C   UNL     1       0.488  -5.071  -6.756  1.00  0.00    -0.008 C 
ATOM     22  C   UNL     1      -0.241  -6.398  -6.937  1.00  0.00     0.004 C 
ATOM     23  C   UNL     1      -0.193  -3.939  -7.539  1.00  0.00     0.008 C 
BRANCH  17  24
ATOM     24  N   UNL     1      -1.498  -3.615  -4.765  1.00  0.00    -0.345 N 
ATOM     25  H   UNL     1      -1.631  -3.603  -5.777  1.00  0.00     0.345 HD
ATOM     26  H   UNL     1      -1.076  -2.735  -4.468  1.00  0.00     0.345 HD
ATOM     27  H   UNL     1      -2.402  -3.731  -4.306  1.00  0.00     0.345 HD
ENDBRANCH  17  24
ENDBRANCH  14  17
ENDBRANCH  12  13
ENDBRANCH   4   7
ENDBRANCH   2   3
ENDBRANCH   1   2
BRANCH   1  28
ATOM     28  C   UNL     1       4.662  -0.563   2.590  1.00  0.00     0.023 C 
BRANCH  28  29
ATOM     29  C   UNL     1       5.826  -0.933   3.505  1.00  0.00     0.116 C 
BRANCH  29  30
ATOM     30  N   UNL     1       7.113  -0.466   2.988  1.00  0.00    -0.352 N 
ATOM     31  C   UNL     1       8.373  -0.844   3.394  1.00  0.00     0.251 C 
ATOM     32  H   UNL     1       7.073   0.198   2.263  1.00  0.00     0.163 HD
ATOM     33  O   UNL     1       9.350  -0.133   3.157  1.00  0.00    -0.269 OA
BRANCH  31  34
ATOM     34  C   UNL     1       8.537  -2.118   4.107  1.00  0.00     0.039 A 
ATOM     35  C   UNL     1       9.271  -2.181   5.293  1.00  0.00     0.014 A 
ATOM     36  C   UNL     1       7.903  -3.247   3.587  1.00  0.00     0.014 A 
ATOM     37  C   UNL     1       9.288  -3.374   6.008  1.00  0.00     0.010 A 
ATOM     38  C   UNL     1       7.845  -4.400   4.337  1.00  0.00     0.010 A 
ATOM     39  C   UNL     1       8.550  -4.472   5.538  1.00  0.00    -0.014 A 
BRANCH  39  40
ATOM     40  C   UNL     1       8.349  -5.638   6.393  1.00  0.00     0.031 A 
ATOM     41  C   UNL     1       7.699  -5.332   7.699  1.00  0.00     0.074 A 
ATOM     42  C   UNL     1       8.523  -6.902   5.952  1.00  0.00     0.049 A 
ATOM     43  N   UNL     1       8.216  -5.465   8.875  1.00  0.00    -0.248 NA
ATOM     44  C   UNL     1       6.392  -4.655   7.704  1.00  0.00     0.031 C 
ATOM     45  C   UNL     1       8.898  -7.329   4.600  1.00  0.00     0.029 A 
ATOM     46  N   UNL     1       8.245  -8.083   6.575  1.00  0.00    -0.354 N 
ATOM     47  C   UNL     1       7.207  -5.130   9.776  1.00  0.00     0.074 A 
ATOM     48  C   UNL     1       6.205  -4.441   9.008  1.00  0.00     0.031 C 
ATOM     49  C   UNL     1       8.569  -8.628   4.434  1.00  0.00     0.029 A 
ATOM     50  C   UNL     1       8.096  -9.159   5.700  1.00  0.00     0.049 A 
ATOM     51  H   UNL     1       8.158  -8.168   7.552  1.00  0.00     0.167 HD
ATOM     52  C   UNL     1       7.170  -5.684  11.021  1.00  0.00     0.034 A 
ATOM     53  C   UNL     1       7.563 -10.376   5.979  1.00  0.00     0.034 A 
ATOM     54  C   UNL     1       8.420  -6.336  11.330  1.00  0.00     0.049 A 
ATOM     55  C   UNL     1       7.643 -10.562   7.444  1.00  0.00     0.074 A 
ATOM     56  C   UNL     1       9.741  -5.938  11.391  1.00  0.00     0.029 A 
ATOM     57  N   UNL     1       8.437  -7.707  11.241  1.00  0.00    -0.354 N 
ATOM     58  N   UNL     1       8.772 -10.700   8.080  1.00  0.00    -0.248 NA
ATOM     59  C   UNL     1       6.513 -10.144   8.258  1.00  0.00     0.031 C 
ATOM     60  C   UNL     1      10.475  -7.034  10.851  1.00  0.00     0.029 A 
ATOM     61  C   UNL     1       9.577  -8.067  10.578  1.00  0.00     0.049 A 
ATOM     62  H   UNL     1       7.752  -8.320  11.592  1.00  0.00     0.167 HD
ATOM     63  C   UNL     1       8.615  -9.912   9.211  1.00  0.00     0.074 A 
ATOM     64  C   UNL     1       7.172  -9.708   9.335  1.00  0.00     0.031 C 
ATOM     65  C   UNL     1       9.679  -9.245   9.747  1.00  0.00     0.034 A 
BRANCH  52  66
ATOM     66  C   UNL     1       5.919  -6.011  11.815  1.00  0.00     0.023 A 
ATOM     67  C   UNL     1       6.111  -6.537  13.116  1.00  0.00     0.012 A 
ATOM     68  C   UNL     1       4.619  -6.120  11.273  1.00  0.00     0.148 A 
ATOM     69  C   UNL     1       5.096  -7.218  13.796  1.00  0.00     0.002 A 
ATOM     70  C   UNL     1       3.593  -6.736  11.982  1.00  0.00     0.091 A 
ATOM     71  F   UNL     1       4.381  -5.745  10.015  1.00  0.00    -0.205 F 
ATOM     72  C   UNL     1       3.835  -7.320  13.227  1.00  0.00     0.022 A 
BRANCH  70  73
ATOM     73  S   UNL     1       1.927  -6.862  11.315  1.00  0.00     0.127 S 
ATOM     74  O   UNL     1       1.839  -8.290  11.021  1.00  0.00    -0.237 OA
ATOM     75  O   UNL     1       1.119  -6.409  12.448  1.00  0.00    -0.237 OA
ATOM     76  O   UNL     1       1.895  -5.971  10.163  1.00  0.00    -0.744 OA
ENDBRANCH  70  73
ENDBRANCH  52  66
BRANCH  53  77
ATOM     77  C   UNL     1       6.802 -11.310   5.114  1.00  0.00     0.023 A 
ATOM     78  C   UNL     1       6.615 -12.648   5.519  1.00  0.00     0.012 A 
ATOM     79  C   UNL     1       6.014 -10.827   4.046  1.00  0.00     0.148 A 
ATOM     80  C   UNL     1       5.649 -13.461   4.913  1.00  0.00     0.002 A 
ATOM     81  C   UNL     1       5.058 -11.639   3.444  1.00  0.00     0.091 A 
ATOM     82  F   UNL     1       6.129  -9.543   3.685  1.00  0.00    -0.205 F 
ATOM     83  C   UNL     1       4.862 -12.954   3.883  1.00  0.00     0.022 A 
BRANCH  81  84
ATOM     84  S   UNL     1       3.979 -11.023   2.144  1.00  0.00     0.127 S 
ATOM     85  O   UNL     1       4.026 -12.110   1.167  1.00  0.00    -0.237 OA
ATOM     86  O   UNL     1       2.709 -10.885   2.851  1.00  0.00    -0.237 OA
ATOM     87  O   UNL     1       4.584  -9.779   1.684  1.00  0.00    -0.744 OA
ENDBRANCH  81  84
ENDBRANCH  53  77
BRANCH  65  88
ATOM     88  C   UNL     1      11.060  -9.583   9.244  1.00  0.00     0.023 A 
ATOM     89  C   UNL     1      11.450  -9.389   7.901  1.00  0.00     0.012 A 
ATOM     90  C   UNL     1      12.037  -9.931  10.189  1.00  0.00     0.148 A 
ATOM     91  C   UNL     1      12.780  -9.562   7.508  1.00  0.00     0.002 A 
ATOM     92  C   UNL     1      13.366 -10.050   9.806  1.00  0.00     0.091 A 
ATOM     93  F   UNL     1      11.652 -10.110  11.462  1.00  0.00    -0.205 F 
ATOM     94  C   UNL     1      13.741  -9.877   8.464  1.00  0.00     0.022 A 
BRANCH  92  95
ATOM     95  S   UNL     1      14.662 -10.315  11.016  1.00  0.00     0.127 S 
ATOM     96  O   UNL     1      14.965 -11.732  10.832  1.00  0.00    -0.237 OA
ATOM     97  O   UNL     1      15.710  -9.400  10.562  1.00  0.00    -0.237 OA
ATOM     98  O   UNL     1      14.082  -9.957  12.305  1.00  0.00    -0.744 OA
ENDBRANCH  92  95
ENDBRANCH  65  88
ENDBRANCH  39  40
ENDBRANCH  31  34
ENDBRANCH  29  30
ENDBRANCH  28  29
ENDBRANCH   1  28
TORSDOF 17
