REMARK SMILES Cc1c(Cl)ccc2c(OCC(=O)NCCCCNC(=O)c3ccc(-c4c5nc(c(-c6cccc(S(=O)(=O)[O-])c6F)c6ccc([nH]6)c(-c6cccc(S(=O)(=O)[O-])c6F)c6nc(c(-c7cccc(S(=O)(=O)[O-])c7F)c7ccc4[nH]7)C=C6)C=C5)cc3)ccnc12
REMARK SMILES IDX 16 1 15 2 14 3 13 4 11 5 12 6 10 8 9 9 8 10 1 11 2 12 3 13
REMARK SMILES IDX 87 14 4 15 5 16 7 17 86 18 6 19 85 20 84 21 17 22 18 23
REMARK SMILES IDX 19 24 20 26 21 27 22 28 83 29 23 30 82 31 24 32 25 33 26 34
REMARK SMILES IDX 76 35 27 36 81 37 75 38 77 39 28 40 80 41 74 42 73 43 29 45
REMARK SMILES IDX 61 46 41 47 60 48 42 49 45 50 59 51 78 52 43 53 44 54 58 56
REMARK SMILES IDX 79 57 46 58 30 59 31 60 39 61 32 62 34 63 40 64 33 65 35 66
REMARK SMILES IDX 36 67 37 68 38 69 62 70 63 71 71 72 64 73 66 74 72 75 65 76
REMARK SMILES IDX 67 77 68 78 69 79 70 80 47 81 48 82 56 83 49 84 51 85 57 86
REMARK SMILES IDX 50 87 52 88 53 89 54 90 55 91
REMARK H PARENT 13 7 18 25 77 44 45 55
REMARK Flexibility Score: inf
ROOT
ATOM      1  C   UNL     1       4.467   0.813   6.336  1.00  0.00     0.023 C 
ENDROOT
BRANCH   1   2
ATOM      2  C   UNL     1       3.133   0.067   6.440  1.00  0.00     0.023 C 
BRANCH   2   3
ATOM      3  C   UNL     1       2.240   0.486   7.606  1.00  0.00     0.116 C 
BRANCH   3   4
ATOM      4  N   UNL     1       1.894   1.893   7.566  1.00  0.00    -0.353 N 
ATOM      5  C   UNL     1       0.691   2.469   7.284  1.00  0.00     0.257 C 
ATOM      6  O   UNL     1       0.588   3.696   7.341  1.00  0.00    -0.271 OA
ATOM      7  H   UNL     1       2.628   2.517   7.769  1.00  0.00     0.163 HD
BRANCH   5   8
ATOM      8  C   UNL     1      -0.520   1.592   6.949  1.00  0.00     0.329 C 
BRANCH   8   9
ATOM      9  O   UNL     1      -0.384   0.659   5.891  1.00  0.00    -0.483 OA
BRANCH   9  10
ATOM     10  C   UNL     1      -0.206   1.125   4.610  1.00  0.00     0.131 A 
ATOM     11  C   UNL     1       0.888   0.063  -0.100  1.00  0.00     0.048 C 
ATOM     12  C   UNL     1       0.561  -0.390   1.303  1.00  0.00    -0.006 A 
ATOM     13  C   UNL     1       0.597  -1.755   1.637  1.00  0.00     0.046 A 
ATOM     14  C   UNL     1       0.285   0.567   2.295  1.00  0.00     0.078 A 
ATOM     15  Cl  UNL     1       0.963  -2.977   0.468  1.00  0.00    -0.084 Cl
ATOM     16  C   UNL     1       0.343  -2.178   2.937  1.00  0.00     0.022 A 
ATOM     17  C   UNL     1       0.043   0.141   3.622  1.00  0.00     0.043 A 
ATOM     18  N   UNL     1       0.260   1.873   1.973  1.00  0.00    -0.256 NA
ATOM     19  C   UNL     1       0.070  -1.237   3.922  1.00  0.00     0.016 A 
ATOM     20  C   UNL     1       0.005   2.785   2.933  1.00  0.00     0.115 A 
ATOM     21  C   UNL     1      -0.241   2.465   4.250  1.00  0.00     0.067 A 
ENDBRANCH   9  10
ENDBRANCH   8   9
ENDBRANCH   5   8
ENDBRANCH   3   4
ENDBRANCH   2   3
ENDBRANCH   1   2
BRANCH   1  22
ATOM     22  C   UNL     1       5.324   0.822   7.599  1.00  0.00     0.116 C 
BRANCH  22  23
ATOM     23  N   UNL     1       5.707  -0.514   8.030  1.00  0.00    -0.352 N 
ATOM     24  C   UNL     1       6.955  -0.983   8.363  1.00  0.00     0.251 C 
ATOM     25  H   UNL     1       4.975  -1.169   8.090  1.00  0.00     0.163 HD
ATOM     26  O   UNL     1       7.125  -2.178   8.586  1.00  0.00    -0.269 OA
BRANCH  24  27
ATOM     27  C   UNL     1       8.096  -0.045   8.423  1.00  0.00     0.039 A 
ATOM     28  C   UNL     1       9.251  -0.340   7.694  1.00  0.00     0.014 A 
ATOM     29  C   UNL     1       8.017   1.124   9.185  1.00  0.00     0.014 A 
ATOM     30  C   UNL     1      10.309   0.571   7.680  1.00  0.00     0.010 A 
ATOM     31  C   UNL     1       9.057   2.050   9.137  1.00  0.00     0.010 A 
ATOM     32  C   UNL     1      10.211   1.783   8.383  1.00  0.00    -0.014 A 
BRANCH  32  33
ATOM     33  C   UNL     1      11.306   2.781   8.343  1.00  0.00     0.031 A 
ATOM     34  C   UNL     1      12.136   3.037   9.570  1.00  0.00     0.074 A 
ATOM     35  C   UNL     1      11.511   3.505   7.225  1.00  0.00     0.049 A 
ATOM     36  N   UNL     1      13.103   3.899   9.741  1.00  0.00    -0.248 NA
ATOM     37  C   UNL     1      11.831   2.231  10.764  1.00  0.00     0.031 C 
ATOM     38  C   UNL     1      10.735   3.391   5.989  1.00  0.00     0.029 A 
ATOM     39  N   UNL     1      12.422   4.496   6.955  1.00  0.00    -0.354 N 
ATOM     40  C   UNL     1      13.506   3.758  11.062  1.00  0.00     0.074 A 
ATOM     41  C   UNL     1      12.667   2.741  11.657  1.00  0.00     0.031 C 
ATOM     42  C   UNL     1      11.201   4.278   5.094  1.00  0.00     0.029 A 
ATOM     43  C   UNL     1      12.297   5.033   5.695  1.00  0.00     0.049 A 
ATOM     44  H   UNL     1      13.100   4.795   7.603  1.00  0.00     0.167 HD
ATOM     45  C   UNL     1      14.507   4.394  11.711  1.00  0.00     0.034 A 
ATOM     46  C   UNL     1      12.989   6.019   5.092  1.00  0.00     0.034 A 
ATOM     47  C   UNL     1      15.378   5.364  11.108  1.00  0.00     0.049 A 
ATOM     48  C   UNL     1      14.120   6.686   5.827  1.00  0.00     0.074 A 
ATOM     49  C   UNL     1      16.466   6.006  11.672  1.00  0.00     0.029 A 
ATOM     50  N   UNL     1      15.265   5.827   9.808  1.00  0.00    -0.354 N 
ATOM     51  N   UNL     1      14.568   6.445   7.034  1.00  0.00    -0.248 NA
ATOM     52  C   UNL     1      14.858   7.737   5.110  1.00  0.00     0.031 C 
ATOM     53  C   UNL     1      17.016   6.857  10.709  1.00  0.00     0.029 A 
ATOM     54  C   UNL     1      16.267   6.745   9.549  1.00  0.00     0.049 A 
ATOM     55  H   UNL     1      14.575   5.546   9.165  1.00  0.00     0.167 HD
ATOM     56  C   UNL     1      15.655   7.293   7.213  1.00  0.00     0.074 A 
ATOM     57  C   UNL     1      15.807   8.046   5.986  1.00  0.00     0.031 C 
ATOM     58  C   UNL     1      16.444   7.443   8.303  1.00  0.00     0.034 A 
BRANCH  45  59
ATOM     59  C   UNL     1      14.780   4.007  13.136  1.00  0.00     0.023 A 
ATOM     60  C   UNL     1      15.524   2.838  13.390  1.00  0.00     0.012 A 
ATOM     61  C   UNL     1      14.399   4.839  14.206  1.00  0.00     0.148 A 
ATOM     62  C   UNL     1      15.882   2.496  14.692  1.00  0.00     0.002 A 
ATOM     63  C   UNL     1      14.782   4.505  15.499  1.00  0.00     0.091 A 
ATOM     64  F   UNL     1      13.684   5.939  13.934  1.00  0.00    -0.205 F 
ATOM     65  C   UNL     1      15.519   3.334  15.744  1.00  0.00     0.022 A 
BRANCH  63  66
ATOM     66  S   UNL     1      14.409   5.534  16.924  1.00  0.00     0.127 S 
ATOM     67  O   UNL     1      13.573   4.638  17.724  1.00  0.00    -0.237 OA
ATOM     68  O   UNL     1      15.740   5.782  17.477  1.00  0.00    -0.237 OA
ATOM     69  O   UNL     1      13.727   6.711  16.406  1.00  0.00    -0.744 OA
ENDBRANCH  63  66
ENDBRANCH  45  59
BRANCH  46  70
ATOM     70  C   UNL     1      12.680   6.379   3.682  1.00  0.00     0.023 A 
ATOM     71  C   UNL     1      13.548   5.948   2.660  1.00  0.00     0.012 A 
ATOM     72  C   UNL     1      11.520   7.102   3.344  1.00  0.00     0.148 A 
ATOM     73  C   UNL     1      13.274   6.243   1.325  1.00  0.00     0.002 A 
ATOM     74  C   UNL     1      11.234   7.361   2.008  1.00  0.00     0.091 A 
ATOM     75  F   UNL     1      10.716   7.509   4.336  1.00  0.00    -0.205 F 
ATOM     76  C   UNL     1      12.115   6.941   0.998  1.00  0.00     0.022 A 
BRANCH  74  77
ATOM     77  S   UNL     1       9.719   8.169   1.481  1.00  0.00     0.127 S 
ATOM     78  O   UNL     1      10.222   9.444   0.975  1.00  0.00    -0.237 OA
ATOM     79  O   UNL     1       9.229   7.249   0.455  1.00  0.00    -0.237 OA
ATOM     80  O   UNL     1       8.881   8.249   2.669  1.00  0.00    -0.744 OA
ENDBRANCH  74  77
ENDBRANCH  46  70
BRANCH  58  81
ATOM     81  C   UNL     1      17.562   8.445   8.241  1.00  0.00     0.023 A 
ATOM     82  C   UNL     1      17.274   9.807   8.448  1.00  0.00     0.012 A 
ATOM     83  C   UNL     1      18.901   8.023   8.123  1.00  0.00     0.148 A 
ATOM     84  C   UNL     1      18.306  10.739   8.538  1.00  0.00     0.002 A 
ATOM     85  C   UNL     1      19.925   8.954   8.246  1.00  0.00     0.091 A 
ATOM     86  F   UNL     1      19.144   6.721   7.918  1.00  0.00    -0.205 F 
ATOM     87  C   UNL     1      19.629  10.312   8.450  1.00  0.00     0.022 A 
BRANCH  85  88
ATOM     88  S   UNL     1      21.661   8.491   8.227  1.00  0.00     0.127 S 
ATOM     89  O   UNL     1      22.114   9.090   6.973  1.00  0.00    -0.237 OA
ATOM     90  O   UNL     1      22.168   9.145   9.434  1.00  0.00    -0.237 OA
ATOM     91  O   UNL     1      21.692   7.035   8.267  1.00  0.00    -0.744 OA
ENDBRANCH  85  88
ENDBRANCH  58  81
ENDBRANCH  32  33
ENDBRANCH  24  27
ENDBRANCH  22  23
ENDBRANCH   1  22
TORSDOF 16
