REMARK SMILES C[C@H]1SC[C@H](C(=O)NCCCCNC(=O)c2ccc(-c3c4nc(c(-c5cccc(S(=O)(=O)[O-])c5F)c5ccc([nH]5)c(-c5cccc(S(=O)(=O)[O-])c5F)c5nc(c(-c6cccc(S(=O)(=O)[O-])c6F)c6ccc3[nH]6)C=C5)C=C4)cc2)N1C(=O)[C@@H]1CSc2ccccc21
REMARK SMILES IDX 11 1 10 2 9 3 8 4 6 5 7 6 5 8 1 9 2 10 3 11 79 12 4 13 80 14
REMARK SMILES IDX 81 15 82 16 83 17 90 18 84 19 85 20 89 21 86 22 88 23 87 24
REMARK SMILES IDX 12 25 13 26 14 27 15 29 16 30 17 31 78 32 18 33 77 34 19 35
REMARK SMILES IDX 20 36 21 37 71 38 22 39 76 40 70 41 72 42 23 43 75 44 69 45
REMARK SMILES IDX 68 46 24 48 56 49 36 50 55 51 37 52 40 53 54 54 73 55 38 56
REMARK SMILES IDX 39 57 53 59 74 60 41 61 25 62 26 63 34 64 27 65 29 66 35 67
REMARK SMILES IDX 28 68 30 69 31 70 32 71 33 72 57 73 58 74 66 75 59 76 61 77
REMARK SMILES IDX 67 78 60 79 62 80 63 81 64 82 65 83 42 84 43 85 51 86 44 87
REMARK SMILES IDX 46 88 52 89 45 90 47 91 48 92 49 93 50 94
REMARK H PARENT 8 7 13 28 72 47 40 58
REMARK Flexibility Score: inf
ROOT
ATOM      1  C   UNL     1       3.402  -8.340   3.005  1.00  0.00     0.023 C 
ENDROOT
BRANCH   1   2
ATOM      2  C   UNL     1       3.614  -7.513   1.736  1.00  0.00     0.023 C 
BRANCH   2   3
ATOM      3  C   UNL     1       3.744  -6.010   1.964  1.00  0.00     0.116 C 
BRANCH   3   4
ATOM      4  N   UNL     1       4.901  -5.663   2.761  1.00  0.00    -0.354 N 
ATOM      5  C   UNL     1       5.953  -4.840   2.489  1.00  0.00     0.243 C 
ATOM      6  O   UNL     1       6.903  -4.863   3.279  1.00  0.00    -0.273 OA
ATOM      7  H   UNL     1       4.934  -6.093   3.647  1.00  0.00     0.163 HD
BRANCH   5   8
ATOM      8  C   UNL     1       6.085  -4.084   1.153  1.00  0.00     0.185 C 
ATOM      9  C   UNL     1       5.804  -1.907  -1.183  1.00  0.00     0.043 C 
ATOM     10  C   UNL     1       4.994  -3.148  -0.798  1.00  0.00     0.141 C 
ATOM     11  S   UNL     1       5.874  -4.580  -1.484  1.00  0.00    -0.135 SA
ATOM     12  N   UNL     1       4.912  -3.344   0.644  1.00  0.00    -0.318 N 
ATOM     13  C   UNL     1       6.505  -5.131   0.113  1.00  0.00     0.107 C 
BRANCH  12  14
ATOM     14  C   UNL     1       4.275  -2.453   1.502  1.00  0.00     0.232 C 
ATOM     15  O   UNL     1       4.800  -2.181   2.589  1.00  0.00    -0.274 OA
BRANCH  14  16
ATOM     16  C   UNL     1       2.862  -1.890   1.238  1.00  0.00     0.120 C 
ATOM     17  C   UNL     1       1.772  -2.967   1.245  1.00  0.00     0.093 C 
ATOM     18  C   UNL     1       2.654  -1.079  -0.010  1.00  0.00    -0.021 A 
ATOM     19  S   UNL     1       1.323  -3.312  -0.484  1.00  0.00    -0.125 SA
ATOM     20  C   UNL     1       1.936  -1.738  -1.014  1.00  0.00     0.011 A 
ATOM     21  C   UNL     1       3.128   0.212  -0.216  1.00  0.00     0.006 A 
ATOM     22  C   UNL     1       1.807  -1.185  -2.276  1.00  0.00     0.015 A 
ATOM     23  C   UNL     1       2.969   0.792  -1.475  1.00  0.00     0.000 A 
ATOM     24  C   UNL     1       2.341   0.084  -2.509  1.00  0.00     0.001 A 
ENDBRANCH  14  16
ENDBRANCH  12  14
ENDBRANCH   5   8
ENDBRANCH   3   4
ENDBRANCH   2   3
ENDBRANCH   1   2
BRANCH   1  25
ATOM     25  C   UNL     1       2.250  -7.892   3.900  1.00  0.00     0.116 C 
BRANCH  25  26
ATOM     26  N   UNL     1       0.957  -7.929   3.231  1.00  0.00    -0.352 N 
ATOM     27  C   UNL     1      -0.221  -8.495   3.659  1.00  0.00     0.251 C 
ATOM     28  H   UNL     1       0.921  -7.487   2.352  1.00  0.00     0.163 HD
ATOM     29  O   UNL     1      -1.190  -8.541   2.905  1.00  0.00    -0.269 OA
BRANCH  27  30
ATOM     30  C   UNL     1      -0.307  -9.079   5.016  1.00  0.00     0.039 A 
ATOM     31  C   UNL     1      -0.858 -10.353   5.170  1.00  0.00     0.014 A 
ATOM     32  C   UNL     1       0.179  -8.384   6.126  1.00  0.00     0.014 A 
ATOM     33  C   UNL     1      -0.855 -10.960   6.429  1.00  0.00     0.010 A 
ATOM     34  C   UNL     1       0.254  -9.023   7.362  1.00  0.00     0.010 A 
ATOM     35  C   UNL     1      -0.264 -10.316   7.529  1.00  0.00    -0.014 A 
BRANCH  35  36
ATOM     36  C   UNL     1      -0.165 -10.983   8.854  1.00  0.00     0.031 A 
ATOM     37  C   UNL     1      -0.843 -10.386  10.059  1.00  0.00     0.074 A 
ATOM     38  C   UNL     1       0.608 -12.079   8.994  1.00  0.00     0.049 A 
ATOM     39  N   UNL     1      -0.824 -10.795  11.302  1.00  0.00    -0.248 NA
ATOM     40  C   UNL     1      -1.620  -9.154   9.847  1.00  0.00     0.031 C 
ATOM     41  C   UNL     1       1.386 -12.708   7.924  1.00  0.00     0.029 A 
ATOM     42  N   UNL     1       0.890 -12.842  10.100  1.00  0.00    -0.354 N 
ATOM     43  C   UNL     1      -1.550  -9.854  12.023  1.00  0.00     0.074 A 
ATOM     44  C   UNL     1      -1.966  -8.834  11.085  1.00  0.00     0.031 C 
ATOM     45  C   UNL     1       2.052 -13.761   8.424  1.00  0.00     0.029 A 
ATOM     46  C   UNL     1       1.776 -13.867   9.854  1.00  0.00     0.049 A 
ATOM     47  H   UNL     1       0.497 -12.673  10.986  1.00  0.00     0.167 HD
ATOM     48  C   UNL     1      -1.867  -9.851  13.340  1.00  0.00     0.034 A 
ATOM     49  C   UNL     1       2.312 -14.783  10.684  1.00  0.00     0.034 A 
ATOM     50  C   UNL     1      -1.489 -10.887  14.262  1.00  0.00     0.049 A 
ATOM     51  C   UNL     1       1.906 -14.784  12.134  1.00  0.00     0.074 A 
ATOM     52  C   UNL     1      -1.841 -11.023  15.593  1.00  0.00     0.029 A 
ATOM     53  N   UNL     1      -0.667 -11.960  13.955  1.00  0.00    -0.354 N 
ATOM     54  N   UNL     1       1.084 -13.979  12.761  1.00  0.00    -0.248 NA
ATOM     55  C   UNL     1       2.471 -15.844  12.982  1.00  0.00     0.031 C 
ATOM     56  C   UNL     1      -1.209 -12.164  16.099  1.00  0.00     0.029 A 
ATOM     57  C   UNL     1      -0.491 -12.757  15.073  1.00  0.00     0.049 A 
ATOM     58  H   UNL     1      -0.267 -12.130  13.072  1.00  0.00     0.167 HD
ATOM     59  C   UNL     1       1.003 -14.456  14.065  1.00  0.00     0.074 A 
ATOM     60  C   UNL     1       1.845 -15.633  14.131  1.00  0.00     0.031 C 
ATOM     61  C   UNL     1       0.306 -13.957  15.115  1.00  0.00     0.034 A 
BRANCH  48  62
ATOM     62  C   UNL     1      -2.708  -8.711  13.855  1.00  0.00     0.023 A 
ATOM     63  C   UNL     1      -4.066  -8.624  13.483  1.00  0.00     0.012 A 
ATOM     64  C   UNL     1      -2.177  -7.765  14.753  1.00  0.00     0.148 A 
ATOM     65  C   UNL     1      -4.871  -7.592  13.964  1.00  0.00     0.002 A 
ATOM     66  C   UNL     1      -2.998  -6.767  15.266  1.00  0.00     0.091 A 
ATOM     67  F   UNL     1      -0.880  -7.852  15.081  1.00  0.00    -0.205 F 
ATOM     68  C   UNL     1      -4.340  -6.672  14.863  1.00  0.00     0.022 A 
BRANCH  66  69
ATOM     69  S   UNL     1      -2.433  -5.583  16.493  1.00  0.00     0.127 S 
ATOM     70  O   UNL     1      -2.399  -4.346  15.715  1.00  0.00    -0.237 OA
ATOM     71  O   UNL     1      -3.501  -5.644  17.493  1.00  0.00    -0.237 OA
ATOM     72  O   UNL     1      -1.140  -6.067  16.955  1.00  0.00    -0.744 OA
ENDBRANCH  66  69
ENDBRANCH  48  62
BRANCH  49  73
ATOM     73  C   UNL     1       3.243 -15.818  10.151  1.00  0.00     0.023 A 
ATOM     74  C   UNL     1       2.820 -17.160  10.081  1.00  0.00     0.012 A 
ATOM     75  C   UNL     1       4.530 -15.479   9.693  1.00  0.00     0.148 A 
ATOM     76  C   UNL     1       3.675 -18.151   9.598  1.00  0.00     0.002 A 
ATOM     77  C   UNL     1       5.356 -16.462   9.159  1.00  0.00     0.091 A 
ATOM     78  F   UNL     1       4.918 -14.199   9.777  1.00  0.00    -0.205 F 
ATOM     79  C   UNL     1       4.937 -17.802   9.128  1.00  0.00     0.022 A 
BRANCH  77  80
ATOM     80  S   UNL     1       6.944 -16.085   8.410  1.00  0.00     0.127 S 
ATOM     81  O   UNL     1       7.875 -16.672   9.371  1.00  0.00    -0.237 OA
ATOM     82  O   UNL     1       6.849 -16.793   7.132  1.00  0.00    -0.237 OA
ATOM     83  O   UNL     1       6.988 -14.634   8.290  1.00  0.00    -0.744 OA
ENDBRANCH  77  80
ENDBRANCH  49  73
BRANCH  61  84
ATOM     84  C   UNL     1       0.380 -14.700  16.423  1.00  0.00     0.023 A 
ATOM     85  C   UNL     1       1.563 -14.668  17.187  1.00  0.00     0.012 A 
ATOM     86  C   UNL     1      -0.751 -15.371  16.930  1.00  0.00     0.148 A 
ATOM     87  C   UNL     1       1.631 -15.321  18.417  1.00  0.00     0.002 A 
ATOM     88  C   UNL     1      -0.693 -15.975  18.180  1.00  0.00     0.091 A 
ATOM     89  F   UNL     1      -1.863 -15.406  16.181  1.00  0.00    -0.205 F 
ATOM     90  C   UNL     1       0.501 -15.963  18.919  1.00  0.00     0.022 A 
BRANCH  88  91
ATOM     91  S   UNL     1      -2.126 -16.738  18.948  1.00  0.00     0.127 S 
ATOM     92  O   UNL     1      -1.796 -18.159  18.849  1.00  0.00    -0.237 OA
ATOM     93  O   UNL     1      -2.077 -16.194  20.306  1.00  0.00    -0.237 OA
ATOM     94  O   UNL     1      -3.278 -16.308  18.167  1.00  0.00    -0.744 OA
ENDBRANCH  88  91
ENDBRANCH  61  84
ENDBRANCH  35  36
ENDBRANCH  27  30
ENDBRANCH  25  26
ENDBRANCH   1  25
TORSDOF 16
