REMARK SMILES CC[NH+]1CCC2(CC1)OC[C@H](C(=O)NCCCCNC(=O)c1ccc(-c3c4nc(c(-c5cccc(S(=O)(=O)[O-])c5F)c5ccc([nH]5)c(-c5cccc(S(=O)(=O)[O-])c5F)c5nc(c(-c6cccc(S(=O)(=O)[O-])c6F)c6ccc3[nH]6)C=C5)C=C4)cc1)N2C(=O)c1ccccc1
REMARK SMILES IDX 17 1 16 2 15 3 14 4 12 5 13 6 11 8 3 9 4 10 8 11 5 13 7 14
REMARK SMILES IDX 6 15 9 16 85 17 10 18 2 19 1 20 86 21 87 22 88 23 89 24
REMARK SMILES IDX 93 25 90 26 92 27 91 28 18 29 19 30 20 31 21 33 22 34 23 35
REMARK SMILES IDX 84 36 24 37 83 38 25 39 26 40 27 41 77 42 28 43 82 44 76 45
REMARK SMILES IDX 78 46 29 47 81 48 75 49 74 50 30 52 62 53 42 54 61 55 43 56
REMARK SMILES IDX 46 57 60 58 79 59 44 60 45 61 59 63 80 64 47 65 31 66 32 67
REMARK SMILES IDX 40 68 33 69 35 70 41 71 34 72 36 73 37 74 38 75 39 76 63 77
REMARK SMILES IDX 64 78 72 79 65 80 67 81 73 82 66 83 68 84 69 85 70 86 71 87
REMARK SMILES IDX 48 88 49 89 57 90 50 91 52 92 58 93 51 94 53 95 54 96 55 97
REMARK SMILES IDX 56 98
REMARK H PARENT 14 7 3 12 19 32 78 51 46 62
REMARK Flexibility Score: inf
ROOT
ATOM      1  C   UNL     1       2.658 -10.509  -1.959  1.00  0.00     0.023 C 
ENDROOT
BRANCH   1   2
ATOM      2  C   UNL     1       3.659  -9.355  -2.034  1.00  0.00     0.023 C 
BRANCH   2   3
ATOM      3  C   UNL     1       3.670  -8.599  -3.361  1.00  0.00     0.116 C 
BRANCH   3   4
ATOM      4  N   UNL     1       2.389  -7.976  -3.631  1.00  0.00    -0.354 N 
ATOM      5  C   UNL     1       2.017  -6.667  -3.578  1.00  0.00     0.245 C 
ATOM      6  O   UNL     1       0.813  -6.429  -3.710  1.00  0.00    -0.273 OA
ATOM      7  H   UNL     1       1.674  -8.599  -3.896  1.00  0.00     0.163 HD
BRANCH   5   8
ATOM      8  C   UNL     1       3.065  -5.553  -3.395  1.00  0.00     0.203 C 
ATOM      9  N   UNL     1       0.805  -1.701  -0.646  1.00  0.00    -0.335 N 
ATOM     10  C   UNL     1       0.170  -2.960  -1.019  1.00  0.00     0.267 C 
ATOM     11  C   UNL     1       2.200  -1.540  -1.043  1.00  0.00     0.267 C 
ATOM     12  H   UNL     1       0.876  -1.789   0.368  1.00  0.00     0.348 HD
ATOM     13  C   UNL     1       0.529  -3.500  -2.384  1.00  0.00     0.120 C 
ATOM     14  C   UNL     1       2.631  -2.146  -2.369  1.00  0.00     0.120 C 
ATOM     15  C   UNL     1       2.031  -3.514  -2.680  1.00  0.00     0.155 C 
ATOM     16  O   UNL     1       2.078  -3.573  -4.149  1.00  0.00    -0.352 OA
ATOM     17  N   UNL     1       2.801  -4.705  -2.244  1.00  0.00    -0.295 N 
ATOM     18  C   UNL     1       2.985  -4.597  -4.553  1.00  0.00     0.198 C 
BRANCH   9  19
ATOM     19  C   UNL     1      -0.023  -0.520  -0.856  1.00  0.00     0.258 C 
ATOM     20  C   UNL     1       0.317   0.555   0.175  1.00  0.00     0.071 C 
ENDBRANCH   9  19
BRANCH  17  21
ATOM     21  C   UNL     1       3.357  -5.156  -1.052  1.00  0.00     0.256 C 
ATOM     22  O   UNL     1       4.005  -6.204  -0.991  1.00  0.00    -0.269 OA
BRANCH  21  23
ATOM     23  C   UNL     1       3.322  -4.396   0.200  1.00  0.00     0.040 A 
ATOM     24  C   UNL     1       4.447  -3.649   0.573  1.00  0.00     0.014 A 
ATOM     25  C   UNL     1       2.260  -4.545   1.091  1.00  0.00     0.014 A 
ATOM     26  C   UNL     1       4.431  -2.920   1.766  1.00  0.00     0.001 A 
ATOM     27  C   UNL     1       2.231  -3.790   2.265  1.00  0.00     0.001 A 
ATOM     28  C   UNL     1       3.306  -2.962   2.591  1.00  0.00     0.000 A 
ENDBRANCH  21  23
ENDBRANCH  17  21
ENDBRANCH   5   8
ENDBRANCH   3   4
ENDBRANCH   2   3
ENDBRANCH   1   2
BRANCH   1  29
ATOM     29  C   UNL     1       2.730 -11.512  -3.105  1.00  0.00     0.116 C 
BRANCH  29  30
ATOM     30  N   UNL     1       4.051 -12.102  -3.256  1.00  0.00    -0.352 N 
ATOM     31  C   UNL     1       4.400 -13.425  -3.404  1.00  0.00     0.251 C 
ATOM     32  H   UNL     1       4.801 -11.465  -3.254  1.00  0.00     0.163 HD
ATOM     33  O   UNL     1       5.577 -13.754  -3.385  1.00  0.00    -0.269 OA
BRANCH  31  34
ATOM     34  C   UNL     1       3.339 -14.446  -3.554  1.00  0.00     0.039 A 
ATOM     35  C   UNL     1       3.409 -15.605  -2.778  1.00  0.00     0.014 A 
ATOM     36  C   UNL     1       2.274 -14.252  -4.436  1.00  0.00     0.014 A 
ATOM     37  C   UNL     1       2.374 -16.541  -2.840  1.00  0.00     0.010 A 
ATOM     38  C   UNL     1       1.208 -15.148  -4.440  1.00  0.00     0.010 A 
ATOM     39  C   UNL     1       1.247 -16.303  -3.644  1.00  0.00    -0.014 A 
BRANCH  39  40
ATOM     40  C   UNL     1       0.095 -17.241  -3.652  1.00  0.00     0.031 A 
ATOM     41  C   UNL     1      -0.300 -17.949  -4.921  1.00  0.00     0.074 A 
ATOM     42  C   UNL     1      -0.649 -17.392  -2.537  1.00  0.00     0.049 A 
ATOM     43  N   UNL     1      -1.307 -18.756  -5.135  1.00  0.00    -0.248 NA
ATOM     44  C   UNL     1       0.528 -17.699  -6.114  1.00  0.00     0.031 C 
ATOM     45  C   UNL     1      -0.417 -16.703  -1.265  1.00  0.00     0.029 A 
ATOM     46  N   UNL     1      -1.768 -18.152  -2.301  1.00  0.00    -0.354 N 
ATOM     47  C   UNL     1      -1.257 -19.078  -6.486  1.00  0.00     0.074 A 
ATOM     48  C   UNL     1      -0.138 -18.358  -7.051  1.00  0.00     0.031 C 
ATOM     49  C   UNL     1      -1.361 -17.074  -0.385  1.00  0.00     0.029 A 
ATOM     50  C   UNL     1      -2.284 -17.997  -1.035  1.00  0.00     0.049 A 
ATOM     51  H   UNL     1      -2.164 -18.751  -2.975  1.00  0.00     0.167 HD
ATOM     52  C   UNL     1      -2.054 -19.919  -7.187  1.00  0.00     0.034 A 
ATOM     53  C   UNL     1      -3.384 -18.529  -0.465  1.00  0.00     0.034 A 
ATOM     54  C   UNL     1      -3.139 -20.668  -6.614  1.00  0.00     0.049 A 
ATOM     55  C   UNL     1      -4.230 -19.486  -1.262  1.00  0.00     0.074 A 
ATOM     56  C   UNL     1      -3.945 -21.614  -7.222  1.00  0.00     0.029 A 
ATOM     57  N   UNL     1      -3.579 -20.550  -5.305  1.00  0.00    -0.354 N 
ATOM     58  N   UNL     1      -4.067 -19.905  -2.493  1.00  0.00    -0.248 NA
ATOM     59  C   UNL     1      -5.392 -20.075  -0.578  1.00  0.00     0.031 C 
ATOM     60  C   UNL     1      -4.893 -22.046  -6.290  1.00  0.00     0.029 A 
ATOM     61  C   UNL     1      -4.653 -21.397  -5.090  1.00  0.00     0.049 A 
ATOM     62  H   UNL     1      -3.186 -19.953  -4.628  1.00  0.00     0.167 HD
ATOM     63  C   UNL     1      -5.077 -20.834  -2.717  1.00  0.00     0.074 A 
ATOM     64  C   UNL     1      -5.834 -20.933  -1.487  1.00  0.00     0.031 C 
ATOM     65  C   UNL     1      -5.361 -21.531  -3.844  1.00  0.00     0.034 A 
BRANCH  52  66
ATOM     66  C   UNL     1      -1.758 -20.117  -8.651  1.00  0.00     0.023 A 
ATOM     67  C   UNL     1      -0.617 -20.848  -9.038  1.00  0.00     0.012 A 
ATOM     68  C   UNL     1      -2.653 -19.658  -9.638  1.00  0.00     0.148 A 
ATOM     69  C   UNL     1      -0.355 -21.095 -10.385  1.00  0.00     0.002 A 
ATOM     70  C   UNL     1      -2.410 -19.949 -10.975  1.00  0.00     0.091 A 
ATOM     71  F   UNL     1      -3.723 -18.950  -9.250  1.00  0.00    -0.205 F 
ATOM     72  C   UNL     1      -1.257 -20.657 -11.351  1.00  0.00     0.022 A 
BRANCH  70  73
ATOM     73  S   UNL     1      -3.550 -19.503 -12.289  1.00  0.00     0.127 S 
ATOM     74  O   UNL     1      -2.775 -18.506 -13.027  1.00  0.00    -0.237 OA
ATOM     75  O   UNL     1      -3.726 -20.777 -12.987  1.00  0.00    -0.237 OA
ATOM     76  O   UNL     1      -4.747 -18.997 -11.632  1.00  0.00    -0.744 OA
ENDBRANCH  70  73
ENDBRANCH  52  66
BRANCH  53  77
ATOM     77  C   UNL     1      -3.728 -18.210   0.951  1.00  0.00     0.023 A 
ATOM     78  C   UNL     1      -3.635 -19.219   1.930  1.00  0.00     0.012 A 
ATOM     79  C   UNL     1      -4.146 -16.921   1.332  1.00  0.00     0.148 A 
ATOM     80  C   UNL     1      -3.996 -18.962   3.253  1.00  0.00     0.002 A 
ATOM     81  C   UNL     1      -4.447 -16.656   2.662  1.00  0.00     0.091 A 
ATOM     82  F   UNL     1      -4.239 -15.977   0.384  1.00  0.00    -0.205 F 
ATOM     83  C   UNL     1      -4.394 -17.679   3.621  1.00  0.00     0.022 A 
BRANCH  81  84
ATOM     84  S   UNL     1      -4.843 -15.005   3.247  1.00  0.00     0.127 S 
ATOM     85  O   UNL     1      -6.273 -15.119   3.521  1.00  0.00    -0.237 OA
ATOM     86  O   UNL     1      -3.995 -14.893   4.435  1.00  0.00    -0.237 OA
ATOM     87  O   UNL     1      -4.474 -14.106   2.162  1.00  0.00    -0.744 OA
ENDBRANCH  81  84
ENDBRANCH  53  77
BRANCH  65  88
ATOM     88  C   UNL     1      -6.507 -22.508  -3.795  1.00  0.00     0.023 A 
ATOM     89  C   UNL     1      -7.834 -22.038  -3.744  1.00  0.00     0.012 A 
ATOM     90  C   UNL     1      -6.267 -23.895  -3.876  1.00  0.00     0.148 A 
ATOM     91  C   UNL     1      -8.903 -22.934  -3.738  1.00  0.00     0.002 A 
ATOM     92  C   UNL     1      -7.338 -24.778  -3.923  1.00  0.00     0.091 A 
ATOM     93  F   UNL     1      -4.997 -24.323  -3.906  1.00  0.00    -0.205 F 
ATOM     94  C   UNL     1      -8.656 -24.301  -3.840  1.00  0.00     0.022 A 
BRANCH  92  95
ATOM     95  S   UNL     1      -7.119 -26.546  -4.156  1.00  0.00     0.127 S 
ATOM     96  O   UNL     1      -7.484 -27.067  -2.840  1.00  0.00    -0.237 OA
ATOM     97  O   UNL     1      -8.083 -26.840  -5.217  1.00  0.00    -0.237 OA
ATOM     98  O   UNL     1      -5.725 -26.733  -4.537  1.00  0.00    -0.744 OA
ENDBRANCH  92  95
ENDBRANCH  65  88
ENDBRANCH  39  40
ENDBRANCH  31  34
ENDBRANCH  29  30
ENDBRANCH   1  29
TORSDOF 17
