REMARK SMILES CCOc1cc2c(cc1/C=C1/C(=O)N(c3cccc(C(=O)NCCCCNC(=O)c4ccc(-c5c6nc(c(-c7cccc(S(=O)(=O)[O-])c7F)c7ccc([nH]7)c(-c7cccc(S(=O)(=O)[O-])c7F)c7nc(c(-c8cccc(S(=O)(=O)[O-])c8F)c8ccc5[nH]8)C=C7)C=C6)cc4)c3)C(=S)N=C1O)OCO2
REMARK SMILES IDX 24 1 23 2 22 3 20 4 21 5 19 7 15 8 16 9 93 10 17 11 18 12
REMARK SMILES IDX 14 13 10 14 11 15 12 16 97 17 13 18 96 19 94 20 95 21 9 22
REMARK SMILES IDX 4 23 5 24 6 25 8 26 7 27 101 28 99 29 100 30 3 31 2 32 1 33
REMARK SMILES IDX 98 34 25 36 26 37 27 38 28 39 29 41 30 42 31 43 92 44 32 45
REMARK SMILES IDX 91 46 33 47 34 48 35 49 85 50 36 51 90 52 84 53 86 54 37 55
REMARK SMILES IDX 89 56 83 57 82 58 38 60 70 61 50 62 69 63 51 64 54 65 68 66
REMARK SMILES IDX 87 67 52 68 53 69 67 71 88 72 55 73 39 74 40 75 48 76 41 77
REMARK SMILES IDX 43 78 49 79 42 80 44 81 45 82 46 83 47 84 71 85 72 86 80 87
REMARK SMILES IDX 73 88 75 89 81 90 74 91 76 92 77 93 78 94 79 95 56 96 57 97
REMARK SMILES IDX 65 98 58 99 60 100 66 101 59 102 61 103 62 104 63 105 64 106
REMARK H PARENT 22 6 98 35 27 40 86 59 54 70
REMARK Flexibility Score: inf
ROOT
ATOM      1  C   UNL     1       0.710  -9.720   0.427  1.00  0.00     0.023 C 
ENDROOT
BRANCH   1   2
ATOM      2  C   UNL     1       0.032  -9.150   1.664  1.00  0.00     0.116 C 
BRANCH   2   3
ATOM      3  N   UNL     1      -0.974 -10.001   2.278  1.00  0.00    -0.352 N 
ATOM      4  C   UNL     1      -1.284 -10.219   3.606  1.00  0.00     0.251 C 
ATOM      5  O   UNL     1      -2.203 -10.987   3.887  1.00  0.00    -0.269 OA
ATOM      6  H   UNL     1      -1.527 -10.507   1.640  1.00  0.00     0.163 HD
BRANCH   4   7
ATOM      7  C   UNL     1      -0.492  -9.614   4.712  1.00  0.00     0.041 A 
ATOM      8  C   UNL     1       1.133  -7.973   5.488  1.00  0.00     0.052 A 
ATOM      9  C   UNL     1       1.282  -8.708   6.668  1.00  0.00     0.027 A 
ATOM     10  C   UNL     1       0.122  -8.366   4.597  1.00  0.00     0.040 A 
ATOM     11  C   UNL     1       0.555  -9.885   6.874  1.00  0.00     0.003 A 
ATOM     12  C   UNL     1      -0.295 -10.361   5.877  1.00  0.00     0.014 A 
BRANCH   8  13
ATOM     13  N   UNL     1       2.087  -6.984   5.020  1.00  0.00    -0.251 N 
ATOM     14  C   UNL     1       2.191  -3.674   3.433  1.00  0.00     0.031 C 
ATOM     15  C   UNL     1       2.519  -4.956   3.709  1.00  0.00     0.103 C 
ATOM     16  C   UNL     1       1.547  -5.810   4.453  1.00  0.00     0.270 C 
ATOM     17  C   UNL     1       3.764  -5.633   3.389  1.00  0.00     0.226 C 
ATOM     18  O   UNL     1       0.372  -5.457   4.563  1.00  0.00    -0.268 OA
ATOM     19  N   UNL     1       4.219  -6.682   3.949  1.00  0.00    -0.184 NA
ATOM     20  C   UNL     1       3.471  -7.309   4.919  1.00  0.00     0.210 C 
ATOM     21  S   UNL     1       4.311  -8.507   5.785  1.00  0.00    -0.038 S 
BRANCH  14  22
ATOM     22  C   UNL     1       3.033  -2.614   2.824  1.00  0.00     0.021 A 
ATOM     23  C   UNL     1       2.498  -1.681   1.889  1.00  0.00     0.130 A 
ATOM     24  C   UNL     1       3.319  -0.704   1.310  1.00  0.00     0.097 A 
ATOM     25  C   UNL     1       4.653  -0.689   1.647  1.00  0.00     0.169 A 
ATOM     26  C   UNL     1       4.380  -2.486   3.211  1.00  0.00     0.062 A 
ATOM     27  C   UNL     1       5.168  -1.551   2.578  1.00  0.00     0.166 A 
ATOM     28  O   UNL     1       5.593   0.160   1.152  1.00  0.00    -0.453 OA
ATOM     29  O   UNL     1       6.500  -1.365   2.781  1.00  0.00    -0.454 OA
ATOM     30  C   UNL     1       6.779  -0.353   1.792  1.00  0.00     0.468 C 
BRANCH  23  31
ATOM     31  O   UNL     1       1.142  -1.689   1.670  1.00  0.00    -0.493 OA
BRANCH  31  32
ATOM     32  C   UNL     1       0.718  -1.634   0.301  1.00  0.00     0.226 C 
ATOM     33  C   UNL     1       0.420  -0.214  -0.164  1.00  0.00     0.049 C 
ENDBRANCH  31  32
ENDBRANCH  23  31
ENDBRANCH  14  22
BRANCH  17  34
ATOM     34  O   UNL     1       4.473  -5.161   2.362  1.00  0.00    -0.493 OA
ATOM     35  H   UNL     1       4.188  -4.391   1.910  1.00  0.00     0.295 HD
ENDBRANCH  17  34
ENDBRANCH   8  13
ENDBRANCH   4   7
ENDBRANCH   2   3
ENDBRANCH   1   2
BRANCH   1  36
ATOM     36  C   UNL     1      -0.187 -10.030  -0.762  1.00  0.00     0.023 C 
BRANCH  36  37
ATOM     37  C   UNL     1      -1.137  -8.921  -1.195  1.00  0.00     0.116 C 
BRANCH  37  38
ATOM     38  N   UNL     1      -0.469  -7.675  -1.557  1.00  0.00    -0.352 N 
ATOM     39  C   UNL     1      -0.567  -6.938  -2.718  1.00  0.00     0.251 C 
ATOM     40  H   UNL     1       0.138  -7.309  -0.874  1.00  0.00     0.163 HD
ATOM     41  O   UNL     1       0.121  -5.937  -2.875  1.00  0.00    -0.269 OA
BRANCH  39  42
ATOM     42  C   UNL     1      -1.481  -7.391  -3.789  1.00  0.00     0.039 A 
ATOM     43  C   UNL     1      -0.986  -7.541  -5.088  1.00  0.00     0.014 A 
ATOM     44  C   UNL     1      -2.802  -7.732  -3.495  1.00  0.00     0.014 A 
ATOM     45  C   UNL     1      -1.787  -8.131  -6.069  1.00  0.00     0.010 A 
ATOM     46  C   UNL     1      -3.567  -8.393  -4.449  1.00  0.00     0.010 A 
ATOM     47  C   UNL     1      -3.066  -8.610  -5.743  1.00  0.00    -0.014 A 
BRANCH  47  48
ATOM     48  C   UNL     1      -3.904  -9.359  -6.716  1.00  0.00     0.031 A 
ATOM     49  C   UNL     1      -5.254  -8.821  -7.104  1.00  0.00     0.074 A 
ATOM     50  C   UNL     1      -3.518 -10.581  -7.136  1.00  0.00     0.049 A 
ATOM     51  N   UNL     1      -6.205  -9.395  -7.794  1.00  0.00    -0.248 NA
ATOM     52  C   UNL     1      -5.595  -7.473  -6.618  1.00  0.00     0.031 C 
ATOM     53  C   UNL     1      -2.266 -11.248  -6.772  1.00  0.00     0.029 A 
ATOM     54  N   UNL     1      -4.161 -11.499  -7.931  1.00  0.00    -0.354 N 
ATOM     55  C   UNL     1      -7.273  -8.506  -7.776  1.00  0.00     0.074 A 
ATOM     56  C   UNL     1      -6.862  -7.364  -6.989  1.00  0.00     0.031 C 
ATOM     57  C   UNL     1      -2.236 -12.468  -7.333  1.00  0.00     0.029 A 
ATOM     58  C   UNL     1      -3.478 -12.686  -8.068  1.00  0.00     0.049 A 
ATOM     59  H   UNL     1      -5.029 -11.324  -8.361  1.00  0.00     0.167 HD
ATOM     60  C   UNL     1      -8.478  -8.616  -8.383  1.00  0.00     0.034 A 
ATOM     61  C   UNL     1      -3.819 -13.826  -8.701  1.00  0.00     0.034 A 
ATOM     62  C   UNL     1      -8.857  -9.719  -9.223  1.00  0.00     0.049 A 
ATOM     63  C   UNL     1      -5.138 -13.896  -9.424  1.00  0.00     0.074 A 
ATOM     64  C   UNL     1     -10.015  -9.878  -9.962  1.00  0.00     0.029 A 
ATOM     65  N   UNL     1      -8.084 -10.848  -9.440  1.00  0.00    -0.354 N 
ATOM     66  N   UNL     1      -6.073 -12.983  -9.521  1.00  0.00    -0.248 NA
ATOM     67  C   UNL     1      -5.436 -15.139 -10.153  1.00  0.00     0.031 C 
ATOM     68  C   UNL     1      -9.945 -11.109 -10.623  1.00  0.00     0.029 A 
ATOM     69  C   UNL     1      -8.737 -11.709 -10.305  1.00  0.00     0.049 A 
ATOM     70  H   UNL     1      -7.200 -11.014  -9.038  1.00  0.00     0.167 HD
ATOM     71  C   UNL     1      -7.048 -13.522 -10.353  1.00  0.00     0.074 A 
ATOM     72  C   UNL     1      -6.585 -14.837 -10.743  1.00  0.00     0.031 C 
ATOM     73  C   UNL     1      -8.228 -12.982 -10.745  1.00  0.00     0.034 A 
BRANCH  60  74
ATOM     74  C   UNL     1      -9.452  -7.481  -8.215  1.00  0.00     0.023 A 
ATOM     75  C   UNL     1      -9.212  -6.260  -8.877  1.00  0.00     0.012 A 
ATOM     76  C   UNL     1     -10.625  -7.635  -7.452  1.00  0.00     0.148 A 
ATOM     77  C   UNL     1     -10.105  -5.197  -8.754  1.00  0.00     0.002 A 
ATOM     78  C   UNL     1     -11.533  -6.585  -7.369  1.00  0.00     0.091 A 
ATOM     79  F   UNL     1     -10.825  -8.795  -6.810  1.00  0.00    -0.205 F 
ATOM     80  C   UNL     1     -11.269  -5.363  -8.009  1.00  0.00     0.022 A 
BRANCH  78  81
ATOM     81  S   UNL     1     -13.098  -6.729  -6.498  1.00  0.00     0.127 S 
ATOM     82  O   UNL     1     -12.840  -5.937  -5.296  1.00  0.00    -0.237 OA
ATOM     83  O   UNL     1     -14.035  -6.116  -7.441  1.00  0.00    -0.237 OA
ATOM     84  O   UNL     1     -13.304  -8.153  -6.280  1.00  0.00    -0.744 OA
ENDBRANCH  78  81
ENDBRANCH  60  74
BRANCH  61  85
ATOM     85  C   UNL     1      -2.863 -14.970  -8.744  1.00  0.00     0.023 A 
ATOM     86  C   UNL     1      -2.220 -15.279  -9.959  1.00  0.00     0.012 A 
ATOM     87  C   UNL     1      -2.563 -15.729  -7.597  1.00  0.00     0.148 A 
ATOM     88  C   UNL     1      -1.319 -16.342 -10.038  1.00  0.00     0.002 A 
ATOM     89  C   UNL     1      -1.625 -16.754  -7.670  1.00  0.00     0.091 A 
ATOM     90  F   UNL     1      -3.195 -15.430  -6.453  1.00  0.00    -0.205 F 
ATOM     91  C   UNL     1      -1.014 -17.072  -8.893  1.00  0.00     0.022 A 
BRANCH  89  92
ATOM     92  S   UNL     1      -1.075 -17.660  -6.219  1.00  0.00     0.127 S 
ATOM     93  O   UNL     1      -1.732 -18.951  -6.405  1.00  0.00    -0.237 OA
ATOM     94  O   UNL     1       0.377 -17.675  -6.401  1.00  0.00    -0.237 OA
ATOM     95  O   UNL     1      -1.525 -16.875  -5.077  1.00  0.00    -0.744 OA
ENDBRANCH  89  92
ENDBRANCH  61  85
BRANCH  73  96
ATOM     96  C   UNL     1      -9.091 -13.778 -11.686  1.00  0.00     0.023 A 
ATOM     97  C   UNL     1      -9.829 -14.873 -11.199  1.00  0.00     0.012 A 
ATOM     98  C   UNL     1      -9.255 -13.369 -13.024  1.00  0.00     0.148 A 
ATOM     99  C   UNL     1     -10.705 -15.563 -12.037  1.00  0.00     0.002 A 
ATOM    100  C   UNL     1     -10.162 -14.034 -13.841  1.00  0.00     0.091 A 
ATOM    101  F   UNL     1      -8.527 -12.335 -13.471  1.00  0.00    -0.205 F 
ATOM    102  C   UNL     1     -10.882 -15.136 -13.351  1.00  0.00     0.022 A 
BRANCH 100 103
ATOM    103  S   UNL     1     -10.524 -13.493 -15.515  1.00  0.00     0.127 S 
ATOM    104  O   UNL     1      -9.868 -14.528 -16.311  1.00  0.00    -0.237 OA
ATOM    105  O   UNL     1     -11.987 -13.535 -15.546  1.00  0.00    -0.237 OA
ATOM    106  O   UNL     1      -9.957 -12.157 -15.637  1.00  0.00    -0.744 OA
ENDBRANCH 100 103
ENDBRANCH  73  96
ENDBRANCH  47  48
ENDBRANCH  39  42
ENDBRANCH  37  38
ENDBRANCH  36  37
ENDBRANCH   1  36
TORSDOF 19
