REMARK SMILES Cc1ccccc1CCNc1ccc(C(=O)NCCCCNC(=O)c2ccc(-c3c4nc(c(-c5cccc(S(=O)(=O)[O-])c5F)c5ccc([nH]5)c(-c5cccc(S(=O)(=O)[O-])c5F)c5nc(c(-c6cccc(S(=O)(=O)[O-])c6F)c6ccc3[nH]6)C=C5)C=C4)cc2)cc1N
REMARK SMILES IDX 19 1 18 2 17 3 15 4 16 5 14 7 11 8 12 9 89 10 13 11 88 12
REMARK SMILES IDX 10 13 9 15 8 16 7 17 1 18 2 19 3 20 4 21 6 22 5 23 90 24
REMARK SMILES IDX 20 27 21 28 22 29 23 30 24 32 25 33 26 34 87 35 27 36 86 37
REMARK SMILES IDX 28 38 29 39 30 40 80 41 31 42 85 43 79 44 81 45 32 46 84 47
REMARK SMILES IDX 78 48 77 49 33 51 65 52 45 53 64 54 46 55 49 56 63 57 82 58
REMARK SMILES IDX 47 59 48 60 62 62 83 63 50 64 34 65 35 66 43 67 36 68 38 69
REMARK SMILES IDX 44 70 37 71 39 72 40 73 41 74 42 75 66 76 67 77 75 78 68 79
REMARK SMILES IDX 70 80 76 81 69 82 71 83 72 84 73 85 74 86 51 87 52 88 60 89
REMARK SMILES IDX 53 90 55 91 61 92 54 93 56 94 57 95 58 96 59 97
REMARK H PARENT 17 6 10 14 90 25 90 26 22 31 81 50 49 61
REMARK Flexibility Score: inf
ROOT
ATOM      1  C   UNL     1      -1.803   9.662  -4.738  1.00  0.00     0.023 C 
ENDROOT
BRANCH   1   2
ATOM      2  C   UNL     1      -1.045   9.681  -3.410  1.00  0.00     0.116 C 
BRANCH   2   3
ATOM      3  N   UNL     1      -1.912   9.832  -2.247  1.00  0.00    -0.352 N 
ATOM      4  C   UNL     1      -2.348   8.955  -1.284  1.00  0.00     0.251 C 
ATOM      5  O   UNL     1      -3.197   9.340  -0.478  1.00  0.00    -0.269 OA
ATOM      6  H   UNL     1      -2.253  10.748  -2.128  1.00  0.00     0.163 HD
BRANCH   4   7
ATOM      7  C   UNL     1      -1.872   7.551  -1.196  1.00  0.00     0.041 A 
ATOM      8  C   UNL     1      -1.111   4.832  -1.119  1.00  0.00     0.057 A 
ATOM      9  C   UNL     1      -0.222   5.819  -1.545  1.00  0.00     0.029 A 
ATOM     10  C   UNL     1      -2.348   5.248  -0.571  1.00  0.00     0.056 A 
ATOM     11  C   UNL     1      -0.576   7.168  -1.523  1.00  0.00     0.016 A 
ATOM     12  C   UNL     1      -2.748   6.585  -0.687  1.00  0.00     0.041 A 
BRANCH   8  13
ATOM     13  N   UNL     1      -0.784   3.486  -1.132  1.00  0.00    -0.383 N 
ATOM     14  H   UNL     1      -1.525   2.841  -1.188  1.00  0.00     0.160 HD
BRANCH  13  15
ATOM     15  C   UNL     1       0.567   2.949  -1.069  1.00  0.00     0.117 C 
BRANCH  15  16
ATOM     16  C   UNL     1       0.801   2.253   0.280  1.00  0.00     0.057 C 
BRANCH  16  17
ATOM     17  C   UNL     1       0.248   0.841   0.287  1.00  0.00    -0.043 A 
ATOM     18  C   UNL     1       2.525  -0.280  -0.144  1.00  0.00     0.044 C 
ATOM     19  C   UNL     1       1.029  -0.301   0.024  1.00  0.00    -0.048 A 
ATOM     20  C   UNL     1       0.396  -1.556  -0.040  1.00  0.00     0.004 A 
ATOM     21  C   UNL     1      -0.982  -1.683   0.131  1.00  0.00     0.000 A 
ATOM     22  C   UNL     1      -1.136   0.686   0.496  1.00  0.00     0.004 A 
ATOM     23  C   UNL     1      -1.750  -0.560   0.405  1.00  0.00     0.000 A 
ENDBRANCH  16  17
ENDBRANCH  15  16
ENDBRANCH  13  15
ENDBRANCH   8  13
BRANCH  10  24
ATOM     24  N   UNL     1      -3.233   4.308  -0.017  1.00  0.00    -0.397 N 
ATOM     25  H   UNL     1      -2.960   3.366   0.069  1.00  0.00     0.156 HD
ATOM     26  H   UNL     1      -4.126   4.591   0.286  1.00  0.00     0.156 HD
ENDBRANCH  10  24
ENDBRANCH   4   7
ENDBRANCH   2   3
ENDBRANCH   1   2
BRANCH   1  27
ATOM     27  C   UNL     1      -2.514  10.959  -5.106  1.00  0.00     0.023 C 
BRANCH  27  28
ATOM     28  C   UNL     1      -1.595  12.161  -5.272  1.00  0.00     0.116 C 
BRANCH  28  29
ATOM     29  N   UNL     1      -0.880  12.210  -6.538  1.00  0.00    -0.352 N 
ATOM     30  C   UNL     1       0.019  13.155  -7.005  1.00  0.00     0.251 C 
ATOM     31  H   UNL     1      -1.061  11.462  -7.152  1.00  0.00     0.163 HD
ATOM     32  O   UNL     1       0.333  13.130  -8.194  1.00  0.00    -0.269 OA
BRANCH  30  33
ATOM     33  C   UNL     1       0.698  14.078  -6.058  1.00  0.00     0.039 A 
ATOM     34  C   UNL     1       2.080  14.268  -6.201  1.00  0.00     0.014 A 
ATOM     35  C   UNL     1       0.057  14.531  -4.911  1.00  0.00     0.014 A 
ATOM     36  C   UNL     1       2.849  14.636  -5.098  1.00  0.00     0.010 A 
ATOM     37  C   UNL     1       0.815  14.783  -3.791  1.00  0.00     0.010 A 
ATOM     38  C   UNL     1       2.212  14.765  -3.872  1.00  0.00    -0.014 A 
BRANCH  38  39
ATOM     39  C   UNL     1       2.872  14.845  -2.581  1.00  0.00     0.031 A 
ATOM     40  C   UNL     1       2.912  16.138  -1.871  1.00  0.00     0.074 A 
ATOM     41  C   UNL     1       3.128  13.684  -1.935  1.00  0.00     0.049 A 
ATOM     42  N   UNL     1       3.508  16.324  -0.746  1.00  0.00    -0.248 NA
ATOM     43  C   UNL     1       2.307  17.354  -2.412  1.00  0.00     0.031 C 
ATOM     44  C   UNL     1       3.239  13.482  -0.495  1.00  0.00     0.029 A 
ATOM     45  N   UNL     1       3.566  12.473  -2.486  1.00  0.00    -0.354 N 
ATOM     46  C   UNL     1       3.098  17.549  -0.269  1.00  0.00     0.074 A 
ATOM     47  C   UNL     1       2.482  18.201  -1.394  1.00  0.00     0.031 C 
ATOM     48  C   UNL     1       3.960  12.373  -0.272  1.00  0.00     0.029 A 
ATOM     49  C   UNL     1       4.481  11.945  -1.558  1.00  0.00     0.049 A 
ATOM     50  H   UNL     1       3.291  12.075  -3.343  1.00  0.00     0.167 HD
ATOM     51  C   UNL     1       3.197  17.787   1.067  1.00  0.00     0.034 A 
ATOM     52  C   UNL     1       5.802  11.738  -1.833  1.00  0.00     0.034 A 
ATOM     53  C   UNL     1       4.056  16.779   1.706  1.00  0.00     0.049 A 
ATOM     54  C   UNL     1       6.736  12.511  -0.917  1.00  0.00     0.074 A 
ATOM     55  C   UNL     1       3.809  15.678   2.506  1.00  0.00     0.029 A 
ATOM     56  N   UNL     1       5.388  16.688   1.312  1.00  0.00    -0.354 N 
ATOM     57  N   UNL     1       6.344  13.413  -0.058  1.00  0.00    -0.248 NA
ATOM     58  C   UNL     1       8.186  12.340  -0.901  1.00  0.00     0.031 C 
ATOM     59  C   UNL     1       4.971  14.854   2.477  1.00  0.00     0.029 A 
ATOM     60  C   UNL     1       5.937  15.479   1.704  1.00  0.00     0.049 A 
ATOM     61  H   UNL     1       5.874  17.388   0.820  1.00  0.00     0.167 HD
ATOM     62  C   UNL     1       7.428  14.020   0.520  1.00  0.00     0.074 A 
ATOM     63  C   UNL     1       8.556  13.255   0.014  1.00  0.00     0.031 C 
ATOM     64  C   UNL     1       7.303  15.131   1.314  1.00  0.00     0.034 A 
BRANCH  51  65
ATOM     65  C   UNL     1       2.386  18.804   1.858  1.00  0.00     0.023 A 
ATOM     66  C   UNL     1       2.607  18.852   3.254  1.00  0.00     0.012 A 
ATOM     67  C   UNL     1       1.340  19.631   1.374  1.00  0.00     0.148 A 
ATOM     68  C   UNL     1       1.834  19.643   4.114  1.00  0.00     0.002 A 
ATOM     69  C   UNL     1       0.607  20.466   2.224  1.00  0.00     0.091 A 
ATOM     70  F   UNL     1       0.964  19.567   0.096  1.00  0.00    -0.205 F 
ATOM     71  C   UNL     1       0.840  20.461   3.599  1.00  0.00     0.022 A 
BRANCH  69  72
ATOM     72  S   UNL     1      -0.671  21.584   1.613  1.00  0.00     0.127 S 
ATOM     73  O   UNL     1      -1.893  20.962   2.121  1.00  0.00    -0.237 OA
ATOM     74  O   UNL     1      -0.318  22.849   2.259  1.00  0.00    -0.237 OA
ATOM     75  O   UNL     1      -0.542  21.599   0.160  1.00  0.00    -0.744 OA
ENDBRANCH  69  72
ENDBRANCH  51  65
BRANCH  52  76
ATOM     76  C   UNL     1       6.068  11.348  -3.246  1.00  0.00     0.023 A 
ATOM     77  C   UNL     1       5.611  10.066  -3.637  1.00  0.00     0.012 A 
ATOM     78  C   UNL     1       6.348  12.302  -4.242  1.00  0.00     0.148 A 
ATOM     79  C   UNL     1       5.324   9.780  -4.972  1.00  0.00     0.002 A 
ATOM     80  C   UNL     1       6.051  12.010  -5.574  1.00  0.00     0.091 A 
ATOM     81  F   UNL     1       6.791  13.506  -3.861  1.00  0.00    -0.205 F 
ATOM     82  C   UNL     1       5.512  10.764  -5.934  1.00  0.00     0.022 A 
BRANCH  80  83
ATOM     83  S   UNL     1       6.182  13.232  -6.888  1.00  0.00     0.127 S 
ATOM     84  O   UNL     1       7.351  12.751  -7.620  1.00  0.00    -0.237 OA
ATOM     85  O   UNL     1       4.907  13.064  -7.585  1.00  0.00    -0.237 OA
ATOM     86  O   UNL     1       6.333  14.510  -6.210  1.00  0.00    -0.744 OA
ENDBRANCH  80  83
ENDBRANCH  52  76
BRANCH  64  87
ATOM     87  C   UNL     1       8.451  16.018   1.780  1.00  0.00     0.023 A 
ATOM     88  C   UNL     1       9.701  16.040   1.131  1.00  0.00     0.012 A 
ATOM     89  C   UNL     1       8.257  16.984   2.803  1.00  0.00     0.148 A 
ATOM     90  C   UNL     1      10.723  16.921   1.510  1.00  0.00     0.002 A 
ATOM     91  C   UNL     1       9.235  17.933   3.098  1.00  0.00     0.091 A 
ATOM     92  F   UNL     1       7.122  16.986   3.517  1.00  0.00    -0.205 F 
ATOM     93  C   UNL     1      10.483  17.885   2.477  1.00  0.00     0.022 A 
BRANCH  91  94
ATOM     94  S   UNL     1       8.858  19.340   4.156  1.00  0.00     0.127 S 
ATOM     95  O   UNL     1       9.203  18.830   5.481  1.00  0.00    -0.237 OA
ATOM     96  O   UNL     1       9.764  20.373   3.648  1.00  0.00    -0.237 OA
ATOM     97  O   UNL     1       7.449  19.616   3.913  1.00  0.00    -0.744 OA
ENDBRANCH  91  94
ENDBRANCH  64  87
ENDBRANCH  38  39
ENDBRANCH  30  33
ENDBRANCH  28  29
ENDBRANCH  27  28
ENDBRANCH   1  27
TORSDOF 19
