REMARK SMILES O=C(NCCCCNC(=O)[C@@H]1CCCC[C@@H]1C(=O)Nc1cc(C(F)(F)F)cc(C(F)(F)F)c1)c1ccc(-c2c3nc(c(-c4cccc(S(=O)(=O)[O-])c4F)c4ccc([nH]4)c(-c4cccc(S(=O)(=O)[O-])c4F)c4nc(c(-c5cccc(S(=O)(=O)[O-])c5F)c5ccc2[nH]5)C=C4)C=C3)cc1
REMARK SMILES IDX 5 1 4 2 3 3 1 4 2 5 34 7 35 8 96 9 36 10 95 11 37 12 38 13
REMARK SMILES IDX 39 14 89 15 40 16 94 17 88 18 90 19 41 20 93 21 87 22 86 23
REMARK SMILES IDX 42 25 74 26 54 27 73 28 55 29 58 30 72 31 91 32 56 33 57 34
REMARK SMILES IDX 71 36 92 37 59 38 43 39 44 40 52 41 45 42 47 43 53 44 46 45
REMARK SMILES IDX 48 46 49 47 50 48 51 49 75 50 76 51 84 52 77 53 79 54 85 55
REMARK SMILES IDX 78 56 80 57 81 58 82 59 83 60 60 61 61 62 69 63 62 64 64 65
REMARK SMILES IDX 70 66 63 67 65 68 66 69 67 70 68 71 6 72 7 73 8 74 9 75
REMARK SMILES IDX 10 77 11 78 12 79 16 80 13 81 15 82 14 83 17 84 18 85 19 86
REMARK SMILES IDX 20 88 21 89 33 90 22 91 28 92 27 93 23 94 24 95 25 96 26 97
REMARK SMILES IDX 29 98 30 99 31 100 32 101
REMARK H PARENT 3 6 90 24 58 35 8 76 19 87
REMARK Flexibility Score: inf
ROOT
ATOM      1  C   UNL     1       4.897  -2.617  -0.283  1.00  0.00     0.023 C 
ENDROOT
BRANCH   1   2
ATOM      2  C   UNL     1       4.569  -1.130  -0.272  1.00  0.00     0.116 C 
BRANCH   2   3
ATOM      3  N   UNL     1       3.168  -0.834  -0.537  1.00  0.00    -0.352 N 
ATOM      4  O   UNL     1       1.207   0.255  -0.255  1.00  0.00    -0.269 OA
ATOM      5  C   UNL     1       2.396   0.171   0.007  1.00  0.00     0.251 C 
ATOM      6  H   UNL     1       2.716  -1.424  -1.184  1.00  0.00     0.163 HD
BRANCH   5   7
ATOM      7  C   UNL     1       3.042   1.106   0.952  1.00  0.00     0.039 A 
ATOM      8  C   UNL     1       4.237   1.733   0.597  1.00  0.00     0.014 A 
ATOM      9  C   UNL     1       2.509   1.255   2.233  1.00  0.00     0.014 A 
ATOM     10  C   UNL     1       4.993   2.357   1.580  1.00  0.00     0.010 A 
ATOM     11  C   UNL     1       3.230   1.965   3.196  1.00  0.00     0.010 A 
ATOM     12  C   UNL     1       4.503   2.472   2.893  1.00  0.00    -0.014 A 
BRANCH  12  13
ATOM     13  C   UNL     1       5.341   3.145   3.918  1.00  0.00     0.031 A 
ATOM     14  C   UNL     1       5.857   2.401   5.121  1.00  0.00     0.074 A 
ATOM     15  C   UNL     1       5.665   4.440   3.734  1.00  0.00     0.049 A 
ATOM     16  N   UNL     1       6.646   2.828   6.073  1.00  0.00    -0.248 NA
ATOM     17  C   UNL     1       5.427   1.003   5.288  1.00  0.00     0.031 C 
ATOM     18  C   UNL     1       5.189   5.274   2.627  1.00  0.00     0.029 A 
ATOM     19  N   UNL     1       6.474   5.277   4.457  1.00  0.00    -0.354 N 
ATOM     20  C   UNL     1       6.766   1.778   6.976  1.00  0.00     0.074 A 
ATOM     21  C   UNL     1       5.967   0.688   6.458  1.00  0.00     0.031 C 
ATOM     22  C   UNL     1       5.751   6.487   2.718  1.00  0.00     0.029 A 
ATOM     23  C   UNL     1       6.584   6.535   3.914  1.00  0.00     0.049 A 
ATOM     24  H   UNL     1       6.933   5.003   5.284  1.00  0.00     0.167 HD
ATOM     25  C   UNL     1       7.488   1.721   8.121  1.00  0.00     0.034 A 
ATOM     26  C   UNL     1       7.277   7.611   4.331  1.00  0.00     0.034 A 
ATOM     27  C   UNL     1       8.329   2.788   8.598  1.00  0.00     0.049 A 
ATOM     28  C   UNL     1       8.118   7.497   5.569  1.00  0.00     0.074 A 
ATOM     29  C   UNL     1       9.155   2.801   9.709  1.00  0.00     0.029 A 
ATOM     30  N   UNL     1       8.457   4.029   7.992  1.00  0.00    -0.354 N 
ATOM     31  N   UNL     1       8.313   6.454   6.338  1.00  0.00    -0.248 NA
ATOM     32  C   UNL     1       8.855   8.698   5.982  1.00  0.00     0.031 C 
ATOM     33  C   UNL     1       9.773   4.055   9.780  1.00  0.00     0.029 A 
ATOM     34  C   UNL     1       9.343   4.817   8.706  1.00  0.00     0.049 A 
ATOM     35  H   UNL     1       7.985   4.308   7.174  1.00  0.00     0.167 HD
ATOM     36  C   UNL     1       9.215   6.864   7.312  1.00  0.00     0.074 A 
ATOM     37  C   UNL     1       9.548   8.243   7.017  1.00  0.00     0.031 C 
ATOM     38  C   UNL     1       9.706   6.169   8.367  1.00  0.00     0.034 A 
BRANCH  25  39
ATOM     39  C   UNL     1       7.438   0.448   8.927  1.00  0.00     0.023 A 
ATOM     40  C   UNL     1       8.141  -0.688   8.478  1.00  0.00     0.012 A 
ATOM     41  C   UNL     1       6.761   0.398  10.162  1.00  0.00     0.148 A 
ATOM     42  C   UNL     1       8.151  -1.861   9.233  1.00  0.00     0.002 A 
ATOM     43  C   UNL     1       6.807  -0.763  10.926  1.00  0.00     0.091 A 
ATOM     44  F   UNL     1       6.077   1.480  10.562  1.00  0.00    -0.205 F 
ATOM     45  C   UNL     1       7.494  -1.895  10.460  1.00  0.00     0.022 A 
BRANCH  43  46
ATOM     46  S   UNL     1       6.052  -0.874  12.554  1.00  0.00     0.127 S 
ATOM     47  O   UNL     1       4.850  -1.656  12.269  1.00  0.00    -0.237 OA
ATOM     48  O   UNL     1       7.073  -1.586  13.324  1.00  0.00    -0.237 OA
ATOM     49  O   UNL     1       5.825   0.499  12.980  1.00  0.00    -0.744 OA
ENDBRANCH  43  46
ENDBRANCH  25  39
BRANCH  26  50
ATOM     50  C   UNL     1       7.254   8.859   3.519  1.00  0.00     0.023 A 
ATOM     51  C   UNL     1       8.412   9.248   2.819  1.00  0.00     0.012 A 
ATOM     52  C   UNL     1       6.079   9.623   3.383  1.00  0.00     0.148 A 
ATOM     53  C   UNL     1       8.405  10.387   2.013  1.00  0.00     0.002 A 
ATOM     54  C   UNL     1       6.062  10.721   2.532  1.00  0.00     0.091 A 
ATOM     55  F   UNL     1       4.992   9.248   4.073  1.00  0.00    -0.205 F 
ATOM     56  C   UNL     1       7.228  11.114   1.857  1.00  0.00     0.022 A 
BRANCH  54  57
ATOM     57  S   UNL     1       4.546  11.611   2.162  1.00  0.00     0.127 S 
ATOM     58  O   UNL     1       4.696  12.811   2.980  1.00  0.00    -0.237 OA
ATOM     59  O   UNL     1       4.662  11.830   0.719  1.00  0.00    -0.237 OA
ATOM     60  O   UNL     1       3.467  10.708   2.541  1.00  0.00    -0.744 OA
ENDBRANCH  54  57
ENDBRANCH  26  50
BRANCH  38  61
ATOM     61  C   UNL     1      10.675   6.882   9.271  1.00  0.00     0.023 A 
ATOM     62  C   UNL     1      10.201   7.866  10.160  1.00  0.00     0.012 A 
ATOM     63  C   UNL     1      12.041   6.542   9.277  1.00  0.00     0.148 A 
ATOM     64  C   UNL     1      11.079   8.525  11.020  1.00  0.00     0.002 A 
ATOM     65  C   UNL     1      12.902   7.171  10.168  1.00  0.00     0.091 A 
ATOM     66  F   UNL     1      12.478   5.620   8.406  1.00  0.00    -0.205 F 
ATOM     67  C   UNL     1      12.426   8.170  11.032  1.00  0.00     0.022 A 
BRANCH  65  68
ATOM     68  S   UNL     1      14.632   6.706  10.305  1.00  0.00     0.127 S 
ATOM     69  O   UNL     1      15.285   7.747   9.514  1.00  0.00    -0.237 OA
ATOM     70  O   UNL     1      14.871   6.795  11.746  1.00  0.00    -0.237 OA
ATOM     71  O   UNL     1      14.717   5.354   9.768  1.00  0.00    -0.744 OA
ENDBRANCH  65  68
ENDBRANCH  38  61
ENDBRANCH  12  13
ENDBRANCH   5   7
ENDBRANCH   2   3
ENDBRANCH   1   2
BRANCH   1  72
ATOM     72  C   UNL     1       4.463  -3.369  -1.538  1.00  0.00     0.023 C 
BRANCH  72  73
ATOM     73  C   UNL     1       4.958  -2.766  -2.847  1.00  0.00     0.116 C 
BRANCH  73  74
ATOM     74  N   UNL     1       6.384  -2.940  -3.014  1.00  0.00    -0.356 N 
ATOM     75  C   UNL     1       7.145  -3.664  -3.862  1.00  0.00     0.223 C 
ATOM     76  H   UNL     1       6.914  -2.416  -2.371  1.00  0.00     0.163 HD
ATOM     77  O   UNL     1       8.370  -3.575  -3.709  1.00  0.00    -0.275 OA
BRANCH  75  78
ATOM     78  C   UNL     1       6.615  -4.566  -4.973  1.00  0.00     0.091 C 
ATOM     79  C   UNL     1       5.284  -4.248  -5.641  1.00  0.00     0.014 C 
ATOM     80  C   UNL     1       6.785  -6.073  -4.681  1.00  0.00     0.091 C 
ATOM     81  C   UNL     1       5.208  -4.941  -6.996  1.00  0.00     0.001 C 
ATOM     82  C   UNL     1       6.508  -6.897  -5.947  1.00  0.00     0.014 C 
ATOM     83  C   UNL     1       5.340  -6.447  -6.835  1.00  0.00     0.001 C 
BRANCH  80  84
ATOM     84  C   UNL     1       6.264  -6.489  -3.286  1.00  0.00     0.228 C 
ATOM     85  O   UNL     1       7.040  -6.429  -2.322  1.00  0.00    -0.274 OA
ATOM     86  N   UNL     1       4.966  -6.722  -2.958  1.00  0.00    -0.326 N 
ATOM     87  H   UNL     1       4.752  -6.484  -2.028  1.00  0.00     0.169 HD
BRANCH  86  88
ATOM     88  C   UNL     1       3.877  -7.228  -3.659  1.00  0.00     0.042 A 
ATOM     89  C   UNL     1       2.619  -6.685  -3.393  1.00  0.00     0.039 A 
ATOM     90  C   UNL     1       3.990  -8.300  -4.535  1.00  0.00     0.039 A 
ATOM     91  C   UNL     1       1.496  -7.090  -4.131  1.00  0.00     0.058 A 
ATOM     92  C   UNL     1       2.891  -8.714  -5.304  1.00  0.00     0.058 A 
ATOM     93  C   UNL     1       1.647  -8.097  -5.098  1.00  0.00     0.026 A 
BRANCH  91  94
ATOM     94  C   UNL     1       0.163  -6.421  -3.896  1.00  0.00     0.416 C 
ATOM     95  F   UNL     1      -0.422  -6.824  -2.737  1.00  0.00    -0.166 F 
ATOM     96  F   UNL     1       0.272  -5.066  -3.817  1.00  0.00    -0.166 F 
ATOM     97  F   UNL     1      -0.741  -6.667  -4.883  1.00  0.00    -0.166 F 
ENDBRANCH  91  94
BRANCH  92  98
ATOM     98  C   UNL     1       3.067  -9.726  -6.411  1.00  0.00     0.416 C 
ATOM     99  F   UNL     1       2.205 -10.774  -6.314  1.00  0.00    -0.166 F 
ATOM    100  F   UNL     1       2.851  -9.175  -7.639  1.00  0.00    -0.166 F 
ATOM    101  F   UNL     1       4.316 -10.266  -6.465  1.00  0.00    -0.166 F 
ENDBRANCH  92  98
ENDBRANCH  86  88
ENDBRANCH  80  84
ENDBRANCH  75  78
ENDBRANCH  73  74
ENDBRANCH  72  73
ENDBRANCH   1  72
TORSDOF 18
