REMARK SMILES Cc1nc2cc(SCC(=O)NCCCCNC(=O)c3ccc(-c4c5nc(c(-c6cccc(S(=O)(=O)[O-])c6F)c6ccc([nH]6)c(-c6cccc(S(=O)(=O)[O-])c6F)c6nc(c(-c7cccc(S(=O)(=O)[O-])c7F)c7ccc4[nH]7)C=C6)C=C5)cc3)ccc2s1
REMARK SMILES IDX 14 1 13 2 12 3 11 4 9 5 10 6 8 8 7 9 6 10 1 11 2 12 3 13
REMARK SMILES IDX 85 14 4 15 84 16 5 17 83 18 82 19 15 20 16 21 17 22 18 24
REMARK SMILES IDX 19 25 20 26 81 27 21 28 80 29 22 30 23 31 24 32 74 33 25 34
REMARK SMILES IDX 79 35 73 36 75 37 26 38 78 39 72 40 71 41 27 43 59 44 39 45
REMARK SMILES IDX 58 46 40 47 43 48 57 49 76 50 41 51 42 52 56 54 77 55 44 56
REMARK SMILES IDX 28 57 29 58 37 59 30 60 32 61 38 62 31 63 33 64 34 65 35 66
REMARK SMILES IDX 36 67 60 68 61 69 69 70 62 71 64 72 70 73 63 74 65 75 66 76
REMARK SMILES IDX 67 77 68 78 45 79 46 80 54 81 47 82 49 83 55 84 48 85 50 86
REMARK SMILES IDX 51 87 52 88 53 89
REMARK H PARENT 11 7 16 23 75 42 43 53
REMARK Flexibility Score: inf
ROOT
ATOM      1  C   UNL     1       4.441   1.726   4.703  1.00  0.00     0.023 C 
ENDROOT
BRANCH   1   2
ATOM      2  C   UNL     1       4.691   2.297   3.303  1.00  0.00     0.023 C 
BRANCH   2   3
ATOM      3  C   UNL     1       5.945   1.764   2.611  1.00  0.00     0.116 C 
BRANCH   3   4
ATOM      4  N   UNL     1       5.842   0.342   2.348  1.00  0.00    -0.355 N 
ATOM      5  C   UNL     1       5.659  -0.312   1.168  1.00  0.00     0.230 C 
ATOM      6  O   UNL     1       5.586  -1.544   1.196  1.00  0.00    -0.274 OA
ATOM      7  H   UNL     1       5.916  -0.237   3.141  1.00  0.00     0.163 HD
BRANCH   5   8
ATOM      8  C   UNL     1       5.652   0.428  -0.155  1.00  0.00     0.174 C 
BRANCH   8   9
ATOM      9  S   UNL     1       4.280   1.602  -0.381  1.00  0.00    -0.116 SA
BRANCH   9  10
ATOM     10  C   UNL     1       2.782   0.639  -0.229  1.00  0.00     0.010 A 
ATOM     11  C   UNL     1      -3.302   0.770   0.067  1.00  0.00     0.079 C 
ATOM     12  C   UNL     1      -1.849   0.454   0.038  1.00  0.00     0.091 A 
ATOM     13  N   UNL     1      -0.896   1.357  -0.029  1.00  0.00    -0.241 NA
ATOM     14  S   UNL     1      -1.327  -1.181   0.070  1.00  0.00    -0.119 S 
ATOM     15  C   UNL     1       0.341   0.734  -0.068  1.00  0.00     0.083 A 
ATOM     16  C   UNL     1       0.309  -0.660  -0.039  1.00  0.00     0.055 A 
ATOM     17  C   UNL     1       1.591   1.380  -0.149  1.00  0.00     0.045 A 
ATOM     18  C   UNL     1       1.483  -1.423  -0.103  1.00  0.00     0.022 A 
ATOM     19  C   UNL     1       2.710  -0.752  -0.220  1.00  0.00     0.016 A 
ENDBRANCH   9  10
ENDBRANCH   8   9
ENDBRANCH   5   8
ENDBRANCH   3   4
ENDBRANCH   2   3
ENDBRANCH   1   2
BRANCH   1  20
ATOM     20  C   UNL     1       5.589   1.893   5.693  1.00  0.00     0.116 C 
BRANCH  20  21
ATOM     21  N   UNL     1       5.965   3.285   5.893  1.00  0.00    -0.352 N 
ATOM     22  C   UNL     1       6.194   3.964   7.064  1.00  0.00     0.251 C 
ATOM     23  H   UNL     1       6.069   3.815   5.071  1.00  0.00     0.163 HD
ATOM     24  O   UNL     1       6.366   5.182   7.036  1.00  0.00    -0.269 OA
BRANCH  22  25
ATOM     25  C   UNL     1       6.209   3.243   8.356  1.00  0.00     0.039 A 
ATOM     26  C   UNL     1       5.544   3.808   9.447  1.00  0.00     0.014 A 
ATOM     27  C   UNL     1       6.872   2.021   8.498  1.00  0.00     0.014 A 
ATOM     28  C   UNL     1       5.497   3.121  10.662  1.00  0.00     0.010 A 
ATOM     29  C   UNL     1       6.756   1.302   9.685  1.00  0.00     0.010 A 
ATOM     30  C   UNL     1       6.075   1.846  10.784  1.00  0.00    -0.014 A 
BRANCH  30  31
ATOM     31  C   UNL     1       5.957   1.071  12.048  1.00  0.00     0.031 A 
ATOM     32  C   UNL     1       7.185   0.690  12.832  1.00  0.00     0.074 A 
ATOM     33  C   UNL     1       4.743   0.654  12.460  1.00  0.00     0.049 A 
ATOM     34  N   UNL     1       7.272   0.012  13.947  1.00  0.00    -0.248 NA
ATOM     35  C   UNL     1       8.486   1.102  12.280  1.00  0.00     0.031 C 
ATOM     36  C   UNL     1       3.483   0.885  11.749  1.00  0.00     0.029 A 
ATOM     37  N   UNL     1       4.370  -0.068  13.567  1.00  0.00    -0.354 N 
ATOM     38  C   UNL     1       8.630  -0.111  14.214  1.00  0.00     0.074 A 
ATOM     39  C   UNL     1       9.333   0.530  13.124  1.00  0.00     0.031 C 
ATOM     40  C   UNL     1       2.478   0.328  12.442  1.00  0.00     0.029 A 
ATOM     41  C   UNL     1       3.020  -0.327  13.628  1.00  0.00     0.049 A 
ATOM     42  H   UNL     1       5.009  -0.372  14.252  1.00  0.00     0.167 HD
ATOM     43  C   UNL     1       9.240  -0.679  15.283  1.00  0.00     0.034 A 
ATOM     44  C   UNL     1       2.300  -1.020  14.532  1.00  0.00     0.034 A 
ATOM     45  C   UNL     1       8.540  -1.288  16.382  1.00  0.00     0.049 A 
ATOM     46  C   UNL     1       2.999  -1.614  15.725  1.00  0.00     0.074 A 
ATOM     47  C   UNL     1       9.063  -1.812  17.551  1.00  0.00     0.029 A 
ATOM     48  N   UNL     1       7.167  -1.471  16.443  1.00  0.00    -0.354 N 
ATOM     49  N   UNL     1       4.270  -1.573  16.043  1.00  0.00    -0.248 NA
ATOM     50  C   UNL     1       2.158  -2.317  16.704  1.00  0.00     0.031 C 
ATOM     51  C   UNL     1       8.011  -2.344  18.302  1.00  0.00     0.029 A 
ATOM     52  C   UNL     1       6.826  -2.115  17.621  1.00  0.00     0.049 A 
ATOM     53  H   UNL     1       6.528  -1.185  15.751  1.00  0.00     0.167 HD
ATOM     54  C   UNL     1       4.376  -2.214  17.272  1.00  0.00     0.074 A 
ATOM     55  C   UNL     1       3.036  -2.609  17.654  1.00  0.00     0.031 C 
ATOM     56  C   UNL     1       5.485  -2.467  18.011  1.00  0.00     0.034 A 
BRANCH  43  57
ATOM     57  C   UNL     1      10.746  -0.630  15.338  1.00  0.00     0.023 A 
ATOM     58  C   UNL     1      11.398   0.602  15.555  1.00  0.00     0.012 A 
ATOM     59  C   UNL     1      11.514  -1.806  15.235  1.00  0.00     0.148 A 
ATOM     60  C   UNL     1      12.789   0.669  15.629  1.00  0.00     0.002 A 
ATOM     61  C   UNL     1      12.897  -1.739  15.359  1.00  0.00     0.091 A 
ATOM     62  F   UNL     1      10.880  -2.966  15.011  1.00  0.00    -0.205 F 
ATOM     63  C   UNL     1      13.536  -0.502  15.542  1.00  0.00     0.022 A 
BRANCH  61  64
ATOM     64  S   UNL     1      13.945  -3.198  15.344  1.00  0.00     0.127 S 
ATOM     65  O   UNL     1      14.656  -3.036  14.076  1.00  0.00    -0.237 OA
ATOM     66  O   UNL     1      14.770  -2.994  16.535  1.00  0.00    -0.237 OA
ATOM     67  O   UNL     1      13.047  -4.341  15.414  1.00  0.00    -0.744 OA
ENDBRANCH  61  64
ENDBRANCH  43  57
BRANCH  44  68
ATOM     68  C   UNL     1       0.823  -1.142  14.374  1.00  0.00     0.023 A 
ATOM     69  C   UNL     1      -0.030  -0.478  15.278  1.00  0.00     0.012 A 
ATOM     70  C   UNL     1       0.260  -1.898  13.328  1.00  0.00     0.148 A 
ATOM     71  C   UNL     1      -1.416  -0.596  15.165  1.00  0.00     0.002 A 
ATOM     72  C   UNL     1      -1.121  -1.963  13.186  1.00  0.00     0.091 A 
ATOM     73  F   UNL     1       1.089  -2.530  12.485  1.00  0.00    -0.205 F 
ATOM     74  C   UNL     1      -1.961  -1.329  14.115  1.00  0.00     0.022 A 
BRANCH  72  75
ATOM     75  S   UNL     1      -1.910  -2.775  11.792  1.00  0.00     0.127 S 
ATOM     76  O   UNL     1      -2.542  -3.924  12.434  1.00  0.00    -0.237 OA
ATOM     77  O   UNL     1      -2.835  -1.742  11.327  1.00  0.00    -0.237 OA
ATOM     78  O   UNL     1      -0.836  -3.085  10.858  1.00  0.00    -0.744 OA
ENDBRANCH  72  75
ENDBRANCH  44  68
BRANCH  56  79
ATOM     79  C   UNL     1       5.297  -3.177  19.328  1.00  0.00     0.023 A 
ATOM     80  C   UNL     1       4.928  -4.537  19.350  1.00  0.00     0.012 A 
ATOM     81  C   UNL     1       5.541  -2.509  20.545  1.00  0.00     0.148 A 
ATOM     82  C   UNL     1       4.761  -5.208  20.562  1.00  0.00     0.002 A 
ATOM     83  C   UNL     1       5.427  -3.199  21.746  1.00  0.00     0.091 A 
ATOM     84  F   UNL     1       5.876  -1.211  20.507  1.00  0.00    -0.205 F 
ATOM     85  C   UNL     1       5.021  -4.543  21.757  1.00  0.00     0.022 A 
BRANCH  83  86
ATOM     86  S   UNL     1       5.837  -2.454  23.328  1.00  0.00     0.127 S 
ATOM     87  O   UNL     1       4.516  -2.295  23.934  1.00  0.00    -0.237 OA
ATOM     88  O   UNL     1       6.672  -3.483  23.948  1.00  0.00    -0.237 OA
ATOM     89  O   UNL     1       6.535  -1.213  23.020  1.00  0.00    -0.744 OA
ENDBRANCH  83  86
ENDBRANCH  56  79
ENDBRANCH  30  31
ENDBRANCH  22  25
ENDBRANCH  20  21
ENDBRANCH   1  20
TORSDOF 16
