REMARK SMILES CCOc1cc(C(=O)N2CCC(C(=O)NCCCCNC(=O)c3ccc(-c4c5nc(c(-c6cccc(S(=O)(=O)[O-])c6F)c6ccc([nH]6)c(-c6cccc(S(=O)(=O)[O-])c6F)c6nc(c(-c7cccc(S(=O)(=O)[O-])c7F)c7ccc4[nH]7)C=C6)C=C5)cc3)(c3ccccc3)CC2)ccc1OC
REMARK SMILES IDX 17 1 16 2 15 3 13 4 14 5 12 7 7 8 8 9 9 10 10 11 93 12 11 13
REMARK SMILES IDX 92 14 6 15 4 16 5 17 96 18 95 19 94 20 3 21 2 22 1 23 97 24
REMARK SMILES IDX 98 25 86 26 87 27 91 28 88 29 90 30 89 31 18 32 19 33 20 34
REMARK SMILES IDX 21 35 22 37 23 38 24 39 85 40 25 41 84 42 26 43 27 44 28 45
REMARK SMILES IDX 78 46 29 47 83 48 77 49 79 50 30 51 82 52 76 53 75 54 31 56
REMARK SMILES IDX 63 57 43 58 62 59 44 60 47 61 61 62 80 63 45 64 46 65 60 67
REMARK SMILES IDX 81 68 48 69 32 70 33 71 41 72 34 73 36 74 42 75 35 76 37 77
REMARK SMILES IDX 38 78 39 79 40 80 64 81 65 82 73 83 66 84 68 85 74 86 67 87
REMARK SMILES IDX 69 88 70 89 71 90 72 91 49 92 50 93 58 94 51 95 53 96 59 97
REMARK SMILES IDX 52 98 54 99 55 100 56 101 57 102
REMARK H PARENT 15 6 20 36 79 55 47 66
REMARK Flexibility Score: inf
ROOT
ATOM      1  C   UNL     1       5.281   4.866  -9.175  1.00  0.00     0.023 C 
ENDROOT
BRANCH   1   2
ATOM      2  C   UNL     1       5.644   3.430  -8.805  1.00  0.00     0.116 C 
BRANCH   2   3
ATOM      3  N   UNL     1       6.991   3.087  -9.230  1.00  0.00    -0.355 N 
ATOM      4  C   UNL     1       8.123   2.728  -8.552  1.00  0.00     0.230 C 
ATOM      5  O   UNL     1       9.089   2.539  -9.293  1.00  0.00    -0.274 OA
ATOM      6  H   UNL     1       7.114   3.120 -10.206  1.00  0.00     0.163 HD
BRANCH   4   7
ATOM      7  C   UNL     1       8.147   2.557  -6.985  1.00  0.00     0.077 C 
ATOM      8  C   UNL     1       4.811   3.146  -4.198  1.00  0.00     0.253 C 
ATOM      9  O   UNL     1       4.249   4.239  -4.174  1.00  0.00    -0.269 OA
ATOM     10  N   UNL     1       5.938   2.879  -5.005  1.00  0.00    -0.339 N 
ATOM     11  C   UNL     1       6.898   3.964  -5.146  1.00  0.00     0.121 C 
ATOM     12  C   UNL     1       6.372   1.531  -5.363  1.00  0.00     0.121 C 
ATOM     13  C   UNL     1       7.768   3.945  -6.396  1.00  0.00     0.043 C 
ATOM     14  C   UNL     1       7.119   1.427  -6.684  1.00  0.00     0.043 C 
BRANCH   8  15
ATOM     15  C   UNL     1       4.348   2.107  -3.229  1.00  0.00     0.043 A 
ATOM     16  C   UNL     1       2.595   0.955  -1.990  1.00  0.00     0.161 A 
ATOM     17  C   UNL     1       2.990   1.938  -2.921  1.00  0.00     0.064 A 
ATOM     18  C   UNL     1       3.548   0.101  -1.417  1.00  0.00     0.160 A 
ATOM     19  C   UNL     1       4.900   0.352  -1.660  1.00  0.00     0.051 A 
ATOM     20  C   UNL     1       5.298   1.371  -2.518  1.00  0.00     0.018 A 
BRANCH  16  21
ATOM     21  O   UNL     1       1.262   0.804  -1.711  1.00  0.00    -0.490 OA
BRANCH  21  22
ATOM     22  C   UNL     1       0.751   1.830  -0.848  1.00  0.00     0.226 C 
ATOM     23  C   UNL     1       0.050   1.174   0.334  1.00  0.00     0.049 C 
ENDBRANCH  21  22
ENDBRANCH  16  21
BRANCH  18  24
ATOM     24  O   UNL     1       3.373  -0.973  -0.595  1.00  0.00    -0.493 OA
ATOM     25  C   UNL     1       2.085  -1.546  -0.451  1.00  0.00     0.278 C 
ENDBRANCH  18  24
ENDBRANCH   8  15
BRANCH   7  26
ATOM     26  C   UNL     1       9.525   2.127  -6.352  1.00  0.00    -0.032 A 
ATOM     27  C   UNL     1      10.691   1.856  -7.089  1.00  0.00     0.005 A 
ATOM     28  C   UNL     1       9.649   1.980  -4.952  1.00  0.00     0.005 A 
ATOM     29  C   UNL     1      11.889   1.456  -6.478  1.00  0.00     0.000 A 
ATOM     30  C   UNL     1      10.839   1.570  -4.336  1.00  0.00     0.000 A 
ATOM     31  C   UNL     1      11.963   1.305  -5.102  1.00  0.00     0.000 A 
ENDBRANCH   7  26
ENDBRANCH   4   7
ENDBRANCH   2   3
ENDBRANCH   1   2
BRANCH   1  32
ATOM     32  C   UNL     1       5.267   5.158 -10.676  1.00  0.00     0.023 C 
BRANCH  32  33
ATOM     33  C   UNL     1       4.406   4.219 -11.511  1.00  0.00     0.116 C 
BRANCH  33  34
ATOM     34  N   UNL     1       3.020   4.178 -11.068  1.00  0.00    -0.352 N 
ATOM     35  C   UNL     1       1.867   4.308 -11.810  1.00  0.00     0.251 C 
ATOM     36  H   UNL     1       2.889   4.039 -10.102  1.00  0.00     0.163 HD
ATOM     37  O   UNL     1       0.783   4.382 -11.257  1.00  0.00    -0.269 OA
BRANCH  35  38
ATOM     38  C   UNL     1       1.966   4.385 -13.284  1.00  0.00     0.039 A 
ATOM     39  C   UNL     1       1.285   5.405 -13.951  1.00  0.00     0.014 A 
ATOM     40  C   UNL     1       2.753   3.476 -13.995  1.00  0.00     0.014 A 
ATOM     41  C   UNL     1       1.452   5.557 -15.329  1.00  0.00     0.010 A 
ATOM     42  C   UNL     1       2.979   3.677 -15.352  1.00  0.00     0.010 A 
ATOM     43  C   UNL     1       2.330   4.718 -16.035  1.00  0.00    -0.014 A 
BRANCH  43  44
ATOM     44  C   UNL     1       2.599   4.920 -17.481  1.00  0.00     0.031 A 
ATOM     45  C   UNL     1       2.254   3.841 -18.472  1.00  0.00     0.074 A 
ATOM     46  C   UNL     1       3.248   6.029 -17.890  1.00  0.00     0.049 A 
ATOM     47  N   UNL     1       2.483   3.800 -19.758  1.00  0.00    -0.248 NA
ATOM     48  C   UNL     1       1.591   2.637 -17.943  1.00  0.00     0.031 C 
ATOM     49  C   UNL     1       3.711   7.109 -17.015  1.00  0.00     0.029 A 
ATOM     50  N   UNL     1       3.659   6.417 -19.140  1.00  0.00    -0.354 N 
ATOM     51  C   UNL     1       2.034   2.556 -20.185  1.00  0.00     0.074 A 
ATOM     52  C   UNL     1       1.546   1.859 -19.015  1.00  0.00     0.031 C 
ATOM     53  C   UNL     1       4.344   8.034 -17.755  1.00  0.00     0.029 A 
ATOM     54  C   UNL     1       4.360   7.601 -19.148  1.00  0.00     0.049 A 
ATOM     55  H   UNL     1       3.471   5.897 -19.955  1.00  0.00     0.167 HD
ATOM     56  C   UNL     1       2.005   2.049 -21.440  1.00  0.00     0.034 A 
ATOM     57  C   UNL     1       4.960   8.258 -20.161  1.00  0.00     0.034 A 
ATOM     58  C   UNL     1       2.446   2.765 -22.607  1.00  0.00     0.049 A 
ATOM     59  C   UNL     1       4.870   7.694 -21.553  1.00  0.00     0.074 A 
ATOM     60  C   UNL     1       2.361   2.380 -23.933  1.00  0.00     0.029 A 
ATOM     61  N   UNL     1       3.062   4.006 -22.588  1.00  0.00    -0.354 N 
ATOM     62  N   UNL     1       4.287   6.593 -21.961  1.00  0.00    -0.248 NA
ATOM     63  C   UNL     1       5.489   8.480 -22.631  1.00  0.00     0.031 C 
ATOM     64  C   UNL     1       2.953   3.377 -24.715  1.00  0.00     0.029 A 
ATOM     65  C   UNL     1       3.377   4.397 -23.878  1.00  0.00     0.049 A 
ATOM     66  H   UNL     1       3.249   4.532 -21.777  1.00  0.00     0.167 HD
ATOM     67  C   UNL     1       4.436   6.572 -23.343  1.00  0.00     0.074 A 
ATOM     68  C   UNL     1       5.147   7.781 -23.705  1.00  0.00     0.031 C 
ATOM     69  C   UNL     1       4.034   5.629 -24.231  1.00  0.00     0.034 A 
BRANCH  56  70
ATOM     70  C   UNL     1       1.431   0.669 -21.627  1.00  0.00     0.023 A 
ATOM     71  C   UNL     1       0.043   0.466 -21.478  1.00  0.00     0.012 A 
ATOM     72  C   UNL     1       2.250  -0.410 -22.014  1.00  0.00     0.148 A 
ATOM     73  C   UNL     1      -0.515  -0.796 -21.675  1.00  0.00     0.002 A 
ATOM     74  C   UNL     1       1.679  -1.654 -22.254  1.00  0.00     0.091 A 
ATOM     75  F   UNL     1       3.569  -0.202 -22.131  1.00  0.00    -0.205 F 
ATOM     76  C   UNL     1       0.300  -1.852 -22.074  1.00  0.00     0.022 A 
BRANCH  74  77
ATOM     77  S   UNL     1       2.629  -3.057 -22.850  1.00  0.00     0.127 S 
ATOM     78  O   UNL     1       2.633  -3.930 -21.677  1.00  0.00    -0.237 OA
ATOM     79  O   UNL     1       1.806  -3.535 -23.962  1.00  0.00    -0.237 OA
ATOM     80  O   UNL     1       3.928  -2.528 -23.239  1.00  0.00    -0.744 OA
ENDBRANCH  74  77
ENDBRANCH  56  70
BRANCH  57  81
ATOM     81  C   UNL     1       5.649   9.555 -19.904  1.00  0.00     0.023 A 
ATOM     82  C   UNL     1       5.086  10.748 -20.398  1.00  0.00     0.012 A 
ATOM     83  C   UNL     1       6.841   9.617 -19.157  1.00  0.00     0.148 A 
ATOM     84  C   UNL     1       5.715  11.975 -20.183  1.00  0.00     0.002 A 
ATOM     85  C   UNL     1       7.433  10.848 -18.898  1.00  0.00     0.091 A 
ATOM     86  F   UNL     1       7.368   8.470 -18.705  1.00  0.00    -0.205 F 
ATOM     87  C   UNL     1       6.882  12.026 -19.426  1.00  0.00     0.022 A 
BRANCH  85  88
ATOM     88  S   UNL     1       8.862  11.023 -17.824  1.00  0.00     0.127 S 
ATOM     89  O   UNL     1       9.914  11.361 -18.779  1.00  0.00    -0.237 OA
ATOM     90  O   UNL     1       8.448  12.119 -16.947  1.00  0.00    -0.237 OA
ATOM     91  O   UNL     1       9.005   9.739 -17.151  1.00  0.00    -0.744 OA
ENDBRANCH  85  88
ENDBRANCH  57  81
BRANCH  69  92
ATOM     92  C   UNL     1       4.311   5.876 -25.691  1.00  0.00     0.023 A 
ATOM     93  C   UNL     1       5.626   5.768 -26.184  1.00  0.00     0.012 A 
ATOM     94  C   UNL     1       3.254   6.131 -26.587  1.00  0.00     0.148 A 
ATOM     95  C   UNL     1       5.888   5.941 -27.543  1.00  0.00     0.002 A 
ATOM     96  C   UNL     1       3.516   6.252 -27.946  1.00  0.00     0.091 A 
ATOM     97  F   UNL     1       2.012   6.248 -26.094  1.00  0.00    -0.205 F 
ATOM     98  C   UNL     1       4.834   6.169 -28.424  1.00  0.00     0.022 A 
BRANCH  96  99
ATOM     99  S   UNL     1       2.212   6.448 -29.165  1.00  0.00     0.127 S 
ATOM    100  O   UNL     1       2.398   7.837 -29.579  1.00  0.00    -0.237 OA
ATOM    101  O   UNL     1       2.581   5.455 -30.175  1.00  0.00    -0.237 OA
ATOM    102  O   UNL     1       0.964   6.165 -28.469  1.00  0.00    -0.744 OA
ENDBRANCH  96  99
ENDBRANCH  69  92
ENDBRANCH  43  44
ENDBRANCH  35  38
ENDBRANCH  33  34
ENDBRANCH  32  33
ENDBRANCH   1  32
TORSDOF 19
