REMARK SMILES C[C@]12C[C@@H](O)[C@H]3[C@@H](CCC4=CC(=O)C=C[C@]43C)[C@H]1CC[C@@]2(O)C(=O)COC(=O)CCC(=O)NCCCCNC(=O)c1ccc(-c2c3nc(c(-c4cccc(S(=O)(=O)[O-])c4F)c4ccc([nH]4)c(-c4cccc(S(=O)(=O)[O-])c4F)c4nc(c(-c5cccc(S(=O)(=O)[O-])c5F)c5ccc2[nH]5)C=C4)C=C3)cc1
REMARK SMILES IDX 31 1 32 2 33 3 30 5 29 6 27 7 28 8 26 9 25 10 23 11 24 12
REMARK SMILES IDX 21 13 17 14 16 15 15 16 10 17 6 18 14 19 11 20 9 21 7 22
REMARK SMILES IDX 4 23 12 24 8 25 18 26 3 27 13 28 2 29 19 30 1 31 20 32 5 33
REMARK SMILES IDX 22 35 34 37 35 38 36 39 37 40 38 41 39 42 40 44 41 45 42 46
REMARK SMILES IDX 103 47 43 48 102 49 44 50 45 51 46 52 96 53 47 54 101 55
REMARK SMILES IDX 95 56 97 57 48 58 100 59 94 60 93 61 49 63 81 64 61 65 80 66
REMARK SMILES IDX 62 67 65 68 79 69 98 70 63 71 64 72 78 74 99 75 66 76 50 77
REMARK SMILES IDX 51 78 59 79 52 80 54 81 60 82 53 83 55 84 56 85 57 86 58 87
REMARK SMILES IDX 82 88 83 89 91 90 84 91 86 92 92 93 85 94 87 95 88 96 89 97
REMARK SMILES IDX 90 98 67 99 68 100 76 101 69 102 71 103 77 104 70 105 72 106
REMARK SMILES IDX 73 107 74 108 75 109
REMARK H PARENT 33 4 5 34 22 36 38 43 97 62 65 73
REMARK Flexibility Score: inf
ROOT
ATOM      1  C   UNL     1       1.554  -6.584  -3.196  1.00  0.00     0.220 C 
ATOM      2  O   UNL     1       1.663  -6.260  -4.381  1.00  0.00    -0.275 OA
ATOM      3  N   UNL     1       2.683  -6.686  -2.447  1.00  0.00    -0.356 N 
ATOM      4  H   UNL     1       3.514  -6.653  -2.974  1.00  0.00     0.163 HD
ENDROOT
BRANCH   1   5
ATOM      5  C   UNL     1       0.184  -6.866  -2.624  1.00  0.00     0.111 C 
BRANCH   5   6
ATOM      6  C   UNL     1      -0.060  -8.358  -2.430  1.00  0.00     0.132 C 
BRANCH   6   7
ATOM      7  C   UNL     1      -0.533  -8.638  -1.028  1.00  0.00     0.306 C 
ATOM      8  O   UNL     1      -1.518  -9.304  -0.748  1.00  0.00    -0.252 OA
BRANCH   7   9
ATOM      9  O   UNL     1       0.326  -8.068  -0.149  1.00  0.00    -0.458 OA
BRANCH   9  10
ATOM     10  C   UNL     1       0.156  -8.271   1.241  1.00  0.00     0.311 C 
BRANCH  10  11
ATOM     11  C   UNL     1      -1.050  -7.615   1.834  1.00  0.00     0.202 C 
ATOM     12  O   UNL     1      -2.057  -8.319   2.018  1.00  0.00    -0.293 OA
BRANCH  11  13
ATOM     13  C   UNL     1      -1.060  -6.135   2.293  1.00  0.00     0.132 C 
ATOM     14  C   UNL     1       0.804   0.013  -0.319  1.00  0.00     0.021 C 
ATOM     15  C   UNL     1       0.799  -0.469   1.167  1.00  0.00     0.013 C 
ATOM     16  C   UNL     1       2.233  -0.239   1.657  1.00  0.00    -0.012 C 
ATOM     17  C   UNL     1      -0.106   0.508   1.969  1.00  0.00    -0.056 C 
ATOM     18  C   UNL     1       0.274  -1.987   1.170  1.00  0.00     0.035 C 
ATOM     19  C   UNL     1       2.676   0.981   2.023  1.00  0.00     0.048 C 
ATOM     20  C   UNL     1       0.319   1.748   2.289  1.00  0.00     0.052 C 
ATOM     21  C   UNL     1      -1.374   0.081   2.645  1.00  0.00     0.032 C 
ATOM     22  C   UNL     1      -0.525  -2.307   2.442  1.00  0.00    -0.000 C 
ATOM     23  C   UNL     1       1.294  -3.116   0.874  1.00  0.00     0.119 C 
ATOM     24  C   UNL     1       1.729   2.122   2.070  1.00  0.00     0.178 C 
ATOM     25  C   UNL     1      -1.743  -1.370   2.483  1.00  0.00     0.009 C 
ATOM     26  C   UNL     1      -1.031  -3.757   2.540  1.00  0.00     0.002 C 
ATOM     27  C   UNL     1       0.686  -4.559   0.917  1.00  0.00     0.042 C 
ATOM     28  O   UNL     1       2.081   3.291   2.020  1.00  0.00    -0.290 OA
ATOM     29  C   UNL     1      -0.033  -4.917   2.241  1.00  0.00     0.009 C 
ATOM     30  C   UNL     1      -2.193  -4.072   1.589  1.00  0.00     0.008 C 
ATOM     31  C   UNL     1       1.045  -5.014   3.337  1.00  0.00     0.015 C 
ATOM     32  C   UNL     1      -2.350  -5.574   1.653  1.00  0.00     0.044 C 
BRANCH  23  33
ATOM     33  O   UNL     1       1.896  -2.947  -0.408  1.00  0.00    -0.393 OA
ATOM     34  H   UNL     1       1.218  -3.030  -1.097  1.00  0.00     0.210 HD
ENDBRANCH  23  33
BRANCH  13  35
ATOM     35  O   UNL     1      -1.368  -6.313   3.712  1.00  0.00    -0.381 OA
ATOM     36  H   UNL     1      -1.408  -5.447   4.145  1.00  0.00     0.212 HD
ENDBRANCH  13  35
ENDBRANCH  11  13
ENDBRANCH  10  11
ENDBRANCH   9  10
ENDBRANCH   7   9
ENDBRANCH   6   7
ENDBRANCH   5   6
ENDBRANCH   1   5
BRANCH   3  37
ATOM     37  C   UNL     1       2.901  -6.836  -1.017  1.00  0.00     0.116 C 
BRANCH  37  38
ATOM     38  C   UNL     1       3.472  -8.202  -0.619  1.00  0.00     0.023 C 
BRANCH  38  39
ATOM     39  C   UNL     1       4.553  -8.155   0.473  1.00  0.00     0.023 C 
BRANCH  39  40
ATOM     40  C   UNL     1       4.217  -7.447   1.784  1.00  0.00     0.116 C 
BRANCH  40  41
ATOM     41  N   UNL     1       3.402  -8.223   2.710  1.00  0.00    -0.352 N 
ATOM     42  C   UNL     1       3.369  -8.124   4.089  1.00  0.00     0.251 C 
ATOM     43  H   UNL     1       2.807  -8.895   2.308  1.00  0.00     0.163 HD
ATOM     44  O   UNL     1       2.539  -8.749   4.740  1.00  0.00    -0.269 OA
BRANCH  42  45
ATOM     45  C   UNL     1       4.404  -7.310   4.766  1.00  0.00     0.039 A 
ATOM     46  C   UNL     1       5.345  -7.964   5.568  1.00  0.00     0.014 A 
ATOM     47  C   UNL     1       4.548  -5.955   4.469  1.00  0.00     0.014 A 
ATOM     48  C   UNL     1       6.502  -7.288   5.964  1.00  0.00     0.010 A 
ATOM     49  C   UNL     1       5.724  -5.301   4.816  1.00  0.00     0.010 A 
ATOM     50  C   UNL     1       6.731  -5.973   5.528  1.00  0.00    -0.014 A 
BRANCH  50  51
ATOM     51  C   UNL     1       8.044  -5.299   5.691  1.00  0.00     0.031 A 
ATOM     52  C   UNL     1       8.138  -4.011   6.457  1.00  0.00     0.074 A 
ATOM     53  C   UNL     1       9.104  -5.750   4.987  1.00  0.00     0.049 A 
ATOM     54  N   UNL     1       9.135  -3.171   6.539  1.00  0.00    -0.248 NA
ATOM     55  C   UNL     1       6.933  -3.592   7.193  1.00  0.00     0.031 C 
ATOM     56  C   UNL     1       9.108  -6.939   4.130  1.00  0.00     0.029 A 
ATOM     57  N   UNL     1      10.369  -5.236   4.840  1.00  0.00    -0.354 N 
ATOM     58  C   UNL     1       8.666  -2.100   7.290  1.00  0.00     0.074 A 
ATOM     59  C   UNL     1       7.287  -2.388   7.620  1.00  0.00     0.031 C 
ATOM     60  C   UNL     1      10.309  -7.056   3.540  1.00  0.00     0.029 A 
ATOM     61  C   UNL     1      11.150  -5.935   3.946  1.00  0.00     0.049 A 
ATOM     62  H   UNL     1      10.688  -4.442   5.327  1.00  0.00     0.167 HD
ATOM     63  C   UNL     1       9.332  -0.990   7.687  1.00  0.00     0.034 A 
ATOM     64  C   UNL     1      12.396  -5.695   3.493  1.00  0.00     0.034 A 
ATOM     65  C   UNL     1      10.719  -0.743   7.403  1.00  0.00     0.049 A 
ATOM     66  C   UNL     1      13.140  -4.496   4.015  1.00  0.00     0.074 A 
ATOM     67  C   UNL     1      11.513   0.303   7.838  1.00  0.00     0.029 A 
ATOM     68  N   UNL     1      11.520  -1.553   6.614  1.00  0.00    -0.354 N 
ATOM     69  N   UNL     1      12.727  -3.572   4.848  1.00  0.00    -0.248 NA
ATOM     70  C   UNL     1      14.530  -4.323   3.567  1.00  0.00     0.031 C 
ATOM     71  C   UNL     1      12.795   0.127   7.308  1.00  0.00     0.029 A 
ATOM     72  C   UNL     1      12.802  -1.038   6.556  1.00  0.00     0.049 A 
ATOM     73  H   UNL     1      11.221  -2.375   6.161  1.00  0.00     0.167 HD
ATOM     74  C   UNL     1      13.817  -2.736   5.061  1.00  0.00     0.074 A 
ATOM     75  C   UNL     1      14.912  -3.267   4.275  1.00  0.00     0.031 C 
ATOM     76  C   UNL     1      13.899  -1.624   5.830  1.00  0.00     0.034 A 
BRANCH  63  77
ATOM     77  C   UNL     1       8.586   0.011   8.529  1.00  0.00     0.023 A 
ATOM     78  C   UNL     1       8.262  -0.312   9.863  1.00  0.00     0.012 A 
ATOM     79  C   UNL     1       8.256   1.285   8.027  1.00  0.00     0.148 A 
ATOM     80  C   UNL     1       7.588   0.601  10.672  1.00  0.00     0.002 A 
ATOM     81  C   UNL     1       7.624   2.207   8.855  1.00  0.00     0.091 A 
ATOM     82  F   UNL     1       8.551   1.567   6.750  1.00  0.00    -0.205 F 
ATOM     83  C   UNL     1       7.279   1.863  10.172  1.00  0.00     0.022 A 
BRANCH  81  84
ATOM     84  S   UNL     1       7.255   3.884   8.329  1.00  0.00     0.127 S 
ATOM     85  O   UNL     1       5.805   3.822   8.150  1.00  0.00    -0.237 OA
ATOM     86  O   UNL     1       7.694   4.673   9.481  1.00  0.00    -0.237 OA
ATOM     87  O   UNL     1       8.031   4.100   7.116  1.00  0.00    -0.744 OA
ENDBRANCH  81  84
ENDBRANCH  63  77
BRANCH  64  88
ATOM     88  C   UNL     1      13.046  -6.656   2.557  1.00  0.00     0.023 A 
ATOM     89  C   UNL     1      14.088  -7.477   3.032  1.00  0.00     0.012 A 
ATOM     90  C   UNL     1      12.616  -6.798   1.223  1.00  0.00     0.148 A 
ATOM     91  C   UNL     1      14.709  -8.400   2.190  1.00  0.00     0.002 A 
ATOM     92  C   UNL     1      13.203  -7.758   0.405  1.00  0.00     0.091 A 
ATOM     93  F   UNL     1      11.630  -6.003   0.785  1.00  0.00    -0.205 F 
ATOM     94  C   UNL     1      14.261  -8.548   0.881  1.00  0.00     0.022 A 
BRANCH  92  95
ATOM     95  S   UNL     1      12.592  -8.112  -1.248  1.00  0.00     0.127 S 
ATOM     96  O   UNL     1      13.622  -7.503  -2.085  1.00  0.00    -0.237 OA
ATOM     97  O   UNL     1      12.572  -9.575  -1.259  1.00  0.00    -0.237 OA
ATOM     98  O   UNL     1      11.272  -7.499  -1.313  1.00  0.00    -0.744 OA
ENDBRANCH  92  95
ENDBRANCH  64  88
BRANCH  76  99
ATOM     99  C   UNL     1      15.229  -0.926   5.922  1.00  0.00     0.023 A 
ATOM    100  C   UNL     1      15.674  -0.123   4.855  1.00  0.00     0.012 A 
ATOM    101  C   UNL     1      15.975  -0.976   7.116  1.00  0.00     0.148 A 
ATOM    102  C   UNL     1      16.854   0.612   4.971  1.00  0.00     0.002 A 
ATOM    103  C   UNL     1      17.125  -0.207   7.240  1.00  0.00     0.091 A 
ATOM    104  F   UNL     1      15.540  -1.764   8.109  1.00  0.00    -0.205 F 
ATOM    105  C   UNL     1      17.570   0.582   6.166  1.00  0.00     0.022 A 
BRANCH 103 106
ATOM    106  S   UNL     1      18.057  -0.108   8.773  1.00  0.00     0.127 S 
ATOM    107  O   UNL     1      19.269  -0.852   8.432  1.00  0.00    -0.237 OA
ATOM    108  O   UNL     1      18.248   1.334   8.928  1.00  0.00    -0.237 OA
ATOM    109  O   UNL     1      17.216  -0.720   9.794  1.00  0.00    -0.744 OA
ENDBRANCH 103 106
ENDBRANCH  76  99
ENDBRANCH  50  51
ENDBRANCH  42  45
ENDBRANCH  40  41
ENDBRANCH  39  40
ENDBRANCH  38  39
ENDBRANCH  37  38
ENDBRANCH   3  37
TORSDOF 22
