REMARK SMILES CCc1cc(OC(F)(F)F)cc2c1O[C@H](C(F)(F)F)C(C(=O)NCCCCNC(=O)c1ccc(-c3c4nc(c(-c5cccc(S(=O)(=O)[O-])c5F)c5ccc([nH]5)c(-c5cccc(S(=O)(=O)[O-])c5F)c5nc(c(-c6cccc(S(=O)(=O)[O-])c6F)c6ccc3[nH]6)C=C5)C=C4)cc1)=C2
REMARK SMILES IDX 26 1 25 2 24 3 23 4 21 5 22 6 20 8 3 9 4 10 13 11 5 12 12 13
REMARK SMILES IDX 14 14 11 15 94 16 15 17 2 18 1 19 6 20 7 21 8 22 9 23 10 24
REMARK SMILES IDX 16 25 17 26 18 27 19 28 27 29 28 30 29 31 30 33 31 34 32 35
REMARK SMILES IDX 93 36 33 37 92 38 34 39 35 40 36 41 86 42 37 43 91 44 85 45
REMARK SMILES IDX 87 46 38 47 90 48 84 49 83 50 39 52 71 53 51 54 70 55 52 56
REMARK SMILES IDX 55 57 69 58 88 59 53 60 54 61 68 63 89 64 56 65 40 66 41 67
REMARK SMILES IDX 49 68 42 69 44 70 50 71 43 72 45 73 46 74 47 75 48 76 72 77
REMARK SMILES IDX 73 78 81 79 74 80 76 81 82 82 75 83 77 84 78 85 79 86 80 87
REMARK SMILES IDX 57 88 58 89 66 90 59 91 61 92 67 93 60 94 62 95 63 96 64 97
REMARK SMILES IDX 65 98
REMARK H PARENT 23 7 28 32 87 51 55 62
REMARK Flexibility Score: inf
ROOT
ATOM      1  C   UNL     1       6.449  -7.049   4.255  1.00  0.00     0.023 C 
ENDROOT
BRANCH   1   2
ATOM      2  C   UNL     1       5.247  -6.441   3.525  1.00  0.00     0.023 C 
BRANCH   2   3
ATOM      3  C   UNL     1       4.566  -5.299   4.283  1.00  0.00     0.116 C 
BRANCH   3   4
ATOM      4  N   UNL     1       5.281  -4.055   4.082  1.00  0.00    -0.352 N 
ATOM      5  C   UNL     1       5.171  -3.074   3.152  1.00  0.00     0.251 C 
ATOM      6  O   UNL     1       5.928  -2.109   3.249  1.00  0.00    -0.270 OA
ATOM      7  H   UNL     1       5.983  -3.889   4.752  1.00  0.00     0.163 HD
BRANCH   5   8
ATOM      8  C   UNL     1       4.128  -3.058   2.087  1.00  0.00     0.067 C 
ATOM      9  C   UNL     1       0.921  -2.360  -0.560  1.00  0.00    -0.002 A 
ATOM     10  C   UNL     1       0.309  -3.481  -1.168  1.00  0.00     0.054 A 
ATOM     11  C   UNL     1       1.987  -2.586   0.323  1.00  0.00     0.131 A 
ATOM     12  C   UNL     1       0.724  -4.784  -0.888  1.00  0.00     0.130 A 
ATOM     13  C   UNL     1       2.419  -3.889   0.600  1.00  0.00     0.021 A 
ATOM     14  O   UNL     1       2.542  -1.518   0.968  1.00  0.00    -0.475 OA
ATOM     15  C   UNL     1       1.786  -4.979  -0.006  1.00  0.00     0.058 A 
ATOM     16  C   UNL     1       3.471  -4.114   1.588  1.00  0.00     0.025 C 
ATOM     17  C   UNL     1       3.885  -1.679   1.498  1.00  0.00     0.314 C 
BRANCH   9  18
ATOM     18  C   UNL     1       0.390  -1.000  -0.974  1.00  0.00     0.036 C 
ATOM     19  C   UNL     1       0.722   0.226  -0.135  1.00  0.00     0.009 C 
ENDBRANCH   9  18
BRANCH  12  20
ATOM     20  O   UNL     1       0.188  -5.936  -1.387  1.00  0.00    -0.406 OA
BRANCH  20  21
ATOM     21  C   UNL     1      -0.930  -5.829  -2.251  1.00  0.00     0.573 C 
ATOM     22  F   UNL     1      -1.965  -5.212  -1.641  1.00  0.00    -0.132 F 
ATOM     23  F   UNL     1      -0.610  -5.161  -3.380  1.00  0.00    -0.132 F 
ATOM     24  F   UNL     1      -1.331  -7.072  -2.599  1.00  0.00    -0.132 F 
ENDBRANCH  20  21
ENDBRANCH  12  20
BRANCH  17  25
ATOM     25  C   UNL     1       4.929  -1.290   0.430  1.00  0.00     0.429 C 
ATOM     26  F   UNL     1       5.274  -2.336  -0.360  1.00  0.00    -0.167 F 
ATOM     27  F   UNL     1       4.444  -0.326  -0.398  1.00  0.00    -0.167 F 
ATOM     28  F   UNL     1       6.066  -0.789   0.959  1.00  0.00    -0.167 F 
ENDBRANCH  17  25
ENDBRANCH   5   8
ENDBRANCH   3   4
ENDBRANCH   2   3
ENDBRANCH   1   2
BRANCH   1  29
ATOM     29  C   UNL     1       6.111  -7.749   5.567  1.00  0.00     0.116 C 
BRANCH  29  30
ATOM     30  N   UNL     1       5.131  -8.814   5.415  1.00  0.00    -0.352 N 
ATOM     31  C   UNL     1       4.969  -9.940   6.190  1.00  0.00     0.251 C 
ATOM     32  H   UNL     1       4.505  -8.717   4.661  1.00  0.00     0.163 HD
ATOM     33  O   UNL     1       4.161 -10.797   5.875  1.00  0.00    -0.269 OA
BRANCH  31  34
ATOM     34  C   UNL     1       5.825 -10.112   7.384  1.00  0.00     0.039 A 
ATOM     35  C   UNL     1       6.535 -11.305   7.533  1.00  0.00     0.014 A 
ATOM     36  C   UNL     1       5.958  -9.083   8.319  1.00  0.00     0.014 A 
ATOM     37  C   UNL     1       7.434 -11.442   8.592  1.00  0.00     0.010 A 
ATOM     38  C   UNL     1       6.901  -9.196   9.335  1.00  0.00     0.010 A 
ATOM     39  C   UNL     1       7.648 -10.375   9.481  1.00  0.00    -0.014 A 
BRANCH  39  40
ATOM     40  C   UNL     1       8.662 -10.464  10.560  1.00  0.00     0.031 A 
ATOM     41  C   UNL     1       8.236 -10.415  12.001  1.00  0.00     0.074 A 
ATOM     42  C   UNL     1       9.970 -10.487  10.239  1.00  0.00     0.049 A 
ATOM     43  N   UNL     1       8.977 -10.418  13.078  1.00  0.00    -0.248 NA
ATOM     44  C   UNL     1       6.791 -10.322  12.267  1.00  0.00     0.031 C 
ATOM     45  C   UNL     1      10.509 -10.446   8.877  1.00  0.00     0.029 A 
ATOM     46  N   UNL     1      11.087 -10.520  11.036  1.00  0.00    -0.354 N 
ATOM     47  C   UNL     1       8.096 -10.289  14.144  1.00  0.00     0.074 A 
ATOM     48  C   UNL     1       6.767 -10.178  13.584  1.00  0.00     0.031 C 
ATOM     49  C   UNL     1      11.850 -10.457   8.934  1.00  0.00     0.029 A 
ATOM     50  C   UNL     1      12.268 -10.486  10.333  1.00  0.00     0.049 A 
ATOM     51  H   UNL     1      11.046 -10.564  12.019  1.00  0.00     0.167 HD
ATOM     52  C   UNL     1       8.365 -10.295  15.471  1.00  0.00     0.034 A 
ATOM     53  C   UNL     1      13.544 -10.479  10.766  1.00  0.00     0.034 A 
ATOM     54  C   UNL     1       9.681 -10.464  16.024  1.00  0.00     0.049 A 
ATOM     55  C   UNL     1      13.812 -10.553  12.245  1.00  0.00     0.074 A 
ATOM     56  C   UNL     1      10.048 -10.585  17.352  1.00  0.00     0.029 A 
ATOM     57  N   UNL     1      10.848 -10.536  15.278  1.00  0.00    -0.354 N 
ATOM     58  N   UNL     1      12.955 -10.605  13.236  1.00  0.00    -0.248 NA
ATOM     59  C   UNL     1      15.220 -10.608  12.664  1.00  0.00     0.031 C 
ATOM     60  C   UNL     1      11.439 -10.721  17.410  1.00  0.00     0.029 A 
ATOM     61  C   UNL     1      11.937 -10.697  16.117  1.00  0.00     0.049 A 
ATOM     62  H   UNL     1      10.895 -10.480  14.296  1.00  0.00     0.167 HD
ATOM     63  C   UNL     1      13.717 -10.733  14.392  1.00  0.00     0.074 A 
ATOM     64  C   UNL     1      15.104 -10.773  13.976  1.00  0.00     0.031 C 
ATOM     65  C   UNL     1      13.306 -10.795  15.683  1.00  0.00     0.034 A 
BRANCH  52  66
ATOM     66  C   UNL     1       7.201 -10.187  16.419  1.00  0.00     0.023 A 
ATOM     67  C   UNL     1       6.333 -11.288  16.574  1.00  0.00     0.012 A 
ATOM     68  C   UNL     1       6.992  -9.028  17.192  1.00  0.00     0.148 A 
ATOM     69  C   UNL     1       5.257 -11.226  17.457  1.00  0.00     0.002 A 
ATOM     70  C   UNL     1       5.941  -8.989  18.101  1.00  0.00     0.091 A 
ATOM     71  F   UNL     1       7.812  -7.983  17.013  1.00  0.00    -0.205 F 
ATOM     72  C   UNL     1       5.067 -10.082  18.227  1.00  0.00     0.022 A 
BRANCH  70  73
ATOM     73  S   UNL     1       5.657  -7.589  19.190  1.00  0.00     0.127 S 
ATOM     74  O   UNL     1       4.487  -6.967  18.572  1.00  0.00    -0.237 OA
ATOM     75  O   UNL     1       5.394  -8.242  20.473  1.00  0.00    -0.237 OA
ATOM     76  O   UNL     1       6.881  -6.801  19.152  1.00  0.00    -0.744 OA
ENDBRANCH  70  73
ENDBRANCH  52  66
BRANCH  53  77
ATOM     77  C   UNL     1      14.662 -10.487   9.782  1.00  0.00     0.023 A 
ATOM     78  C   UNL     1      15.424 -11.661   9.619  1.00  0.00     0.012 A 
ATOM     79  C   UNL     1      14.952  -9.364   8.984  1.00  0.00     0.148 A 
ATOM     80  C   UNL     1      16.473 -11.707   8.700  1.00  0.00     0.002 A 
ATOM     81  C   UNL     1      15.965  -9.434   8.034  1.00  0.00     0.091 A 
ATOM     82  F   UNL     1      14.225  -8.252   9.163  1.00  0.00    -0.205 F 
ATOM     83  C   UNL     1      16.736 -10.598   7.901  1.00  0.00     0.022 A 
BRANCH  81  84
ATOM     84  S   UNL     1      16.282  -8.100   6.873  1.00  0.00     0.127 S 
ATOM     85  O   UNL     1      17.508  -7.519   7.413  1.00  0.00    -0.237 OA
ATOM     86  O   UNL     1      16.446  -8.824   5.612  1.00  0.00    -0.237 OA
ATOM     87  O   UNL     1      15.098  -7.252   6.923  1.00  0.00    -0.744 OA
ENDBRANCH  81  84
ENDBRANCH  53  77
BRANCH  65  88
ATOM     88  C   UNL     1      14.363 -10.940  16.745  1.00  0.00     0.023 A 
ATOM     89  C   UNL     1      15.164  -9.832  17.085  1.00  0.00     0.012 A 
ATOM     90  C   UNL     1      14.505 -12.144  17.462  1.00  0.00     0.148 A 
ATOM     91  C   UNL     1      16.110  -9.928  18.105  1.00  0.00     0.002 A 
ATOM     92  C   UNL     1      15.418 -12.219  18.507  1.00  0.00     0.091 A 
ATOM     93  F   UNL     1      13.748 -13.193  17.109  1.00  0.00    -0.205 F 
ATOM     94  C   UNL     1      16.228 -11.116  18.823  1.00  0.00     0.022 A 
BRANCH  92  95
ATOM     95  S   UNL     1      15.569 -13.679  19.543  1.00  0.00     0.127 S 
ATOM     96  O   UNL     1      16.802 -14.279  19.036  1.00  0.00    -0.237 OA
ATOM     97  O   UNL     1      15.678 -13.102  20.884  1.00  0.00    -0.237 OA
ATOM     98  O   UNL     1      14.355 -14.452  19.320  1.00  0.00    -0.744 OA
ENDBRANCH  92  95
ENDBRANCH  65  88
ENDBRANCH  39  40
ENDBRANCH  31  34
ENDBRANCH  29  30
ENDBRANCH   1  29
TORSDOF 18
