REMARK SMILES O=C(NCCCCNC(=O)c1cc(OCc2ccccc2C(F)(F)F)cs1)c1ccc(-c2c3nc(c(-c4cccc(S(=O)(=O)[O-])c4F)c4ccc([nH]4)c(-c4cccc(S(=O)(=O)[O-])c4F)c4nc(c(-c5cccc(S(=O)(=O)[O-])c5F)c5ccc2[nH]5)C=C4)C=C3)cc1
REMARK SMILES IDX 6 1 5 2 4 3 3 4 1 5 2 6 28 8 29 9 90 10 30 11 89 12 31 13
REMARK SMILES IDX 32 14 33 15 83 16 34 17 88 18 82 19 84 20 35 21 87 22 81 23
REMARK SMILES IDX 80 24 36 26 68 27 48 28 67 29 49 30 52 31 66 32 85 33 50 34
REMARK SMILES IDX 51 35 65 37 86 38 53 39 37 40 38 41 46 42 39 43 41 44 47 45
REMARK SMILES IDX 40 46 42 47 43 48 44 49 45 50 69 51 70 52 78 53 71 54 73 55
REMARK SMILES IDX 79 56 72 57 74 58 75 59 76 60 77 61 54 62 55 63 63 64 56 65
REMARK SMILES IDX 58 66 64 67 57 68 59 69 60 70 61 71 62 72 7 73 8 74 9 75
REMARK SMILES IDX 10 77 11 78 12 79 27 80 13 81 26 82 14 83 15 84 16 85 17 86
REMARK SMILES IDX 21 87 18 88 20 89 19 90 22 91 23 92 24 93 25 94
REMARK H PARENT 3 7 84 25 52 36 8 76
REMARK Flexibility Score: inf
ROOT
ATOM      1  C   UNL     1       4.653  -3.745  -0.430  1.00  0.00     0.023 C 
ENDROOT
BRANCH   1   2
ATOM      2  C   UNL     1       5.082  -2.506   0.350  1.00  0.00     0.023 C 
BRANCH   2   3
ATOM      3  C   UNL     1       4.696  -1.171  -0.274  1.00  0.00     0.116 C 
BRANCH   3   4
ATOM      4  N   UNL     1       3.261  -1.009  -0.455  1.00  0.00    -0.352 N 
ATOM      5  O   UNL     1       1.228  -0.058  -0.247  1.00  0.00    -0.269 OA
ATOM      6  C   UNL     1       2.441   0.034  -0.083  1.00  0.00     0.251 C 
ATOM      7  H   UNL     1       2.808  -1.756  -0.909  1.00  0.00     0.163 HD
BRANCH   6   8
ATOM      8  C   UNL     1       3.032   1.235   0.551  1.00  0.00     0.039 A 
ATOM      9  C   UNL     1       4.185   1.817   0.023  1.00  0.00     0.014 A 
ATOM     10  C   UNL     1       2.465   1.742   1.723  1.00  0.00     0.014 A 
ATOM     11  C   UNL     1       4.882   2.760   0.771  1.00  0.00     0.010 A 
ATOM     12  C   UNL     1       3.118   2.761   2.424  1.00  0.00     0.010 A 
ATOM     13  C   UNL     1       4.366   3.233   1.988  1.00  0.00    -0.014 A 
BRANCH  13  14
ATOM     14  C   UNL     1       5.153   4.221   2.775  1.00  0.00     0.031 A 
ATOM     15  C   UNL     1       5.676   3.887   4.149  1.00  0.00     0.074 A 
ATOM     16  C   UNL     1       5.431   5.419   2.224  1.00  0.00     0.049 A 
ATOM     17  N   UNL     1       6.436   4.605   4.936  1.00  0.00    -0.248 NA
ATOM     18  C   UNL     1       5.290   2.586   4.722  1.00  0.00     0.031 C 
ATOM     19  C   UNL     1       4.951   5.874   0.917  1.00  0.00     0.029 A 
ATOM     20  N   UNL     1       6.189   6.466   2.682  1.00  0.00    -0.354 N 
ATOM     21  C   UNL     1       6.579   3.872   6.109  1.00  0.00     0.074 A 
ATOM     22  C   UNL     1       5.822   2.652   5.935  1.00  0.00     0.031 C 
ATOM     23  C   UNL     1       5.458   7.087   0.660  1.00  0.00     0.029 A 
ATOM     24  C   UNL     1       6.259   7.519   1.800  1.00  0.00     0.049 A 
ATOM     25  H   UNL     1       6.640   6.464   3.557  1.00  0.00     0.167 HD
ATOM     26  C   UNL     1       7.288   4.179   7.224  1.00  0.00     0.034 A 
ATOM     27  C   UNL     1       6.894   8.703   1.896  1.00  0.00     0.034 A 
ATOM     28  C   UNL     1       8.083   5.370   7.373  1.00  0.00     0.049 A 
ATOM     29  C   UNL     1       7.711   8.993   3.122  1.00  0.00     0.074 A 
ATOM     30  C   UNL     1       8.895   5.736   8.433  1.00  0.00     0.029 A 
ATOM     31  N   UNL     1       8.166   6.390   6.438  1.00  0.00    -0.354 N 
ATOM     32  N   UNL     1       7.937   8.229   4.162  1.00  0.00    -0.248 NA
ATOM     33  C   UNL     1       8.387  10.297   3.173  1.00  0.00     0.031 C 
ATOM     34  C   UNL     1       9.454   6.986   8.146  1.00  0.00     0.029 A 
ATOM     35  C   UNL     1       9.008   7.389   6.897  1.00  0.00     0.049 A 
ATOM     36  H   UNL     1       7.694   6.403   5.573  1.00  0.00     0.167 HD
ATOM     37  C   UNL     1       8.808   8.942   4.976  1.00  0.00     0.074 A 
ATOM     38  C   UNL     1       9.085  10.192   4.296  1.00  0.00     0.031 C 
ATOM     39  C   UNL     1       9.320   8.601   6.184  1.00  0.00     0.034 A 
BRANCH  26  40
ATOM     40  C   UNL     1       7.266   3.196   8.367  1.00  0.00     0.023 A 
ATOM     41  C   UNL     1       7.984   1.987   8.265  1.00  0.00     0.012 A 
ATOM     42  C   UNL     1       6.592   3.498   9.568  1.00  0.00     0.148 A 
ATOM     43  C   UNL     1       8.004   1.080   9.325  1.00  0.00     0.002 A 
ATOM     44  C   UNL     1       6.651   2.607  10.635  1.00  0.00     0.091 A 
ATOM     45  F   UNL     1       5.896   4.641   9.642  1.00  0.00    -0.205 F 
ATOM     46  C   UNL     1       7.348   1.395  10.512  1.00  0.00     0.022 A 
BRANCH  44  47
ATOM     47  S   UNL     1       5.901   2.963  12.229  1.00  0.00     0.127 S 
ATOM     48  O   UNL     1       4.715   2.110  12.194  1.00  0.00    -0.237 OA
ATOM     49  O   UNL     1       6.938   2.527  13.166  1.00  0.00    -0.237 OA
ATOM     50  O   UNL     1       5.647   4.397  12.238  1.00  0.00    -0.744 OA
ENDBRANCH  44  47
ENDBRANCH  26  40
BRANCH  27  51
ATOM     51  C   UNL     1       6.837   9.664   0.759  1.00  0.00     0.023 A 
ATOM     52  C   UNL     1       7.995   9.898  -0.007  1.00  0.00     0.012 A 
ATOM     53  C   UNL     1       5.634  10.303   0.400  1.00  0.00     0.148 A 
ATOM     54  C   UNL     1       7.962  10.768  -1.097  1.00  0.00     0.002 A 
ATOM     55  C   UNL     1       5.594  11.122  -0.722  1.00  0.00     0.091 A 
ATOM     56  F   UNL     1       4.547  10.079   1.152  1.00  0.00    -0.205 F 
ATOM     57  C   UNL     1       6.760  11.369  -1.462  1.00  0.00     0.022 A 
BRANCH  55  58
ATOM     58  S   UNL     1       4.059  11.816  -1.346  1.00  0.00     0.127 S 
ATOM     59  O   UNL     1       4.198  13.223  -0.982  1.00  0.00    -0.237 OA
ATOM     60  O   UNL     1       4.160  11.536  -2.779  1.00  0.00    -0.237 OA
ATOM     61  O   UNL     1       2.997  11.085  -0.668  1.00  0.00    -0.744 OA
ENDBRANCH  55  58
ENDBRANCH  27  51
BRANCH  39  62
ATOM     62  C   UNL     1      10.267   9.573   6.835  1.00  0.00     0.023 A 
ATOM     63  C   UNL     1       9.771  10.769   7.393  1.00  0.00     0.012 A 
ATOM     64  C   UNL     1      11.639   9.275   6.946  1.00  0.00     0.148 A 
ATOM     65  C   UNL     1      10.632  11.669   8.019  1.00  0.00     0.002 A 
ATOM     66  C   UNL     1      12.483  10.154   7.614  1.00  0.00     0.091 A 
ATOM     67  F   UNL     1      12.097   8.145   6.389  1.00  0.00    -0.205 F 
ATOM     68  C   UNL     1      11.984  11.357   8.140  1.00  0.00     0.022 A 
BRANCH  66  69
ATOM     69  S   UNL     1      14.218   9.781   7.894  1.00  0.00     0.127 S 
ATOM     70  O   UNL     1      14.868  10.593   6.868  1.00  0.00    -0.237 OA
ATOM     71  O   UNL     1      14.423  10.251   9.265  1.00  0.00    -0.237 OA
ATOM     72  O   UNL     1      14.342   8.338   7.731  1.00  0.00    -0.744 OA
ENDBRANCH  66  69
ENDBRANCH  39  62
ENDBRANCH  13  14
ENDBRANCH   6   8
ENDBRANCH   3   4
ENDBRANCH   2   3
ENDBRANCH   1   2
BRANCH   1  73
ATOM     73  C   UNL     1       5.109  -3.789  -1.885  1.00  0.00     0.116 C 
BRANCH  73  74
ATOM     74  N   UNL     1       6.555  -3.874  -2.024  1.00  0.00    -0.351 N 
ATOM     75  C   UNL     1       7.303  -4.806  -2.716  1.00  0.00     0.261 C 
ATOM     76  H   UNL     1       7.069  -3.172  -1.564  1.00  0.00     0.163 HD
ATOM     77  O   UNL     1       8.522  -4.773  -2.606  1.00  0.00    -0.268 OA
BRANCH  75  78
ATOM     78  C   UNL     1       6.587  -5.770  -3.526  1.00  0.00     0.096 A 
ATOM     79  C   UNL     1       5.624  -5.543  -4.492  1.00  0.00     0.072 A 
ATOM     80  S   UNL     1       6.883  -7.439  -3.310  1.00  0.00    -0.135 S 
ATOM     81  C   UNL     1       4.952  -6.741  -4.854  1.00  0.00     0.131 A 
ATOM     82  C   UNL     1       5.570  -7.852  -4.326  1.00  0.00     0.112 A 
BRANCH  81  83
ATOM     83  O   UNL     1       3.816  -6.910  -5.575  1.00  0.00    -0.488 OA
BRANCH  83  84
ATOM     84  C   UNL     1       3.107  -5.726  -5.941  1.00  0.00     0.266 C 
BRANCH  84  85
ATOM     85  C   UNL     1       2.488  -4.921  -4.803  1.00  0.00     0.001 A 
ATOM     86  C   UNL     1       2.524  -3.514  -4.915  1.00  0.00     0.008 A 
ATOM     87  C   UNL     1       1.841  -5.497  -3.685  1.00  0.00     0.062 A 
ATOM     88  C   UNL     1       1.968  -2.692  -3.934  1.00  0.00     0.000 A 
ATOM     89  C   UNL     1       1.308  -4.645  -2.694  1.00  0.00     0.013 A 
ATOM     90  C   UNL     1       1.361  -3.257  -2.822  1.00  0.00     0.001 A 
BRANCH  87  91
ATOM     91  C   UNL     1       1.695  -6.993  -3.483  1.00  0.00     0.416 C 
ATOM     92  F   UNL     1       2.784  -7.558  -2.896  1.00  0.00    -0.166 F 
ATOM     93  F   UNL     1       0.646  -7.309  -2.665  1.00  0.00    -0.166 F 
ATOM     94  F   UNL     1       1.460  -7.684  -4.632  1.00  0.00    -0.166 F 
ENDBRANCH  87  91
ENDBRANCH  84  85
ENDBRANCH  83  84
ENDBRANCH  81  83
ENDBRANCH  75  78
ENDBRANCH  73  74
ENDBRANCH   1  73
TORSDOF 18
