REMARK SMILES CN(C)C(=O)c1ccc2c(c1)N(CC(=O)NCCCCNC(=O)c1ccc(-c3c4nc(c(-c5cccc(S(=O)(=O)[O-])c5F)c5ccc([nH]5)c(-c5cccc(S(=O)(=O)[O-])c5F)c5nc(c(-c6cccc(S(=O)(=O)[O-])c6F)c6ccc3[nH]6)C=C5)C=C4)cc1)C(=O)[C@@H]1CCCCN21
REMARK SMILES IDX 19 1 18 2 17 3 16 4 14 5 15 6 13 8 12 9 6 10 7 11 11 12 8 13
REMARK SMILES IDX 10 14 9 15 94 16 87 17 89 18 93 19 88 20 90 21 92 22 91 23
REMARK SMILES IDX 4 24 1 25 2 26 3 27 5 28 20 29 21 30 22 31 23 33 24 34 25 35
REMARK SMILES IDX 86 36 26 37 85 38 27 39 28 40 29 41 79 42 30 43 84 44 78 45
REMARK SMILES IDX 80 46 31 47 83 48 77 49 76 50 32 52 64 53 44 54 63 55 45 56
REMARK SMILES IDX 48 57 62 58 81 59 46 60 47 61 61 63 82 64 49 65 33 66 34 67
REMARK SMILES IDX 42 68 35 69 37 70 43 71 36 72 38 73 39 74 40 75 41 76 65 77
REMARK SMILES IDX 66 78 74 79 67 80 69 81 75 82 68 83 70 84 71 85 72 86 73 87
REMARK SMILES IDX 50 88 51 89 59 90 52 91 54 92 60 93 53 94 55 95 56 96 57 97
REMARK SMILES IDX 58 98
REMARK H PARENT 16 7 21 32 80 51 48 62
REMARK Flexibility Score: inf
ROOT
ATOM      1  C   UNL     1      -1.750   0.384   6.943  1.00  0.00     0.023 C 
ENDROOT
BRANCH   1   2
ATOM      2  C   UNL     1      -2.516  -0.927   6.736  1.00  0.00     0.023 C 
BRANCH   2   3
ATOM      3  C   UNL     1      -3.802  -0.802   5.923  1.00  0.00     0.116 C 
BRANCH   3   4
ATOM      4  N   UNL     1      -3.558  -0.367   4.564  1.00  0.00    -0.355 N 
ATOM      5  C   UNL     1      -3.620  -1.077   3.404  1.00  0.00     0.240 C 
ATOM      6  O   UNL     1      -3.534  -0.445   2.346  1.00  0.00    -0.273 OA
ATOM      7  H   UNL     1      -3.311   0.580   4.464  1.00  0.00     0.163 HD
BRANCH   5   8
ATOM      8  C   UNL     1      -3.907  -2.585   3.384  1.00  0.00     0.225 C 
BRANCH   8   9
ATOM      9  N   UNL     1      -3.007  -3.451   4.154  1.00  0.00    -0.299 N 
ATOM     10  C   UNL     1       0.276  -2.843   2.456  1.00  0.00     0.042 A 
ATOM     11  C   UNL     1       1.146  -3.539   3.279  1.00  0.00     0.016 A 
ATOM     12  C   UNL     1      -1.094  -2.853   2.720  1.00  0.00     0.042 A 
ATOM     13  C   UNL     1       0.641  -4.221   4.388  1.00  0.00     0.029 A 
ATOM     14  C   UNL     1      -1.611  -3.523   3.847  1.00  0.00     0.069 A 
ATOM     15  C   UNL     1      -0.734  -4.241   4.705  1.00  0.00     0.062 A 
ATOM     16  N   UNL     1      -1.207  -4.937   5.815  1.00  0.00    -0.358 N 
ATOM     17  C   UNL     1      -3.558  -4.213   5.174  1.00  0.00     0.250 C 
ATOM     18  C   UNL     1      -2.650  -5.205   5.909  1.00  0.00     0.172 C 
ATOM     19  C   UNL     1      -0.339  -5.311   6.937  1.00  0.00     0.117 C 
ATOM     20  O   UNL     1      -4.765  -4.164   5.440  1.00  0.00    -0.272 OA
ATOM     21  C   UNL     1      -3.075  -5.252   7.382  1.00  0.00     0.035 C 
ATOM     22  C   UNL     1      -0.888  -6.458   7.787  1.00  0.00     0.022 C 
ATOM     23  C   UNL     1      -2.375  -6.387   8.105  1.00  0.00     0.004 C 
BRANCH  10  24
ATOM     24  C   UNL     1       0.817  -2.156   1.264  1.00  0.00     0.253 C 
ATOM     25  C   UNL     1       1.005  -0.165  -0.134  1.00  0.00     0.146 C 
ATOM     26  N   UNL     1       0.580  -0.794   1.103  1.00  0.00    -0.345 N 
ATOM     27  C   UNL     1       0.036   0.090   2.125  1.00  0.00     0.146 C 
ATOM     28  O   UNL     1       1.459  -2.837   0.466  1.00  0.00    -0.269 OA
ENDBRANCH  10  24
ENDBRANCH   8   9
ENDBRANCH   5   8
ENDBRANCH   3   4
ENDBRANCH   2   3
ENDBRANCH   1   2
BRANCH   1  29
ATOM     29  C   UNL     1      -2.551   1.538   7.542  1.00  0.00     0.116 C 
BRANCH  29  30
ATOM     30  N   UNL     1      -3.134   1.238   8.840  1.00  0.00    -0.352 N 
ATOM     31  C   UNL     1      -3.285   2.071   9.927  1.00  0.00     0.251 C 
ATOM     32  H   UNL     1      -3.465   0.318   8.958  1.00  0.00     0.163 HD
ATOM     33  O   UNL     1      -3.732   1.631  10.982  1.00  0.00    -0.269 OA
BRANCH  31  34
ATOM     34  C   UNL     1      -2.851   3.483   9.826  1.00  0.00     0.039 A 
ATOM     35  C   UNL     1      -3.231   4.270   8.736  1.00  0.00     0.014 A 
ATOM     36  C   UNL     1      -1.996   4.000  10.803  1.00  0.00     0.014 A 
ATOM     37  C   UNL     1      -2.616   5.502   8.531  1.00  0.00     0.010 A 
ATOM     38  C   UNL     1      -1.434   5.269  10.630  1.00  0.00     0.010 A 
ATOM     39  C   UNL     1      -1.690   6.003   9.461  1.00  0.00    -0.014 A 
BRANCH  39  40
ATOM     40  C   UNL     1      -0.968   7.269   9.171  1.00  0.00     0.031 A 
ATOM     41  C   UNL     1       0.522   7.267   8.939  1.00  0.00     0.074 A 
ATOM     42  C   UNL     1      -1.658   8.421   9.065  1.00  0.00     0.049 A 
ATOM     43  N   UNL     1       1.311   8.271   8.653  1.00  0.00    -0.248 NA
ATOM     44  C   UNL     1       1.220   5.973   9.039  1.00  0.00     0.031 C 
ATOM     45  C   UNL     1      -3.100   8.561   9.274  1.00  0.00     0.029 A 
ATOM     46  N   UNL     1      -1.242   9.689   8.744  1.00  0.00    -0.354 N 
ATOM     47  C   UNL     1       2.594   7.744   8.582  1.00  0.00     0.074 A 
ATOM     48  C   UNL     1       2.485   6.328   8.855  1.00  0.00     0.031 C 
ATOM     49  C   UNL     1      -3.455   9.833   9.038  1.00  0.00     0.029 A 
ATOM     50  C   UNL     1      -2.264  10.608   8.705  1.00  0.00     0.049 A 
ATOM     51  H   UNL     1      -0.303   9.918   8.559  1.00  0.00     0.167 HD
ATOM     52  C   UNL     1       3.756   8.374   8.293  1.00  0.00     0.034 A 
ATOM     53  C   UNL     1      -2.247  11.928   8.437  1.00  0.00     0.034 A 
ATOM     54  C   UNL     1       3.865   9.767   7.956  1.00  0.00     0.049 A 
ATOM     55  C   UNL     1      -0.946  12.601   8.107  1.00  0.00     0.074 A 
ATOM     56  C   UNL     1       4.998  10.476   7.599  1.00  0.00     0.029 A 
ATOM     57  N   UNL     1       2.806  10.659   7.924  1.00  0.00    -0.354 N 
ATOM     58  N   UNL     1       0.243  12.067   7.974  1.00  0.00    -0.248 NA
ATOM     59  C   UNL     1      -0.984  14.053   7.879  1.00  0.00     0.031 C 
ATOM     60  C   UNL     1       4.624  11.800   7.350  1.00  0.00     0.029 A 
ATOM     61  C   UNL     1       3.258  11.913   7.554  1.00  0.00     0.049 A 
ATOM     62  H   UNL     1       1.871  10.434   8.134  1.00  0.00     0.167 HD
ATOM     63  C   UNL     1       1.094  13.114   7.643  1.00  0.00     0.074 A 
ATOM     64  C   UNL     1       0.281  14.310   7.569  1.00  0.00     0.031 C 
ATOM     65  C   UNL     1       2.433  13.086   7.442  1.00  0.00     0.034 A 
BRANCH  52  66
ATOM     66  C   UNL     1       5.016   7.554   8.263  1.00  0.00     0.023 A 
ATOM     67  C   UNL     1       5.315   6.801   7.111  1.00  0.00     0.012 A 
ATOM     68  C   UNL     1       5.944   7.608   9.321  1.00  0.00     0.148 A 
ATOM     69  C   UNL     1       6.519   6.105   7.013  1.00  0.00     0.002 A 
ATOM     70  C   UNL     1       7.153   6.932   9.206  1.00  0.00     0.091 A 
ATOM     71  F   UNL     1       5.628   8.320  10.411  1.00  0.00    -0.205 F 
ATOM     72  C   UNL     1       7.441   6.178   8.055  1.00  0.00     0.022 A 
BRANCH  70  73
ATOM     73  S   UNL     1       8.431   6.999  10.468  1.00  0.00     0.127 S 
ATOM     74  O   UNL     1       8.436   5.619  10.952  1.00  0.00    -0.237 OA
ATOM     75  O   UNL     1       9.610   7.377   9.690  1.00  0.00    -0.237 OA
ATOM     76  O   UNL     1       7.990   7.994  11.435  1.00  0.00    -0.744 OA
ENDBRANCH  70  73
ENDBRANCH  52  66
BRANCH  53  77
ATOM     77  C   UNL     1      -3.530  12.681   8.421  1.00  0.00     0.023 A 
ATOM     78  C   UNL     1      -4.091  13.053   7.185  1.00  0.00     0.012 A 
ATOM     79  C   UNL     1      -4.230  12.955   9.611  1.00  0.00     0.148 A 
ATOM     80  C   UNL     1      -5.332  13.688   7.135  1.00  0.00     0.002 A 
ATOM     81  C   UNL     1      -5.485  13.548   9.551  1.00  0.00     0.091 A 
ATOM     82  F   UNL     1      -3.666  12.599  10.773  1.00  0.00    -0.205 F 
ATOM     83  C   UNL     1      -6.034  13.924   8.315  1.00  0.00     0.022 A 
BRANCH  81  84
ATOM     84  S   UNL     1      -6.513  13.784  11.004  1.00  0.00     0.127 S 
ATOM     85  O   UNL     1      -6.567  15.241  11.097  1.00  0.00    -0.237 OA
ATOM     86  O   UNL     1      -7.764  13.146  10.592  1.00  0.00    -0.237 OA
ATOM     87  O   UNL     1      -5.821  13.110  12.093  1.00  0.00    -0.744 OA
ENDBRANCH  81  84
ENDBRANCH  53  77
BRANCH  65  88
ATOM     88  C   UNL     1       3.125  14.383   7.130  1.00  0.00     0.023 A 
ATOM     89  C   UNL     1       3.443  15.258   8.186  1.00  0.00     0.012 A 
ATOM     90  C   UNL     1       3.564  14.676   5.824  1.00  0.00     0.148 A 
ATOM     91  C   UNL     1       4.184  16.413   7.946  1.00  0.00     0.002 A 
ATOM     92  C   UNL     1       4.328  15.814   5.598  1.00  0.00     0.091 A 
ATOM     93  F   UNL     1       3.237  13.830   4.836  1.00  0.00    -0.205 F 
ATOM     94  C   UNL     1       4.636  16.686   6.656  1.00  0.00     0.022 A 
BRANCH  92  95
ATOM     95  S   UNL     1       5.016  16.214   3.987  1.00  0.00     0.127 S 
ATOM     96  O   UNL     1       4.244  17.400   3.620  1.00  0.00    -0.237 OA
ATOM     97  O   UNL     1       6.420  16.473   4.306  1.00  0.00    -0.237 OA
ATOM     98  O   UNL     1       4.790  15.043   3.151  1.00  0.00    -0.744 OA
ENDBRANCH  92  95
ENDBRANCH  65  88
ENDBRANCH  39  40
ENDBRANCH  31  34
ENDBRANCH  29  30
ENDBRANCH   1  29
TORSDOF 16
