REMARK SMILES O=C(NCCCCNC(=O)c1ccc(-c2c3nc(c(-c4cccc(S(=O)(=O)[O-])c4F)c4ccc([nH]4)c(-c4cccc(S(=O)(=O)[O-])c4F)c4nc(c(-c5cccc(S(=O)(=O)[O-])c5F)c5ccc2[nH]5)C=C4)C=C3)cc1)c1ccc(C(=O)Nc2ccc(-c3nc4ccccc4[nH]3)cc2)cc1
REMARK SMILES IDX 5 1 4 2 3 3 1 4 2 5 74 7 75 8 97 9 76 10 96 11 77 12 78 13
REMARK SMILES IDX 79 14 80 15 81 17 82 18 95 19 83 20 94 21 84 22 85 23 86 24
REMARK SMILES IDX 93 25 87 26 92 27 88 29 91 30 89 31 90 32 6 33 7 34 8 35
REMARK SMILES IDX 9 36 10 38 11 39 12 40 73 41 13 42 72 43 14 44 15 45 16 46
REMARK SMILES IDX 66 47 17 48 71 49 65 50 67 51 18 52 70 53 64 54 63 55 19 57
REMARK SMILES IDX 51 58 31 59 50 60 32 61 35 62 49 63 68 64 33 65 34 66 48 68
REMARK SMILES IDX 69 69 36 70 20 71 21 72 29 73 22 74 24 75 30 76 23 77 25 78
REMARK SMILES IDX 26 79 27 80 28 81 52 82 53 83 61 84 54 85 56 86 62 87 55 88
REMARK SMILES IDX 57 89 58 90 59 91 60 92 37 93 38 94 46 95 39 96 41 97 47 98
REMARK SMILES IDX 40 99 42 100 43 101 44 102 45 103
REMARK H PARENT 3 6 80 16 93 28 8 37 67 56 35 67
REMARK Flexibility Score: inf
ROOT
ATOM      1  C   UNL     1       4.946   0.648   2.425  1.00  0.00     0.023 C 
ENDROOT
BRANCH   1   2
ATOM      2  C   UNL     1       4.651  -0.243   1.224  1.00  0.00     0.116 C 
BRANCH   2   3
ATOM      3  N   UNL     1       3.235  -0.504   1.036  1.00  0.00    -0.352 N 
ATOM      4  O   UNL     1       1.216  -0.464   0.044  1.00  0.00    -0.269 OA
ATOM      5  C   UNL     1       2.422  -0.261  -0.042  1.00  0.00     0.251 C 
ATOM      6  H   UNL     1       2.787  -0.923   1.806  1.00  0.00     0.163 HD
BRANCH   5   7
ATOM      7  C   UNL     1       2.972   0.295  -1.300  1.00  0.00     0.039 A 
ATOM      8  C   UNL     1       4.163  -0.156  -1.874  1.00  0.00     0.014 A 
ATOM      9  C   UNL     1       2.233   1.282  -1.949  1.00  0.00     0.014 A 
ATOM     10  C   UNL     1       4.697   0.500  -2.989  1.00  0.00     0.014 A 
ATOM     11  C   UNL     1       2.728   1.871  -3.115  1.00  0.00     0.014 A 
ATOM     12  C   UNL     1       4.007   1.560  -3.596  1.00  0.00     0.040 A 
BRANCH  12  13
ATOM     13  C   UNL     1       4.642   2.221  -4.787  1.00  0.00     0.255 C 
ATOM     14  O   UNL     1       5.553   1.636  -5.375  1.00  0.00    -0.269 OA
ATOM     15  N   UNL     1       4.173   3.408  -5.320  1.00  0.00    -0.322 N 
ATOM     16  H   UNL     1       4.427   3.577  -6.256  1.00  0.00     0.170 HD
BRANCH  15  17
ATOM     17  C   UNL     1       3.390   4.403  -4.726  1.00  0.00     0.041 A 
ATOM     18  C   UNL     1       2.340   4.952  -5.467  1.00  0.00     0.027 A 
ATOM     19  C   UNL     1       3.583   4.792  -3.403  1.00  0.00     0.027 A 
ATOM     20  C   UNL     1       1.383   5.759  -4.835  1.00  0.00     0.014 A 
ATOM     21  C   UNL     1       2.649   5.622  -2.788  1.00  0.00     0.014 A 
ATOM     22  C   UNL     1       1.511   6.072  -3.476  1.00  0.00     0.017 A 
BRANCH  22  23
ATOM     23  C   UNL     1       0.508   6.814  -2.711  1.00  0.00     0.138 A 
ATOM     24  N   UNL     1       0.757   7.444  -1.578  1.00  0.00    -0.229 NA
ATOM     25  N   UNL     1      -0.843   6.856  -2.986  1.00  0.00    -0.338 N 
ATOM     26  C   UNL     1      -0.453   7.840  -1.082  1.00  0.00     0.089 A 
ATOM     27  C   UNL     1      -1.481   7.490  -1.946  1.00  0.00     0.066 A 
ATOM     28  H   UNL     1      -1.277   6.494  -3.792  1.00  0.00     0.168 HD
ATOM     29  C   UNL     1      -0.745   8.487   0.124  1.00  0.00     0.030 A 
ATOM     30  C   UNL     1      -2.825   7.761  -1.674  1.00  0.00     0.028 A 
ATOM     31  C   UNL     1      -2.082   8.765   0.426  1.00  0.00     0.002 A 
ATOM     32  C   UNL     1      -3.101   8.409  -0.461  1.00  0.00     0.002 A 
ENDBRANCH  22  23
ENDBRANCH  15  17
ENDBRANCH  12  13
ENDBRANCH   5   7
ENDBRANCH   2   3
ENDBRANCH   1   2
BRANCH   1  33
ATOM     33  C   UNL     1       4.479   0.109   3.774  1.00  0.00     0.023 C 
BRANCH  33  34
ATOM     34  C   UNL     1       4.889  -1.325   4.083  1.00  0.00     0.116 C 
BRANCH  34  35
ATOM     35  N   UNL     1       6.330  -1.525   4.062  1.00  0.00    -0.352 N 
ATOM     36  C   UNL     1       7.135  -2.137   4.993  1.00  0.00     0.251 C 
ATOM     37  H   UNL     1       6.794  -1.173   3.269  1.00  0.00     0.163 HD
ATOM     38  O   UNL     1       8.355  -2.099   4.862  1.00  0.00    -0.269 OA
BRANCH  36  39
ATOM     39  C   UNL     1       6.532  -2.814   6.163  1.00  0.00     0.039 A 
ATOM     40  C   UNL     1       7.099  -2.613   7.424  1.00  0.00     0.014 A 
ATOM     41  C   UNL     1       5.412  -3.638   6.024  1.00  0.00     0.014 A 
ATOM     42  C   UNL     1       6.509  -3.195   8.549  1.00  0.00     0.010 A 
ATOM     43  C   UNL     1       4.774  -4.140   7.155  1.00  0.00     0.010 A 
ATOM     44  C   UNL     1       5.324  -3.940   8.429  1.00  0.00    -0.014 A 
BRANCH  44  45
ATOM     45  C   UNL     1       4.667  -4.534   9.623  1.00  0.00     0.031 A 
ATOM     46  C   UNL     1       4.504  -6.029   9.734  1.00  0.00     0.074 A 
ATOM     47  C   UNL     1       4.168  -3.731  10.584  1.00  0.00     0.049 A 
ATOM     48  N   UNL     1       3.936  -6.729  10.681  1.00  0.00    -0.248 NA
ATOM     49  C   UNL     1       5.024  -6.843   8.622  1.00  0.00     0.031 C 
ATOM     50  C   UNL     1       4.185  -2.266  10.558  1.00  0.00     0.029 A 
ATOM     51  N   UNL     1       3.529  -4.032  11.761  1.00  0.00    -0.354 N 
ATOM     52  C   UNL     1       4.012  -8.056  10.273  1.00  0.00     0.074 A 
ATOM     53  C   UNL     1       4.630  -8.060   8.966  1.00  0.00     0.031 C 
ATOM     54  C   UNL     1       3.592  -1.798  11.669  1.00  0.00     0.029 A 
ATOM     55  C   UNL     1       3.127  -2.924  12.472  1.00  0.00     0.049 A 
ATOM     56  H   UNL     1       3.373  -4.954  12.068  1.00  0.00     0.167 HD
ATOM     57  C   UNL     1       3.641  -9.176  10.939  1.00  0.00     0.034 A 
ATOM     58  C   UNL     1       2.454  -2.827  13.635  1.00  0.00     0.034 A 
ATOM     59  C   UNL     1       3.052  -9.174  12.251  1.00  0.00     0.049 A 
ATOM     60  C   UNL     1       2.081  -4.088  14.369  1.00  0.00     0.074 A 
ATOM     61  C   UNL     1       2.684 -10.256  13.031  1.00  0.00     0.029 A 
ATOM     62  N   UNL     1       2.745  -8.035  12.977  1.00  0.00    -0.354 N 
ATOM     63  N   UNL     1       2.286  -5.337  14.026  1.00  0.00    -0.248 NA
ATOM     64  C   UNL     1       1.425  -3.926  15.675  1.00  0.00     0.031 C 
ATOM     65  C   UNL     1       2.136  -9.769  14.223  1.00  0.00     0.029 A 
ATOM     66  C   UNL     1       2.199  -8.386  14.200  1.00  0.00     0.049 A 
ATOM     67  H   UNL     1       2.893  -7.111  12.669  1.00  0.00     0.167 HD
ATOM     68  C   UNL     1       1.830  -6.105  15.091  1.00  0.00     0.074 A 
ATOM     69  C   UNL     1       1.359  -5.179  16.100  1.00  0.00     0.031 C 
ATOM     70  C   UNL     1       1.791  -7.454  15.220  1.00  0.00     0.034 A 
BRANCH  57  71
ATOM     71  C   UNL     1       3.923 -10.504  10.283  1.00  0.00     0.023 A 
ATOM     72  C   UNL     1       5.258 -10.942  10.154  1.00  0.00     0.012 A 
ATOM     73  C   UNL     1       2.879 -11.342   9.847  1.00  0.00     0.148 A 
ATOM     74  C   UNL     1       5.552 -12.172   9.569  1.00  0.00     0.002 A 
ATOM     75  C   UNL     1       3.177 -12.590   9.310  1.00  0.00     0.091 A 
ATOM     76  F   UNL     1       1.617 -10.904   9.962  1.00  0.00    -0.205 F 
ATOM     77  C   UNL     1       4.512 -13.000   9.157  1.00  0.00     0.022 A 
BRANCH  75  78
ATOM     78  S   UNL     1       1.911 -13.768   8.823  1.00  0.00     0.127 S 
ATOM     79  O   UNL     1       2.089 -13.810   7.372  1.00  0.00    -0.237 OA
ATOM     80  O   UNL     1       2.336 -14.979   9.525  1.00  0.00    -0.237 OA
ATOM     81  O   UNL     1       0.645 -13.211   9.278  1.00  0.00    -0.744 OA
ENDBRANCH  75  78
ENDBRANCH  57  71
BRANCH  58  82
ATOM     82  C   UNL     1       2.133  -1.490  14.212  1.00  0.00     0.023 A 
ATOM     83  C   UNL     1       2.760  -1.074  15.404  1.00  0.00     0.012 A 
ATOM     84  C   UNL     1       1.203  -0.634  13.592  1.00  0.00     0.148 A 
ATOM     85  C   UNL     1       2.426   0.145  15.996  1.00  0.00     0.002 A 
ATOM     86  C   UNL     1       0.920   0.605  14.155  1.00  0.00     0.091 A 
ATOM     87  F   UNL     1       0.611  -1.049  12.464  1.00  0.00    -0.205 F 
ATOM     88  C   UNL     1       1.513   0.988  15.368  1.00  0.00     0.022 A 
BRANCH  86  89
ATOM     89  S   UNL     1      -0.142   1.806  13.346  1.00  0.00     0.127 S 
ATOM     90  O   UNL     1      -1.335   1.764  14.187  1.00  0.00    -0.237 OA
ATOM     91  O   UNL     1       0.648   3.033  13.457  1.00  0.00    -0.237 OA
ATOM     92  O   UNL     1      -0.309   1.323  11.982  1.00  0.00    -0.744 OA
ENDBRANCH  86  89
ENDBRANCH  58  82
BRANCH  70  93
ATOM     93  C   UNL     1       1.286  -8.015  16.524  1.00  0.00     0.023 A 
ATOM     94  C   UNL     1      -0.077  -7.908  16.865  1.00  0.00     0.012 A 
ATOM     95  C   UNL     1       2.164  -8.691  17.395  1.00  0.00     0.148 A 
ATOM     96  C   UNL     1      -0.547  -8.418  18.074  1.00  0.00     0.002 A 
ATOM     97  C   UNL     1       1.677  -9.246  18.572  1.00  0.00     0.091 A 
ATOM     98  F   UNL     1       3.462  -8.768  17.064  1.00  0.00    -0.205 F 
ATOM     99  C   UNL     1       0.326  -9.096  18.922  1.00  0.00     0.022 A 
BRANCH  97 100
ATOM    100  S   UNL     1       2.710 -10.221  19.671  1.00  0.00     0.127 S 
ATOM    101  O   UNL     1       2.912  -9.299  20.787  1.00  0.00    -0.237 OA
ATOM    102  O   UNL     1       1.847 -11.364  19.974  1.00  0.00    -0.237 OA
ATOM    103  O   UNL     1       3.905 -10.554  18.908  1.00  0.00    -0.744 OA
ENDBRANCH  97 100
ENDBRANCH  70  93
ENDBRANCH  44  45
ENDBRANCH  36  39
ENDBRANCH  34  35
ENDBRANCH  33  34
ENDBRANCH   1  33
TORSDOF 17
