REMARK SMILES CCc1ccc(C[NH+]2CCC(Oc3ccccc3OC)(C(=O)NCCCCNC(=O)c3ccc(-c4c5nc(c(-c6cccc(S(=O)(=O)[O-])c6F)c6ccc([nH]6)c(-c6cccc(S(=O)(=O)[O-])c6F)c6nc(c(-c7cccc(S(=O)(=O)[O-])c7F)c7ccc4[nH]7)C=C6)C=C5)cc3)CC2)nc1
REMARK SMILES IDX 25 1 24 2 23 3 21 4 22 5 11 7 8 8 9 9 95 10 10 12 94 13 7 14
REMARK SMILES IDX 6 15 3 16 4 17 97 18 5 19 96 20 2 21 1 22 12 23 13 24 14 25
REMARK SMILES IDX 18 26 15 27 17 28 16 29 19 30 20 31 26 32 27 33 28 34 29 35
REMARK SMILES IDX 30 37 31 38 32 39 93 40 33 41 92 42 34 43 35 44 36 45 86 46
REMARK SMILES IDX 37 47 91 48 85 49 87 50 38 51 90 52 84 53 83 54 39 56 71 57
REMARK SMILES IDX 51 58 70 59 52 60 55 61 69 62 88 63 53 64 54 65 68 67 89 68
REMARK SMILES IDX 56 69 40 70 41 71 49 72 42 73 44 74 50 75 43 76 45 77 46 78
REMARK SMILES IDX 47 79 48 80 72 81 73 82 81 83 74 84 76 85 82 86 75 87 77 88
REMARK SMILES IDX 78 89 79 90 80 91 57 92 58 93 66 94 59 95 61 96 67 97 60 98
REMARK SMILES IDX 62 99 63 100 64 101 65 102
REMARK H PARENT 23 6 8 11 28 36 87 55 55 66
REMARK Flexibility Score: inf
ROOT
ATOM      1  C   UNL     1      -4.160  -1.135   6.442  1.00  0.00     0.023 C 
ENDROOT
BRANCH   1   2
ATOM      2  C   UNL     1      -4.106  -2.643   6.665  1.00  0.00     0.116 C 
BRANCH   2   3
ATOM      3  N   UNL     1      -3.185  -3.317   5.771  1.00  0.00    -0.353 N 
ATOM      4  C   UNL     1      -1.972  -3.906   6.009  1.00  0.00     0.264 C 
ATOM      5  O   UNL     1      -1.560  -4.641   5.103  1.00  0.00    -0.270 OA
ATOM      6  H   UNL     1      -3.482  -3.357   4.833  1.00  0.00     0.163 HD
BRANCH   4   7
ATOM      7  C   UNL     1      -1.151  -3.670   7.324  1.00  0.00     0.197 C 
ATOM      8  N   UNL     1       1.501  -2.652   6.529  1.00  0.00    -0.330 N 
ATOM      9  C   UNL     1       0.308  -1.812   6.401  1.00  0.00     0.267 C 
ATOM     10  C   UNL     1       1.168  -4.064   6.288  1.00  0.00     0.267 C 
ATOM     11  H   UNL     1       1.841  -2.572   7.487  1.00  0.00     0.348 HD
ATOM     12  C   UNL     1      -0.721  -2.205   7.445  1.00  0.00     0.120 C 
ATOM     13  C   UNL     1       0.116  -4.560   7.297  1.00  0.00     0.120 C 
BRANCH   8  14
ATOM     14  C   UNL     1       2.605  -2.181   5.653  1.00  0.00     0.319 C 
BRANCH  14  15
ATOM     15  C   UNL     1       2.232  -1.856   4.214  1.00  0.00     0.095 A 
ATOM     16  C   UNL     1       1.144  -1.346   1.725  1.00  0.00    -0.030 A 
ATOM     17  C   UNL     1       1.380  -0.289   2.603  1.00  0.00     0.007 A 
ATOM     18  C   UNL     1       1.508  -2.618   2.157  1.00  0.00     0.115 A 
ATOM     19  C   UNL     1       1.936  -0.540   3.855  1.00  0.00     0.030 A 
ATOM     20  N   UNL     1       2.059  -2.893   3.362  1.00  0.00    -0.255 NA
BRANCH  16  21
ATOM     21  C   UNL     1       0.434  -1.170   0.408  1.00  0.00     0.034 C 
ATOM     22  C   UNL     1       0.855   0.061  -0.383  1.00  0.00     0.009 C 
ENDBRANCH  16  21
ENDBRANCH  14  15
ENDBRANCH   8  14
BRANCH   7  23
ATOM     23  O   UNL     1      -2.111  -3.992   8.359  1.00  0.00    -0.473 OA
BRANCH  23  24
ATOM     24  C   UNL     1      -1.692  -4.387   9.590  1.00  0.00     0.162 A 
ATOM     25  C   UNL     1      -1.611  -5.766   9.810  1.00  0.00     0.050 A 
ATOM     26  C   UNL     1      -1.536  -3.506  10.666  1.00  0.00     0.160 A 
ATOM     27  C   UNL     1      -1.319  -6.265  11.079  1.00  0.00     0.004 A 
ATOM     28  C   UNL     1      -1.226  -4.011  11.933  1.00  0.00     0.050 A 
ATOM     29  C   UNL     1      -1.127  -5.387  12.142  1.00  0.00     0.004 A 
BRANCH  26  30
ATOM     30  O   UNL     1      -1.597  -2.141  10.589  1.00  0.00    -0.493 OA
ATOM     31  C   UNL     1      -2.862  -1.648  10.165  1.00  0.00     0.278 C 
ENDBRANCH  26  30
ENDBRANCH  23  24
ENDBRANCH   7  23
ENDBRANCH   4   7
ENDBRANCH   2   3
ENDBRANCH   1   2
BRANCH   1  32
ATOM     32  C   UNL     1      -4.965  -0.695   5.224  1.00  0.00     0.023 C 
BRANCH  32  33
ATOM     33  C   UNL     1      -6.426  -1.124   5.222  1.00  0.00     0.116 C 
BRANCH  33  34
ATOM     34  N   UNL     1      -7.162  -0.693   6.404  1.00  0.00    -0.352 N 
ATOM     35  C   UNL     1      -8.453  -0.227   6.482  1.00  0.00     0.251 C 
ATOM     36  H   UNL     1      -6.672  -0.743   7.257  1.00  0.00     0.163 HD
ATOM     37  O   UNL     1      -8.898   0.196   7.546  1.00  0.00    -0.269 OA
BRANCH  35  38
ATOM     38  C   UNL     1      -9.284  -0.204   5.260  1.00  0.00     0.039 A 
ATOM     39  C   UNL     1      -9.956   0.972   4.919  1.00  0.00     0.014 A 
ATOM     40  C   UNL     1      -9.345  -1.323   4.425  1.00  0.00     0.014 A 
ATOM     41  C   UNL     1     -10.630   1.049   3.699  1.00  0.00     0.010 A 
ATOM     42  C   UNL     1      -9.945  -1.215   3.176  1.00  0.00     0.010 A 
ATOM     43  C   UNL     1     -10.596  -0.031   2.800  1.00  0.00    -0.014 A 
BRANCH  43  44
ATOM     44  C   UNL     1     -11.217   0.062   1.454  1.00  0.00     0.031 A 
ATOM     45  C   UNL     1     -12.338  -0.868   1.075  1.00  0.00     0.074 A 
ATOM     46  C   UNL     1     -10.704   0.909   0.540  1.00  0.00     0.049 A 
ATOM     47  N   UNL     1     -12.961  -0.982  -0.069  1.00  0.00    -0.248 NA
ATOM     48  C   UNL     1     -12.797  -1.816   2.104  1.00  0.00     0.031 C 
ATOM     49  C   UNL     1      -9.557   1.794   0.756  1.00  0.00     0.029 A 
ATOM     50  N   UNL     1     -11.061   1.143  -0.765  1.00  0.00    -0.354 N 
ATOM     51  C   UNL     1     -13.851  -2.037   0.088  1.00  0.00     0.074 A 
ATOM     52  C   UNL     1     -13.664  -2.553   1.426  1.00  0.00     0.031 C 
ATOM     53  C   UNL     1      -9.305   2.472  -0.375  1.00  0.00     0.029 A 
ATOM     54  C   UNL     1     -10.252   2.054  -1.404  1.00  0.00     0.049 A 
ATOM     55  H   UNL     1     -11.824   0.700  -1.202  1.00  0.00     0.167 HD
ATOM     56  C   UNL     1     -14.764  -2.515  -0.790  1.00  0.00     0.034 A 
ATOM     57  C   UNL     1     -10.266   2.497  -2.676  1.00  0.00     0.034 A 
ATOM     58  C   UNL     1     -14.982  -1.966  -2.101  1.00  0.00     0.049 A 
ATOM     59  C   UNL     1     -11.332   1.995  -3.613  1.00  0.00     0.074 A 
ATOM     60  C   UNL     1     -15.955  -2.306  -3.024  1.00  0.00     0.029 A 
ATOM     61  N   UNL     1     -14.213  -0.969  -2.678  1.00  0.00    -0.354 N 
ATOM     62  N   UNL     1     -12.284   1.123  -3.387  1.00  0.00    -0.248 NA
ATOM     63  C   UNL     1     -11.351   2.566  -4.968  1.00  0.00     0.031 C 
ATOM     64  C   UNL     1     -15.758  -1.529  -4.170  1.00  0.00     0.029 A 
ATOM     65  C   UNL     1     -14.680  -0.687  -3.950  1.00  0.00     0.049 A 
ATOM     66  H   UNL     1     -13.446  -0.525  -2.247  1.00  0.00     0.167 HD
ATOM     67  C   UNL     1     -13.034   1.065  -4.555  1.00  0.00     0.074 A 
ATOM     68  C   UNL     1     -12.439   2.007  -5.480  1.00  0.00     0.031 C 
ATOM     69  C   UNL     1     -14.110   0.290  -4.842  1.00  0.00     0.034 A 
BRANCH  56  70
ATOM     70  C   UNL     1     -15.635  -3.659  -0.341  1.00  0.00     0.023 A 
ATOM     71  C   UNL     1     -16.630  -3.436   0.633  1.00  0.00     0.012 A 
ATOM     72  C   UNL     1     -15.508  -4.938  -0.918  1.00  0.00     0.148 A 
ATOM     73  C   UNL     1     -17.460  -4.474   1.053  1.00  0.00     0.002 A 
ATOM     74  C   UNL     1     -16.370  -5.956  -0.527  1.00  0.00     0.091 A 
ATOM     75  F   UNL     1     -14.542  -5.138  -1.825  1.00  0.00    -0.205 F 
ATOM     76  C   UNL     1     -17.337  -5.730   0.466  1.00  0.00     0.022 A 
BRANCH  74  77
ATOM     77  S   UNL     1     -16.346  -7.586  -1.281  1.00  0.00     0.127 S 
ATOM     78  O   UNL     1     -15.779  -8.400  -0.207  1.00  0.00    -0.237 OA
ATOM     79  O   UNL     1     -17.765  -7.826  -1.543  1.00  0.00    -0.237 OA
ATOM     80  O   UNL     1     -15.521  -7.463  -2.475  1.00  0.00    -0.744 OA
ENDBRANCH  74  77
ENDBRANCH  56  70
BRANCH  57  81
ATOM     81  C   UNL     1      -9.278   3.522  -3.116  1.00  0.00     0.023 A 
ATOM     82  C   UNL     1      -9.714   4.836  -3.378  1.00  0.00     0.012 A 
ATOM     83  C   UNL     1      -7.909   3.216  -3.239  1.00  0.00     0.148 A 
ATOM     84  C   UNL     1      -8.810   5.818  -3.786  1.00  0.00     0.002 A 
ATOM     85  C   UNL     1      -7.005   4.212  -3.591  1.00  0.00     0.091 A 
ATOM     86  F   UNL     1      -7.515   1.958  -2.995  1.00  0.00    -0.205 F 
ATOM     87  C   UNL     1      -7.456   5.509  -3.882  1.00  0.00     0.022 A 
BRANCH  85  88
ATOM     88  S   UNL     1      -5.230   3.940  -3.606  1.00  0.00     0.127 S 
ATOM     89  O   UNL     1      -4.933   3.973  -5.036  1.00  0.00    -0.237 OA
ATOM     90  O   UNL     1      -4.740   5.093  -2.849  1.00  0.00    -0.237 OA
ATOM     91  O   UNL     1      -5.022   2.659  -2.945  1.00  0.00    -0.744 OA
ENDBRANCH  85  88
ENDBRANCH  57  81
BRANCH  69  92
ATOM     92  C   UNL     1     -14.743   0.445  -6.200  1.00  0.00     0.023 A 
ATOM     93  C   UNL     1     -14.086  -0.057  -7.341  1.00  0.00     0.012 A 
ATOM     94  C   UNL     1     -16.024   1.015  -6.334  1.00  0.00     0.148 A 
ATOM     95  C   UNL     1     -14.682   0.034  -8.598  1.00  0.00     0.002 A 
ATOM     96  C   UNL     1     -16.633   1.057  -7.582  1.00  0.00     0.091 A 
ATOM     97  F   UNL     1     -16.625   1.504  -5.239  1.00  0.00    -0.205 F 
ATOM     98  C   UNL     1     -15.959   0.578  -8.717  1.00  0.00     0.022 A 
BRANCH  96  99
ATOM     99  S   UNL     1     -18.313   1.650  -7.814  1.00  0.00     0.127 S 
ATOM    100  O   UNL     1     -18.087   2.936  -8.471  1.00  0.00    -0.237 OA
ATOM    101  O   UNL     1     -18.891   0.618  -8.676  1.00  0.00    -0.237 OA
ATOM    102  O   UNL     1     -18.900   1.721  -6.483  1.00  0.00    -0.744 OA
ENDBRANCH  96  99
ENDBRANCH  69  92
ENDBRANCH  43  44
ENDBRANCH  35  38
ENDBRANCH  33  34
ENDBRANCH  32  33
ENDBRANCH   1  32
TORSDOF 20
