REMARK SMILES CC1(C)CSC[C@H]([NH2+][C@H](C(=O)NCCCCNC(=O)c2ccc(-c3c4nc(c(-c5cccc(S(=O)(=O)[O-])c5F)c5ccc([nH]5)c(-c5cccc(S(=O)(=O)[O-])c5F)c5nc(c(-c6cccc(S(=O)(=O)[O-])c6F)c6ccc3[nH]6)C=C5)C=C4)cc2)c2ccccc2)C1
REMARK SMILES IDX 15 1 14 2 13 3 12 4 10 5 11 6 9 8 8 9 7 12 1 13 2 14 3 15
REMARK SMILES IDX 4 16 89 17 5 18 6 19 83 20 84 21 88 22 85 23 87 24 86 25
REMARK SMILES IDX 16 26 17 27 18 28 19 30 20 31 21 32 82 33 22 34 81 35 23 36
REMARK SMILES IDX 24 37 25 38 75 39 26 40 80 41 74 42 76 43 27 44 79 45 73 46
REMARK SMILES IDX 72 47 28 49 60 50 40 51 59 52 41 53 44 54 58 55 77 56 42 57
REMARK SMILES IDX 43 58 57 60 78 61 45 62 29 63 30 64 38 65 31 66 33 67 39 68
REMARK SMILES IDX 32 69 34 70 35 71 36 72 37 73 61 74 62 75 70 76 63 77 65 78
REMARK SMILES IDX 71 79 64 80 66 81 67 82 68 83 69 84 46 85 47 86 55 87 48 88
REMARK SMILES IDX 50 89 56 90 49 91 51 92 52 93 53 94 54 95
REMARK H PARENT 12 7 8 10 8 11 17 29 76 48 44 59
REMARK Flexibility Score: inf
ROOT
ATOM      1  C   UNL     1       0.561  -1.217   3.785  1.00  0.00     0.023 C 
ENDROOT
BRANCH   1   2
ATOM      2  C   UNL     1       1.450  -2.468   3.796  1.00  0.00     0.023 C 
BRANCH   2   3
ATOM      3  C   UNL     1       0.886  -3.655   3.016  1.00  0.00     0.116 C 
BRANCH   3   4
ATOM      4  N   UNL     1       0.722  -3.306   1.621  1.00  0.00    -0.351 N 
ATOM      5  C   UNL     1       1.064  -3.976   0.487  1.00  0.00     0.283 C 
ATOM      6  O   UNL     1       0.940  -3.340  -0.565  1.00  0.00    -0.268 OA
ATOM      7  H   UNL     1       0.288  -2.436   1.466  1.00  0.00     0.163 HD
BRANCH   5   8
ATOM      8  C   UNL     1       1.523  -5.461   0.536  1.00  0.00     0.304 C 
BRANCH   8   9
ATOM      9  N   UNL     1       0.429  -6.474   0.592  1.00  0.00    -0.329 N 
ATOM     10  H   UNL     1       0.346  -6.869  -0.345  1.00  0.00     0.347 HD
ATOM     11  H   UNL     1       0.728  -7.100   1.340  1.00  0.00     0.347 HD
BRANCH   9  12
ATOM     12  C   UNL     1      -0.927  -6.075   1.008  1.00  0.00     0.193 C 
ATOM     13  C   UNL     1      -3.172  -6.709   3.244  1.00  0.00     0.012 C 
ATOM     14  C   UNL     1      -3.158  -7.240   1.796  1.00  0.00    -0.021 C 
ATOM     15  C   UNL     1      -3.813  -8.640   1.804  1.00  0.00     0.012 C 
ATOM     16  C   UNL     1      -4.014  -6.346   0.876  1.00  0.00     0.076 C 
ATOM     17  C   UNL     1      -1.695  -7.394   1.290  1.00  0.00     0.073 C 
ATOM     18  S   UNL     1      -3.301  -4.715   0.558  1.00  0.00    -0.155 SA
ATOM     19  C   UNL     1      -1.693  -5.271  -0.062  1.00  0.00     0.134 C 
ENDBRANCH   9  12
ENDBRANCH   8   9
BRANCH   8  20
ATOM     20  C   UNL     1       2.436  -5.768  -0.659  1.00  0.00     0.019 A 
ATOM     21  C   UNL     1       3.788  -6.089  -0.477  1.00  0.00     0.010 A 
ATOM     22  C   UNL     1       1.940  -5.676  -1.975  1.00  0.00     0.010 A 
ATOM     23  C   UNL     1       4.625  -6.276  -1.582  1.00  0.00     0.001 A 
ATOM     24  C   UNL     1       2.777  -5.855  -3.074  1.00  0.00     0.001 A 
ATOM     25  C   UNL     1       4.122  -6.149  -2.877  1.00  0.00     0.000 A 
ENDBRANCH   8  20
ENDBRANCH   5   8
ENDBRANCH   3   4
ENDBRANCH   2   3
ENDBRANCH   1   2
BRANCH   1  26
ATOM     26  C   UNL     1      -0.853  -1.430   4.316  1.00  0.00     0.116 C 
BRANCH  26  27
ATOM     27  N   UNL     1      -0.849  -1.833   5.715  1.00  0.00    -0.352 N 
ATOM     28  C   UNL     1      -1.415  -1.206   6.796  1.00  0.00     0.251 C 
ATOM     29  H   UNL     1      -0.374  -2.673   5.913  1.00  0.00     0.163 HD
ATOM     30  O   UNL     1      -1.123  -1.567   7.937  1.00  0.00    -0.269 OA
BRANCH  28  31
ATOM     31  C   UNL     1      -2.362  -0.091   6.589  1.00  0.00     0.039 A 
ATOM     32  C   UNL     1      -2.229   1.068   7.358  1.00  0.00     0.014 A 
ATOM     33  C   UNL     1      -3.378  -0.189   5.634  1.00  0.00     0.014 A 
ATOM     34  C   UNL     1      -3.080   2.151   7.128  1.00  0.00     0.010 A 
ATOM     35  C   UNL     1      -4.173   0.918   5.354  1.00  0.00     0.010 A 
ATOM     36  C   UNL     1      -4.038   2.098   6.102  1.00  0.00    -0.014 A 
BRANCH  36  37
ATOM     37  C   UNL     1      -4.899   3.268   5.787  1.00  0.00     0.031 A 
ATOM     38  C   UNL     1      -6.394   3.174   5.934  1.00  0.00     0.074 A 
ATOM     39  C   UNL     1      -4.341   4.389   5.288  1.00  0.00     0.049 A 
ATOM     40  N   UNL     1      -7.307   4.072   5.667  1.00  0.00    -0.248 NA
ATOM     41  C   UNL     1      -6.937   1.895   6.420  1.00  0.00     0.031 C 
ATOM     42  C   UNL     1      -2.912   4.581   5.031  1.00  0.00     0.029 A 
ATOM     43  N   UNL     1      -4.911   5.571   4.885  1.00  0.00    -0.354 N 
ATOM     44  C   UNL     1      -8.529   3.457   5.913  1.00  0.00     0.074 A 
ATOM     45  C   UNL     1      -8.243   2.099   6.320  1.00  0.00     0.031 C 
ATOM     46  C   UNL     1      -2.716   5.810   4.527  1.00  0.00     0.029 A 
ATOM     47  C   UNL     1      -4.005   6.481   4.391  1.00  0.00     0.049 A 
ATOM     48  H   UNL     1      -5.877   5.751   4.945  1.00  0.00     0.167 HD
ATOM     49  C   UNL     1      -9.776   3.981   5.833  1.00  0.00     0.034 A 
ATOM     50  C   UNL     1      -4.191   7.713   3.878  1.00  0.00     0.034 A 
ATOM     51  C   UNL     1     -10.054   5.342   5.462  1.00  0.00     0.049 A 
ATOM     52  C   UNL     1      -5.585   8.278   3.819  1.00  0.00     0.074 A 
ATOM     53  C   UNL     1     -11.273   5.996   5.442  1.00  0.00     0.029 A 
ATOM     54  N   UNL     1      -9.105   6.254   5.028  1.00  0.00    -0.354 N 
ATOM     55  N   UNL     1      -6.713   7.738   4.214  1.00  0.00    -0.248 NA
ATOM     56  C   UNL     1      -5.728   9.636   3.274  1.00  0.00     0.031 C 
ATOM     57  C   UNL     1     -11.066   7.293   4.961  1.00  0.00     0.029 A 
ATOM     58  C   UNL     1      -9.712   7.460   4.719  1.00  0.00     0.049 A 
ATOM     59  H   UNL     1      -8.140   6.072   4.951  1.00  0.00     0.167 HD
ATOM     60  C   UNL     1      -7.691   8.703   4.004  1.00  0.00     0.074 A 
ATOM     61  C   UNL     1      -7.020   9.867   3.464  1.00  0.00     0.031 C 
ATOM     62  C   UNL     1      -9.027   8.629   4.229  1.00  0.00     0.034 A 
BRANCH  49  63
ATOM     63  C   UNL     1     -10.936   3.086   6.191  1.00  0.00     0.023 A 
ATOM     64  C   UNL     1     -11.126   2.688   7.530  1.00  0.00     0.012 A 
ATOM     65  C   UNL     1     -11.863   2.677   5.212  1.00  0.00     0.148 A 
ATOM     66  C   UNL     1     -12.194   1.863   7.883  1.00  0.00     0.002 A 
ATOM     67  C   UNL     1     -12.953   1.896   5.580  1.00  0.00     0.091 A 
ATOM     68  F   UNL     1     -11.658   3.048   3.941  1.00  0.00    -0.205 F 
ATOM     69  C   UNL     1     -13.111   1.476   6.911  1.00  0.00     0.022 A 
BRANCH  67  70
ATOM     70  S   UNL     1     -14.236   1.415   4.418  1.00  0.00     0.127 S 
ATOM     71  O   UNL     1     -13.974  -0.015   4.265  1.00  0.00    -0.237 OA
ATOM     72  O   UNL     1     -15.457   1.734   5.160  1.00  0.00    -0.237 OA
ATOM     73  O   UNL     1     -14.022   2.222   3.226  1.00  0.00    -0.744 OA
ENDBRANCH  67  70
ENDBRANCH  49  63
BRANCH  50  74
ATOM     74  C   UNL     1      -3.020   8.528   3.445  1.00  0.00     0.023 A 
ATOM     75  C   UNL     1      -2.661   9.667   4.191  1.00  0.00     0.012 A 
ATOM     76  C   UNL     1      -2.254   8.176   2.317  1.00  0.00     0.148 A 
ATOM     77  C   UNL     1      -1.581  10.461   3.804  1.00  0.00     0.002 A 
ATOM     78  C   UNL     1      -1.146   8.940   1.969  1.00  0.00     0.091 A 
ATOM     79  F   UNL     1      -2.616   7.093   1.616  1.00  0.00    -0.205 F 
ATOM     80  C   UNL     1      -0.819  10.094   2.699  1.00  0.00     0.022 A 
BRANCH  78  81
ATOM     81  S   UNL     1      -0.031   8.477   0.639  1.00  0.00     0.127 S 
ATOM     82  O   UNL     1      -0.279   9.532  -0.340  1.00  0.00    -0.237 OA
ATOM     83  O   UNL     1       1.271   8.544   1.302  1.00  0.00    -0.237 OA
ATOM     84  O   UNL     1      -0.433   7.136   0.237  1.00  0.00    -0.744 OA
ENDBRANCH  78  81
ENDBRANCH  50  74
BRANCH  62  85
ATOM     85  C   UNL     1      -9.855   9.854   3.938  1.00  0.00     0.023 A 
ATOM     86  C   UNL     1     -10.090  10.247   2.606  1.00  0.00     0.012 A 
ATOM     87  C   UNL     1     -10.462  10.572   4.988  1.00  0.00     0.148 A 
ATOM     88  C   UNL     1     -10.886  11.357   2.324  1.00  0.00     0.002 A 
ATOM     89  C   UNL     1     -11.298  11.644   4.697  1.00  0.00     0.091 A 
ATOM     90  F   UNL     1     -10.213  10.194   6.250  1.00  0.00    -0.205 F 
ATOM     91  C   UNL     1     -11.499  12.047   3.368  1.00  0.00     0.022 A 
BRANCH  89  92
ATOM     92  S   UNL     1     -12.209  12.528   5.968  1.00  0.00     0.127 S 
ATOM     93  O   UNL     1     -11.520  13.818   5.986  1.00  0.00    -0.237 OA
ATOM     94  O   UNL     1     -13.561  12.566   5.409  1.00  0.00    -0.237 OA
ATOM     95  O   UNL     1     -12.079  11.735   7.183  1.00  0.00    -0.744 OA
ENDBRANCH  89  92
ENDBRANCH  62  85
ENDBRANCH  36  37
ENDBRANCH  28  31
ENDBRANCH  26  27
ENDBRANCH   1  26
TORSDOF 17
