REMARK SMILES Cc1ccc(Nc2c(Cl)cc(Cl)cc2Cl)c(CC(=O)NCCCCNC(=O)c2ccc(-c3c4nc(c(-c5cccc(S(=O)(=O)[O-])c5F)c5ccc([nH]5)c(-c5cccc(S(=O)(=O)[O-])c5F)c5nc(c(-c6cccc(S(=O)(=O)[O-])c6F)c6ccc3[nH]6)C=C5)C=C4)cc2)c1
REMARK SMILES IDX 22 1 21 2 20 3 18 4 19 5 17 7 16 8 1 9 2 10 3 11 91 12 4 13
REMARK SMILES IDX 5 14 6 15 7 17 8 18 14 19 9 20 10 21 13 22 15 23 11 24 12 25
REMARK SMILES IDX 23 26 24 27 25 28 26 29 27 31 28 32 29 33 90 34 30 35 89 36
REMARK SMILES IDX 31 37 32 38 33 39 83 40 34 41 88 42 82 43 84 44 35 45 87 46
REMARK SMILES IDX 81 47 80 48 36 50 68 51 48 52 67 53 49 54 52 55 66 56 85 57
REMARK SMILES IDX 50 58 51 59 65 61 86 62 53 63 37 64 38 65 46 66 39 67 41 68
REMARK SMILES IDX 47 69 40 70 42 71 43 72 44 73 45 74 69 75 70 76 78 77 71 78
REMARK SMILES IDX 73 79 79 80 72 81 74 82 75 83 76 84 77 85 54 86 55 87 63 88
REMARK SMILES IDX 56 89 58 90 64 91 57 92 59 93 60 94 61 95 62 96
REMARK H PARENT 20 6 6 16 25 30 84 49 52 60
REMARK Flexibility Score: inf
ROOT
ATOM      1  C   UNL     1      -0.223   1.104  -3.077  1.00  0.00     0.023 C 
ENDROOT
BRANCH   1   2
ATOM      2  C   UNL     1      -0.603   2.535  -2.660  1.00  0.00     0.116 C 
BRANCH   2   3
ATOM      3  N   UNL     1      -2.006   2.675  -2.301  1.00  0.00    -0.356 N 
ATOM      4  C   UNL     1      -2.610   2.572  -1.084  1.00  0.00     0.224 C 
ATOM      5  O   UNL     1      -3.843   2.573  -1.028  1.00  0.00    -0.275 OA
ATOM      6  H   UNL     1      -2.611   2.873  -3.052  1.00  0.00     0.163 HD
BRANCH   4   7
ATOM      7  C   UNL     1      -1.796   2.413   0.187  1.00  0.00     0.137 C 
BRANCH   7   8
ATOM      8  C   UNL     1      -1.093   1.077   0.282  1.00  0.00    -0.015 A 
ATOM      9  C   UNL     1       2.563  -0.032   0.232  1.00  0.00     0.044 C 
ATOM     10  C   UNL     1       1.066  -0.077   0.281  1.00  0.00    -0.051 A 
ATOM     11  C   UNL     1       0.394  -1.291   0.159  1.00  0.00     0.005 A 
ATOM     12  C   UNL     1       0.316   1.096   0.384  1.00  0.00     0.009 A 
ATOM     13  C   UNL     1      -1.004  -1.327   0.124  1.00  0.00     0.026 A 
ATOM     14  C   UNL     1      -1.777  -0.154   0.171  1.00  0.00     0.042 A 
BRANCH  14  15
ATOM     15  N   UNL     1      -3.190  -0.207   0.133  1.00  0.00    -0.353 N 
ATOM     16  H   UNL     1      -3.646   0.665   0.096  1.00  0.00     0.167 HD
BRANCH  15  17
ATOM     17  C   UNL     1      -4.041  -1.340   0.141  1.00  0.00     0.076 A 
ATOM     18  C   UNL     1      -4.046  -2.286   1.187  1.00  0.00     0.067 A 
ATOM     19  C   UNL     1      -4.863  -1.602  -0.977  1.00  0.00     0.067 A 
ATOM     20  Cl  UNL     1      -3.178  -2.032   2.665  1.00  0.00    -0.082 Cl
ATOM     21  C   UNL     1      -4.810  -3.455   1.100  1.00  0.00     0.043 A 
ATOM     22  C   UNL     1      -5.633  -2.765  -1.062  1.00  0.00     0.043 A 
ATOM     23  Cl  UNL     1      -4.926  -0.506  -2.315  1.00  0.00    -0.082 Cl
ATOM     24  C   UNL     1      -5.591  -3.690  -0.026  1.00  0.00     0.044 A 
ATOM     25  Cl  UNL     1      -6.514  -5.138  -0.134  1.00  0.00    -0.084 Cl
ENDBRANCH  15  17
ENDBRANCH  14  15
ENDBRANCH   7   8
ENDBRANCH   4   7
ENDBRANCH   2   3
ENDBRANCH   1   2
BRANCH   1  26
ATOM     26  C   UNL     1      -1.066   0.488  -4.192  1.00  0.00     0.023 C 
BRANCH  26  27
ATOM     27  C   UNL     1      -0.891   1.175  -5.532  1.00  0.00     0.116 C 
BRANCH  27  28
ATOM     28  N   UNL     1       0.214   0.661  -6.321  1.00  0.00    -0.352 N 
ATOM     29  C   UNL     1       0.658   1.050  -7.572  1.00  0.00     0.251 C 
ATOM     30  H   UNL     1       0.723  -0.072  -5.904  1.00  0.00     0.163 HD
ATOM     31  O   UNL     1       1.451   0.320  -8.163  1.00  0.00    -0.269 OA
BRANCH  29  32
ATOM     32  C   UNL     1       0.316   2.397  -8.105  1.00  0.00     0.039 A 
ATOM     33  C   UNL     1       1.351   3.129  -8.704  1.00  0.00     0.014 A 
ATOM     34  C   UNL     1      -0.872   3.035  -7.766  1.00  0.00     0.014 A 
ATOM     35  C   UNL     1       1.322   4.519  -8.663  1.00  0.00     0.010 A 
ATOM     36  C   UNL     1      -0.866   4.403  -7.628  1.00  0.00     0.010 A 
ATOM     37  C   UNL     1       0.272   5.128  -7.993  1.00  0.00    -0.014 A 
BRANCH  37  38
ATOM     38  C   UNL     1       0.260   6.507  -7.546  1.00  0.00     0.031 A 
ATOM     39  C   UNL     1      -0.430   7.525  -8.347  1.00  0.00     0.074 A 
ATOM     40  C   UNL     1       0.635   6.755  -6.269  1.00  0.00     0.049 A 
ATOM     41  N   UNL     1      -0.419   8.776  -8.049  1.00  0.00    -0.248 NA
ATOM     42  C   UNL     1      -1.172   7.223  -9.568  1.00  0.00     0.031 C 
ATOM     43  C   UNL     1       0.270   7.892  -5.432  1.00  0.00     0.029 A 
ATOM     44  N   UNL     1       1.629   6.102  -5.530  1.00  0.00    -0.354 N 
ATOM     45  C   UNL     1      -1.415   9.362  -8.788  1.00  0.00     0.074 A 
ATOM     46  C   UNL     1      -1.731   8.411  -9.822  1.00  0.00     0.031 C 
ATOM     47  C   UNL     1       1.191   8.029  -4.466  1.00  0.00     0.029 A 
ATOM     48  C   UNL     1       2.270   7.114  -4.789  1.00  0.00     0.049 A 
ATOM     49  H   UNL     1       1.836   5.140  -5.529  1.00  0.00     0.167 HD
ATOM     50  C   UNL     1      -1.961  10.515  -8.322  1.00  0.00     0.034 A 
ATOM     51  C   UNL     1       3.571   7.477  -5.006  1.00  0.00     0.034 A 
ATOM     52  C   UNL     1      -1.133  11.104  -7.257  1.00  0.00     0.049 A 
ATOM     53  C   UNL     1       3.732   8.937  -5.432  1.00  0.00     0.074 A 
ATOM     54  C   UNL     1      -1.262  11.295  -5.893  1.00  0.00     0.029 A 
ATOM     55  N   UNL     1       0.197  11.377  -7.550  1.00  0.00    -0.354 N 
ATOM     56  N   UNL     1       2.767   9.817  -5.499  1.00  0.00    -0.248 NA
ATOM     57  C   UNL     1       5.000   9.483  -5.912  1.00  0.00     0.031 C 
ATOM     58  C   UNL     1       0.032  11.618  -5.366  1.00  0.00     0.029 A 
ATOM     59  C   UNL     1       0.931  11.679  -6.416  1.00  0.00     0.049 A 
ATOM     60  H   UNL     1       0.574  11.359  -8.460  1.00  0.00     0.167 HD
ATOM     61  C   UNL     1       3.202  10.937  -6.170  1.00  0.00     0.074 A 
ATOM     62  C   UNL     1       4.622  10.687  -6.372  1.00  0.00     0.031 C 
ATOM     63  C   UNL     1       2.360  11.943  -6.579  1.00  0.00     0.034 A 
BRANCH  50  64
ATOM     64  C   UNL     1      -3.310  11.061  -8.740  1.00  0.00     0.023 A 
ATOM     65  C   UNL     1      -3.642  12.365  -8.316  1.00  0.00     0.012 A 
ATOM     66  C   UNL     1      -4.324  10.353  -9.437  1.00  0.00     0.148 A 
ATOM     67  C   UNL     1      -4.896  12.936  -8.569  1.00  0.00     0.002 A 
ATOM     68  C   UNL     1      -5.545  10.953  -9.761  1.00  0.00     0.091 A 
ATOM     69  F   UNL     1      -4.176   9.051  -9.702  1.00  0.00    -0.205 F 
ATOM     70  C   UNL     1      -5.840  12.241  -9.313  1.00  0.00     0.022 A 
BRANCH  68  71
ATOM     71  S   UNL     1      -6.776  10.124 -10.784  1.00  0.00     0.127 S 
ATOM     72  O   UNL     1      -7.777   9.720  -9.798  1.00  0.00    -0.237 OA
ATOM     73  O   UNL     1      -7.210  11.191 -11.688  1.00  0.00    -0.237 OA
ATOM     74  O   UNL     1      -6.074   9.032 -11.449  1.00  0.00    -0.744 OA
ENDBRANCH  68  71
ENDBRANCH  50  64
BRANCH  51  75
ATOM     75  C   UNL     1       4.419   6.333  -5.474  1.00  0.00     0.023 A 
ATOM     76  C   UNL     1       4.534   5.224  -4.599  1.00  0.00     0.012 A 
ATOM     77  C   UNL     1       4.733   6.154  -6.832  1.00  0.00     0.148 A 
ATOM     78  C   UNL     1       4.788   3.943  -5.094  1.00  0.00     0.002 A 
ATOM     79  C   UNL     1       5.008   4.875  -7.315  1.00  0.00     0.091 A 
ATOM     80  F   UNL     1       4.678   7.211  -7.652  1.00  0.00    -0.205 F 
ATOM     81  C   UNL     1       4.986   3.764  -6.458  1.00  0.00     0.022 A 
BRANCH  79  82
ATOM     82  S   UNL     1       5.278   4.581  -9.068  1.00  0.00     0.127 S 
ATOM     83  O   UNL     1       6.734   4.644  -9.152  1.00  0.00    -0.237 OA
ATOM     84  O   UNL     1       4.706   3.249  -9.259  1.00  0.00    -0.237 OA
ATOM     85  O   UNL     1       4.545   5.645  -9.738  1.00  0.00    -0.744 OA
ENDBRANCH  79  82
ENDBRANCH  51  75
BRANCH  63  86
ATOM     86  C   UNL     1       2.811  13.228  -7.279  1.00  0.00     0.023 A 
ATOM     87  C   UNL     1       4.115  13.738  -7.122  1.00  0.00     0.012 A 
ATOM     88  C   UNL     1       1.922  14.032  -8.049  1.00  0.00     0.148 A 
ATOM     89  C   UNL     1       4.560  14.879  -7.804  1.00  0.00     0.002 A 
ATOM     90  C   UNL     1       2.355  15.183  -8.703  1.00  0.00     0.091 A 
ATOM     91  F   UNL     1       0.625  13.721  -8.118  1.00  0.00    -0.205 F 
ATOM     92  C   UNL     1       3.686  15.591  -8.611  1.00  0.00     0.022 A 
BRANCH  90  93
ATOM     93  S   UNL     1       1.244  16.223  -9.666  1.00  0.00     0.127 S 
ATOM     94  O   UNL     1       1.176  17.425  -8.836  1.00  0.00    -0.237 OA
ATOM     95  O   UNL     1       1.989  16.386 -10.915  1.00  0.00    -0.237 OA
ATOM     96  O   UNL     1      -0.002  15.483  -9.795  1.00  0.00    -0.744 OA
ENDBRANCH  90  93
ENDBRANCH  63  86
ENDBRANCH  37  38
ENDBRANCH  29  32
ENDBRANCH  27  28
ENDBRANCH  26  27
ENDBRANCH   1  26
TORSDOF 17
