REMARK SMILES C[C@H](c1ccc(Br)s1)[NH+]1CCC(CC(=O)NCCCCNC(=O)c2ccc(-c3c4nc(c(-c5cccc(S(=O)(=O)[O-])c5F)c5ccc([nH]5)c(-c5cccc(S(=O)(=O)[O-])c5F)c5nc(c(-c6cccc(S(=O)(=O)[O-])c6F)c6ccc3[nH]6)C=C5)C=C4)cc2)CC1
REMARK SMILES IDX 18 1 17 2 16 3 14 4 15 5 13 7 12 8 9 9 10 10 88 11 11 13
REMARK SMILES IDX 87 14 2 15 1 16 3 17 4 18 8 19 5 20 6 21 7 22 19 23 20 24
REMARK SMILES IDX 21 25 22 26 23 28 24 29 25 30 86 31 26 32 85 33 27 34 28 35
REMARK SMILES IDX 29 36 79 37 30 38 84 39 78 40 80 41 31 42 83 43 77 44 76 45
REMARK SMILES IDX 32 47 64 48 44 49 63 50 45 51 48 52 62 53 81 54 46 55 47 56
REMARK SMILES IDX 61 58 82 59 49 60 33 61 34 62 42 63 35 64 37 65 43 66 36 67
REMARK SMILES IDX 38 68 39 69 40 70 41 71 65 72 66 73 74 74 67 75 69 76 75 77
REMARK SMILES IDX 68 78 70 79 71 80 72 81 73 82 50 83 51 84 59 85 52 86 54 87
REMARK SMILES IDX 60 88 53 89 55 90 56 91 57 92 58 93
REMARK H PARENT 16 6 9 12 21 27 80 46 48 57
REMARK Flexibility Score: inf
ROOT
ATOM      1  C   UNL     1      -3.718   3.041   0.364  1.00  0.00     0.023 C 
ENDROOT
BRANCH   1   2
ATOM      2  C   UNL     1      -4.980   2.252   0.766  1.00  0.00     0.116 C 
BRANCH   2   3
ATOM      3  N   UNL     1      -5.543   1.475  -0.335  1.00  0.00    -0.356 N 
ATOM      4  C   UNL     1      -5.578   0.132  -0.597  1.00  0.00     0.220 C 
ATOM      5  O   UNL     1      -6.175  -0.236  -1.614  1.00  0.00    -0.275 OA
ATOM      6  H   UNL     1      -5.983   2.024  -1.023  1.00  0.00     0.163 HD
BRANCH   4   7
ATOM      7  C   UNL     1      -4.893  -0.910   0.296  1.00  0.00     0.104 C 
BRANCH   7   8
ATOM      8  C   UNL     1      -3.412  -1.143  -0.085  1.00  0.00     0.009 C 
ATOM      9  N   UNL     1      -0.623  -1.036   0.913  1.00  0.00    -0.328 N 
ATOM     10  C   UNL     1      -1.167   0.072   0.140  1.00  0.00     0.263 C 
ATOM     11  C   UNL     1      -1.187  -2.303   0.429  1.00  0.00     0.263 C 
ATOM     12  H   UNL     1      -0.916  -0.943   1.885  1.00  0.00     0.348 HD
ATOM     13  C   UNL     1      -2.659   0.120   0.249  1.00  0.00     0.066 C 
ATOM     14  C   UNL     1      -2.729  -2.328   0.610  1.00  0.00     0.066 C 
BRANCH   9  15
ATOM     15  C   UNL     1       0.859  -0.997   1.002  1.00  0.00     0.222 C 
ATOM     16  C   UNL     1       1.201  -0.378   2.368  1.00  0.00     0.082 C 
BRANCH  15  17
ATOM     17  C   UNL     1       1.554  -0.231  -0.123  1.00  0.00     0.063 A 
ATOM     18  C   UNL     1       1.734   1.140  -0.268  1.00  0.00     0.023 A 
ATOM     19  S   UNL     1       2.171  -1.069  -1.493  1.00  0.00    -0.127 S 
ATOM     20  C   UNL     1       2.268   1.499  -1.540  1.00  0.00     0.028 A 
ATOM     21  C   UNL     1       2.548   0.383  -2.283  1.00  0.00     0.070 A 
ATOM     22  Br  UNL     1       3.266   0.455  -4.012  1.00  0.00    -0.039 Br
ENDBRANCH  15  17
ENDBRANCH   9  15
ENDBRANCH   7   8
ENDBRANCH   4   7
ENDBRANCH   2   3
ENDBRANCH   1   2
BRANCH   1  23
ATOM     23  C   UNL     1      -3.903   4.494  -0.033  1.00  0.00     0.023 C 
BRANCH  23  24
ATOM     24  C   UNL     1      -4.311   5.421   1.092  1.00  0.00     0.116 C 
BRANCH  24  25
ATOM     25  N   UNL     1      -3.340   5.499   2.179  1.00  0.00    -0.352 N 
ATOM     26  C   UNL     1      -2.805   6.620   2.784  1.00  0.00     0.251 C 
ATOM     27  H   UNL     1      -3.024   4.635   2.530  1.00  0.00     0.163 HD
ATOM     28  O   UNL     1      -1.943   6.515   3.642  1.00  0.00    -0.269 OA
BRANCH  26  29
ATOM     29  C   UNL     1      -3.259   7.954   2.330  1.00  0.00     0.039 A 
ATOM     30  C   UNL     1      -2.307   8.905   1.958  1.00  0.00     0.014 A 
ATOM     31  C   UNL     1      -4.620   8.206   2.153  1.00  0.00     0.014 A 
ATOM     32  C   UNL     1      -2.719  10.061   1.290  1.00  0.00     0.010 A 
ATOM     33  C   UNL     1      -5.014   9.296   1.392  1.00  0.00     0.010 A 
ATOM     34  C   UNL     1      -4.069  10.230   0.942  1.00  0.00    -0.014 A 
BRANCH  34  35
ATOM     35  C   UNL     1      -4.524  11.346   0.075  1.00  0.00     0.031 A 
ATOM     36  C   UNL     1      -5.561  12.311   0.579  1.00  0.00     0.074 A 
ATOM     37  C   UNL     1      -4.107  11.408  -1.207  1.00  0.00     0.049 A 
ATOM     38  N   UNL     1      -6.172  13.273  -0.061  1.00  0.00    -0.248 NA
ATOM     39  C   UNL     1      -6.000  12.147   1.975  1.00  0.00     0.031 C 
ATOM     40  C   UNL     1      -3.178  10.471  -1.844  1.00  0.00     0.029 A 
ATOM     41  N   UNL     1      -4.439  12.279  -2.215  1.00  0.00    -0.354 N 
ATOM     42  C   UNL     1      -7.094  13.797   0.836  1.00  0.00     0.074 A 
ATOM     43  C   UNL     1      -6.994  13.019   2.051  1.00  0.00     0.031 C 
ATOM     44  C   UNL     1      -3.006  10.823  -3.128  1.00  0.00     0.029 A 
ATOM     45  C   UNL     1      -3.838  11.987  -3.418  1.00  0.00     0.049 A 
ATOM     46  H   UNL     1      -5.050  13.040  -2.090  1.00  0.00     0.167 HD
ATOM     47  C   UNL     1      -7.922  14.855   0.679  1.00  0.00     0.034 A 
ATOM     48  C   UNL     1      -3.950  12.583  -4.622  1.00  0.00     0.034 A 
ATOM     49  C   UNL     1      -7.970  15.666  -0.505  1.00  0.00     0.049 A 
ATOM     50  C   UNL     1      -4.849  13.781  -4.760  1.00  0.00     0.074 A 
ATOM     51  C   UNL     1      -8.677  16.835  -0.720  1.00  0.00     0.029 A 
ATOM     52  N   UNL     1      -7.287  15.388  -1.679  1.00  0.00    -0.354 N 
ATOM     53  N   UNL     1      -5.577  14.375  -3.845  1.00  0.00    -0.248 NA
ATOM     54  C   UNL     1      -4.925  14.406  -6.089  1.00  0.00     0.031 C 
ATOM     55  C   UNL     1      -8.434  17.256  -2.032  1.00  0.00     0.029 A 
ATOM     56  C   UNL     1      -7.570  16.352  -2.631  1.00  0.00     0.049 A 
ATOM     57  H   UNL     1      -6.689  14.618  -1.816  1.00  0.00     0.167 HD
ATOM     58  C   UNL     1      -6.183  15.453  -4.480  1.00  0.00     0.074 A 
ATOM     59  C   UNL     1      -5.714  15.447  -5.851  1.00  0.00     0.031 C 
ATOM     60  C   UNL     1      -7.064  16.354  -3.979  1.00  0.00     0.034 A 
BRANCH  47  61
ATOM     61  C   UNL     1      -8.787  15.237   1.850  1.00  0.00     0.023 A 
ATOM     62  C   UNL     1      -8.192  15.824   2.986  1.00  0.00     0.012 A 
ATOM     63  C   UNL     1     -10.181  15.046   1.822  1.00  0.00     0.148 A 
ATOM     64  C   UNL     1      -8.964  16.178   4.091  1.00  0.00     0.002 A 
ATOM     65  C   UNL     1     -10.950  15.441   2.911  1.00  0.00     0.091 A 
ATOM     66  F   UNL     1     -10.727  14.460   0.746  1.00  0.00    -0.205 F 
ATOM     67  C   UNL     1     -10.343  15.996   4.049  1.00  0.00     0.022 A 
BRANCH  65  68
ATOM     68  S   UNL     1     -12.742  15.311   2.922  1.00  0.00     0.127 S 
ATOM     69  O   UNL     1     -12.948  14.150   3.786  1.00  0.00    -0.237 OA
ATOM     70  O   UNL     1     -13.143  16.589   3.513  1.00  0.00    -0.237 OA
ATOM     71  O   UNL     1     -13.136  15.140   1.531  1.00  0.00    -0.744 OA
ENDBRANCH  65  68
ENDBRANCH  47  61
BRANCH  48  72
ATOM     72  C   UNL     1      -3.133  12.098  -5.770  1.00  0.00     0.023 A 
ATOM     73  C   UNL     1      -2.054  12.882  -6.222  1.00  0.00     0.012 A 
ATOM     74  C   UNL     1      -3.380  10.853  -6.381  1.00  0.00     0.148 A 
ATOM     75  C   UNL     1      -1.249  12.447  -7.275  1.00  0.00     0.002 A 
ATOM     76  C   UNL     1      -2.542  10.401  -7.395  1.00  0.00     0.091 A 
ATOM     77  F   UNL     1      -4.420  10.127  -5.946  1.00  0.00    -0.205 F 
ATOM     78  C   UNL     1      -1.485  11.203  -7.853  1.00  0.00     0.022 A 
BRANCH  76  79
ATOM     79  S   UNL     1      -2.688   8.757  -8.105  1.00  0.00     0.127 S 
ATOM     80  O   UNL     1      -3.201   9.053  -9.440  1.00  0.00    -0.237 OA
ATOM     81  O   UNL     1      -1.303   8.287  -8.066  1.00  0.00    -0.237 OA
ATOM     82  O   UNL     1      -3.593   8.030  -7.225  1.00  0.00    -0.744 OA
ENDBRANCH  76  79
ENDBRANCH  48  72
BRANCH  60  83
ATOM     83  C   UNL     1      -7.588  17.409  -4.915  1.00  0.00     0.023 A 
ATOM     84  C   UNL     1      -8.551  17.056  -5.881  1.00  0.00     0.012 A 
ATOM     85  C   UNL     1      -7.200  18.756  -4.782  1.00  0.00     0.148 A 
ATOM     86  C   UNL     1      -9.104  18.026  -6.716  1.00  0.00     0.002 A 
ATOM     87  C   UNL     1      -7.788  19.724  -5.587  1.00  0.00     0.091 A 
ATOM     88  F   UNL     1      -6.271  19.066  -3.866  1.00  0.00    -0.205 F 
ATOM     89  C   UNL     1      -8.733  19.359  -6.561  1.00  0.00     0.022 A 
BRANCH  87  90
ATOM     90  S   UNL     1      -7.441  21.477  -5.401  1.00  0.00     0.127 S 
ATOM     91  O   UNL     1      -6.668  21.757  -6.610  1.00  0.00    -0.237 OA
ATOM     92  O   UNL     1      -8.783  22.059  -5.386  1.00  0.00    -0.237 OA
ATOM     93  O   UNL     1      -6.710  21.611  -4.149  1.00  0.00    -0.744 OA
ENDBRANCH  87  90
ENDBRANCH  60  83
ENDBRANCH  34  35
ENDBRANCH  26  29
ENDBRANCH  24  25
ENDBRANCH  23  24
ENDBRANCH   1  23
TORSDOF 17
