REMARK SMILES O=C(NCCCCNC(=O)[C@]12COc3ccccc3[C@H]1C[N@H+](CCO)C2)c1ccc(-c2c3nc(c(-c4cccc(S(=O)(=O)[O-])c4F)c4ccc([nH]4)c(-c4cccc(S(=O)(=O)[O-])c4F)c4nc(c(-c5cccc(S(=O)(=O)[O-])c5F)c5ccc2[nH]5)C=C4)C=C3)cc1
REMARK SMILES IDX 5 1 4 2 3 3 1 4 2 5 27 7 28 8 89 9 29 10 88 11 30 12 31 13
REMARK SMILES IDX 32 14 82 15 33 16 87 17 81 18 83 19 34 20 86 21 80 22 79 23
REMARK SMILES IDX 35 25 67 26 47 27 66 28 48 29 51 30 65 31 84 32 49 33 50 34
REMARK SMILES IDX 64 36 85 37 52 38 36 39 37 40 45 41 38 42 40 43 46 44 39 45
REMARK SMILES IDX 41 46 42 47 43 48 44 49 68 50 69 51 77 52 70 53 72 54 78 55
REMARK SMILES IDX 71 56 73 57 74 58 75 59 76 60 53 61 54 62 62 63 55 64 57 65
REMARK SMILES IDX 63 66 56 67 58 68 59 69 60 70 61 71 6 72 7 73 8 74 9 75
REMARK SMILES IDX 10 77 11 78 12 79 20 80 26 81 13 82 19 83 21 84 22 85 14 86
REMARK SMILES IDX 18 87 15 89 17 90 16 91 23 92 24 93 25 94
REMARK H PARENT 3 6 83 24 51 35 8 76 22 88 25 95
REMARK Flexibility Score: inf
ROOT
ATOM      1  C   UNL     1       4.749  -0.988   2.478  1.00  0.00     0.023 C 
ENDROOT
BRANCH   1   2
ATOM      2  C   UNL     1       4.477  -0.835   0.984  1.00  0.00     0.116 C 
BRANCH   2   3
ATOM      3  N   UNL     1       3.057  -0.848   0.686  1.00  0.00    -0.352 N 
ATOM      4  O   UNL     1       1.084  -0.073  -0.032  1.00  0.00    -0.269 OA
ATOM      5  C   UNL     1       2.309   0.012  -0.074  1.00  0.00     0.251 C 
ATOM      6  H   UNL     1       2.553  -1.589   1.094  1.00  0.00     0.163 HD
BRANCH   5   7
ATOM      7  C   UNL     1       2.945   1.027  -0.947  1.00  0.00     0.039 A 
ATOM      8  C   UNL     1       2.334   2.281  -1.063  1.00  0.00     0.014 A 
ATOM      9  C   UNL     1       4.060   0.721  -1.733  1.00  0.00     0.014 A 
ATOM     10  C   UNL     1       2.830   3.223  -1.969  1.00  0.00     0.010 A 
ATOM     11  C   UNL     1       4.584   1.678  -2.602  1.00  0.00     0.010 A 
ATOM     12  C   UNL     1       3.953   2.922  -2.753  1.00  0.00    -0.014 A 
BRANCH  12  13
ATOM     13  C   UNL     1       4.418   3.847  -3.817  1.00  0.00     0.031 A 
ATOM     14  C   UNL     1       4.260   3.451  -5.260  1.00  0.00     0.074 A 
ATOM     15  C   UNL     1       5.007   5.014  -3.501  1.00  0.00     0.049 A 
ATOM     16  N   UNL     1       4.703   4.049  -6.335  1.00  0.00    -0.248 NA
ATOM     17  C   UNL     1       3.520   2.205  -5.526  1.00  0.00     0.031 C 
ATOM     18  C   UNL     1       5.226   5.511  -2.144  1.00  0.00     0.029 A 
ATOM     19  N   UNL     1       5.545   5.986  -4.307  1.00  0.00    -0.354 N 
ATOM     20  C   UNL     1       4.327   3.239  -7.399  1.00  0.00     0.074 A 
ATOM     21  C   UNL     1       3.642   2.093  -6.840  1.00  0.00     0.031 C 
ATOM     22  C   UNL     1       5.849   6.699  -2.210  1.00  0.00     0.029 A 
ATOM     23  C   UNL     1       6.101   7.031  -3.611  1.00  0.00     0.049 A 
ATOM     24  H   UNL     1       5.532   5.939  -5.291  1.00  0.00     0.167 HD
ATOM     25  C   UNL     1       4.504   3.442  -8.726  1.00  0.00     0.034 A 
ATOM     26  C   UNL     1       6.749   8.127  -4.049  1.00  0.00     0.034 A 
ATOM     27  C   UNL     1       5.137   4.602  -9.289  1.00  0.00     0.049 A 
ATOM     28  C   UNL     1       6.940   8.336  -5.525  1.00  0.00     0.074 A 
ATOM     29  C   UNL     1       5.338   4.911 -10.622  1.00  0.00     0.029 A 
ATOM     30  N   UNL     1       5.660   5.652  -8.550  1.00  0.00    -0.354 N 
ATOM     31  N   UNL     1       6.538   7.582  -6.521  1.00  0.00    -0.248 NA
ATOM     32  C   UNL     1       7.656   9.551  -5.940  1.00  0.00     0.031 C 
ATOM     33  C   UNL     1       5.980   6.153 -10.690  1.00  0.00     0.029 A 
ATOM     34  C   UNL     1       6.176   6.616  -9.398  1.00  0.00     0.049 A 
ATOM     35  H   UNL     1       5.664   5.704  -7.567  1.00  0.00     0.167 HD
ATOM     36  C   UNL     1       6.945   8.232  -7.680  1.00  0.00     0.074 A 
ATOM     37  C   UNL     1       7.604   9.454  -7.264  1.00  0.00     0.031 C 
ATOM     38  C   UNL     1       6.802   7.841  -8.970  1.00  0.00     0.034 A 
BRANCH  25  39
ATOM     39  C   UNL     1       3.939   2.407  -9.660  1.00  0.00     0.023 A 
ATOM     40  C   UNL     1       2.549   2.383  -9.892  1.00  0.00     0.012 A 
ATOM     41  C   UNL     1       4.770   1.483 -10.321  1.00  0.00     0.148 A 
ATOM     42  C   UNL     1       1.989   1.436 -10.747  1.00  0.00     0.002 A 
ATOM     43  C   UNL     1       4.207   0.561 -11.197  1.00  0.00     0.091 A 
ATOM     44  F   UNL     1       6.086   1.509 -10.066  1.00  0.00    -0.205 F 
ATOM     45  C   UNL     1       2.818   0.532 -11.405  1.00  0.00     0.022 A 
BRANCH  43  46
ATOM     46  S   UNL     1       5.191  -0.619 -12.128  1.00  0.00     0.127 S 
ATOM     47  O   UNL     1       4.841  -1.877 -11.471  1.00  0.00    -0.237 OA
ATOM     48  O   UNL     1       4.655  -0.467 -13.481  1.00  0.00    -0.237 OA
ATOM     49  O   UNL     1       6.576  -0.198 -11.973  1.00  0.00    -0.744 OA
ENDBRANCH  43  46
ENDBRANCH  25  39
BRANCH  26  50
ATOM     50  C   UNL     1       7.202   9.139  -3.058  1.00  0.00     0.023 A 
ATOM     51  C   UNL     1       6.442  10.311  -2.886  1.00  0.00     0.012 A 
ATOM     52  C   UNL     1       8.307   8.899  -2.219  1.00  0.00     0.148 A 
ATOM     53  C   UNL     1       6.773  11.230  -1.891  1.00  0.00     0.002 A 
ATOM     54  C   UNL     1       8.609   9.802  -1.205  1.00  0.00     0.091 A 
ATOM     55  F   UNL     1       9.007   7.771  -2.401  1.00  0.00    -0.205 F 
ATOM     56  C   UNL     1       7.848  10.971  -1.045  1.00  0.00     0.022 A 
BRANCH  54  57
ATOM     57  S   UNL     1       9.910   9.506  -0.002  1.00  0.00     0.127 S 
ATOM     58  O   UNL     1      10.727  10.714  -0.142  1.00  0.00    -0.237 OA
ATOM     59  O   UNL     1       9.141   9.431   1.244  1.00  0.00    -0.237 OA
ATOM     60  O   UNL     1      10.556   8.274  -0.403  1.00  0.00    -0.744 OA
ENDBRANCH  54  57
ENDBRANCH  26  50
BRANCH  38  61
ATOM     61  C   UNL     1       7.377   8.731 -10.038  1.00  0.00     0.023 A 
ATOM     62  C   UNL     1       8.764   8.698 -10.284  1.00  0.00     0.012 A 
ATOM     63  C   UNL     1       6.545   9.518 -10.857  1.00  0.00     0.148 A 
ATOM     64  C   UNL     1       9.316   9.447 -11.322  1.00  0.00     0.002 A 
ATOM     65  C   UNL     1       7.099  10.238 -11.910  1.00  0.00     0.091 A 
ATOM     66  F   UNL     1       5.230   9.544 -10.594  1.00  0.00    -0.205 F 
ATOM     67  C   UNL     1       8.484  10.207 -12.140  1.00  0.00     0.022 A 
BRANCH  65  68
ATOM     68  S   UNL     1       6.099  11.188 -13.061  1.00  0.00     0.127 S 
ATOM     69  O   UNL     1       6.413  12.560 -12.665  1.00  0.00    -0.237 OA
ATOM     70  O   UNL     1       6.647  10.786 -14.356  1.00  0.00    -0.237 OA
ATOM     71  O   UNL     1       4.721  10.773 -12.833  1.00  0.00    -0.744 OA
ENDBRANCH  65  68
ENDBRANCH  38  61
ENDBRANCH  12  13
ENDBRANCH   5   7
ENDBRANCH   2   3
ENDBRANCH   1   2
BRANCH   1  72
ATOM     72  C   UNL     1       4.161  -2.235   3.160  1.00  0.00     0.023 C 
BRANCH  72  73
ATOM     73  C   UNL     1       4.427  -3.599   2.498  1.00  0.00     0.116 C 
BRANCH  73  74
ATOM     74  N   UNL     1       5.829  -3.928   2.330  1.00  0.00    -0.355 N 
ATOM     75  C   UNL     1       6.693  -3.877   3.375  1.00  0.00     0.236 C 
ATOM     76  H   UNL     1       6.160  -4.194   1.442  1.00  0.00     0.163 HD
ATOM     77  O   UNL     1       7.346  -2.832   3.492  1.00  0.00    -0.274 OA
BRANCH  75  78
ATOM     78  C   UNL     1       7.050  -5.098   4.236  1.00  0.00     0.144 C 
ATOM     79  C   UNL     1       8.479  -5.371   3.691  1.00  0.00     0.253 C 
ATOM     80  C   UNL     1       6.235  -6.403   4.330  1.00  0.00     0.103 C 
ATOM     81  C   UNL     1       6.958  -4.522   5.682  1.00  0.00     0.283 C 
ATOM     82  O   UNL     1       9.043  -6.663   3.878  1.00  0.00    -0.492 OA
ATOM     83  C   UNL     1       6.857  -7.650   3.742  1.00  0.00     0.004 A 
ATOM     84  C   UNL     1       6.194  -6.712   5.844  1.00  0.00     0.272 C 
ATOM     85  N   UNL     1       6.191  -5.444   6.526  1.00  0.00    -0.331 N 
ATOM     86  C   UNL     1       8.228  -7.694   3.511  1.00  0.00     0.123 A 
ATOM     87  C   UNL     1       6.138  -8.860   3.703  1.00  0.00     0.008 A 
ATOM     88  H   UNL     1       6.661  -5.506   7.429  1.00  0.00     0.348 HD
ATOM     89  C   UNL     1       8.855  -8.878   3.120  1.00  0.00     0.047 A 
ATOM     90  C   UNL     1       6.779 -10.064   3.396  1.00  0.00     0.001 A 
ATOM     91  C   UNL     1       8.131 -10.067   3.064  1.00  0.00     0.004 A 
BRANCH  85  92
ATOM     92  C   UNL     1       4.898  -5.006   7.062  1.00  0.00     0.290 C 
BRANCH  92  93
ATOM     93  C   UNL     1       3.627  -5.057   6.193  1.00  0.00     0.217 C 
BRANCH  93  94
ATOM     94  O   UNL     1       3.131  -6.379   6.002  1.00  0.00    -0.391 OA
ATOM     95  H   UNL     1       3.797  -6.910   5.538  1.00  0.00     0.210 HD
ENDBRANCH  93  94
ENDBRANCH  92  93
ENDBRANCH  85  92
ENDBRANCH  75  78
ENDBRANCH  73  74
ENDBRANCH  72  73
ENDBRANCH   1  72
TORSDOF 17
