REMARK SMILES C[N@@H+]1CCN(C(=O)c2cc(-n3cccn3)ccc2Cl)C[C@H]1C(=O)NCCCCNC(=O)c1ccc(-c2c3nc(c(-c4cccc(S(=O)(=O)[O-])c4F)c4ccc([nH]4)c(-c4cccc(S(=O)(=O)[O-])c4F)c4nc(c(-c5cccc(S(=O)(=O)[O-])c5F)c5ccc2[nH]5)C=C4)C=C3)cc1
REMARK SMILES IDX 26 1 25 2 24 3 22 4 23 5 21 7 1 8 2 9 3 10 4 12 20 13 5 14
REMARK SMILES IDX 6 15 7 16 8 17 9 18 18 19 10 20 17 21 19 22 16 23 11 24
REMARK SMILES IDX 12 25 15 26 13 27 14 28 27 29 28 30 29 31 30 32 31 34 32 35
REMARK SMILES IDX 33 36 94 37 34 38 93 39 35 40 36 41 37 42 87 43 38 44 92 45
REMARK SMILES IDX 86 46 88 47 39 48 91 49 85 50 84 51 40 53 72 54 52 55 71 56
REMARK SMILES IDX 53 57 56 58 70 59 89 60 54 61 55 62 69 64 90 65 57 66 41 67
REMARK SMILES IDX 42 68 50 69 43 70 45 71 51 72 44 73 46 74 47 75 48 76 49 77
REMARK SMILES IDX 73 78 74 79 82 80 75 81 77 82 83 83 76 84 78 85 79 86 80 87
REMARK SMILES IDX 81 88 58 89 59 90 67 91 60 92 62 93 68 94 61 95 63 96 64 97
REMARK SMILES IDX 65 98 66 99
REMARK H PARENT 24 6 2 11 29 33 88 52 56 63
REMARK Flexibility Score: inf
ROOT
ATOM      1  C   UNL     1       1.883  -1.079  -3.581  1.00  0.00     0.023 C 
ENDROOT
BRANCH   1   2
ATOM      2  C   UNL     1       0.692  -1.644  -2.806  1.00  0.00     0.116 C 
BRANCH   2   3
ATOM      3  N   UNL     1       1.100  -2.561  -1.758  1.00  0.00    -0.351 N 
ATOM      4  C   UNL     1       1.064  -2.393  -0.403  1.00  0.00     0.280 C 
ATOM      5  O   UNL     1       1.621  -3.236   0.305  1.00  0.00    -0.268 OA
ATOM      6  H   UNL     1       1.453  -3.426  -2.067  1.00  0.00     0.163 HD
BRANCH   4   7
ATOM      7  C   UNL     1       0.365  -1.181   0.228  1.00  0.00     0.293 C 
ATOM      8  C   UNL     1       2.393   0.180   0.206  1.00  0.00     0.333 C 
ATOM      9  N   UNL     1       0.991   0.110  -0.214  1.00  0.00    -0.324 N 
ATOM     10  C   UNL     1       0.226   1.237   0.360  1.00  0.00     0.284 C 
ATOM     11  H   UNL     1       0.967   0.161  -1.232  1.00  0.00     0.348 HD
ATOM     12  C   UNL     1      -1.270   1.184  -0.000  1.00  0.00     0.181 C 
ATOM     13  C   UNL     1      -1.153  -1.280  -0.057  1.00  0.00     0.195 C 
ATOM     14  N   UNL     1      -1.883  -0.085   0.388  1.00  0.00    -0.326 N 
BRANCH  14  15
ATOM     15  C   UNL     1      -3.169  -0.086   0.917  1.00  0.00     0.255 C 
ATOM     16  O   UNL     1      -3.832   0.938   1.083  1.00  0.00    -0.269 OA
BRANCH  15  17
ATOM     17  C   UNL     1      -3.796  -1.374   1.280  1.00  0.00     0.060 A 
ATOM     18  C   UNL     1      -4.973  -1.738   0.605  1.00  0.00     0.043 A 
ATOM     19  C   UNL     1      -3.289  -2.182   2.308  1.00  0.00     0.053 A 
ATOM     20  C   UNL     1      -5.638  -2.915   0.974  1.00  0.00     0.065 A 
ATOM     21  C   UNL     1      -3.900  -3.404   2.591  1.00  0.00     0.023 A 
ATOM     22  Cl  UNL     1      -1.940  -1.714   3.285  1.00  0.00    -0.083 Cl
ATOM     23  C   UNL     1      -5.077  -3.766   1.935  1.00  0.00     0.030 A 
BRANCH  20  24
ATOM     24  N   UNL     1      -6.899  -3.228   0.412  1.00  0.00    -0.241 N 
ATOM     25  C   UNL     1      -7.914  -3.934   1.026  1.00  0.00     0.115 A 
ATOM     26  N   UNL     1      -7.298  -2.744  -0.794  1.00  0.00    -0.177 NA
ATOM     27  C   UNL     1      -8.943  -4.029   0.124  1.00  0.00     0.042 A 
ATOM     28  C   UNL     1      -8.478  -3.334  -1.003  1.00  0.00     0.135 A 
ENDBRANCH  20  24
ENDBRANCH  15  17
ENDBRANCH  14  15
ENDBRANCH   4   7
ENDBRANCH   2   3
ENDBRANCH   1   2
BRANCH   1  29
ATOM     29  C   UNL     1       2.708  -2.106  -4.364  1.00  0.00     0.023 C 
BRANCH  29  30
ATOM     30  C   UNL     1       1.899  -2.918  -5.363  1.00  0.00     0.116 C 
BRANCH  30  31
ATOM     31  N   UNL     1       1.310  -2.094  -6.419  1.00  0.00    -0.352 N 
ATOM     32  C   UNL     1       0.586  -2.524  -7.518  1.00  0.00     0.251 C 
ATOM     33  H   UNL     1       1.444  -1.122  -6.339  1.00  0.00     0.163 HD
ATOM     34  O   UNL     1       0.457  -1.819  -8.505  1.00  0.00    -0.269 OA
BRANCH  32  35
ATOM     35  C   UNL     1      -0.043  -3.856  -7.455  1.00  0.00     0.039 A 
ATOM     36  C   UNL     1      -0.017  -4.733  -8.545  1.00  0.00     0.014 A 
ATOM     37  C   UNL     1      -0.643  -4.222  -6.254  1.00  0.00     0.014 A 
ATOM     38  C   UNL     1      -0.540  -6.014  -8.386  1.00  0.00     0.010 A 
ATOM     39  C   UNL     1      -1.011  -5.524  -6.050  1.00  0.00     0.010 A 
ATOM     40  C   UNL     1      -1.024  -6.403  -7.128  1.00  0.00    -0.014 A 
BRANCH  40  41
ATOM     41  C   UNL     1      -1.420  -7.780  -6.856  1.00  0.00     0.031 A 
ATOM     42  C   UNL     1      -0.313  -8.762  -7.037  1.00  0.00     0.074 A 
ATOM     43  C   UNL     1      -2.584  -8.061  -6.226  1.00  0.00     0.049 A 
ATOM     44  N   UNL     1      -0.229  -9.712  -7.911  1.00  0.00    -0.248 NA
ATOM     45  C   UNL     1       0.934  -8.548  -6.282  1.00  0.00     0.031 C 
ATOM     46  C   UNL     1      -3.572  -7.100  -5.711  1.00  0.00     0.029 A 
ATOM     47  N   UNL     1      -3.054  -9.245  -5.746  1.00  0.00    -0.354 N 
ATOM     48  C   UNL     1       0.961 -10.380  -7.619  1.00  0.00     0.074 A 
ATOM     49  C   UNL     1       1.732  -9.472  -6.819  1.00  0.00     0.031 C 
ATOM     50  C   UNL     1      -4.339  -7.698  -4.774  1.00  0.00     0.029 A 
ATOM     51  C   UNL     1      -4.013  -9.110  -4.740  1.00  0.00     0.049 A 
ATOM     52  H   UNL     1      -2.745 -10.118  -6.079  1.00  0.00     0.167 HD
ATOM     53  C   UNL     1       1.060 -11.731  -7.784  1.00  0.00     0.034 A 
ATOM     54  C   UNL     1      -4.456 -10.076  -3.894  1.00  0.00     0.034 A 
ATOM     55  C   UNL     1      -0.029 -12.218  -8.601  1.00  0.00     0.049 A 
ATOM     56  C   UNL     1      -4.100 -11.376  -4.505  1.00  0.00     0.074 A 
ATOM     57  C   UNL     1      -0.503 -11.959  -9.871  1.00  0.00     0.029 A 
ATOM     58  N   UNL     1      -1.056 -12.839  -7.932  1.00  0.00    -0.354 N 
ATOM     59  N   UNL     1      -4.608 -11.807  -5.626  1.00  0.00    -0.248 NA
ATOM     60  C   UNL     1      -2.839 -11.981  -4.112  1.00  0.00     0.031 C 
ATOM     61  C   UNL     1      -1.925 -12.017  -9.751  1.00  0.00     0.029 A 
ATOM     62  C   UNL     1      -2.239 -12.389  -8.442  1.00  0.00     0.049 A 
ATOM     63  H   UNL     1      -0.955 -13.498  -7.208  1.00  0.00     0.167 HD
ATOM     64  C   UNL     1      -3.522 -12.348  -6.302  1.00  0.00     0.074 A 
ATOM     65  C   UNL     1      -2.492 -12.531  -5.278  1.00  0.00     0.031 C 
ATOM     66  C   UNL     1      -3.456 -12.303  -7.665  1.00  0.00     0.034 A 
BRANCH  53  67
ATOM     67  C   UNL     1       1.811 -12.687  -6.858  1.00  0.00     0.023 A 
ATOM     68  C   UNL     1       1.707 -14.066  -7.167  1.00  0.00     0.012 A 
ATOM     69  C   UNL     1       2.320 -12.371  -5.577  1.00  0.00     0.148 A 
ATOM     70  C   UNL     1       1.949 -15.062  -6.214  1.00  0.00     0.002 A 
ATOM     71  C   UNL     1       2.610 -13.366  -4.647  1.00  0.00     0.091 A 
ATOM     72  F   UNL     1       2.450 -11.104  -5.189  1.00  0.00    -0.205 F 
ATOM     73  C   UNL     1       2.387 -14.710  -4.947  1.00  0.00     0.022 A 
BRANCH  71  74
ATOM     74  S   UNL     1       3.210 -12.975  -2.995  1.00  0.00     0.127 S 
ATOM     75  O   UNL     1       2.057 -13.339  -2.177  1.00  0.00    -0.237 OA
ATOM     76  O   UNL     1       4.362 -13.869  -2.881  1.00  0.00    -0.237 OA
ATOM     77  O   UNL     1       3.550 -11.558  -3.018  1.00  0.00    -0.744 OA
ENDBRANCH  71  74
ENDBRANCH  53  67
BRANCH  54  78
ATOM     78  C   UNL     1      -4.922  -9.980  -2.487  1.00  0.00     0.023 A 
ATOM     79  C   UNL     1      -5.678 -11.031  -1.927  1.00  0.00     0.012 A 
ATOM     80  C   UNL     1      -4.395  -9.005  -1.609  1.00  0.00     0.148 A 
ATOM     81  C   UNL     1      -5.869 -11.130  -0.542  1.00  0.00     0.002 A 
ATOM     82  C   UNL     1      -4.598  -9.099  -0.233  1.00  0.00     0.091 A 
ATOM     83  F   UNL     1      -3.618  -8.038  -2.113  1.00  0.00    -0.205 F 
ATOM     84  C   UNL     1      -5.321 -10.171   0.306  1.00  0.00     0.022 A 
BRANCH  82  85
ATOM     85  S   UNL     1      -3.900  -7.911   0.927  1.00  0.00     0.127 S 
ATOM     86  O   UNL     1      -5.075  -7.510   1.704  1.00  0.00    -0.237 OA
ATOM     87  O   UNL     1      -2.935  -8.728   1.657  1.00  0.00    -0.237 OA
ATOM     88  O   UNL     1      -3.335  -6.840   0.117  1.00  0.00    -0.744 OA
ENDBRANCH  82  85
ENDBRANCH  54  78
BRANCH  66  89
ATOM     89  C   UNL     1      -4.698 -11.919  -8.426  1.00  0.00     0.023 A 
ATOM     90  C   UNL     1      -5.282 -10.637  -8.349  1.00  0.00     0.012 A 
ATOM     91  C   UNL     1      -5.175 -12.828  -9.383  1.00  0.00     0.148 A 
ATOM     92  C   UNL     1      -6.333 -10.280  -9.200  1.00  0.00     0.002 A 
ATOM     93  C   UNL     1      -6.185 -12.453 -10.258  1.00  0.00     0.091 A 
ATOM     94  F   UNL     1      -4.604 -14.040  -9.442  1.00  0.00    -0.205 F 
ATOM     95  C   UNL     1      -6.774 -11.183 -10.165  1.00  0.00     0.022 A 
BRANCH  93  96
ATOM     96  S   UNL     1      -6.700 -13.528 -11.597  1.00  0.00     0.127 S 
ATOM     97  O   UNL     1      -7.994 -14.009 -11.120  1.00  0.00    -0.237 OA
ATOM     98  O   UNL     1      -6.768 -12.605 -12.732  1.00  0.00    -0.237 OA
ATOM     99  O   UNL     1      -5.660 -14.543 -11.720  1.00  0.00    -0.744 OA
ENDBRANCH  93  96
ENDBRANCH  66  89
ENDBRANCH  40  41
ENDBRANCH  32  35
ENDBRANCH  30  31
ENDBRANCH  29  30
ENDBRANCH   1  29
TORSDOF 17
