REMARK SMILES O=C(NCCCCNC(=O)c1ccc(-c2c3nc(c(-c4cccc(S(=O)(=O)[O-])c4F)c4ccc([nH]4)c(-c4cccc(S(=O)(=O)[O-])c4F)c4nc(c(-c5cccc(S(=O)(=O)[O-])c5F)c5ccc2[nH]5)C=C4)C=C3)cc1)C1=Cc2c(ccc(Cl)c2Cl)O[C@H]1C(F)(F)F
REMARK SMILES IDX 6 1 5 2 4 3 3 4 1 5 2 6 74 8 75 9 85 10 76 11 84 12 77 13
REMARK SMILES IDX 82 14 78 15 80 16 83 17 79 18 81 19 86 20 87 21 88 22 89 23
REMARK SMILES IDX 7 24 8 25 9 26 10 28 11 29 12 30 73 31 13 32 72 33 14 34
REMARK SMILES IDX 15 35 16 36 66 37 17 38 71 39 65 40 67 41 18 42 70 43 64 44
REMARK SMILES IDX 63 45 19 47 51 48 31 49 50 50 32 51 35 52 49 53 68 54 33 55
REMARK SMILES IDX 34 56 48 58 69 59 36 60 20 61 21 62 29 63 22 64 24 65 30 66
REMARK SMILES IDX 23 67 25 68 26 69 27 70 28 71 52 72 53 73 61 74 54 75 56 76
REMARK SMILES IDX 62 77 55 78 57 79 58 80 59 81 60 82 37 83 38 84 46 85 39 86
REMARK SMILES IDX 41 87 47 88 40 89 42 90 43 91 44 92 45 93
REMARK H PARENT 3 7 8 27 67 46 35 57
REMARK Flexibility Score: inf
ROOT
ATOM      1  C   UNL     1       3.848   3.707  -2.056  1.00  0.00     0.023 C 
ENDROOT
BRANCH   1   2
ATOM      2  C   UNL     1       4.178   2.225  -2.201  1.00  0.00     0.023 C 
BRANCH   2   3
ATOM      3  C   UNL     1       3.969   1.367  -0.960  1.00  0.00     0.116 C 
BRANCH   3   4
ATOM      4  N   UNL     1       2.604   0.931  -0.712  1.00  0.00    -0.352 N 
ATOM      5  O   UNL     1       0.980  -0.408   0.123  1.00  0.00    -0.270 OA
ATOM      6  C   UNL     1       2.170  -0.120   0.058  1.00  0.00     0.251 C 
ATOM      7  H   UNL     1       1.899   1.459  -1.154  1.00  0.00     0.163 HD
BRANCH   6   8
ATOM      8  C   UNL     1       3.162  -0.961   0.789  1.00  0.00     0.067 C 
ATOM      9  C   UNL     1       3.724  -0.369   1.853  1.00  0.00     0.027 C 
ATOM     10  C   UNL     1       3.907  -1.946  -0.067  1.00  0.00     0.314 C 
ATOM     11  C   UNL     1       5.163  -0.101   1.721  1.00  0.00     0.037 A 
ATOM     12  O   UNL     1       5.357  -1.798  -0.029  1.00  0.00    -0.475 OA
ATOM     13  C   UNL     1       5.881  -0.783   0.729  1.00  0.00     0.129 A 
ATOM     14  C   UNL     1       5.759   0.980   2.404  1.00  0.00     0.070 A 
ATOM     15  C   UNL     1       7.169  -0.373   0.390  1.00  0.00     0.049 A 
ATOM     16  C   UNL     1       7.041   1.405   2.033  1.00  0.00     0.060 A 
ATOM     17  Cl  UNL     1       4.863   1.831   3.627  1.00  0.00    -0.082 Cl
ATOM     18  C   UNL     1       7.735   0.736   1.020  1.00  0.00     0.026 A 
ATOM     19  Cl  UNL     1       7.802   2.784   2.744  1.00  0.00    -0.083 Cl
BRANCH  10  20
ATOM     20  C   UNL     1       3.510  -3.397   0.286  1.00  0.00     0.429 C 
ATOM     21  F   UNL     1       2.495  -3.475   1.177  1.00  0.00    -0.167 F 
ATOM     22  F   UNL     1       3.118  -4.075  -0.822  1.00  0.00    -0.167 F 
ATOM     23  F   UNL     1       4.545  -4.091   0.823  1.00  0.00    -0.167 F 
ENDBRANCH  10  20
ENDBRANCH   6   8
ENDBRANCH   3   4
ENDBRANCH   2   3
ENDBRANCH   1   2
BRANCH   1  24
ATOM     24  C   UNL     1       4.497   4.450  -0.888  1.00  0.00     0.116 C 
BRANCH  24  25
ATOM     25  N   UNL     1       5.948   4.332  -0.814  1.00  0.00    -0.352 N 
ATOM     26  C   UNL     1       6.890   5.303  -0.527  1.00  0.00     0.251 C 
ATOM     27  H   UNL     1       6.309   3.433  -0.994  1.00  0.00     0.163 HD
ATOM     28  O   UNL     1       8.079   5.022  -0.539  1.00  0.00    -0.269 OA
BRANCH  26  29
ATOM     29  C   UNL     1       6.450   6.698  -0.277  1.00  0.00     0.039 A 
ATOM     30  C   UNL     1       7.051   7.730  -1.003  1.00  0.00     0.014 A 
ATOM     31  C   UNL     1       5.393   6.977   0.592  1.00  0.00     0.014 A 
ATOM     32  C   UNL     1       6.506   9.018  -0.957  1.00  0.00     0.010 A 
ATOM     33  C   UNL     1       4.805   8.239   0.576  1.00  0.00     0.010 A 
ATOM     34  C   UNL     1       5.335   9.265  -0.222  1.00  0.00    -0.014 A 
BRANCH  34  35
ATOM     35  C   UNL     1       4.599  10.553  -0.345  1.00  0.00     0.031 A 
ATOM     36  C   UNL     1       4.381  11.434   0.853  1.00  0.00     0.074 A 
ATOM     37  C   UNL     1       4.011  10.866  -1.519  1.00  0.00     0.049 A 
ATOM     38  N   UNL     1       3.699  12.547   0.942  1.00  0.00    -0.248 NA
ATOM     39  C   UNL     1       4.979  10.992   2.123  1.00  0.00     0.031 C 
ATOM     40  C   UNL     1       4.055  10.045  -2.732  1.00  0.00     0.029 A 
ATOM     41  N   UNL     1       3.234  11.940  -1.877  1.00  0.00    -0.354 N 
ATOM     42  C   UNL     1       3.751  12.918   2.280  1.00  0.00     0.074 A 
ATOM     43  C   UNL     1       4.508  11.896   2.971  1.00  0.00     0.031 C 
ATOM     44  C   UNL     1       3.341  10.646  -3.698  1.00  0.00     0.029 A 
ATOM     45  C   UNL     1       2.769  11.880  -3.171  1.00  0.00     0.049 A 
ATOM     46  H   UNL     1       3.028  12.683  -1.266  1.00  0.00     0.167 HD
ATOM     47  C   UNL     1       3.245  14.025   2.876  1.00  0.00     0.034 A 
ATOM     48  C   UNL     1       1.972  12.722  -3.860  1.00  0.00     0.034 A 
ATOM     49  C   UNL     1       2.543  15.069   2.180  1.00  0.00     0.049 A 
ATOM     50  C   UNL     1       1.486  13.981  -3.196  1.00  0.00     0.074 A 
ATOM     51  C   UNL     1       2.087  16.278   2.677  1.00  0.00     0.029 A 
ATOM     52  N   UNL     1       2.193  15.031   0.840  1.00  0.00    -0.354 N 
ATOM     53  N   UNL     1       1.705  14.404  -1.976  1.00  0.00    -0.248 NA
ATOM     54  C   UNL     1       0.677  14.897  -4.014  1.00  0.00     0.031 C 
ATOM     55  C   UNL     1       1.456  16.969   1.636  1.00  0.00     0.029 A 
ATOM     56  C   UNL     1       1.525  16.192   0.490  1.00  0.00     0.049 A 
ATOM     57  H   UNL     1       2.390  14.287   0.226  1.00  0.00     0.167 HD
ATOM     58  C   UNL     1       1.089  15.648  -1.887  1.00  0.00     0.074 A 
ATOM     59  C   UNL     1       0.506  15.919  -3.185  1.00  0.00     0.031 C 
ATOM     60  C   UNL     1       1.001  16.480  -0.820  1.00  0.00     0.034 A 
BRANCH  47  61
ATOM     61  C   UNL     1       3.502  14.196   4.349  1.00  0.00     0.023 A 
ATOM     62  C   UNL     1       4.798  14.542   4.785  1.00  0.00     0.012 A 
ATOM     63  C   UNL     1       2.469  14.061   5.295  1.00  0.00     0.148 A 
ATOM     64  C   UNL     1       5.071  14.714   6.141  1.00  0.00     0.002 A 
ATOM     65  C   UNL     1       2.740  14.272   6.643  1.00  0.00     0.091 A 
ATOM     66  F   UNL     1       1.248  13.707   4.868  1.00  0.00    -0.205 F 
ATOM     67  C   UNL     1       4.041  14.588   7.068  1.00  0.00     0.022 A 
BRANCH  65  68
ATOM     68  S   UNL     1       1.458  14.202   7.900  1.00  0.00     0.127 S 
ATOM     69  O   UNL     1       1.674  12.873   8.470  1.00  0.00    -0.237 OA
ATOM     70  O   UNL     1       1.823  15.310   8.784  1.00  0.00    -0.237 OA
ATOM     71  O   UNL     1       0.200  14.390   7.190  1.00  0.00    -0.744 OA
ENDBRANCH  65  68
ENDBRANCH  47  61
BRANCH  48  72
ATOM     72  C   UNL     1       1.666  12.442  -5.292  1.00  0.00     0.023 A 
ATOM     73  C   UNL     1       2.279  13.227  -6.288  1.00  0.00     0.012 A 
ATOM     74  C   UNL     1       0.824  11.381  -5.675  1.00  0.00     0.148 A 
ATOM     75  C   UNL     1       2.040  12.976  -7.639  1.00  0.00     0.002 A 
ATOM     76  C   UNL     1       0.630  11.103  -7.024  1.00  0.00     0.091 A 
ATOM     77  F   UNL     1       0.240  10.653  -4.712  1.00  0.00    -0.205 F 
ATOM     78  C   UNL     1       1.226  11.908  -8.008  1.00  0.00     0.022 A 
BRANCH  76  79
ATOM     79  S   UNL     1      -0.292   9.667  -7.587  1.00  0.00     0.127 S 
ATOM     80  O   UNL     1      -1.528  10.276  -8.072  1.00  0.00    -0.237 OA
ATOM     81  O   UNL     1       0.584   9.133  -8.632  1.00  0.00    -0.237 OA
ATOM     82  O   UNL     1      -0.421   8.805  -6.420  1.00  0.00    -0.744 OA
ENDBRANCH  76  79
ENDBRANCH  48  72
BRANCH  60  83
ATOM     83  C   UNL     1       0.265  17.779  -1.006  1.00  0.00     0.023 A 
ATOM     84  C   UNL     1      -1.143  17.778  -1.062  1.00  0.00     0.012 A 
ATOM     85  C   UNL     1       0.957  19.006  -1.040  1.00  0.00     0.148 A 
ATOM     86  C   UNL     1      -1.849  18.975  -1.171  1.00  0.00     0.002 A 
ATOM     87  C   UNL     1       0.245  20.198  -1.107  1.00  0.00     0.091 A 
ATOM     88  F   UNL     1       2.298  18.986  -1.010  1.00  0.00    -0.205 F 
ATOM     89  C   UNL     1      -1.157  20.184  -1.180  1.00  0.00     0.022 A 
BRANCH  87  90
ATOM     90  S   UNL     1       1.055  21.800  -1.034  1.00  0.00     0.127 S 
ATOM     91  O   UNL     1       1.040  22.207  -2.438  1.00  0.00    -0.237 OA
ATOM     92  O   UNL     1       0.160  22.567  -0.168  1.00  0.00    -0.237 OA
ATOM     93  O   UNL     1       2.372  21.551  -0.464  1.00  0.00    -0.744 OA
ENDBRANCH  87  90
ENDBRANCH  60  83
ENDBRANCH  34  35
ENDBRANCH  26  29
ENDBRANCH  24  25
ENDBRANCH   1  24
TORSDOF 15
