REMARK SMILES Cc1ccc(S(=O)(=O)n2cc(C(=O)C(=O)NCC(=O)NCCCCNC(=O)c3ccc(-c4c5nc(c(-c6cccc(S(=O)(=O)[O-])c6F)c6ccc([nH]6)c(-c6cccc(S(=O)(=O)[O-])c6F)c6nc(c(-c7cccc(S(=O)(=O)[O-])c7F)c7ccc4[nH]7)C=C6)C=C5)cc3)c3ccccc32)cc1
REMARK SMILES IDX 21 1 20 2 18 3 19 4 17 6 16 7 14 8 15 9 12 11 13 12 11 13
REMARK SMILES IDX 9 14 10 15 96 16 91 17 95 18 92 19 94 20 93 21 6 22 7 23
REMARK SMILES IDX 8 24 5 25 1 26 2 27 3 28 98 29 4 30 97 31 22 32 23 33 24 34
REMARK SMILES IDX 25 35 26 36 27 38 28 39 29 40 90 41 30 42 89 43 31 44 32 45
REMARK SMILES IDX 33 46 83 47 34 48 88 49 82 50 84 51 35 52 87 53 81 54 80 55
REMARK SMILES IDX 36 57 68 58 48 59 67 60 49 61 52 62 66 63 85 64 50 65 51 66
REMARK SMILES IDX 65 68 86 69 53 70 37 71 38 72 46 73 39 74 41 75 47 76 40 77
REMARK SMILES IDX 42 78 43 79 44 80 45 81 69 82 70 83 78 84 71 85 73 86 79 87
REMARK SMILES IDX 72 88 74 89 75 90 76 91 77 92 54 93 55 94 63 95 56 96 58 97
REMARK SMILES IDX 64 98 57 99 59 100 60 101 61 102 62 103
REMARK H PARENT 20 5 16 10 25 37 84 56 52 67
REMARK Flexibility Score: inf
ROOT
ATOM      1  C   UNL     1      -9.301   4.751   1.007  1.00  0.00     0.116 C 
ENDROOT
BRANCH   1   2
ATOM      2  N   UNL     1      -9.850   5.775   1.875  1.00  0.00    -0.355 N 
ATOM      3  C   UNL     1      -9.234   6.495   2.857  1.00  0.00     0.239 C 
ATOM      4  O   UNL     1      -9.891   7.335   3.475  1.00  0.00    -0.273 OA
ATOM      5  H   UNL     1     -10.802   5.980   1.736  1.00  0.00     0.163 HD
BRANCH   3   6
ATOM      6  C   UNL     1      -7.731   6.334   3.100  1.00  0.00     0.216 C 
BRANCH   6   7
ATOM      7  N   UNL     1      -7.342   4.973   3.457  1.00  0.00    -0.340 N 
ATOM      8  C   UNL     1      -6.436   4.109   2.881  1.00  0.00     0.292 C 
ATOM      9  O   UNL     1      -6.283   3.002   3.387  1.00  0.00    -0.265 OA
ATOM     10  H   UNL     1      -7.807   4.611   4.245  1.00  0.00     0.164 HD
BRANCH   8  11
ATOM     11  C   UNL     1      -5.635   4.510   1.615  1.00  0.00     0.252 C 
ATOM     12  O   UNL     1      -5.479   5.706   1.387  1.00  0.00    -0.283 OA
BRANCH  11  13
ATOM     13  C   UNL     1      -5.047   3.504   0.714  1.00  0.00     0.054 A 
ATOM     14  N   UNL     1      -4.188   1.605  -0.097  1.00  0.00    -0.240 N 
ATOM     15  C   UNL     1      -4.861   2.156   0.965  1.00  0.00     0.117 A 
ATOM     16  C   UNL     1      -3.958   2.541  -1.081  1.00  0.00     0.065 A 
ATOM     17  C   UNL     1      -4.495   3.744  -0.598  1.00  0.00     0.012 A 
ATOM     18  C   UNL     1      -3.302   2.465  -2.324  1.00  0.00     0.028 A 
ATOM     19  C   UNL     1      -4.389   4.896  -1.411  1.00  0.00     0.011 A 
ATOM     20  C   UNL     1      -3.188   3.629  -3.087  1.00  0.00     0.002 A 
ATOM     21  C   UNL     1      -3.731   4.828  -2.643  1.00  0.00     0.001 A 
BRANCH  14  22
ATOM     22  S   UNL     1      -3.590   0.009  -0.097  1.00  0.00     0.268 S 
ATOM     23  O   UNL     1      -3.924  -0.527  -1.408  1.00  0.00    -0.201 OA
ATOM     24  O   UNL     1      -4.066  -0.597   1.126  1.00  0.00    -0.201 OA
BRANCH  22  25
ATOM     25  C   UNL     1      -1.819   0.075   0.011  1.00  0.00     0.088 A 
ATOM     26  C   UNL     1       2.483  -0.032   0.017  1.00  0.00     0.044 C 
ATOM     27  C   UNL     1       0.984   0.010   0.039  1.00  0.00    -0.051 A 
ATOM     28  C   UNL     1       0.252  -1.180  -0.033  1.00  0.00     0.005 A 
ATOM     29  C   UNL     1       0.299   1.229   0.126  1.00  0.00     0.005 A 
ATOM     30  C   UNL     1      -1.143  -1.150  -0.053  1.00  0.00     0.022 A 
ATOM     31  C   UNL     1      -1.100   1.265   0.125  1.00  0.00     0.022 A 
ENDBRANCH  22  25
ENDBRANCH  14  22
ENDBRANCH  11  13
ENDBRANCH   8  11
ENDBRANCH   6   7
ENDBRANCH   3   6
ENDBRANCH   1   2
BRANCH   1  32
ATOM     32  C   UNL     1      -9.605   3.340   1.522  1.00  0.00     0.023 C 
BRANCH  32  33
ATOM     33  C   UNL     1     -11.094   3.013   1.623  1.00  0.00     0.023 C 
BRANCH  33  34
ATOM     34  C   UNL     1     -11.829   3.040   0.298  1.00  0.00     0.116 C 
BRANCH  34  35
ATOM     35  N   UNL     1     -11.683   1.825  -0.477  1.00  0.00    -0.352 N 
ATOM     36  C   UNL     1     -12.414   1.388  -1.569  1.00  0.00     0.251 C 
ATOM     37  H   UNL     1     -10.961   1.224  -0.185  1.00  0.00     0.163 HD
ATOM     38  O   UNL     1     -12.327   0.204  -1.884  1.00  0.00    -0.269 OA
BRANCH  36  39
ATOM     39  C   UNL     1     -13.108   2.368  -2.453  1.00  0.00     0.039 A 
ATOM     40  C   UNL     1     -12.934   2.159  -3.827  1.00  0.00     0.014 A 
ATOM     41  C   UNL     1     -13.441   3.633  -1.988  1.00  0.00     0.014 A 
ATOM     42  C   UNL     1     -12.691   3.248  -4.646  1.00  0.00     0.010 A 
ATOM     43  C   UNL     1     -13.061   4.706  -2.746  1.00  0.00     0.010 A 
ATOM     44  C   UNL     1     -12.596   4.489  -4.043  1.00  0.00    -0.014 A 
BRANCH  44  45
ATOM     45  C   UNL     1     -12.147   5.694  -4.692  1.00  0.00     0.031 A 
ATOM     46  C   UNL     1     -13.176   6.505  -5.342  1.00  0.00     0.074 A 
ATOM     47  C   UNL     1     -10.908   6.130  -4.386  1.00  0.00     0.049 A 
ATOM     48  N   UNL     1     -12.929   7.558  -6.023  1.00  0.00    -0.248 NA
ATOM     49  C   UNL     1     -14.595   6.167  -5.281  1.00  0.00     0.031 C 
ATOM     50  C   UNL     1     -10.372   7.483  -4.425  1.00  0.00     0.029 A 
ATOM     51  N   UNL     1      -9.799   5.347  -4.097  1.00  0.00    -0.354 N 
ATOM     52  C   UNL     1     -14.131   8.195  -6.237  1.00  0.00     0.074 A 
ATOM     53  C   UNL     1     -15.138   7.239  -5.861  1.00  0.00     0.031 C 
ATOM     54  C   UNL     1      -9.027   7.423  -4.403  1.00  0.00     0.029 A 
ATOM     55  C   UNL     1      -8.664   6.025  -4.560  1.00  0.00     0.049 A 
ATOM     56  H   UNL     1      -9.808   4.472  -3.646  1.00  0.00     0.167 HD
ATOM     57  C   UNL     1     -14.084   9.517  -6.555  1.00  0.00     0.034 A 
ATOM     58  C   UNL     1      -7.999   5.519  -5.648  1.00  0.00     0.034 A 
ATOM     59  C   UNL     1     -12.678   9.911  -6.785  1.00  0.00     0.049 A 
ATOM     60  C   UNL     1      -8.124   6.400  -6.888  1.00  0.00     0.074 A 
ATOM     61  C   UNL     1     -11.719  10.523  -5.994  1.00  0.00     0.029 A 
ATOM     62  N   UNL     1     -11.984   9.312  -7.833  1.00  0.00    -0.354 N 
ATOM     63  N   UNL     1      -8.925   7.425  -7.015  1.00  0.00    -0.248 NA
ATOM     64  C   UNL     1      -7.332   6.177  -8.088  1.00  0.00     0.031 C 
ATOM     65  C   UNL     1     -10.436  10.238  -6.554  1.00  0.00     0.029 A 
ATOM     66  C   UNL     1     -10.613   9.487  -7.705  1.00  0.00     0.049 A 
ATOM     67  H   UNL     1     -12.413   8.825  -8.573  1.00  0.00     0.167 HD
ATOM     68  C   UNL     1      -8.865   7.934  -8.293  1.00  0.00     0.074 A 
ATOM     69  C   UNL     1      -7.810   7.133  -8.903  1.00  0.00     0.031 C 
ATOM     70  C   UNL     1      -9.713   8.933  -8.726  1.00  0.00     0.034 A 
BRANCH  57  71
ATOM     71  C   UNL     1     -15.223  10.518  -6.418  1.00  0.00     0.023 A 
ATOM     72  C   UNL     1     -14.861  11.883  -6.472  1.00  0.00     0.012 A 
ATOM     73  C   UNL     1     -16.596  10.259  -6.175  1.00  0.00     0.148 A 
ATOM     74  C   UNL     1     -15.773  12.920  -6.243  1.00  0.00     0.002 A 
ATOM     75  C   UNL     1     -17.510  11.294  -5.934  1.00  0.00     0.091 A 
ATOM     76  F   UNL     1     -17.061   9.012  -6.190  1.00  0.00    -0.205 F 
ATOM     77  C   UNL     1     -17.096  12.626  -5.960  1.00  0.00     0.022 A 
BRANCH  75  78
ATOM     78  S   UNL     1     -19.250  11.003  -5.547  1.00  0.00     0.127 S 
ATOM     79  O   UNL     1     -19.386  11.653  -4.242  1.00  0.00    -0.237 OA
ATOM     80  O   UNL     1     -19.934  11.693  -6.640  1.00  0.00    -0.237 OA
ATOM     81  O   UNL     1     -19.436   9.557  -5.519  1.00  0.00    -0.744 OA
ENDBRANCH  75  78
ENDBRANCH  57  71
BRANCH  58  82
ATOM     82  C   UNL     1      -7.998   4.010  -5.642  1.00  0.00     0.023 A 
ATOM     83  C   UNL     1      -7.486   3.383  -4.475  1.00  0.00     0.012 A 
ATOM     84  C   UNL     1      -8.864   3.276  -6.470  1.00  0.00     0.148 A 
ATOM     85  C   UNL     1      -8.025   2.177  -4.019  1.00  0.00     0.002 A 
ATOM     86  C   UNL     1      -9.363   2.049  -6.029  1.00  0.00     0.091 A 
ATOM     87  F   UNL     1      -9.232   3.799  -7.647  1.00  0.00    -0.205 F 
ATOM     88  C   UNL     1      -9.005   1.538  -4.771  1.00  0.00     0.022 A 
BRANCH  86  89
ATOM     89  S   UNL     1     -10.547   1.129  -7.022  1.00  0.00     0.127 S 
ATOM     90  O   UNL     1      -9.665   0.349  -7.885  1.00  0.00    -0.237 OA
ATOM     91  O   UNL     1     -11.276   0.342  -6.028  1.00  0.00    -0.237 OA
ATOM     92  O   UNL     1     -11.352   2.151  -7.677  1.00  0.00    -0.744 OA
ENDBRANCH  86  89
ENDBRANCH  58  82
BRANCH  70  93
ATOM     93  C   UNL     1      -9.838   9.487 -10.158  1.00  0.00     0.023 A 
ATOM     94  C   UNL     1      -8.984   9.112 -11.208  1.00  0.00     0.012 A 
ATOM     95  C   UNL     1     -10.861  10.416 -10.519  1.00  0.00     0.148 A 
ATOM     96  C   UNL     1      -9.164   9.546 -12.529  1.00  0.00     0.002 A 
ATOM     97  C   UNL     1     -11.080  10.799 -11.841  1.00  0.00     0.091 A 
ATOM     98  F   UNL     1     -11.602  11.008  -9.576  1.00  0.00    -0.205 F 
ATOM     99  C   UNL     1     -10.231  10.364 -12.853  1.00  0.00     0.022 A 
BRANCH  97 100
ATOM    100  S   UNL     1     -12.480  11.822 -12.321  1.00  0.00     0.127 S 
ATOM    101  O   UNL     1     -11.830  13.105 -12.585  1.00  0.00    -0.237 OA
ATOM    102  O   UNL     1     -12.966  11.129 -13.515  1.00  0.00    -0.237 OA
ATOM    103  O   UNL     1     -13.400  11.798 -11.194  1.00  0.00    -0.744 OA
ENDBRANCH  97 100
ENDBRANCH  70  93
ENDBRANCH  44  45
ENDBRANCH  36  39
ENDBRANCH  34  35
ENDBRANCH  33  34
ENDBRANCH  32  33
ENDBRANCH   1  32
TORSDOF 19
