REMARK SMILES C#Cc1cccc(NS(=O)(=O)c2ccc(F)c(C(=O)NCCCCNC(=O)c3ccc(-c4c5nc(c(-c6cccc(S(=O)(=O)[O-])c6F)c6ccc([nH]6)c(-c6cccc(S(=O)(=O)[O-])c6F)c6nc(c(-c7cccc(S(=O)(=O)[O-])c7F)c7ccc4[nH]7)C=C6)C=C5)cc3)c2)c1
REMARK SMILES IDX 22 1 21 2 20 3 18 4 19 5 17 7 12 8 13 9 91 10 14 11 15 12
REMARK SMILES IDX 16 13 9 14 10 15 11 16 8 17 7 19 3 20 4 21 92 22 5 23 6 24
REMARK SMILES IDX 2 25 1 26 23 27 24 28 25 29 26 30 27 32 28 33 29 34 90 35
REMARK SMILES IDX 30 36 89 37 31 38 32 39 33 40 83 41 34 42 88 43 82 44 84 45
REMARK SMILES IDX 35 46 87 47 81 48 80 49 36 51 68 52 48 53 67 54 49 55 52 56
REMARK SMILES IDX 66 57 85 58 50 59 51 60 65 62 86 63 53 64 37 65 38 66 46 67
REMARK SMILES IDX 39 68 41 69 47 70 40 71 42 72 43 73 44 74 45 75 69 76 70 77
REMARK SMILES IDX 78 78 71 79 73 80 79 81 72 82 74 83 75 84 76 85 77 86 54 87
REMARK SMILES IDX 55 88 63 89 56 90 58 91 64 92 57 93 59 94 60 95 61 96 62 97
REMARK H PARENT 20 6 8 18 25 31 84 50 52 61
REMARK Flexibility Score: inf
ROOT
ATOM      1  C   UNL     1       7.627   4.394   1.519  1.00  0.00     0.023 C 
ENDROOT
BRANCH   1   2
ATOM      2  C   UNL     1       7.890   3.594   0.240  1.00  0.00     0.116 C 
BRANCH   2   3
ATOM      3  N   UNL     1       8.319   2.256   0.586  1.00  0.00    -0.352 N 
ATOM      4  C   UNL     1       7.657   1.067   0.725  1.00  0.00     0.254 C 
ATOM      5  O   UNL     1       8.310   0.116   1.157  1.00  0.00    -0.269 OA
ATOM      6  H   UNL     1       9.287   2.187   0.756  1.00  0.00     0.163 HD
BRANCH   4   7
ATOM      7  C   UNL     1       6.261   0.816   0.271  1.00  0.00     0.076 A 
ATOM      8  C   UNL     1       4.641  -0.861  -0.448  1.00  0.00     0.088 A 
ATOM      9  C   UNL     1       3.883   0.119  -1.078  1.00  0.00     0.025 A 
ATOM     10  C   UNL     1       5.874  -0.526   0.134  1.00  0.00     0.039 A 
ATOM     11  C   UNL     1       4.180   1.450  -0.800  1.00  0.00     0.041 A 
ATOM     12  C   UNL     1       5.304   1.775  -0.040  1.00  0.00     0.136 A 
ATOM     13  F   UNL     1       5.332   3.006   0.483  1.00  0.00    -0.206 F 
BRANCH   8  14
ATOM     14  S   UNL     1       3.951  -2.450  -0.028  1.00  0.00     0.261 S 
ATOM     15  O   UNL     1       4.376  -2.753   1.322  1.00  0.00    -0.201 OA
ATOM     16  O   UNL     1       4.259  -3.336  -1.131  1.00  0.00    -0.201 OA
BRANCH  14  17
ATOM     17  N   UNL     1       2.274  -2.355  -0.002  1.00  0.00    -0.280 N 
ATOM     18  H   UNL     1       1.797  -3.164  -0.296  1.00  0.00     0.180 HD
BRANCH  17  19
ATOM     19  C   UNL     1       1.448  -1.259   0.390  1.00  0.00     0.050 A 
ATOM     20  C   UNL     1      -0.707  -0.181   0.083  1.00  0.00     0.026 A 
ATOM     21  C   UNL     1      -0.172   1.018   0.545  1.00  0.00     0.017 A 
ATOM     22  C   UNL     1       0.110  -1.310  -0.022  1.00  0.00     0.044 A 
ATOM     23  C   UNL     1       1.115   1.034   1.076  1.00  0.00     0.003 A 
ATOM     24  C   UNL     1       1.889  -0.133   1.080  1.00  0.00     0.027 A 
BRANCH  20  25
ATOM     25  C   UNL     1      -2.101  -0.247  -0.217  1.00  0.00    -0.070 C 
ATOM     26  C   UNL     1      -3.299  -0.266  -0.345  1.00  0.00     0.010 C 
ENDBRANCH  20  25
ENDBRANCH  17  19
ENDBRANCH  14  17
ENDBRANCH   8  14
ENDBRANCH   4   7
ENDBRANCH   2   3
ENDBRANCH   1   2
BRANCH   1  27
ATOM     27  C   UNL     1       8.880   5.102   2.036  1.00  0.00     0.023 C 
BRANCH  27  28
ATOM     28  C   UNL     1       9.455   6.130   1.069  1.00  0.00     0.116 C 
BRANCH  28  29
ATOM     29  N   UNL     1       8.504   7.177   0.719  1.00  0.00    -0.352 N 
ATOM     30  C   UNL     1       8.763   8.511   0.518  1.00  0.00     0.251 C 
ATOM     31  H   UNL     1       7.566   6.896   0.615  1.00  0.00     0.163 HD
ATOM     32  O   UNL     1       7.849   9.313   0.361  1.00  0.00    -0.269 OA
BRANCH  30  33
ATOM     33  C   UNL     1      10.169   8.957   0.531  1.00  0.00     0.039 A 
ATOM     34  C   UNL     1      10.541   9.998   1.380  1.00  0.00     0.014 A 
ATOM     35  C   UNL     1      11.125   8.272  -0.225  1.00  0.00     0.014 A 
ATOM     36  C   UNL     1      11.892  10.315   1.515  1.00  0.00     0.010 A 
ATOM     37  C   UNL     1      12.473   8.524  -0.013  1.00  0.00     0.010 A 
ATOM     38  C   UNL     1      12.871   9.556   0.850  1.00  0.00    -0.014 A 
BRANCH  38  39
ATOM     39  C   UNL     1      14.317   9.822   1.053  1.00  0.00     0.031 A 
ATOM     40  C   UNL     1      15.182  10.217  -0.111  1.00  0.00     0.074 A 
ATOM     41  C   UNL     1      14.863   9.647   2.272  1.00  0.00     0.049 A 
ATOM     42  N   UNL     1      16.465  10.465  -0.133  1.00  0.00    -0.248 NA
ATOM     43  C   UNL     1      14.530  10.326  -1.427  1.00  0.00     0.031 C 
ATOM     44  C   UNL     1      14.141   9.198   3.464  1.00  0.00     0.029 A 
ATOM     45  N   UNL     1      16.154   9.811   2.708  1.00  0.00    -0.354 N 
ATOM     46  C   UNL     1      16.778  10.728  -1.460  1.00  0.00     0.074 A 
ATOM     47  C   UNL     1      15.561  10.565  -2.223  1.00  0.00     0.031 C 
ATOM     48  C   UNL     1      14.992   9.147   4.500  1.00  0.00     0.029 A 
ATOM     49  C   UNL     1      16.328   9.513   4.040  1.00  0.00     0.049 A 
ATOM     50  H   UNL     1      16.887  10.113   2.124  1.00  0.00     0.167 HD
ATOM     51  C   UNL     1      17.964  11.102  -1.992  1.00  0.00     0.034 A 
ATOM     52  C   UNL     1      17.438   9.523   4.805  1.00  0.00     0.034 A 
ATOM     53  C   UNL     1      19.164  11.287  -1.224  1.00  0.00     0.049 A 
ATOM     54  C   UNL     1      18.745   9.945   4.194  1.00  0.00     0.074 A 
ATOM     55  C   UNL     1      20.396  11.738  -1.659  1.00  0.00     0.029 A 
ATOM     56  N   UNL     1      19.292  11.014   0.130  1.00  0.00    -0.354 N 
ATOM     57  N   UNL     1      18.993  10.321   2.964  1.00  0.00    -0.248 NA
ATOM     58  C   UNL     1      19.918   9.975   5.080  1.00  0.00     0.031 C 
ATOM     59  C   UNL     1      21.284  11.686  -0.582  1.00  0.00     0.029 A 
ATOM     60  C   UNL     1      20.589  11.264   0.541  1.00  0.00     0.049 A 
ATOM     61  H   UNL     1      18.567  10.690   0.712  1.00  0.00     0.167 HD
ATOM     62  C   UNL     1      20.340  10.663   2.932  1.00  0.00     0.074 A 
ATOM     63  C   UNL     1      20.852  10.463   4.273  1.00  0.00     0.031 C 
ATOM     64  C   UNL     1      21.083  11.098   1.885  1.00  0.00     0.034 A 
BRANCH  51  65
ATOM     65  C   UNL     1      18.020  11.372  -3.474  1.00  0.00     0.023 A 
ATOM     66  C   UNL     1      17.352  12.493  -4.009  1.00  0.00     0.012 A 
ATOM     67  C   UNL     1      18.799  10.563  -4.323  1.00  0.00     0.148 A 
ATOM     68  C   UNL     1      17.433  12.786  -5.370  1.00  0.00     0.002 A 
ATOM     69  C   UNL     1      18.921  10.893  -5.667  1.00  0.00     0.091 A 
ATOM     70  F   UNL     1      19.409   9.490  -3.801  1.00  0.00    -0.205 F 
ATOM     71  C   UNL     1      18.228  11.995  -6.194  1.00  0.00     0.022 A 
BRANCH  69  72
ATOM     72  S   UNL     1      19.994   9.996  -6.793  1.00  0.00     0.127 S 
ATOM     73  O   UNL     1      19.022   9.387  -7.702  1.00  0.00    -0.237 OA
ATOM     74  O   UNL     1      20.787  11.074  -7.382  1.00  0.00    -0.237 OA
ATOM     75  O   UNL     1      20.748   9.059  -5.973  1.00  0.00    -0.744 OA
ENDBRANCH  69  72
ENDBRANCH  51  65
BRANCH  52  76
ATOM     76  C   UNL     1      17.332   9.172   6.249  1.00  0.00     0.023 A 
ATOM     77  C   UNL     1      17.472  10.180   7.222  1.00  0.00     0.012 A 
ATOM     78  C   UNL     1      17.012   7.862   6.656  1.00  0.00     0.148 A 
ATOM     79  C   UNL     1      17.307   9.887   8.576  1.00  0.00     0.002 A 
ATOM     80  C   UNL     1      16.789   7.590   8.000  1.00  0.00     0.091 A 
ATOM     81  F   UNL     1      16.889   6.919   5.712  1.00  0.00    -0.205 F 
ATOM     82  C   UNL     1      16.952   8.598   8.964  1.00  0.00     0.022 A 
BRANCH  80  83
ATOM     83  S   UNL     1      16.192   5.999   8.578  1.00  0.00     0.127 S 
ATOM     84  O   UNL     1      17.291   5.559   9.434  1.00  0.00    -0.237 OA
ATOM     85  O   UNL     1      14.971   6.381   9.287  1.00  0.00    -0.237 OA
ATOM     86  O   UNL     1      15.972   5.198   7.381  1.00  0.00    -0.744 OA
ENDBRANCH  80  83
ENDBRANCH  52  76
BRANCH  64  87
ATOM     87  C   UNL     1      22.533  11.428   2.127  1.00  0.00     0.023 A 
ATOM     88  C   UNL     1      23.465  10.398   2.356  1.00  0.00     0.012 A 
ATOM     89  C   UNL     1      22.989  12.757   1.999  1.00  0.00     0.148 A 
ATOM     90  C   UNL     1      24.824  10.686   2.474  1.00  0.00     0.002 A 
ATOM     91  C   UNL     1      24.349  13.029   2.058  1.00  0.00     0.091 A 
ATOM     92  F   UNL     1      22.083  13.725   1.794  1.00  0.00    -0.205 F 
ATOM     93  C   UNL     1      25.267  11.996   2.308  1.00  0.00     0.022 A 
BRANCH  91  94
ATOM     94  S   UNL     1      25.023  14.665   1.748  1.00  0.00     0.127 S 
ATOM     95  O   UNL     1      25.573  15.013   3.058  1.00  0.00    -0.237 OA
ATOM     96  O   UNL     1      26.026  14.393   0.718  1.00  0.00    -0.237 OA
ATOM     97  O   UNL     1      23.905  15.488   1.308  1.00  0.00    -0.744 OA
ENDBRANCH  91  94
ENDBRANCH  64  87
ENDBRANCH  38  39
ENDBRANCH  30  33
ENDBRANCH  28  29
ENDBRANCH  27  28
ENDBRANCH   1  27
TORSDOF 18
