REMARK SMILES COC(=O)CCN(C)C(=O)NCc1ccc(C(=O)NCCCCNC(=O)c2ccc(-c3c4nc(c(-c5cccc(S(=O)(=O)[O-])c5F)c5ccc([nH]5)c(-c5cccc(S(=O)(=O)[O-])c5F)c5nc(c(-c6cccc(S(=O)(=O)[O-])c6F)c6ccc3[nH]6)C=C5)C=C4)cc2)o1
REMARK SMILES IDX 17 1 18 2 19 3 16 5 13 6 14 7 90 8 15 9 12 10 11 11 9 12
REMARK SMILES IDX 10 13 7 15 8 16 6 17 5 18 3 19 4 20 2 21 1 22 20 23 21 24
REMARK SMILES IDX 22 25 23 26 24 27 25 28 26 30 27 31 28 32 89 33 29 34 88 35
REMARK SMILES IDX 30 36 31 37 32 38 82 39 33 40 87 41 81 42 83 43 34 44 86 45
REMARK SMILES IDX 80 46 79 47 35 49 67 50 47 51 66 52 48 53 51 54 65 55 84 56
REMARK SMILES IDX 49 57 50 58 64 60 85 61 52 62 36 63 37 64 45 65 38 66 40 67
REMARK SMILES IDX 46 68 39 69 41 70 42 71 43 72 44 73 68 74 69 75 77 76 70 77
REMARK SMILES IDX 72 78 78 79 71 80 73 81 74 82 75 83 76 84 53 85 54 86 62 87
REMARK SMILES IDX 55 88 57 89 63 90 56 91 58 92 59 93 60 94 61 95
REMARK H PARENT 19 4 11 14 24 29 83 48 51 59
REMARK Flexibility Score: inf
ROOT
ATOM      1  C   UNL     1       1.128  -4.776   7.377  1.00  0.00     0.286 C 
ATOM      2  O   UNL     1       0.830  -5.931   7.072  1.00  0.00    -0.266 OA
ATOM      3  N   UNL     1       1.959  -4.640   8.465  1.00  0.00    -0.349 N 
ATOM      4  H   UNL     1       2.202  -5.488   8.902  1.00  0.00     0.163 HD
ENDROOT
BRANCH   1   5
ATOM      5  C   UNL     1       0.652  -3.621   6.630  1.00  0.00     0.191 A 
ATOM      6  C   UNL     1      -0.269  -2.719   4.830  1.00  0.00     0.124 A 
ATOM      7  C   UNL     1       0.061  -1.669   5.653  1.00  0.00     0.048 A 
ATOM      8  O   UNL     1       0.061  -3.896   5.419  1.00  0.00    -0.454 OA
ATOM      9  C   UNL     1       0.632  -2.248   6.812  1.00  0.00     0.056 A 
BRANCH   6  10
ATOM     10  C   UNL     1      -0.788  -2.798   3.445  1.00  0.00     0.193 C 
BRANCH  10  11
ATOM     11  N   UNL     1       0.339  -2.495   2.591  1.00  0.00    -0.331 N 
ATOM     12  C   UNL     1       0.941  -3.021   1.521  1.00  0.00     0.317 C 
ATOM     13  O   UNL     1       1.933  -2.398   1.130  1.00  0.00    -0.249 OA
ATOM     14  H   UNL     1       0.788  -1.668   2.879  1.00  0.00     0.165 HD
BRANCH  12  15
ATOM     15  N   UNL     1       0.465  -4.105   0.845  1.00  0.00    -0.327 N 
ATOM     16  C   UNL     1      -0.508  -5.066   1.332  1.00  0.00     0.148 C 
BRANCH  15  17
ATOM     17  C   UNL     1       0.972  -4.308  -0.520  1.00  0.00     0.132 C 
BRANCH  17  18
ATOM     18  C   UNL     1       0.242  -3.453  -1.553  1.00  0.00     0.144 C 
BRANCH  18  19
ATOM     19  C   UNL     1       0.794  -2.051  -1.596  1.00  0.00     0.307 C 
ATOM     20  O   UNL     1       1.757  -1.719  -2.275  1.00  0.00    -0.252 OA
BRANCH  19  21
ATOM     21  O   UNL     1       0.078  -1.228  -0.781  1.00  0.00    -0.469 OA
ATOM     22  C   UNL     1       0.711   0.021  -0.492  1.00  0.00     0.282 C 
ENDBRANCH  19  21
ENDBRANCH  18  19
ENDBRANCH  17  18
ENDBRANCH  15  17
ENDBRANCH  12  15
ENDBRANCH  10  11
ENDBRANCH   6  10
ENDBRANCH   1   5
BRANCH   3  23
ATOM     23  C   UNL     1       2.536  -3.464   9.073  1.00  0.00     0.116 C 
BRANCH  23  24
ATOM     24  C   UNL     1       1.651  -2.943  10.205  1.00  0.00     0.023 C 
BRANCH  24  25
ATOM     25  C   UNL     1       1.883  -3.648  11.546  1.00  0.00     0.023 C 
BRANCH  25  26
ATOM     26  C   UNL     1       3.308  -3.552  12.087  1.00  0.00     0.116 C 
BRANCH  26  27
ATOM     27  N   UNL     1       3.798  -2.184  12.170  1.00  0.00    -0.352 N 
ATOM     28  C   UNL     1       4.675  -1.637  13.074  1.00  0.00     0.251 C 
ATOM     29  H   UNL     1       3.455  -1.567  11.484  1.00  0.00     0.163 HD
ATOM     30  O   UNL     1       4.879  -0.427  13.069  1.00  0.00    -0.269 OA
BRANCH  28  31
ATOM     31  C   UNL     1       5.337  -2.505  14.070  1.00  0.00     0.039 A 
ATOM     32  C   UNL     1       5.381  -2.081  15.399  1.00  0.00     0.014 A 
ATOM     33  C   UNL     1       5.896  -3.732  13.704  1.00  0.00     0.014 A 
ATOM     34  C   UNL     1       5.941  -2.914  16.368  1.00  0.00     0.010 A 
ATOM     35  C   UNL     1       6.377  -4.596  14.684  1.00  0.00     0.010 A 
ATOM     36  C   UNL     1       6.413  -4.193  16.026  1.00  0.00    -0.014 A 
BRANCH  36  37
ATOM     37  C   UNL     1       6.916  -5.112  17.078  1.00  0.00     0.031 A 
ATOM     38  C   UNL     1       8.344  -5.586  17.077  1.00  0.00     0.074 A 
ATOM     39  C   UNL     1       6.062  -5.550  18.026  1.00  0.00     0.049 A 
ATOM     40  N   UNL     1       8.964  -6.325  17.961  1.00  0.00    -0.248 NA
ATOM     41  C   UNL     1       9.179  -5.206  15.926  1.00  0.00     0.031 C 
ATOM     42  C   UNL     1       4.630  -5.246  18.077  1.00  0.00     0.029 A 
ATOM     43  N   UNL     1       6.271  -6.345  19.124  1.00  0.00    -0.354 N 
ATOM     44  C   UNL     1      10.248  -6.516  17.466  1.00  0.00     0.074 A 
ATOM     45  C   UNL     1      10.306  -5.854  16.182  1.00  0.00     0.031 C 
ATOM     46  C   UNL     1       4.096  -5.820  19.166  1.00  0.00     0.029 A 
ATOM     47  C   UNL     1       5.139  -6.553  19.877  1.00  0.00     0.049 A 
ATOM     48  H   UNL     1       7.148  -6.729  19.352  1.00  0.00     0.167 HD
ATOM     49  C   UNL     1      11.294  -7.156  18.042  1.00  0.00     0.034 A 
ATOM     50  C   UNL     1       4.962  -7.248  21.016  1.00  0.00     0.034 A 
ATOM     51  C   UNL     1      11.238  -7.793  19.331  1.00  0.00     0.049 A 
ATOM     52  C   UNL     1       6.152  -7.902  21.662  1.00  0.00     0.074 A 
ATOM     53  C   UNL     1      12.262  -8.395  20.040  1.00  0.00     0.029 A 
ATOM     54  N   UNL     1      10.091  -7.926  20.099  1.00  0.00    -0.354 N 
ATOM     55  N   UNL     1       7.401  -7.921  21.265  1.00  0.00    -0.248 NA
ATOM     56  C   UNL     1       5.916  -8.590  22.938  1.00  0.00     0.031 C 
ATOM     57  C   UNL     1      11.727  -8.922  21.221  1.00  0.00     0.029 A 
ATOM     58  C   UNL     1      10.378  -8.611  21.268  1.00  0.00     0.049 A 
ATOM     59  H   UNL     1       9.202  -7.583  19.850  1.00  0.00     0.167 HD
ATOM     60  C   UNL     1       8.105  -8.594  22.256  1.00  0.00     0.074 A 
ATOM     61  C   UNL     1       7.147  -8.935  23.287  1.00  0.00     0.031 C 
ATOM     62  C   UNL     1       9.423  -8.916  22.302  1.00  0.00     0.034 A 
BRANCH  49  63
ATOM     63  C   UNL     1      12.607  -7.161  17.299  1.00  0.00     0.023 A 
ATOM     64  C   UNL     1      13.337  -5.961  17.162  1.00  0.00     0.012 A 
ATOM     65  C   UNL     1      13.148  -8.357  16.788  1.00  0.00     0.148 A 
ATOM     66  C   UNL     1      14.562  -5.944  16.497  1.00  0.00     0.002 A 
ATOM     67  C   UNL     1      14.393  -8.341  16.171  1.00  0.00     0.091 A 
ATOM     68  F   UNL     1      12.433  -9.485  16.909  1.00  0.00    -0.205 F 
ATOM     69  C   UNL     1      15.095  -7.135  16.012  1.00  0.00     0.022 A 
BRANCH  67  70
ATOM     70  S   UNL     1      15.206  -9.832  15.586  1.00  0.00     0.127 S 
ATOM     71  O   UNL     1      15.162  -9.644  14.137  1.00  0.00    -0.237 OA
ATOM     72  O   UNL     1      16.539  -9.706  16.177  1.00  0.00    -0.237 OA
ATOM     73  O   UNL     1      14.418 -10.946  16.094  1.00  0.00    -0.744 OA
ENDBRANCH  67  70
ENDBRANCH  49  63
BRANCH  50  74
ATOM     74  C   UNL     1       3.617  -7.300  21.656  1.00  0.00     0.023 A 
ATOM     75  C   UNL     1       3.399  -6.635  22.879  1.00  0.00     0.012 A 
ATOM     76  C   UNL     1       2.549  -7.987  21.049  1.00  0.00     0.148 A 
ATOM     77  C   UNL     1       2.153  -6.686  23.504  1.00  0.00     0.002 A 
ATOM     78  C   UNL     1       1.294  -7.982  21.646  1.00  0.00     0.091 A 
ATOM     79  F   UNL     1       2.779  -8.620  19.890  1.00  0.00    -0.205 F 
ATOM     80  C   UNL     1       1.098  -7.351  22.883  1.00  0.00     0.022 A 
BRANCH  78  81
ATOM     81  S   UNL     1      -0.151  -8.693  20.851  1.00  0.00     0.127 S 
ATOM     82  O   UNL     1      -0.420  -9.851  21.700  1.00  0.00    -0.237 OA
ATOM     83  O   UNL     1      -1.122  -7.604  20.965  1.00  0.00    -0.237 OA
ATOM     84  O   UNL     1       0.257  -8.991  19.485  1.00  0.00    -0.744 OA
ENDBRANCH  78  81
ENDBRANCH  50  74
BRANCH  62  85
ATOM     85  C   UNL     1       9.910  -9.649  23.527  1.00  0.00     0.023 A 
ATOM     86  C   UNL     1       9.506 -10.979  23.762  1.00  0.00     0.012 A 
ATOM     87  C   UNL     1      10.789  -9.025  24.434  1.00  0.00     0.148 A 
ATOM     88  C   UNL     1       9.922 -11.655  24.908  1.00  0.00     0.002 A 
ATOM     89  C   UNL     1      11.245  -9.725  25.545  1.00  0.00     0.091 A 
ATOM     90  F   UNL     1      11.150  -7.754  24.207  1.00  0.00    -0.205 F 
ATOM     91  C   UNL     1      10.797 -11.033  25.794  1.00  0.00     0.022 A 
BRANCH  89  92
ATOM     92  S   UNL     1      12.451  -9.037  26.683  1.00  0.00     0.127 S 
ATOM     93  O   UNL     1      11.617  -8.708  27.838  1.00  0.00    -0.237 OA
ATOM     94  O   UNL     1      13.363 -10.163  26.890  1.00  0.00    -0.237 OA
ATOM     95  O   UNL     1      13.046  -7.899  25.994  1.00  0.00    -0.744 OA
ENDBRANCH  89  92
ENDBRANCH  62  85
ENDBRANCH  36  37
ENDBRANCH  28  31
ENDBRANCH  26  27
ENDBRANCH  25  26
ENDBRANCH  24  25
ENDBRANCH  23  24
ENDBRANCH   3  23
TORSDOF 21
