REMARK SMILES CC(C)(C)SCC(=O)NC1(CC(=O)NCCCCNC(=O)c2ccc(-c3c4nc(c(-c5cccc(S(=O)(=O)[O-])c5F)c5ccc([nH]5)c(-c5cccc(S(=O)(=O)[O-])c5F)c5nc(c(-c6cccc(S(=O)(=O)[O-])c6F)c6ccc3[nH]6)C=C5)C=C4)cc2)CCC1
REMARK SMILES IDX 15 1 14 2 12 3 13 4 11 6 10 7 85 8 87 9 86 10 9 11 7 12 8 13
REMARK SMILES IDX 6 15 5 16 2 17 1 18 3 19 4 20 16 21 17 22 18 23 19 24 20 25
REMARK SMILES IDX 21 27 22 28 23 29 84 30 24 31 83 32 25 33 26 34 27 35 77 36
REMARK SMILES IDX 28 37 82 38 76 39 78 40 29 41 81 42 75 43 74 44 30 46 62 47
REMARK SMILES IDX 42 48 61 49 43 50 46 51 60 52 79 53 44 54 45 55 59 57 80 58
REMARK SMILES IDX 47 59 31 60 32 61 40 62 33 63 35 64 41 65 34 66 36 67 37 68
REMARK SMILES IDX 38 69 39 70 63 71 64 72 72 73 65 74 67 75 73 76 66 77 68 78
REMARK SMILES IDX 69 79 70 80 71 81 48 82 49 83 57 84 50 85 52 86 58 87 51 88
REMARK SMILES IDX 53 89 54 90 55 91 56 92
REMARK H PARENT 14 5 9 14 19 26 78 45 46 56
REMARK Flexibility Score: inf
ROOT
ATOM      1  C   UNL     1       2.846  -2.651   2.853  1.00  0.00     0.116 C 
ENDROOT
BRANCH   1   2
ATOM      2  N   UNL     1       2.781  -1.464   2.027  1.00  0.00    -0.356 N 
ATOM      3  C   UNL     1       3.359  -0.237   2.164  1.00  0.00     0.222 C 
ATOM      4  O   UNL     1       3.248   0.574   1.240  1.00  0.00    -0.275 OA
ATOM      5  H   UNL     1       2.219  -1.559   1.225  1.00  0.00     0.163 HD
BRANCH   3   6
ATOM      6  C   UNL     1       4.200   0.117   3.357  1.00  0.00     0.128 C 
BRANCH   6   7
ATOM      7  C   UNL     1       3.532   0.508   4.688  1.00  0.00     0.049 C 
ATOM      8  C   UNL     1       4.705   0.922   5.695  1.00  0.00     0.029 C 
ATOM      9  C   UNL     1       3.224  -0.571   5.783  1.00  0.00     0.029 C 
ATOM     10  C   UNL     1       4.701  -0.514   6.214  1.00  0.00     0.005 C 
BRANCH   7  11
ATOM     11  N   UNL     1       2.656   1.709   4.587  1.00  0.00    -0.349 N 
ATOM     12  C   UNL     1       1.329   1.991   4.456  1.00  0.00     0.230 C 
ATOM     13  O   UNL     1       1.037   3.189   4.582  1.00  0.00    -0.274 OA
ATOM     14  H   UNL     1       3.189   2.536   4.625  1.00  0.00     0.164 HD
BRANCH  12  15
ATOM     15  C   UNL     1       0.227   0.978   4.261  1.00  0.00     0.169 C 
BRANCH  15  16
ATOM     16  S   UNL     1       0.228   0.148   2.662  1.00  0.00    -0.146 SA
BRANCH  16  17
ATOM     17  C   UNL     1      -0.368   1.318   1.382  1.00  0.00     0.008 C 
ATOM     18  C   UNL     1       0.075   0.704   0.035  1.00  0.00     0.022 C 
ATOM     19  C   UNL     1       0.224   2.717   1.510  1.00  0.00     0.022 C 
ATOM     20  C   UNL     1      -1.898   1.352   1.413  1.00  0.00     0.022 C 
ENDBRANCH  16  17
ENDBRANCH  15  16
ENDBRANCH  12  15
ENDBRANCH   7  11
ENDBRANCH   6   7
ENDBRANCH   3   6
ENDBRANCH   1   2
BRANCH   1  21
ATOM     21  C   UNL     1       1.661  -2.863   3.806  1.00  0.00     0.023 C 
BRANCH  21  22
ATOM     22  C   UNL     1       0.292  -3.257   3.262  1.00  0.00     0.023 C 
BRANCH  22  23
ATOM     23  C   UNL     1       0.278  -4.266   2.145  1.00  0.00     0.116 C 
BRANCH  23  24
ATOM     24  N   UNL     1       0.689  -5.576   2.613  1.00  0.00    -0.352 N 
ATOM     25  C   UNL     1      -0.062  -6.725   2.692  1.00  0.00     0.251 C 
ATOM     26  H   UNL     1       1.625  -5.652   2.911  1.00  0.00     0.163 HD
ATOM     27  O   UNL     1       0.344  -7.673   3.356  1.00  0.00    -0.269 OA
BRANCH  25  28
ATOM     28  C   UNL     1      -1.362  -6.801   1.984  1.00  0.00     0.039 A 
ATOM     29  C   UNL     1      -2.445  -7.425   2.607  1.00  0.00     0.014 A 
ATOM     30  C   UNL     1      -1.510  -6.258   0.705  1.00  0.00     0.014 A 
ATOM     31  C   UNL     1      -3.683  -7.469   1.960  1.00  0.00     0.010 A 
ATOM     32  C   UNL     1      -2.766  -6.204   0.113  1.00  0.00     0.010 A 
ATOM     33  C   UNL     1      -3.859  -6.840   0.716  1.00  0.00    -0.014 A 
BRANCH  33  34
ATOM     34  C   UNL     1      -5.157  -6.881  -0.005  1.00  0.00     0.031 A 
ATOM     35  C   UNL     1      -5.232  -7.532  -1.364  1.00  0.00     0.074 A 
ATOM     36  C   UNL     1      -6.242  -6.278   0.520  1.00  0.00     0.049 A 
ATOM     37  N   UNL     1      -6.243  -7.607  -2.189  1.00  0.00    -0.248 NA
ATOM     38  C   UNL     1      -3.998  -8.154  -1.879  1.00  0.00     0.031 C 
ATOM     39  C   UNL     1      -6.278  -5.550   1.791  1.00  0.00     0.029 A 
ATOM     40  N   UNL     1      -7.521  -6.161   0.037  1.00  0.00    -0.354 N 
ATOM     41  C   UNL     1      -5.760  -8.248  -3.325  1.00  0.00     0.074 A 
ATOM     42  C   UNL     1      -4.354  -8.497  -3.107  1.00  0.00     0.031 C 
ATOM     43  C   UNL     1      -7.518  -5.072   1.990  1.00  0.00     0.029 A 
ATOM     44  C   UNL     1      -8.356  -5.431   0.852  1.00  0.00     0.049 A 
ATOM     45  H   UNL     1      -7.814  -6.562  -0.813  1.00  0.00     0.167 HD
ATOM     46  C   UNL     1      -6.433  -8.636  -4.434  1.00  0.00     0.034 A 
ATOM     47  C   UNL     1      -9.650  -5.089   0.694  1.00  0.00     0.034 A 
ATOM     48  C   UNL     1      -7.843  -8.440  -4.622  1.00  0.00     0.049 A 
ATOM     49  C   UNL     1     -10.383  -5.568  -0.533  1.00  0.00     0.074 A 
ATOM     50  C   UNL     1      -8.636  -8.854  -5.677  1.00  0.00     0.029 A 
ATOM     51  N   UNL     1      -8.673  -7.780  -3.730  1.00  0.00    -0.354 N 
ATOM     52  N   UNL     1      -9.939  -6.296  -1.529  1.00  0.00    -0.248 NA
ATOM     53  C   UNL     1     -11.805  -5.211  -0.639  1.00  0.00     0.031 C 
ATOM     54  C   UNL     1      -9.946  -8.435  -5.427  1.00  0.00     0.029 A 
ATOM     55  C   UNL     1      -9.972  -7.780  -4.206  1.00  0.00     0.049 A 
ATOM     56  H   UNL     1      -8.382  -7.373  -2.882  1.00  0.00     0.167 HD
ATOM     57  C   UNL     1     -11.035  -6.520  -2.355  1.00  0.00     0.074 A 
ATOM     58  C   UNL     1     -12.168  -5.870  -1.731  1.00  0.00     0.031 C 
ATOM     59  C   UNL     1     -11.098  -7.188  -3.533  1.00  0.00     0.034 A 
BRANCH  46  60
ATOM     60  C   UNL     1      -5.669  -9.382  -5.496  1.00  0.00     0.023 A 
ATOM     61  C   UNL     1      -5.252 -10.706  -5.244  1.00  0.00     0.012 A 
ATOM     62  C   UNL     1      -5.426  -8.811  -6.760  1.00  0.00     0.148 A 
ATOM     63  C   UNL     1      -4.580 -11.439  -6.221  1.00  0.00     0.002 A 
ATOM     64  C   UNL     1      -4.795  -9.564  -7.745  1.00  0.00     0.091 A 
ATOM     65  F   UNL     1      -5.814  -7.546  -6.975  1.00  0.00    -0.205 F 
ATOM     66  C   UNL     1      -4.362 -10.872  -7.473  1.00  0.00     0.022 A 
BRANCH  64  67
ATOM     67  S   UNL     1      -4.535  -8.960  -9.416  1.00  0.00     0.127 S 
ATOM     68  O   UNL     1      -3.076  -8.870  -9.473  1.00  0.00    -0.237 OA
ATOM     69  O   UNL     1      -5.111 -10.036 -10.223  1.00  0.00    -0.237 OA
ATOM     70  O   UNL     1      -5.238  -7.688  -9.501  1.00  0.00    -0.744 OA
ENDBRANCH  64  67
ENDBRANCH  46  60
BRANCH  47  71
ATOM     71  C   UNL     1     -10.363  -4.310   1.747  1.00  0.00     0.023 A 
ATOM     72  C   UNL     1     -11.385  -4.931   2.493  1.00  0.00     0.012 A 
ATOM     73  C   UNL     1     -10.046  -2.964   2.010  1.00  0.00     0.148 A 
ATOM     74  C   UNL     1     -12.109  -4.214   3.446  1.00  0.00     0.002 A 
ATOM     75  C   UNL     1     -10.733  -2.271   3.001  1.00  0.00     0.091 A 
ATOM     76  F   UNL     1      -9.081  -2.383   1.283  1.00  0.00    -0.205 F 
ATOM     77  C   UNL     1     -11.779  -2.887   3.706  1.00  0.00     0.022 A 
BRANCH  75  78
ATOM     78  S   UNL     1     -10.284  -0.602   3.487  1.00  0.00     0.127 S 
ATOM     79  O   UNL     1     -11.340   0.188   2.862  1.00  0.00    -0.237 OA
ATOM     80  O   UNL     1     -10.353  -0.678   4.947  1.00  0.00    -0.237 OA
ATOM     81  O   UNL     1      -8.938  -0.397   2.966  1.00  0.00    -0.744 OA
ENDBRANCH  75  78
ENDBRANCH  47  71
BRANCH  59  82
ATOM     82  C   UNL     1     -12.441  -7.300  -4.203  1.00  0.00     0.023 A 
ATOM     83  C   UNL     1     -13.013  -6.171  -4.821  1.00  0.00     0.012 A 
ATOM     84  C   UNL     1     -13.097  -8.544  -4.286  1.00  0.00     0.148 A 
ATOM     85  C   UNL     1     -14.236  -6.271  -5.482  1.00  0.00     0.002 A 
ATOM     86  C   UNL     1     -14.289  -8.647  -4.991  1.00  0.00     0.091 A 
ATOM     87  F   UNL     1     -12.542  -9.602  -3.676  1.00  0.00    -0.205 F 
ATOM     88  C   UNL     1     -14.867  -7.510  -5.578  1.00  0.00     0.022 A 
BRANCH  86  89
ATOM     89  S   UNL     1     -15.121 -10.217  -5.251  1.00  0.00     0.127 S 
ATOM     90  O   UNL     1     -16.285 -10.086  -4.377  1.00  0.00    -0.237 OA
ATOM     91  O   UNL     1     -15.424 -10.174  -6.682  1.00  0.00    -0.237 OA
ATOM     92  O   UNL     1     -14.164 -11.247  -4.868  1.00  0.00    -0.744 OA
ENDBRANCH  86  89
ENDBRANCH  59  82
ENDBRANCH  33  34
ENDBRANCH  25  28
ENDBRANCH  23  24
ENDBRANCH  22  23
ENDBRANCH  21  22
ENDBRANCH   1  21
TORSDOF 19
