REMARK SMILES CC[C@@](CC(F)(F)F)(C(=O)NCCCCNC(=O)c1ccc(-c2c3nc(c(-c4cccc(S(=O)(=O)[O-])c4F)c4ccc([nH]4)c(-c4cccc(S(=O)(=O)[O-])c4F)c4nc(c(-c5cccc(S(=O)(=O)[O-])c5F)c5ccc2[nH]5)C=C4)C=C3)cc1)c1ccccc1
REMARK SMILES IDX 14 1 13 2 12 3 11 4 9 5 10 6 3 8 2 9 1 10 4 11 5 12 6 13
REMARK SMILES IDX 7 14 8 15 82 16 83 17 87 18 84 19 86 20 85 21 15 22 16 23
REMARK SMILES IDX 17 24 18 26 19 27 20 28 81 29 21 30 80 31 22 32 23 33 24 34
REMARK SMILES IDX 74 35 25 36 79 37 73 38 75 39 26 40 78 41 72 42 71 43 27 45
REMARK SMILES IDX 59 46 39 47 58 48 40 49 43 50 57 51 76 52 41 53 42 54 56 56
REMARK SMILES IDX 77 57 44 58 28 59 29 60 37 61 30 62 32 63 38 64 31 65 33 66
REMARK SMILES IDX 34 67 35 68 36 69 60 70 61 71 69 72 62 73 64 74 70 75 63 76
REMARK SMILES IDX 65 77 66 78 67 79 68 80 45 81 46 82 54 83 47 84 49 85 55 86
REMARK SMILES IDX 48 87 50 88 51 89 52 90 53 91
REMARK H PARENT 11 7 16 25 75 44 43 55
REMARK Flexibility Score: inf
ROOT
ATOM      1  C   UNL     1      -3.623   4.118   1.360  1.00  0.00     0.023 C 
ENDROOT
BRANCH   1   2
ATOM      2  C   UNL     1      -2.840   2.829   1.109  1.00  0.00     0.023 C 
BRANCH   2   3
ATOM      3  C   UNL     1      -2.048   2.791  -0.193  1.00  0.00     0.116 C 
BRANCH   3   4
ATOM      4  N   UNL     1      -0.943   3.739  -0.228  1.00  0.00    -0.355 N 
ATOM      5  C   UNL     1       0.364   3.650  -0.617  1.00  0.00     0.230 C 
ATOM      6  O   UNL     1       0.852   4.742  -0.929  1.00  0.00    -0.274 OA
ATOM      7  H   UNL     1      -1.190   4.634   0.098  1.00  0.00     0.163 HD
BRANCH   5   8
ATOM      8  C   UNL     1       1.159   2.297  -0.768  1.00  0.00     0.082 C 
BRANCH   8   9
ATOM      9  C   UNL     1       0.786   1.343   0.423  1.00  0.00     0.019 C 
ATOM     10  C   UNL     1       0.765  -0.163   0.188  1.00  0.00     0.005 C 
ENDBRANCH   8   9
BRANCH   8  11
ATOM     11  C   UNL     1       0.950   1.817  -2.240  1.00  0.00     0.137 C 
BRANCH  11  12
ATOM     12  C   UNL     1      -0.434   1.626  -2.804  1.00  0.00     0.390 C 
ATOM     13  F   UNL     1      -1.146   2.764  -2.858  1.00  0.00    -0.171 F 
ATOM     14  F   UNL     1      -0.341   1.164  -4.076  1.00  0.00    -0.171 F 
ATOM     15  F   UNL     1      -1.139   0.707  -2.116  1.00  0.00    -0.171 F 
ENDBRANCH  11  12
ENDBRANCH   8  11
BRANCH   8  16
ATOM     16  C   UNL     1       2.743   2.439  -0.671  1.00  0.00    -0.032 A 
ATOM     17  C   UNL     1       3.551   1.283  -0.810  1.00  0.00     0.005 A 
ATOM     18  C   UNL     1       3.431   3.647  -0.475  1.00  0.00     0.005 A 
ATOM     19  C   UNL     1       4.946   1.324  -0.734  1.00  0.00     0.000 A 
ATOM     20  C   UNL     1       4.833   3.696  -0.428  1.00  0.00     0.000 A 
ATOM     21  C   UNL     1       5.590   2.536  -0.548  1.00  0.00     0.000 A 
ENDBRANCH   8  16
ENDBRANCH   5   8
ENDBRANCH   3   4
ENDBRANCH   2   3
ENDBRANCH   1   2
BRANCH   1  22
ATOM     22  C   UNL     1      -4.506   4.597   0.211  1.00  0.00     0.116 C 
BRANCH  22  23
ATOM     23  N   UNL     1      -5.436   3.584  -0.270  1.00  0.00    -0.352 N 
ATOM     24  C   UNL     1      -6.782   3.694  -0.540  1.00  0.00     0.251 C 
ATOM     25  H   UNL     1      -5.046   2.694  -0.425  1.00  0.00     0.163 HD
ATOM     26  O   UNL     1      -7.428   2.705  -0.856  1.00  0.00    -0.269 OA
BRANCH  24  27
ATOM     27  C   UNL     1      -7.447   5.008  -0.404  1.00  0.00     0.039 A 
ATOM     28  C   UNL     1      -8.625   5.089   0.343  1.00  0.00     0.014 A 
ATOM     29  C   UNL     1      -6.889   6.157  -0.970  1.00  0.00     0.014 A 
ATOM     30  C   UNL     1      -9.198   6.338   0.592  1.00  0.00     0.010 A 
ATOM     31  C   UNL     1      -7.420   7.406  -0.657  1.00  0.00     0.010 A 
ATOM     32  C   UNL     1      -8.574   7.511   0.133  1.00  0.00    -0.014 A 
BRANCH  32  33
ATOM     33  C   UNL     1      -9.094   8.852   0.506  1.00  0.00     0.031 A 
ATOM     34  C   UNL     1      -9.584   9.803  -0.551  1.00  0.00     0.074 A 
ATOM     35  C   UNL     1      -9.042   9.246   1.795  1.00  0.00     0.049 A 
ATOM     36  N   UNL     1     -10.037  11.023  -0.414  1.00  0.00    -0.248 NA
ATOM     37  C   UNL     1      -9.535   9.336  -1.947  1.00  0.00     0.031 C 
ATOM     38  C   UNL     1      -8.501   8.452   2.902  1.00  0.00     0.029 A 
ATOM     39  N   UNL     1      -9.425  10.422   2.390  1.00  0.00    -0.354 N 
ATOM     40  C   UNL     1     -10.297  11.479  -1.701  1.00  0.00     0.074 A 
ATOM     41  C   UNL     1      -9.917  10.419  -2.609  1.00  0.00     0.031 C 
ATOM     42  C   UNL     1      -8.593   9.160   4.039  1.00  0.00     0.029 A 
ATOM     43  C   UNL     1      -9.175  10.465   3.743  1.00  0.00     0.049 A 
ATOM     44  H   UNL     1      -9.840  11.166   1.896  1.00  0.00     0.167 HD
ATOM     45  C   UNL     1     -10.834  12.659  -2.091  1.00  0.00     0.034 A 
ATOM     46  C   UNL     1      -9.388  11.445   4.643  1.00  0.00     0.034 A 
ATOM     47  C   UNL     1     -11.254  13.693  -1.183  1.00  0.00     0.049 A 
ATOM     48  C   UNL     1     -10.036  12.725   4.188  1.00  0.00     0.074 A 
ATOM     49  C   UNL     1     -11.892  14.886  -1.475  1.00  0.00     0.029 A 
ATOM     50  N   UNL     1     -11.074  13.662   0.191  1.00  0.00    -0.354 N 
ATOM     51  N   UNL     1     -10.435  13.067   2.987  1.00  0.00    -0.248 NA
ATOM     52  C   UNL     1     -10.299  13.740   5.219  1.00  0.00     0.031 C 
ATOM     53  C   UNL     1     -12.083  15.584  -0.277  1.00  0.00     0.029 A 
ATOM     54  C   UNL     1     -11.583  14.816   0.761  1.00  0.00     0.049 A 
ATOM     55  H   UNL     1     -10.647  12.927   0.687  1.00  0.00     0.167 HD
ATOM     56  C   UNL     1     -11.025  14.318   3.123  1.00  0.00     0.074 A 
ATOM     57  C   UNL     1     -10.957  14.661   4.529  1.00  0.00     0.031 C 
ATOM     58  C   UNL     1     -11.558  15.120   2.169  1.00  0.00     0.034 A 
BRANCH  45  59
ATOM     59  C   UNL     1     -11.066  12.872  -3.564  1.00  0.00     0.023 A 
ATOM     60  C   UNL     1     -12.098  12.161  -4.210  1.00  0.00     0.012 A 
ATOM     61  C   UNL     1     -10.318  13.818  -4.292  1.00  0.00     0.148 A 
ATOM     62  C   UNL     1     -12.364  12.366  -5.563  1.00  0.00     0.002 A 
ATOM     63  C   UNL     1     -10.618  14.048  -5.630  1.00  0.00     0.091 A 
ATOM     64  F   UNL     1      -9.328  14.470  -3.666  1.00  0.00    -0.205 F 
ATOM     65  C   UNL     1     -11.632  13.316  -6.269  1.00  0.00     0.022 A 
BRANCH  63  66
ATOM     66  S   UNL     1      -9.789  15.305  -6.610  1.00  0.00     0.127 S 
ATOM     67  O   UNL     1      -9.013  14.488  -7.542  1.00  0.00    -0.237 OA
ATOM     68  O   UNL     1     -10.915  16.016  -7.215  1.00  0.00    -0.237 OA
ATOM     69  O   UNL     1      -9.005  16.095  -5.671  1.00  0.00    -0.744 OA
ENDBRANCH  63  66
ENDBRANCH  45  59
BRANCH  46  70
ATOM     70  C   UNL     1      -9.054  11.229   6.080  1.00  0.00     0.023 A 
ATOM     71  C   UNL     1     -10.095  11.107   7.021  1.00  0.00     0.012 A 
ATOM     72  C   UNL     1      -7.719  11.128   6.518  1.00  0.00     0.148 A 
ATOM     73  C   UNL     1      -9.814  10.928   8.376  1.00  0.00     0.002 A 
ATOM     74  C   UNL     1      -7.447  10.893   7.861  1.00  0.00     0.091 A 
ATOM     75  F   UNL     1      -6.740  11.260   5.611  1.00  0.00    -0.205 F 
ATOM     76  C   UNL     1      -8.492  10.811   8.794  1.00  0.00     0.022 A 
BRANCH  74  77
ATOM     77  S   UNL     1      -5.781  10.595   8.462  1.00  0.00     0.127 S 
ATOM     78  O   UNL     1      -5.474  11.856   9.132  1.00  0.00    -0.237 OA
ATOM     79  O   UNL     1      -5.978   9.453   9.357  1.00  0.00    -0.237 OA
ATOM     80  O   UNL     1      -4.989  10.293   7.277  1.00  0.00    -0.744 OA
ENDBRANCH  74  77
ENDBRANCH  46  70
BRANCH  58  81
ATOM     81  C   UNL     1     -12.139  16.438   2.611  1.00  0.00     0.023 A 
ATOM     82  C   UNL     1     -11.280  17.479   3.015  1.00  0.00     0.012 A 
ATOM     83  C   UNL     1     -13.528  16.666   2.565  1.00  0.00     0.148 A 
ATOM     84  C   UNL     1     -11.796  18.715   3.402  1.00  0.00     0.002 A 
ATOM     85  C   UNL     1     -14.032  17.916   2.905  1.00  0.00     0.091 A 
ATOM     86  F   UNL     1     -14.331  15.657   2.197  1.00  0.00    -0.205 F 
ATOM     87  C   UNL     1     -13.170  18.937   3.336  1.00  0.00     0.022 A 
BRANCH  85  88
ATOM     88  S   UNL     1     -15.777  18.319   2.759  1.00  0.00     0.127 S 
ATOM     89  O   UNL     1     -16.203  18.312   4.157  1.00  0.00    -0.237 OA
ATOM     90  O   UNL     1     -15.740  19.644   2.140  1.00  0.00    -0.237 OA
ATOM     91  O   UNL     1     -16.358  17.279   1.921  1.00  0.00    -0.744 OA
ENDBRANCH  85  88
ENDBRANCH  58  81
ENDBRANCH  32  33
ENDBRANCH  24  27
ENDBRANCH  22  23
ENDBRANCH   1  22
TORSDOF 18
