REMARK SMILES COc1ccc(C(=O)Nc2cc(C(=O)NCCCCNC(=O)c3ccc(-c4c5nc(c(-c6cccc(S(=O)(=O)[O-])c6F)c6ccc([nH]6)c(-c6cccc(S(=O)(=O)[O-])c6F)c6nc(c(-c7cccc(S(=O)(=O)[O-])c7F)c7ccc4[nH]7)C=C6)C=C5)cc3)c(Cl)cc2Cl)cc1Cl
REMARK SMILES IDX 17 1 16 2 15 3 13 4 14 5 12 7 10 8 11 9 89 10 88 11 90 12
REMARK SMILES IDX 86 13 87 14 9 15 7 16 8 17 6 19 3 20 4 21 92 22 5 23 91 24
REMARK SMILES IDX 93 25 2 26 1 27 18 28 19 29 20 30 21 31 22 33 23 34 24 35
REMARK SMILES IDX 85 36 25 37 84 38 26 39 27 40 28 41 78 42 29 43 83 44 77 45
REMARK SMILES IDX 79 46 30 47 82 48 76 49 75 50 31 52 63 53 43 54 62 55 44 56
REMARK SMILES IDX 47 57 61 58 80 59 45 60 46 61 60 63 81 64 48 65 32 66 33 67
REMARK SMILES IDX 41 68 34 69 36 70 42 71 35 72 37 73 38 74 39 75 40 76 64 77
REMARK SMILES IDX 65 78 73 79 66 80 68 81 74 82 67 83 69 84 70 85 71 86 72 87
REMARK SMILES IDX 49 88 50 89 58 90 51 91 53 92 59 93 52 94 54 95 55 96 56 97
REMARK SMILES IDX 57 98
REMARK H PARENT 15 6 9 18 20 32 79 51 47 62
REMARK Flexibility Score: inf
ROOT
ATOM      1  C   UNL     1       6.523  -0.104   0.085  1.00  0.00     0.023 C 
ENDROOT
BRANCH   1   2
ATOM      2  C   UNL     1       6.944   0.783  -1.085  1.00  0.00     0.116 C 
BRANCH   2   3
ATOM      3  N   UNL     1       6.424   0.385  -2.381  1.00  0.00    -0.352 N 
ATOM      4  C   UNL     1       6.055   1.146  -3.466  1.00  0.00     0.252 C 
ATOM      5  O   UNL     1       5.727   0.588  -4.511  1.00  0.00    -0.269 OA
ATOM      6  H   UNL     1       6.319  -0.586  -2.503  1.00  0.00     0.163 HD
BRANCH   4   7
ATOM      7  C   UNL     1       5.915   2.622  -3.401  1.00  0.00     0.060 A 
ATOM      8  C   UNL     1       4.392   4.504  -3.789  1.00  0.00     0.061 A 
ATOM      9  C   UNL     1       4.675   3.134  -3.844  1.00  0.00     0.043 A 
ATOM     10  C   UNL     1       5.398   5.375  -3.345  1.00  0.00     0.066 A 
ATOM     11  C   UNL     1       6.646   4.886  -2.956  1.00  0.00     0.044 A 
ATOM     12  Cl  UNL     1       5.114   7.078  -3.217  1.00  0.00    -0.082 Cl
ATOM     13  C   UNL     1       6.919   3.515  -3.016  1.00  0.00     0.055 A 
ATOM     14  Cl  UNL     1       8.552   3.047  -2.715  1.00  0.00    -0.083 Cl
BRANCH   8  15
ATOM     15  N   UNL     1       3.149   5.051  -4.173  1.00  0.00    -0.321 N 
ATOM     16  C   UNL     1       1.869   4.541  -4.206  1.00  0.00     0.255 C 
ATOM     17  O   UNL     1       1.009   5.138  -4.853  1.00  0.00    -0.269 OA
ATOM     18  H   UNL     1       3.208   5.984  -4.479  1.00  0.00     0.170 HD
BRANCH  16  19
ATOM     19  C   UNL     1       1.458   3.372  -3.383  1.00  0.00     0.041 A 
ATOM     20  C   UNL     1       0.650   1.124  -1.877  1.00  0.00     0.137 A 
ATOM     21  C   UNL     1      -0.064   1.527  -3.016  1.00  0.00     0.049 A 
ATOM     22  C   UNL     1       1.765   1.873  -1.488  1.00  0.00     0.083 A 
ATOM     23  C   UNL     1       0.336   2.636  -3.769  1.00  0.00     0.018 A 
ATOM     24  C   UNL     1       2.113   3.026  -2.199  1.00  0.00     0.038 A 
ATOM     25  Cl  UNL     1       2.853   1.446  -0.216  1.00  0.00    -0.080 Cl
BRANCH  20  26
ATOM     26  O   UNL     1       0.152  -0.018  -1.316  1.00  0.00    -0.495 OA
ATOM     27  C   UNL     1       0.296  -0.186   0.088  1.00  0.00     0.278 C 
ENDBRANCH  20  26
ENDBRANCH  16  19
ENDBRANCH   8  15
ENDBRANCH   4   7
ENDBRANCH   2   3
ENDBRANCH   1   2
BRANCH   1  28
ATOM     28  C   UNL     1       6.919  -1.579   0.022  1.00  0.00     0.023 C 
BRANCH  28  29
ATOM     29  C   UNL     1       8.367  -1.898  -0.334  1.00  0.00     0.116 C 
BRANCH  29  30
ATOM     30  N   UNL     1       9.350  -1.281   0.545  1.00  0.00    -0.352 N 
ATOM     31  C   UNL     1      10.409  -1.845   1.221  1.00  0.00     0.251 C 
ATOM     32  H   UNL     1       9.241  -0.312   0.677  1.00  0.00     0.163 HD
ATOM     33  O   UNL     1      11.098  -1.145   1.962  1.00  0.00    -0.269 OA
BRANCH  31  34
ATOM     34  C   UNL     1      10.696  -3.293   1.101  1.00  0.00     0.039 A 
ATOM     35  C   UNL     1      10.938  -4.031   2.264  1.00  0.00     0.014 A 
ATOM     36  C   UNL     1      10.699  -3.932  -0.141  1.00  0.00     0.014 A 
ATOM     37  C   UNL     1      11.079  -5.421   2.190  1.00  0.00     0.010 A 
ATOM     38  C   UNL     1      10.757  -5.322  -0.203  1.00  0.00     0.010 A 
ATOM     39  C   UNL     1      10.937  -6.085   0.961  1.00  0.00    -0.014 A 
BRANCH  39  40
ATOM     40  C   UNL     1      10.933  -7.571   0.873  1.00  0.00     0.031 A 
ATOM     41  C   UNL     1      11.968  -8.288   0.047  1.00  0.00     0.074 A 
ATOM     42  C   UNL     1       9.930  -8.269   1.443  1.00  0.00     0.049 A 
ATOM     43  N   UNL     1      12.069  -9.564  -0.222  1.00  0.00    -0.248 NA
ATOM     44  C   UNL     1      13.007  -7.459  -0.586  1.00  0.00     0.031 C 
ATOM     45  C   UNL     1       8.815  -7.690   2.196  1.00  0.00     0.029 A 
ATOM     46  N   UNL     1       9.665  -9.618   1.451  1.00  0.00    -0.354 N 
ATOM     47  C   UNL     1      13.150  -9.687  -1.086  1.00  0.00     0.074 A 
ATOM     48  C   UNL     1      13.654  -8.351  -1.322  1.00  0.00     0.031 C 
ATOM     49  C   UNL     1       7.991  -8.673   2.593  1.00  0.00     0.029 A 
ATOM     50  C   UNL     1       8.498  -9.949   2.099  1.00  0.00     0.049 A 
ATOM     51  H   UNL     1      10.256 -10.284   1.031  1.00  0.00     0.167 HD
ATOM     52  C   UNL     1      13.696 -10.809  -1.612  1.00  0.00     0.034 A 
ATOM     53  C   UNL     1       7.897 -11.143   2.273  1.00  0.00     0.034 A 
ATOM     54  C   UNL     1      13.229 -12.140  -1.334  1.00  0.00     0.049 A 
ATOM     55  C   UNL     1       8.556 -12.381   1.725  1.00  0.00     0.074 A 
ATOM     56  C   UNL     1      13.775 -13.346  -1.738  1.00  0.00     0.029 A 
ATOM     57  N   UNL     1      12.103 -12.443  -0.584  1.00  0.00    -0.354 N 
ATOM     58  N   UNL     1       9.674 -12.490   1.050  1.00  0.00    -0.248 NA
ATOM     59  C   UNL     1       7.890 -13.664   1.994  1.00  0.00     0.031 C 
ATOM     60  C   UNL     1      12.969 -14.378  -1.246  1.00  0.00     0.029 A 
ATOM     61  C   UNL     1      11.934 -13.816  -0.517  1.00  0.00     0.049 A 
ATOM     62  H   UNL     1      11.511 -11.780  -0.161  1.00  0.00     0.167 HD
ATOM     63  C   UNL     1       9.866 -13.852   0.846  1.00  0.00     0.074 A 
ATOM     64  C   UNL     1       8.758 -14.530   1.487  1.00  0.00     0.031 C 
ATOM     65  C   UNL     1      10.860 -14.482   0.174  1.00  0.00     0.034 A 
BRANCH  52  66
ATOM     66  C   UNL     1      14.907 -10.651  -2.496  1.00  0.00     0.023 A 
ATOM     67  C   UNL     1      16.140 -10.281  -1.921  1.00  0.00     0.012 A 
ATOM     68  C   UNL     1      14.842 -10.921  -3.877  1.00  0.00     0.148 A 
ATOM     69  C   UNL     1      17.281 -10.147  -2.710  1.00  0.00     0.002 A 
ATOM     70  C   UNL     1      15.994 -10.828  -4.650  1.00  0.00     0.091 A 
ATOM     71  F   UNL     1      13.657 -11.252  -4.410  1.00  0.00    -0.205 F 
ATOM     72  C   UNL     1      17.210 -10.430  -4.071  1.00  0.00     0.022 A 
BRANCH  70  73
ATOM     73  S   UNL     1      16.026 -11.249  -6.396  1.00  0.00     0.127 S 
ATOM     74  O   UNL     1      16.158  -9.931  -7.014  1.00  0.00    -0.237 OA
ATOM     75  O   UNL     1      17.221 -12.088  -6.490  1.00  0.00    -0.237 OA
ATOM     76  O   UNL     1      14.775 -11.944  -6.663  1.00  0.00    -0.744 OA
ENDBRANCH  70  73
ENDBRANCH  52  66
BRANCH  53  77
ATOM     77  C   UNL     1       6.637 -11.236   3.064  1.00  0.00     0.023 A 
ATOM     78  C   UNL     1       6.667 -11.839   4.337  1.00  0.00     0.012 A 
ATOM     79  C   UNL     1       5.422 -10.711   2.583  1.00  0.00     0.148 A 
ATOM     80  C   UNL     1       5.506 -11.946   5.103  1.00  0.00     0.002 A 
ATOM     81  C   UNL     1       4.280 -10.772   3.374  1.00  0.00     0.091 A 
ATOM     82  F   UNL     1       5.409 -10.153   1.365  1.00  0.00    -0.205 F 
ATOM     83  C   UNL     1       4.315 -11.405   4.627  1.00  0.00     0.022 A 
BRANCH  81  84
ATOM     84  S   UNL     1       2.736  -9.984   2.899  1.00  0.00     0.127 S 
ATOM     85  O   UNL     1       1.901 -11.135   2.571  1.00  0.00    -0.237 OA
ATOM     86  O   UNL     1       2.363  -9.282   4.128  1.00  0.00    -0.237 OA
ATOM     87  O   UNL     1       3.072  -9.104   1.788  1.00  0.00    -0.744 OA
ENDBRANCH  81  84
ENDBRANCH  53  77
BRANCH  65  88
ATOM     88  C   UNL     1      10.827 -15.987   0.122  1.00  0.00     0.023 A 
ATOM     89  C   UNL     1       9.882 -16.639  -0.695  1.00  0.00     0.012 A 
ATOM     90  C   UNL     1      11.782 -16.752   0.821  1.00  0.00     0.148 A 
ATOM     91  C   UNL     1       9.871 -18.030  -0.794  1.00  0.00     0.002 A 
ATOM     92  C   UNL     1      11.794 -18.135   0.680  1.00  0.00     0.091 A 
ATOM     93  F   UNL     1      12.660 -16.114   1.609  1.00  0.00    -0.205 F 
ATOM     94  C   UNL     1      10.833 -18.776  -0.117  1.00  0.00     0.022 A 
BRANCH  92  95
ATOM     95  S   UNL     1      13.055 -19.166   1.438  1.00  0.00     0.127 S 
ATOM     96  O   UNL     1      12.310 -19.798   2.525  1.00  0.00    -0.237 OA
ATOM     97  O   UNL     1      13.419 -20.068   0.344  1.00  0.00    -0.237 OA
ATOM     98  O   UNL     1      14.119 -18.260   1.851  1.00  0.00    -0.744 OA
ENDBRANCH  92  95
ENDBRANCH  65  88
ENDBRANCH  39  40
ENDBRANCH  31  34
ENDBRANCH  29  30
ENDBRANCH  28  29
ENDBRANCH   1  28
TORSDOF 17
