REMARK SMILES COc1ccc(-c2noc(CC(=O)NCCCCNC(=O)c3ccc(-c4c5nc(c(-c6cccc(S(=O)(=O)[O-])c6F)c6ccc([nH]6)c(-c6cccc(S(=O)(=O)[O-])c6F)c6nc(c(-c7cccc(S(=O)(=O)[O-])c7F)c7ccc4[nH]7)C=C6)C=C5)cc3)c2-c2ccc(OC)cc2)cc1
REMARK SMILES IDX 16 1 15 2 14 3 12 4 13 5 11 7 10 8 7 9 8 10 85 11 9 12 6 13
REMARK SMILES IDX 3 14 4 15 95 16 5 17 94 18 2 19 1 20 86 21 87 22 93 23 88 24
REMARK SMILES IDX 92 25 89 26 90 27 91 28 17 29 18 30 19 31 20 32 21 34 22 35
REMARK SMILES IDX 23 36 84 37 24 38 83 39 25 40 26 41 27 42 77 43 28 44 82 45
REMARK SMILES IDX 76 46 78 47 29 48 81 49 75 50 74 51 30 53 62 54 42 55 61 56
REMARK SMILES IDX 43 57 46 58 60 59 79 60 44 61 45 62 59 64 80 65 47 66 31 67
REMARK SMILES IDX 32 68 40 69 33 70 35 71 41 72 34 73 36 74 37 75 38 76 39 77
REMARK SMILES IDX 63 78 64 79 72 80 65 81 67 82 73 83 66 84 68 85 69 86 70 87
REMARK SMILES IDX 71 88 48 89 49 90 57 91 50 92 52 93 58 94 51 95 53 96 54 97
REMARK SMILES IDX 55 98 56 99
REMARK H PARENT 14 6 19 33 78 52 46 63
REMARK Flexibility Score: inf
ROOT
ATOM      1  C   UNL     1       0.986  -7.827   5.040  1.00  0.00     0.023 C 
ENDROOT
BRANCH   1   2
ATOM      2  C   UNL     1       2.334  -8.450   5.404  1.00  0.00     0.116 C 
BRANCH   2   3
ATOM      3  N   UNL     1       2.489  -9.759   4.803  1.00  0.00    -0.356 N 
ATOM      4  C   UNL     1       3.147 -10.101   3.656  1.00  0.00     0.227 C 
ATOM      5  O   UNL     1       3.106 -11.275   3.285  1.00  0.00    -0.275 OA
ATOM      6  H   UNL     1       2.061 -10.502   5.286  1.00  0.00     0.163 HD
BRANCH   4   7
ATOM      7  C   UNL     1       4.002  -9.082   2.927  1.00  0.00     0.179 C 
BRANCH   7   8
ATOM      8  C   UNL     1       3.205  -7.980   2.337  1.00  0.00     0.154 A 
ATOM      9  C   UNL     1       2.126  -6.171   1.640  1.00  0.00     0.122 A 
ATOM     10  N   UNL     1       1.509  -7.220   1.077  1.00  0.00    -0.079 NA
ATOM     11  C   UNL     1       3.223  -6.604   2.444  1.00  0.00     0.053 A 
ATOM     12  O   UNL     1       2.195  -8.343   1.499  1.00  0.00    -0.360 OA
BRANCH   9  13
ATOM     13  C   UNL     1       1.679  -4.803   1.417  1.00  0.00     0.005 A 
ATOM     14  C   UNL     1       0.885  -2.129   1.120  1.00  0.00     0.118 A 
ATOM     15  C   UNL     1      -0.032  -3.094   1.541  1.00  0.00     0.047 A 
ATOM     16  C   UNL     1       2.205  -2.495   0.865  1.00  0.00     0.047 A 
ATOM     17  C   UNL     1       0.356  -4.431   1.676  1.00  0.00     0.014 A 
ATOM     18  C   UNL     1       2.599  -3.828   1.008  1.00  0.00     0.014 A 
BRANCH  14  19
ATOM     19  O   UNL     1       0.408  -0.849   1.038  1.00  0.00    -0.497 OA
ATOM     20  C   UNL     1       0.988  -0.063   0.002  1.00  0.00     0.278 C 
ENDBRANCH  14  19
ENDBRANCH   9  13
BRANCH  11  21
ATOM     21  C   UNL     1       4.119  -5.839   3.292  1.00  0.00    -0.012 A 
ATOM     22  C   UNL     1       3.595  -4.959   4.247  1.00  0.00     0.013 A 
ATOM     23  C   UNL     1       5.506  -5.946   3.155  1.00  0.00     0.013 A 
ATOM     24  C   UNL     1       4.449  -4.202   5.051  1.00  0.00     0.047 A 
ATOM     25  C   UNL     1       6.359  -5.184   3.963  1.00  0.00     0.047 A 
ATOM     26  C   UNL     1       5.833  -4.306   4.911  1.00  0.00     0.118 A 
BRANCH  26  27
ATOM     27  O   UNL     1       6.551  -3.498   5.747  1.00  0.00    -0.497 OA
ATOM     28  C   UNL     1       7.967  -3.557   5.642  1.00  0.00     0.278 C 
ENDBRANCH  26  27
ENDBRANCH  11  21
ENDBRANCH   7   8
ENDBRANCH   4   7
ENDBRANCH   2   3
ENDBRANCH   1   2
BRANCH   1  29
ATOM     29  C   UNL     1      -0.211  -8.465   5.746  1.00  0.00     0.023 C 
BRANCH  29  30
ATOM     30  C   UNL     1      -0.161  -8.400   7.267  1.00  0.00     0.116 C 
BRANCH  30  31
ATOM     31  N   UNL     1      -0.091  -7.039   7.776  1.00  0.00    -0.352 N 
ATOM     32  C   UNL     1      -0.682  -6.522   8.903  1.00  0.00     0.251 C 
ATOM     33  H   UNL     1       0.448  -6.409   7.246  1.00  0.00     0.163 HD
ATOM     34  O   UNL     1      -0.635  -5.314   9.123  1.00  0.00    -0.269 OA
BRANCH  32  35
ATOM     35  C   UNL     1      -1.395  -7.426   9.831  1.00  0.00     0.039 A 
ATOM     36  C   UNL     1      -2.651  -7.049  10.313  1.00  0.00     0.014 A 
ATOM     37  C   UNL     1      -0.831  -8.646  10.213  1.00  0.00     0.014 A 
ATOM     38  C   UNL     1      -3.356  -7.915  11.151  1.00  0.00     0.010 A 
ATOM     39  C   UNL     1      -1.573  -9.543  10.973  1.00  0.00     0.010 A 
ATOM     40  C   UNL     1      -2.830  -9.178  11.474  1.00  0.00    -0.014 A 
BRANCH  40  41
ATOM     41  C   UNL     1      -3.561 -10.109  12.370  1.00  0.00     0.031 A 
ATOM     42  C   UNL     1      -2.951 -10.518  13.686  1.00  0.00     0.074 A 
ATOM     43  C   UNL     1      -4.738 -10.636  11.979  1.00  0.00     0.049 A 
ATOM     44  N   UNL     1      -3.417 -11.337  14.593  1.00  0.00    -0.248 NA
ATOM     45  C   UNL     1      -1.628  -9.958  14.013  1.00  0.00     0.031 C 
ATOM     46  C   UNL     1      -5.394 -10.386  10.694  1.00  0.00     0.029 A 
ATOM     47  N   UNL     1      -5.582 -11.509  12.617  1.00  0.00    -0.354 N 
ATOM     48  C   UNL     1      -2.434 -11.419  15.572  1.00  0.00     0.074 A 
ATOM     49  C   UNL     1      -1.326 -10.605  15.129  1.00  0.00     0.031 C 
ATOM     50  C   UNL     1      -6.543 -11.079  10.644  1.00  0.00     0.029 A 
ATOM     51  C   UNL     1      -6.694 -11.841  11.879  1.00  0.00     0.049 A 
ATOM     52  H   UNL     1      -5.408 -11.865  13.518  1.00  0.00     0.167 HD
ATOM     53  C   UNL     1      -2.462 -12.083  16.753  1.00  0.00     0.034 A 
ATOM     54  C   UNL     1      -7.720 -12.666  12.168  1.00  0.00     0.034 A 
ATOM     55  C   UNL     1      -3.584 -12.854  17.212  1.00  0.00     0.049 A 
ATOM     56  C   UNL     1      -7.755 -13.345  13.511  1.00  0.00     0.074 A 
ATOM     57  C   UNL     1      -3.747 -13.499  18.425  1.00  0.00     0.029 A 
ATOM     58  N   UNL     1      -4.736 -13.088  16.477  1.00  0.00    -0.354 N 
ATOM     59  N   UNL     1      -6.883 -13.289  14.489  1.00  0.00    -0.248 NA
ATOM     60  C   UNL     1      -8.939 -14.164  13.809  1.00  0.00     0.031 C 
ATOM     61  C   UNL     1      -4.989 -14.143  18.414  1.00  0.00     0.029 A 
ATOM     62  C   UNL     1      -5.615 -13.867  17.209  1.00  0.00     0.049 A 
ATOM     63  H   UNL     1      -4.904 -12.750  15.568  1.00  0.00     0.167 HD
ATOM     64  C   UNL     1      -7.434 -14.021  15.534  1.00  0.00     0.074 A 
ATOM     65  C   UNL     1      -8.723 -14.498  15.074  1.00  0.00     0.031 C 
ATOM     66  C   UNL     1      -6.919 -14.283  16.761  1.00  0.00     0.034 A 
BRANCH  53  67
ATOM     67  C   UNL     1      -1.258 -11.959  17.652  1.00  0.00     0.023 A 
ATOM     68  C   UNL     1      -0.977 -10.726  18.277  1.00  0.00     0.012 A 
ATOM     69  C   UNL     1      -0.433 -13.069  17.916  1.00  0.00     0.148 A 
ATOM     70  C   UNL     1       0.130 -10.588  19.114  1.00  0.00     0.002 A 
ATOM     71  C   UNL     1       0.639 -12.937  18.792  1.00  0.00     0.091 A 
ATOM     72  F   UNL     1      -0.702 -14.228  17.298  1.00  0.00    -0.205 F 
ATOM     73  C   UNL     1       0.930 -11.695  19.379  1.00  0.00     0.022 A 
BRANCH  71  74
ATOM     74  S   UNL     1       1.680 -14.322  19.266  1.00  0.00     0.127 S 
ATOM     75  O   UNL     1       2.939 -13.984  18.605  1.00  0.00    -0.237 OA
ATOM     76  O   UNL     1       1.705 -14.201  20.724  1.00  0.00    -0.237 OA
ATOM     77  O   UNL     1       1.013 -15.516  18.767  1.00  0.00    -0.744 OA
ENDBRANCH  71  74
ENDBRANCH  53  67
BRANCH  54  78
ATOM     78  C   UNL     1      -8.841 -12.832  11.200  1.00  0.00     0.023 A 
ATOM     79  C   UNL     1     -10.107 -12.295  11.506  1.00  0.00     0.012 A 
ATOM     80  C   UNL     1      -8.659 -13.505   9.976  1.00  0.00     0.148 A 
ATOM     81  C   UNL     1     -11.182 -12.461  10.631  1.00  0.00     0.002 A 
ATOM     82  C   UNL     1      -9.719 -13.617   9.084  1.00  0.00     0.091 A 
ATOM     83  F   UNL     1      -7.448 -14.014   9.707  1.00  0.00    -0.205 F 
ATOM     84  C   UNL     1     -10.986 -13.114   9.418  1.00  0.00     0.022 A 
BRANCH  82  85
ATOM     85  S   UNL     1      -9.529 -14.330   7.447  1.00  0.00     0.127 S 
ATOM     86  O   UNL     1     -10.295 -15.568   7.569  1.00  0.00    -0.237 OA
ATOM     87  O   UNL     1     -10.143 -13.306   6.601  1.00  0.00    -0.237 OA
ATOM     88  O   UNL     1      -8.095 -14.490   7.251  1.00  0.00    -0.744 OA
ENDBRANCH  82  85
ENDBRANCH  54  78
BRANCH  66  89
ATOM     89  C   UNL     1      -7.772 -15.065  17.725  1.00  0.00     0.023 A 
ATOM     90  C   UNL     1      -8.014 -16.436  17.511  1.00  0.00     0.012 A 
ATOM     91  C   UNL     1      -8.288 -14.445  18.881  1.00  0.00     0.148 A 
ATOM     92  C   UNL     1      -8.793 -17.167  18.408  1.00  0.00     0.002 A 
ATOM     93  C   UNL     1      -9.016 -15.192  19.798  1.00  0.00     0.091 A 
ATOM     94  F   UNL     1      -8.065 -13.135  19.060  1.00  0.00    -0.205 F 
ATOM     95  C   UNL     1      -9.284 -16.549  19.556  1.00  0.00     0.022 A 
BRANCH  93  96
ATOM     96  S   UNL     1      -9.595 -14.500  21.351  1.00  0.00     0.127 S 
ATOM     97  O   UNL     1     -11.022 -14.326  21.087  1.00  0.00    -0.237 OA
ATOM     98  O   UNL     1      -9.277 -15.564  22.305  1.00  0.00    -0.237 OA
ATOM     99  O   UNL     1      -8.838 -13.271  21.547  1.00  0.00    -0.744 OA
ENDBRANCH  93  96
ENDBRANCH  66  89
ENDBRANCH  40  41
ENDBRANCH  32  35
ENDBRANCH  30  31
ENDBRANCH  29  30
ENDBRANCH   1  29
TORSDOF 19
