REMARK SMILES CC(C)(C)c1cc(Nc2ccccc2C(=O)NCCCCNC(=O)c2ccc(-c3c4nc(c(-c5cccc(S(=O)(=O)[O-])c5F)c5ccc([nH]5)c(-c5cccc(S(=O)(=O)[O-])c5F)c5nc(c(-c6cccc(S(=O)(=O)[O-])c6F)c6ccc3[nH]6)C=C5)C=C4)cc2)cc2c1OCC2(C)C
REMARK SMILES IDX 19 1 18 2 17 3 15 4 16 5 14 7 9 8 10 9 11 10 13 11 12 12
REMARK SMILES IDX 8 13 7 15 5 16 6 17 90 18 89 19 91 20 88 21 93 22 92 23
REMARK SMILES IDX 94 24 95 25 2 26 1 27 3 28 4 29 20 30 21 31 22 32 23 33
REMARK SMILES IDX 24 35 25 36 26 37 87 38 27 39 86 40 28 41 29 42 30 43 80 44
REMARK SMILES IDX 31 45 85 46 79 47 81 48 32 49 84 50 78 51 77 52 33 54 65 55
REMARK SMILES IDX 45 56 64 57 46 58 49 59 63 60 82 61 47 62 48 63 62 65 83 66
REMARK SMILES IDX 50 67 34 68 35 69 43 70 36 71 38 72 44 73 37 74 39 75 40 76
REMARK SMILES IDX 41 77 42 78 66 79 67 80 75 81 68 82 70 83 76 84 69 85 71 86
REMARK SMILES IDX 72 87 73 88 74 89 51 90 52 91 60 92 53 93 55 94 61 95 54 96
REMARK SMILES IDX 56 97 57 98 58 99 59 100
REMARK H PARENT 17 6 8 14 22 34 81 53 49 64
REMARK Flexibility Score: inf
ROOT
ATOM      1  C   UNL     1       4.613  -2.262  -0.198  1.00  0.00     0.023 C 
ENDROOT
BRANCH   1   2
ATOM      2  C   UNL     1       4.259  -2.941  -1.512  1.00  0.00     0.116 C 
BRANCH   2   3
ATOM      3  N   UNL     1       5.332  -3.300  -2.393  1.00  0.00    -0.352 N 
ATOM      4  C   UNL     1       5.326  -4.161  -3.463  1.00  0.00     0.253 C 
ATOM      5  O   UNL     1       6.378  -4.222  -4.110  1.00  0.00    -0.269 OA
ATOM      6  H   UNL     1       6.195  -2.867  -2.204  1.00  0.00     0.163 HD
BRANCH   4   7
ATOM      7  C   UNL     1       4.202  -5.074  -3.876  1.00  0.00     0.063 A 
ATOM      8  C   UNL     1       2.806  -4.854  -3.903  1.00  0.00     0.051 A 
ATOM      9  C   UNL     1       1.975  -5.834  -4.505  1.00  0.00     0.027 A 
ATOM     10  C   UNL     1       2.471  -7.044  -4.980  1.00  0.00     0.002 A 
ATOM     11  C   UNL     1       4.677  -6.320  -4.363  1.00  0.00     0.016 A 
ATOM     12  C   UNL     1       3.828  -7.298  -4.887  1.00  0.00     0.001 A 
BRANCH   8  13
ATOM     13  N   UNL     1       2.125  -3.764  -3.315  1.00  0.00    -0.355 N 
ATOM     14  H   UNL     1       2.204  -2.889  -3.758  1.00  0.00     0.167 HD
BRANCH  13  15
ATOM     15  C   UNL     1       1.334  -3.829  -2.136  1.00  0.00     0.039 A 
ATOM     16  C   UNL     1       0.360  -2.663  -0.165  1.00  0.00     0.002 A 
ATOM     17  C   UNL     1       0.945  -2.647  -1.459  1.00  0.00     0.034 A 
ATOM     18  C   UNL     1       0.101  -3.928   0.366  1.00  0.00     0.127 A 
ATOM     19  C   UNL     1       0.445  -5.095  -0.290  1.00  0.00     0.006 A 
ATOM     20  O   UNL     1      -0.505  -4.159   1.572  1.00  0.00    -0.492 OA
ATOM     21  C   UNL     1       1.063  -5.059  -1.525  1.00  0.00     0.034 A 
ATOM     22  C   UNL     1       0.084  -6.291   0.519  1.00  0.00     0.028 C 
ATOM     23  C   UNL     1      -0.517  -5.592   1.753  1.00  0.00     0.240 C 
ATOM     24  C   UNL     1      -0.952  -7.150  -0.211  1.00  0.00     0.020 C 
ATOM     25  C   UNL     1       1.310  -7.132   0.892  1.00  0.00     0.020 C 
BRANCH  16  26
ATOM     26  C   UNL     1       0.061  -1.385   0.641  1.00  0.00    -0.009 C 
ATOM     27  C   UNL     1       0.606  -0.104  -0.017  1.00  0.00     0.016 C 
ATOM     28  C   UNL     1       0.723  -1.440   2.042  1.00  0.00     0.016 C 
ATOM     29  C   UNL     1      -1.461  -1.209   0.795  1.00  0.00     0.016 C 
ENDBRANCH  16  26
ENDBRANCH  13  15
ENDBRANCH   8  13
ENDBRANCH   4   7
ENDBRANCH   2   3
ENDBRANCH   1   2
BRANCH   1  30
ATOM     30  C   UNL     1       5.413  -0.963  -0.262  1.00  0.00     0.023 C 
BRANCH  30  31
ATOM     31  C   UNL     1       5.173  -0.038  -1.451  1.00  0.00     0.116 C 
BRANCH  31  32
ATOM     32  N   UNL     1       3.859   0.594  -1.503  1.00  0.00    -0.352 N 
ATOM     33  C   UNL     1       3.447   1.859  -1.138  1.00  0.00     0.251 C 
ATOM     34  H   UNL     1       3.144   0.019  -1.858  1.00  0.00     0.163 HD
ATOM     35  O   UNL     1       2.270   2.188  -1.268  1.00  0.00    -0.269 OA
BRANCH  33  36
ATOM     36  C   UNL     1       4.410   2.803  -0.546  1.00  0.00     0.039 A 
ATOM     37  C   UNL     1       5.628   3.026  -1.177  1.00  0.00     0.014 A 
ATOM     38  C   UNL     1       4.123   3.422   0.675  1.00  0.00     0.014 A 
ATOM     39  C   UNL     1       6.650   3.637  -0.470  1.00  0.00     0.010 A 
ATOM     40  C   UNL     1       5.121   4.153   1.329  1.00  0.00     0.010 A 
ATOM     41  C   UNL     1       6.418   4.199   0.799  1.00  0.00    -0.014 A 
BRANCH  41  42
ATOM     42  C   UNL     1       7.571   4.795   1.528  1.00  0.00     0.031 A 
ATOM     43  C   UNL     1       8.031   4.239   2.852  1.00  0.00     0.074 A 
ATOM     44  C   UNL     1       8.279   5.771   0.922  1.00  0.00     0.049 A 
ATOM     45  N   UNL     1       9.091   4.565   3.548  1.00  0.00    -0.248 NA
ATOM     46  C   UNL     1       7.210   3.192   3.484  1.00  0.00     0.031 C 
ATOM     47  C   UNL     1       7.921   6.400  -0.353  1.00  0.00     0.029 A 
ATOM     48  N   UNL     1       9.470   6.364   1.258  1.00  0.00    -0.354 N 
ATOM     49  C   UNL     1       9.034   3.810   4.715  1.00  0.00     0.074 A 
ATOM     50  C   UNL     1       7.841   3.000   4.636  1.00  0.00     0.031 C 
ATOM     51  C   UNL     1       8.917   7.207  -0.742  1.00  0.00     0.029 A 
ATOM     52  C   UNL     1       9.950   7.213   0.287  1.00  0.00     0.049 A 
ATOM     53  H   UNL     1       9.935   6.198   2.110  1.00  0.00     0.167 HD
ATOM     54  C   UNL     1       9.907   3.783   5.748  1.00  0.00     0.034 A 
ATOM     55  C   UNL     1      11.098   7.914   0.223  1.00  0.00     0.034 A 
ATOM     56  C   UNL     1      11.138   4.526   5.786  1.00  0.00     0.049 A 
ATOM     57  C   UNL     1      12.065   7.832   1.366  1.00  0.00     0.074 A 
ATOM     58  C   UNL     1      12.110   4.519   6.771  1.00  0.00     0.029 A 
ATOM     59  N   UNL     1      11.572   5.391   4.797  1.00  0.00    -0.354 N 
ATOM     60  N   UNL     1      12.016   7.064   2.426  1.00  0.00    -0.248 NA
ATOM     61  C   UNL     1      13.240   8.712   1.308  1.00  0.00     0.031 C 
ATOM     62  C   UNL     1      13.135   5.383   6.377  1.00  0.00     0.029 A 
ATOM     63  C   UNL     1      12.798   5.926   5.148  1.00  0.00     0.049 A 
ATOM     64  H   UNL     1      11.081   5.596   3.968  1.00  0.00     0.167 HD
ATOM     65  C   UNL     1      13.152   7.368   3.164  1.00  0.00     0.074 A 
ATOM     66  C   UNL     1      13.887   8.367   2.414  1.00  0.00     0.031 C 
ATOM     67  C   UNL     1      13.536   6.883   4.367  1.00  0.00     0.034 A 
BRANCH  54  68
ATOM     68  C   UNL     1       9.614   2.887   6.919  1.00  0.00     0.023 A 
ATOM     69  C   UNL     1       9.966   1.525   6.848  1.00  0.00     0.012 A 
ATOM     70  C   UNL     1       9.138   3.421   8.133  1.00  0.00     0.148 A 
ATOM     71  C   UNL     1       9.850   0.706   7.971  1.00  0.00     0.002 A 
ATOM     72  C   UNL     1       9.050   2.605   9.254  1.00  0.00     0.091 A 
ATOM     73  F   UNL     1       8.809   4.720   8.171  1.00  0.00    -0.205 F 
ATOM     74  C   UNL     1       9.404   1.248   9.175  1.00  0.00     0.022 A 
BRANCH  72  75
ATOM     75  S   UNL     1       8.542   3.212  10.868  1.00  0.00     0.127 S 
ATOM     76  O   UNL     1       7.351   2.402  11.126  1.00  0.00    -0.237 OA
ATOM     77  O   UNL     1       9.699   2.876  11.697  1.00  0.00    -0.237 OA
ATOM     78  O   UNL     1       8.292   4.637  10.704  1.00  0.00    -0.744 OA
ENDBRANCH  72  75
ENDBRANCH  54  68
BRANCH  55  79
ATOM     79  C   UNL     1      11.407   8.712  -0.994  1.00  0.00     0.023 A 
ATOM     80  C   UNL     1      12.413   8.267  -1.872  1.00  0.00     0.012 A 
ATOM     81  C   UNL     1      10.665   9.862  -1.323  1.00  0.00     0.148 A 
ATOM     82  C   UNL     1      12.678   8.957  -3.055  1.00  0.00     0.002 A 
ATOM     83  C   UNL     1      10.898  10.515  -2.527  1.00  0.00     0.091 A 
ATOM     84  F   UNL     1       9.726  10.279  -0.462  1.00  0.00    -0.205 F 
ATOM     85  C   UNL     1      11.911  10.070  -3.390  1.00  0.00     0.022 A 
BRANCH  83  86
ATOM     86  S   UNL     1       9.868  11.874  -3.091  1.00  0.00     0.127 S 
ATOM     87  O   UNL     1      10.751  13.020  -2.889  1.00  0.00    -0.237 OA
ATOM     88  O   UNL     1       9.630  11.517  -4.490  1.00  0.00    -0.237 OA
ATOM     89  O   UNL     1       8.677  11.833  -2.253  1.00  0.00    -0.744 OA
ENDBRANCH  83  86
ENDBRANCH  55  79
BRANCH  67  90
ATOM     90  C   UNL     1      14.803   7.419   4.967  1.00  0.00     0.023 A 
ATOM     91  C   UNL     1      14.769   8.658   5.635  1.00  0.00     0.012 A 
ATOM     92  C   UNL     1      15.980   6.649   4.976  1.00  0.00     0.148 A 
ATOM     93  C   UNL     1      15.898   9.128   6.302  1.00  0.00     0.002 A 
ATOM     94  C   UNL     1      17.092   7.109   5.670  1.00  0.00     0.091 A 
ATOM     95  F   UNL     1      15.982   5.478   4.324  1.00  0.00    -0.205 F 
ATOM     96  C   UNL     1      17.054   8.350   6.330  1.00  0.00     0.022 A 
BRANCH  94  97
ATOM     97  S   UNL     1      18.601   6.149   5.826  1.00  0.00     0.127 S 
ATOM     98  O   UNL     1      19.546   6.954   5.053  1.00  0.00    -0.237 OA
ATOM     99  O   UNL     1      18.826   6.160   7.271  1.00  0.00    -0.237 OA
ATOM    100  O   UNL     1      18.304   4.836   5.267  1.00  0.00    -0.744 OA
ENDBRANCH  94  97
ENDBRANCH  67  90
ENDBRANCH  41  42
ENDBRANCH  33  36
ENDBRANCH  31  32
ENDBRANCH  30  31
ENDBRANCH   1  30
TORSDOF 17
