REMARK SMILES C[C@@H](CC(=O)NCCCCNC(=O)c1ccc(-c2c3nc(c(-c4cccc(S(=O)(=O)[O-])c4F)c4ccc([nH]4)c(-c4cccc(S(=O)(=O)[O-])c4F)c4nc(c(-c5cccc(S(=O)(=O)[O-])c5F)c5ccc2[nH]5)C=C4)C=C3)cc1)N1C(=O)CCCC1=O
REMARK SMILES IDX 9 1 8 2 7 3 6 4 4 5 5 6 3 8 2 9 1 10 77 11 78 12 83 13 79 14
REMARK SMILES IDX 80 15 82 16 84 17 81 18 10 19 11 20 12 21 13 23 14 24 15 25
REMARK SMILES IDX 76 26 16 27 75 28 17 29 18 30 19 31 69 32 20 33 74 34 68 35
REMARK SMILES IDX 70 36 21 37 73 38 67 39 66 40 22 42 54 43 34 44 53 45 35 46
REMARK SMILES IDX 38 47 52 48 71 49 36 50 37 51 51 53 72 54 39 55 23 56 24 57
REMARK SMILES IDX 32 58 25 59 27 60 33 61 26 62 28 63 29 64 30 65 31 66 55 67
REMARK SMILES IDX 56 68 64 69 57 70 59 71 65 72 58 73 60 74 61 75 62 76 63 77
REMARK SMILES IDX 40 78 41 79 49 80 42 81 44 82 50 83 43 84 45 85 46 86 47 87
REMARK SMILES IDX 48 88
REMARK H PARENT 6 7 11 22 70 41 38 52
REMARK Flexibility Score: inf
ROOT
ATOM      1  C   UNL     1       0.733  -3.530  -0.696  1.00  0.00     0.023 C 
ENDROOT
BRANCH   1   2
ATOM      2  C   UNL     1       1.344  -2.188  -0.308  1.00  0.00     0.023 C 
BRANCH   2   3
ATOM      3  C   UNL     1       1.942  -1.390  -1.466  1.00  0.00     0.116 C 
BRANCH   3   4
ATOM      4  N   UNL     1       0.940  -0.980  -2.429  1.00  0.00    -0.356 N 
ATOM      5  C   UNL     1       0.358   0.234  -2.622  1.00  0.00     0.222 C 
ATOM      6  O   UNL     1      -0.563   0.336  -3.435  1.00  0.00    -0.275 OA
ATOM      7  H   UNL     1       0.632  -1.690  -3.038  1.00  0.00     0.163 HD
BRANCH   5   8
ATOM      8  C   UNL     1       0.864   1.457  -1.895  1.00  0.00     0.125 C 
BRANCH   8   9
ATOM      9  C   UNL     1       0.141   1.869  -0.601  1.00  0.00     0.099 C 
ATOM     10  C   UNL     1       0.740   1.284   0.683  1.00  0.00     0.032 C 
BRANCH   9  11
ATOM     11  N   UNL     1      -1.338   1.813  -0.655  1.00  0.00    -0.279 N 
ATOM     12  C   UNL     1      -1.978   0.574  -0.558  1.00  0.00     0.229 C 
ATOM     13  C   UNL     1      -2.011   3.027  -0.812  1.00  0.00     0.229 C 
ATOM     14  O   UNL     1      -1.386  -0.485  -0.354  1.00  0.00    -0.274 OA
ATOM     15  C   UNL     1      -3.485   0.555  -0.598  1.00  0.00     0.101 C 
ATOM     16  C   UNL     1      -3.521   2.982  -0.856  1.00  0.00     0.101 C 
ATOM     17  O   UNL     1      -1.446   4.123  -0.834  1.00  0.00    -0.274 OA
ATOM     18  C   UNL     1      -4.026   1.684  -1.437  1.00  0.00     0.020 C 
ENDBRANCH   9  11
ENDBRANCH   8   9
ENDBRANCH   5   8
ENDBRANCH   3   4
ENDBRANCH   2   3
ENDBRANCH   1   2
BRANCH   1  19
ATOM     19  C   UNL     1       1.754  -4.554  -1.152  1.00  0.00     0.116 C 
BRANCH  19  20
ATOM     20  N   UNL     1       2.730  -4.869  -0.113  1.00  0.00    -0.352 N 
ATOM     21  C   UNL     1       3.203  -6.105   0.260  1.00  0.00     0.251 C 
ATOM     22  H   UNL     1       3.096  -4.101   0.382  1.00  0.00     0.163 HD
ATOM     23  O   UNL     1       3.917  -6.240   1.242  1.00  0.00    -0.269 OA
BRANCH  21  24
ATOM     24  C   UNL     1       2.797  -7.268  -0.551  1.00  0.00     0.039 A 
ATOM     25  C   UNL     1       2.192  -8.362   0.071  1.00  0.00     0.014 A 
ATOM     26  C   UNL     1       2.928  -7.209  -1.939  1.00  0.00     0.014 A 
ATOM     27  C   UNL     1       1.649  -9.379  -0.716  1.00  0.00     0.010 A 
ATOM     28  C   UNL     1       2.309  -8.173  -2.717  1.00  0.00     0.010 A 
ATOM     29  C   UNL     1       1.675  -9.272  -2.115  1.00  0.00    -0.014 A 
BRANCH  29  30
ATOM     30  C   UNL     1       1.088 -10.301  -3.005  1.00  0.00     0.031 A 
ATOM     31  C   UNL     1       1.991 -11.004  -3.981  1.00  0.00     0.074 A 
ATOM     32  C   UNL     1      -0.245 -10.486  -3.043  1.00  0.00     0.049 A 
ATOM     33  N   UNL     1       1.680 -11.754  -5.003  1.00  0.00    -0.248 NA
ATOM     34  C   UNL     1       3.440 -10.784  -3.816  1.00  0.00     0.031 C 
ATOM     35  C   UNL     1      -1.224  -9.808  -2.191  1.00  0.00     0.029 A 
ATOM     36  N   UNL     1      -1.012 -11.272  -3.867  1.00  0.00    -0.354 N 
ATOM     37  C   UNL     1       2.882 -12.033  -5.641  1.00  0.00     0.074 A 
ATOM     38  C   UNL     1       3.925 -11.351  -4.909  1.00  0.00     0.031 C 
ATOM     39  C   UNL     1      -2.461 -10.201  -2.541  1.00  0.00     0.029 A 
ATOM     40  C   UNL     1      -2.365 -11.129  -3.663  1.00  0.00     0.049 A 
ATOM     41  H   UNL     1      -0.629 -11.881  -4.540  1.00  0.00     0.167 HD
ATOM     42  C   UNL     1       3.100 -12.813  -6.725  1.00  0.00     0.034 A 
ATOM     43  C   UNL     1      -3.408 -11.675  -4.321  1.00  0.00     0.034 A 
ATOM     44  C   UNL     1       2.067 -13.558  -7.385  1.00  0.00     0.049 A 
ATOM     45  C   UNL     1      -3.130 -12.614  -5.466  1.00  0.00     0.074 A 
ATOM     46  C   UNL     1       2.188 -14.460  -8.426  1.00  0.00     0.029 A 
ATOM     47  N   UNL     1       0.722 -13.501  -7.054  1.00  0.00    -0.354 N 
ATOM     48  N   UNL     1      -1.976 -12.972  -5.976  1.00  0.00    -0.248 NA
ATOM     49  C   UNL     1      -4.291 -13.252  -6.105  1.00  0.00     0.031 C 
ATOM     50  C   UNL     1       0.913 -14.951  -8.723  1.00  0.00     0.029 A 
ATOM     51  C   UNL     1       0.002 -14.362  -7.860  1.00  0.00     0.049 A 
ATOM     52  H   UNL     1       0.337 -12.932  -6.348  1.00  0.00     0.167 HD
ATOM     53  C   UNL     1      -2.267 -13.908  -6.961  1.00  0.00     0.074 A 
ATOM     54  C   UNL     1      -3.707 -14.068  -6.973  1.00  0.00     0.031 C 
ATOM     55  C   UNL     1      -1.422 -14.566  -7.791  1.00  0.00     0.034 A 
BRANCH  42  56
ATOM     56  C   UNL     1       4.516 -12.952  -7.214  1.00  0.00     0.023 A 
ATOM     57  C   UNL     1       5.444 -13.691  -6.452  1.00  0.00     0.012 A 
ATOM     58  C   UNL     1       4.920 -12.391  -8.441  1.00  0.00     0.148 A 
ATOM     59  C   UNL     1       6.761 -13.837  -6.883  1.00  0.00     0.002 A 
ATOM     60  C   UNL     1       6.223 -12.580  -8.886  1.00  0.00     0.091 A 
ATOM     61  F   UNL     1       4.032 -11.669  -9.140  1.00  0.00    -0.205 F 
ATOM     62  C   UNL     1       7.147 -13.291  -8.104  1.00  0.00     0.022 A 
BRANCH  60  63
ATOM     63  S   UNL     1       6.794 -11.984 -10.482  1.00  0.00     0.127 S 
ATOM     64  O   UNL     1       7.632 -10.851 -10.092  1.00  0.00    -0.237 OA
ATOM     65  O   UNL     1       7.532 -13.138 -10.998  1.00  0.00    -0.237 OA
ATOM     66  O   UNL     1       5.594 -11.648 -11.235  1.00  0.00    -0.744 OA
ENDBRANCH  60  63
ENDBRANCH  42  56
BRANCH  43  67
ATOM     67  C   UNL     1      -4.801 -11.415  -3.860  1.00  0.00     0.023 A 
ATOM     68  C   UNL     1      -5.513 -12.451  -3.223  1.00  0.00     0.012 A 
ATOM     69  C   UNL     1      -5.413 -10.156  -4.010  1.00  0.00     0.148 A 
ATOM     70  C   UNL     1      -6.817 -12.248  -2.772  1.00  0.00     0.002 A 
ATOM     71  C   UNL     1      -6.696  -9.945  -3.514  1.00  0.00     0.091 A 
ATOM     72  F   UNL     1      -4.726  -9.185  -4.628  1.00  0.00    -0.205 F 
ATOM     73  C   UNL     1      -7.405 -10.994  -2.909  1.00  0.00     0.022 A 
BRANCH  71  74
ATOM     74  S   UNL     1      -7.483  -8.330  -3.534  1.00  0.00     0.127 S 
ATOM     75  O   UNL     1      -8.476  -8.494  -4.592  1.00  0.00    -0.237 OA
ATOM     76  O   UNL     1      -8.034  -8.242  -2.181  1.00  0.00    -0.237 OA
ATOM     77  O   UNL     1      -6.414  -7.379  -3.807  1.00  0.00    -0.744 OA
ENDBRANCH  71  74
ENDBRANCH  43  67
BRANCH  55  78
ATOM     78  C   UNL     1      -2.005 -15.571  -8.745  1.00  0.00     0.023 A 
ATOM     79  C   UNL     1      -2.652 -15.130  -9.915  1.00  0.00     0.012 A 
ATOM     80  C   UNL     1      -1.785 -16.948  -8.546  1.00  0.00     0.148 A 
ATOM     81  C   UNL     1      -3.082 -16.049 -10.870  1.00  0.00     0.002 A 
ATOM     82  C   UNL     1      -2.176 -17.854  -9.523  1.00  0.00     0.091 A 
ATOM     83  F   UNL     1      -1.180 -17.341  -7.415  1.00  0.00    -0.205 F 
ATOM     84  C   UNL     1      -2.831 -17.407 -10.682  1.00  0.00     0.022 A 
BRANCH  82  85
ATOM     85  S   UNL     1      -1.806 -19.609  -9.414  1.00  0.00     0.127 S 
ATOM     86  O   UNL     1      -3.134 -20.179  -9.189  1.00  0.00    -0.237 OA
ATOM     87  O   UNL     1      -1.238 -19.887 -10.733  1.00  0.00    -0.237 OA
ATOM     88  O   UNL     1      -0.870 -19.756  -8.308  1.00  0.00    -0.744 OA
ENDBRANCH  82  85
ENDBRANCH  55  78
ENDBRANCH  29  30
ENDBRANCH  21  24
ENDBRANCH  19  20
ENDBRANCH   1  19
TORSDOF 16
