REMARK SMILES C[C@@H](CC(=O)NCCCCNC(=O)c1ccc(-c2c3nc(c(-c4cccc(S(=O)(=O)[O-])c4F)c4ccc([nH]4)c(-c4cccc(S(=O)(=O)[O-])c4F)c4nc(c(-c5cccc(S(=O)(=O)[O-])c5F)c5ccc2[nH]5)C=C4)C=C3)cc1)Cc1nnc(C2C(C)(C)C2(C)C)o1
REMARK SMILES IDX 8 1 7 2 6 3 4 4 5 5 3 7 2 8 1 9 77 10 78 11 79 12 89 13
REMARK SMILES IDX 80 14 81 15 82 16 83 17 86 18 84 19 85 20 87 21 88 22 9 23
REMARK SMILES IDX 10 24 11 25 12 26 13 28 14 29 15 30 76 31 16 32 75 33 17 34
REMARK SMILES IDX 18 35 19 36 69 37 20 38 74 39 68 40 70 41 21 42 73 43 67 44
REMARK SMILES IDX 66 45 22 47 54 48 34 49 53 50 35 51 38 52 52 53 71 54 36 55
REMARK SMILES IDX 37 56 51 58 72 59 39 60 23 61 24 62 32 63 25 64 27 65 33 66
REMARK SMILES IDX 26 67 28 68 29 69 30 70 31 71 55 72 56 73 64 74 57 75 59 76
REMARK SMILES IDX 65 77 58 78 60 79 61 80 62 81 63 82 40 83 41 84 49 85 42 86
REMARK SMILES IDX 44 87 50 88 43 89 45 90 46 91 47 92 48 93
REMARK H PARENT 6 6 11 27 70 46 38 57
REMARK Flexibility Score: inf
ROOT
ATOM      1  C   UNL     1       0.900  -2.209   0.638  1.00  0.00     0.023 C 
ENDROOT
BRANCH   1   2
ATOM      2  C   UNL     1       1.641  -2.103  -0.695  1.00  0.00     0.116 C 
BRANCH   2   3
ATOM      3  N   UNL     1       0.720  -2.146  -1.813  1.00  0.00    -0.356 N 
ATOM      4  C   UNL     1       0.268  -1.137  -2.603  1.00  0.00     0.220 C 
ATOM      5  O   UNL     1      -0.584  -1.384  -3.457  1.00  0.00    -0.275 OA
ATOM      6  H   UNL     1       0.370  -3.039  -2.033  1.00  0.00     0.163 HD
BRANCH   4   7
ATOM      7  C   UNL     1       0.796   0.275  -2.436  1.00  0.00     0.103 C 
BRANCH   7   8
ATOM      8  C   UNL     1       0.153   1.137  -1.331  1.00  0.00     0.004 C 
ATOM      9  C   UNL     1       1.057   1.248  -0.091  1.00  0.00     0.009 C 
BRANCH   8  10
ATOM     10  C   UNL     1      -1.312   0.745  -1.007  1.00  0.00     0.103 C 
BRANCH  10  11
ATOM     11  C   UNL     1      -1.818   1.462   0.188  1.00  0.00     0.216 A 
ATOM     12  N   UNL     1      -1.994   1.007   1.409  1.00  0.00    -0.113 NA
ATOM     13  O   UNL     1      -1.878   2.824   0.114  1.00  0.00    -0.425 OA
ATOM     14  N   UNL     1      -2.104   2.116   2.217  1.00  0.00    -0.113 NA
ATOM     15  C   UNL     1      -1.996   3.171   1.433  1.00  0.00     0.220 A 
BRANCH  15  16
ATOM     16  C   UNL     1      -1.864   4.578   1.991  1.00  0.00     0.090 C 
ATOM     17  C   UNL     1      -1.097   5.652   1.200  1.00  0.00    -0.017 C 
ATOM     18  C   UNL     1      -2.602   5.792   1.439  1.00  0.00    -0.017 C 
ATOM     19  C   UNL     1      -0.101   6.463   2.006  1.00  0.00     0.012 C 
ATOM     20  C   UNL     1      -0.592   5.433  -0.212  1.00  0.00     0.012 C 
ATOM     21  C   UNL     1      -3.604   5.609   0.321  1.00  0.00     0.012 C 
ATOM     22  C   UNL     1      -3.079   6.819   2.448  1.00  0.00     0.012 C 
ENDBRANCH  15  16
ENDBRANCH  10  11
ENDBRANCH   8  10
ENDBRANCH   7   8
ENDBRANCH   4   7
ENDBRANCH   2   3
ENDBRANCH   1   2
BRANCH   1  23
ATOM     23  C   UNL     1       0.399  -3.607   0.990  1.00  0.00     0.023 C 
BRANCH  23  24
ATOM     24  C   UNL     1       1.483  -4.665   1.139  1.00  0.00     0.116 C 
BRANCH  24  25
ATOM     25  N   UNL     1       2.493  -4.327   2.135  1.00  0.00    -0.352 N 
ATOM     26  C   UNL     1       3.098  -5.153   3.053  1.00  0.00     0.251 C 
ATOM     27  H   UNL     1       2.780  -3.386   2.152  1.00  0.00     0.163 HD
ATOM     28  O   UNL     1       3.870  -4.692   3.889  1.00  0.00    -0.269 OA
BRANCH  26  29
ATOM     29  C   UNL     1       2.777  -6.595   3.045  1.00  0.00     0.039 A 
ATOM     30  C   UNL     1       2.401  -7.214   4.239  1.00  0.00     0.014 A 
ATOM     31  C   UNL     1       2.787  -7.314   1.847  1.00  0.00     0.014 A 
ATOM     32  C   UNL     1       1.958  -8.538   4.218  1.00  0.00     0.010 A 
ATOM     33  C   UNL     1       2.269  -8.603   1.816  1.00  0.00     0.010 A 
ATOM     34  C   UNL     1       1.851  -9.229   3.000  1.00  0.00    -0.014 A 
BRANCH  34  35
ATOM     35  C   UNL     1       1.300 -10.606   2.932  1.00  0.00     0.031 A 
ATOM     36  C   UNL     1       2.159 -11.734   2.429  1.00  0.00     0.074 A 
ATOM     37  C   UNL     1      -0.001 -10.820   3.215  1.00  0.00     0.049 A 
ATOM     38  N   UNL     1       1.837 -12.981   2.208  1.00  0.00    -0.248 NA
ATOM     39  C   UNL     1       3.557 -11.409   2.096  1.00  0.00     0.031 C 
ATOM     40  C   UNL     1      -0.961  -9.792   3.623  1.00  0.00     0.029 A 
ATOM     41  N   UNL     1      -0.748 -11.971   3.174  1.00  0.00    -0.354 N 
ATOM     42  C   UNL     1       2.971 -13.576   1.669  1.00  0.00     0.074 A 
ATOM     43  C   UNL     1       3.980 -12.546   1.563  1.00  0.00     0.031 C 
ATOM     44  C   UNL     1      -2.166 -10.358   3.799  1.00  0.00     0.029 A 
ATOM     45  C   UNL     1      -2.072 -11.783   3.495  1.00  0.00     0.049 A 
ATOM     46  H   UNL     1      -0.371 -12.849   2.936  1.00  0.00     0.167 HD
ATOM     47  C   UNL     1       3.169 -14.871   1.329  1.00  0.00     0.034 A 
ATOM     48  C   UNL     1      -3.094 -12.660   3.542  1.00  0.00     0.034 A 
ATOM     49  C   UNL     1       2.188 -15.906   1.504  1.00  0.00     0.049 A 
ATOM     50  C   UNL     1      -2.826 -14.108   3.231  1.00  0.00     0.074 A 
ATOM     51  C   UNL     1       2.324 -17.266   1.288  1.00  0.00     0.029 A 
ATOM     52  N   UNL     1       0.890 -15.697   1.944  1.00  0.00    -0.354 N 
ATOM     53  N   UNL     1      -1.700 -14.683   2.883  1.00  0.00    -0.248 NA
ATOM     54  C   UNL     1      -3.959 -15.037   3.357  1.00  0.00     0.031 C 
ATOM     55  C   UNL     1       1.104 -17.880   1.594  1.00  0.00     0.029 A 
ATOM     56  C   UNL     1       0.213 -16.902   2.008  1.00  0.00     0.049 A 
ATOM     57  H   UNL     1       0.507 -14.821   2.176  1.00  0.00     0.167 HD
ATOM     58  C   UNL     1      -1.980 -16.040   2.781  1.00  0.00     0.074 A 
ATOM     59  C   UNL     1      -3.377 -16.206   3.125  1.00  0.00     0.031 C 
ATOM     60  C   UNL     1      -1.160 -17.056   2.415  1.00  0.00     0.034 A 
BRANCH  47  61
ATOM     61  C   UNL     1       4.528 -15.253   0.805  1.00  0.00     0.023 A 
ATOM     62  C   UNL     1       5.622 -15.297   1.694  1.00  0.00     0.012 A 
ATOM     63  C   UNL     1       4.719 -15.611  -0.544  1.00  0.00     0.148 A 
ATOM     64  C   UNL     1       6.891 -15.656   1.244  1.00  0.00     0.002 A 
ATOM     65  C   UNL     1       5.979 -16.008  -0.977  1.00  0.00     0.091 A 
ATOM     66  F   UNL     1       3.673 -15.540  -1.380  1.00  0.00    -0.205 F 
ATOM     67  C   UNL     1       7.067 -16.021  -0.088  1.00  0.00     0.022 A 
BRANCH  65  68
ATOM     68  S   UNL     1       6.293 -16.566  -2.655  1.00  0.00     0.127 S 
ATOM     69  O   UNL     1       7.015 -15.425  -3.216  1.00  0.00    -0.237 OA
ATOM     70  O   UNL     1       7.113 -17.758  -2.438  1.00  0.00    -0.237 OA
ATOM     71  O   UNL     1       4.985 -16.831  -3.239  1.00  0.00    -0.744 OA
ENDBRANCH  65  68
ENDBRANCH  47  61
BRANCH  48  72
ATOM     72  C   UNL     1      -4.443 -12.210   3.985  1.00  0.00     0.023 A 
ATOM     73  C   UNL     1      -4.915 -12.607   5.252  1.00  0.00     0.012 A 
ATOM     74  C   UNL     1      -5.245 -11.374   3.185  1.00  0.00     0.148 A 
ATOM     75  C   UNL     1      -6.173 -12.204   5.702  1.00  0.00     0.002 A 
ATOM     76  C   UNL     1      -6.477 -10.936   3.660  1.00  0.00     0.091 A 
ATOM     77  F   UNL     1      -4.787 -11.019   1.976  1.00  0.00    -0.205 F 
ATOM     78  C   UNL     1      -6.949 -11.362   4.912  1.00  0.00     0.022 A 
BRANCH  76  79
ATOM     79  S   UNL     1      -7.484  -9.750   2.761  1.00  0.00     0.127 S 
ATOM     80  O   UNL     1      -8.535 -10.603   2.214  1.00  0.00    -0.237 OA
ATOM     81  O   UNL     1      -7.917  -8.845   3.828  1.00  0.00    -0.237 OA
ATOM     82  O   UNL     1      -6.586  -9.139   1.790  1.00  0.00    -0.744 OA
ENDBRANCH  76  79
ENDBRANCH  48  72
BRANCH  60  83
ATOM     83  C   UNL     1      -1.737 -18.446   2.392  1.00  0.00     0.023 A 
ATOM     84  C   UNL     1      -2.607 -18.819   1.348  1.00  0.00     0.012 A 
ATOM     85  C   UNL     1      -1.353 -19.403   3.351  1.00  0.00     0.148 A 
ATOM     86  C   UNL     1      -3.106 -20.119   1.274  1.00  0.00     0.002 A 
ATOM     87  C   UNL     1      -1.820 -20.708   3.245  1.00  0.00     0.091 A 
ATOM     88  F   UNL     1      -0.541 -19.022   4.348  1.00  0.00    -0.205 F 
ATOM     89  C   UNL     1      -2.703 -21.065   2.213  1.00  0.00     0.022 A 
BRANCH  87  90
ATOM     90  S   UNL     1      -1.278 -22.011   4.357  1.00  0.00     0.127 S 
ATOM     91  O   UNL     1      -2.436 -22.154   5.237  1.00  0.00    -0.237 OA
ATOM     92  O   UNL     1      -1.065 -23.135   3.444  1.00  0.00    -0.237 OA
ATOM     93  O   UNL     1      -0.064 -21.514   4.990  1.00  0.00    -0.744 OA
ENDBRANCH  87  90
ENDBRANCH  60  83
ENDBRANCH  34  35
ENDBRANCH  26  29
ENDBRANCH  24  25
ENDBRANCH  23  24
ENDBRANCH   1  23
TORSDOF 18
