REMARK SMILES C[NH2+][C@@]1(C(=O)NCCCCNC(=O)c2ccc(-c3c4nc(c(-c5cccc(S(=O)(=O)[O-])c5F)c5ccc([nH]5)c(-c5cccc(S(=O)(=O)[O-])c5F)c5nc(c(-c6cccc(S(=O)(=O)[O-])c6F)c6ccc3[nH]6)C=C5)C=C4)cc2)CC[C@@H]([N@@H+](C)C2CCCCCC2)C1
REMARK SMILES IDX 7 1 6 2 4 3 5 4 3 6 77 7 89 8 78 9 79 10 2 11 1 12 80 15
REMARK SMILES IDX 81 16 82 18 83 19 84 20 88 22 87 23 86 24 85 25 8 27 9 28
REMARK SMILES IDX 10 29 11 30 12 31 13 33 14 34 15 35 76 36 16 37 75 38 17 39
REMARK SMILES IDX 18 40 19 41 69 42 20 43 74 44 68 45 70 46 21 47 73 48 67 49
REMARK SMILES IDX 66 50 22 52 54 53 34 54 53 55 35 56 38 57 52 58 71 59 36 60
REMARK SMILES IDX 37 61 51 63 72 64 39 65 23 66 24 67 32 68 25 69 27 70 33 71
REMARK SMILES IDX 26 72 28 73 29 74 30 75 31 76 55 77 56 78 64 79 57 80 59 81
REMARK SMILES IDX 65 82 58 83 60 84 61 85 62 86 63 87 40 88 41 89 49 90 42 91
REMARK SMILES IDX 44 92 50 93 43 94 45 95 46 96 47 97 48 98
REMARK H PARENT 6 5 2 13 2 14 80 17 11 32 70 51 38 62
REMARK Flexibility Score: 80.00
ROOT
ATOM      1  C   UNL     1      -4.011  -0.007   3.353  1.00  0.00     0.116 C 
ENDROOT
BRANCH   1   2
ATOM      2  N   UNL     1      -2.712  -0.210   3.933  1.00  0.00    -0.351 N 
ATOM      3  C   UNL     1      -1.474  -0.254   3.390  1.00  0.00     0.281 C 
ATOM      4  O   UNL     1      -0.579  -0.640   4.162  1.00  0.00    -0.268 OA
ATOM      5  H   UNL     1      -2.725  -0.343   4.909  1.00  0.00     0.163 HD
BRANCH   3   6
ATOM      6  C   UNL     1      -1.106   0.100   1.885  1.00  0.00     0.181 C 
ATOM      7  C   UNL     1      -1.733   1.412   1.381  1.00  0.00     0.085 C 
ATOM      8  C   UNL     1      -1.588  -1.013   0.928  1.00  0.00     0.144 C 
ATOM      9  C   UNL     1      -2.778   1.079   0.315  1.00  0.00     0.072 C 
ATOM     10  C   UNL     1      -2.733  -0.431   0.074  1.00  0.00     0.191 C 
BRANCH   6  11
ATOM     11  N   UNL     1       0.372   0.317   1.962  1.00  0.00    -0.336 N 
ATOM     12  C   UNL     1       1.179   0.129   0.780  1.00  0.00     0.331 C 
ATOM     13  H   UNL     1       0.516   1.278   2.269  1.00  0.00     0.346 HD
ATOM     14  H   UNL     1       0.691  -0.421   2.590  1.00  0.00     0.346 HD
ENDBRANCH   6  11
BRANCH  10  15
ATOM     15  N   UNL     1      -2.925  -0.949  -1.298  1.00  0.00    -0.332 N 
ATOM     16  C   UNL     1      -4.347  -0.883  -1.678  1.00  0.00     0.333 C 
ATOM     17  H   UNL     1      -2.570  -1.895  -1.161  1.00  0.00     0.348 HD
BRANCH  15  18
ATOM     18  C   UNL     1      -2.052  -0.552  -2.438  1.00  0.00     0.184 C 
BRANCH  18  19
ATOM     19  C   UNL     1      -2.122   0.911  -2.935  1.00  0.00     0.065 C 
BRANCH  19  20
ATOM     20  C   UNL     1      -1.006   1.843  -2.456  1.00  0.00     0.006 CG0
ATOM     21  G   UNL     1       0.230   1.832  -3.345  1.00  0.00     0.000 G0
ENDBRANCH  19  20
ENDBRANCH  18  19
BRANCH  18  22
ATOM     22  C   UNL     1      -0.622  -1.105  -2.326  1.00  0.00     0.065 C 
BRANCH  22  23
ATOM     23  C   UNL     1       0.302  -0.745  -3.495  1.00  0.00     0.006 C 
BRANCH  23  24
ATOM     24  C   UNL     1       1.067   0.560  -3.266  1.00  0.00     0.000 C 
BRANCH  24  25
ATOM     25  C   UNL     1       0.230   1.832  -3.345  1.00  0.00     0.000 CG0
ATOM     26  G   UNL     1      -1.006   1.843  -2.456  1.00  0.00     0.000 G0
ENDBRANCH  24  25
ENDBRANCH  23  24
ENDBRANCH  22  23
ENDBRANCH  18  22
ENDBRANCH  15  18
ENDBRANCH  10  15
ENDBRANCH   3   6
ENDBRANCH   1   2
BRANCH   1  27
ATOM     27  C   UNL     1      -4.787  -1.317   3.261  1.00  0.00     0.023 C 
BRANCH  27  28
ATOM     28  C   UNL     1      -5.719  -1.559   4.445  1.00  0.00     0.023 C 
BRANCH  28  29
ATOM     29  C   UNL     1      -6.759  -0.466   4.670  1.00  0.00     0.116 C 
BRANCH  29  30
ATOM     30  N   UNL     1      -7.562  -0.157   3.495  1.00  0.00    -0.352 N 
ATOM     31  C   UNL     1      -8.830   0.389   3.488  1.00  0.00     0.251 C 
ATOM     32  H   UNL     1      -7.161  -0.357   2.619  1.00  0.00     0.163 HD
ATOM     33  O   UNL     1      -9.450   0.557   2.443  1.00  0.00    -0.269 OA
BRANCH  31  34
ATOM     34  C   UNL     1      -9.427   0.715   4.794  1.00  0.00     0.039 A 
ATOM     35  C   UNL     1     -10.541  -0.004   5.224  1.00  0.00     0.014 A 
ATOM     36  C   UNL     1      -8.756   1.593   5.647  1.00  0.00     0.014 A 
ATOM     37  C   UNL     1     -10.942   0.101   6.557  1.00  0.00     0.010 A 
ATOM     38  C   UNL     1      -9.109   1.633   6.989  1.00  0.00     0.010 A 
ATOM     39  C   UNL     1     -10.201   0.885   7.458  1.00  0.00    -0.014 A 
BRANCH  39  40
ATOM     40  C   UNL     1     -10.539   0.927   8.902  1.00  0.00     0.031 A 
ATOM     41  C   UNL     1     -10.947   2.228   9.534  1.00  0.00     0.074 A 
ATOM     42  C   UNL     1     -10.377  -0.176   9.661  1.00  0.00     0.049 A 
ATOM     43  N   UNL     1     -11.219   2.485  10.786  1.00  0.00    -0.248 NA
ATOM     44  C   UNL     1     -11.024   3.403   8.650  1.00  0.00     0.031 C 
ATOM     45  C   UNL     1      -9.886  -1.472   9.183  1.00  0.00     0.029 A 
ATOM     46  N   UNL     1     -10.583  -0.376  11.003  1.00  0.00    -0.354 N 
ATOM     47  C   UNL     1     -11.454   3.852  10.848  1.00  0.00     0.074 A 
ATOM     48  C   UNL     1     -11.253   4.379   9.516  1.00  0.00     0.031 C 
ATOM     49  C   UNL     1      -9.839  -2.332  10.214  1.00  0.00     0.029 A 
ATOM     50  C   UNL     1     -10.277  -1.649  11.427  1.00  0.00     0.049 A 
ATOM     51  H   UNL     1     -10.918   0.326  11.606  1.00  0.00     0.167 HD
ATOM     52  C   UNL     1     -11.843   4.599  11.907  1.00  0.00     0.034 A 
ATOM     53  C   UNL     1     -10.351  -2.202  12.653  1.00  0.00     0.034 A 
ATOM     54  C   UNL     1     -12.113   4.059  13.211  1.00  0.00     0.049 A 
ATOM     55  C   UNL     1     -10.870  -1.372  13.796  1.00  0.00     0.074 A 
ATOM     56  C   UNL     1     -12.616   4.709  14.323  1.00  0.00     0.029 A 
ATOM     57  N   UNL     1     -11.908   2.738  13.574  1.00  0.00    -0.354 N 
ATOM     58  N   UNL     1     -11.260  -0.120  13.795  1.00  0.00    -0.248 NA
ATOM     59  C   UNL     1     -11.000  -2.039  15.100  1.00  0.00     0.031 C 
ATOM     60  C   UNL     1     -12.712   3.778  15.363  1.00  0.00     0.029 A 
ATOM     61  C   UNL     1     -12.276   2.549  14.894  1.00  0.00     0.049 A 
ATOM     62  H   UNL     1     -11.553   2.037  12.981  1.00  0.00     0.167 HD
ATOM     63  C   UNL     1     -11.713   0.141  15.083  1.00  0.00     0.074 A 
ATOM     64  C   UNL     1     -11.570  -1.091  15.833  1.00  0.00     0.031 C 
ATOM     65  C   UNL     1     -12.187   1.299  15.605  1.00  0.00     0.034 A 
BRANCH  52  66
ATOM     66  C   UNL     1     -12.078   6.066  11.673  1.00  0.00     0.023 A 
ATOM     67  C   UNL     1     -13.208   6.474  10.933  1.00  0.00     0.012 A 
ATOM     68  C   UNL     1     -11.214   7.040  12.208  1.00  0.00     0.148 A 
ATOM     69  C   UNL     1     -13.454   7.825  10.698  1.00  0.00     0.002 A 
ATOM     70  C   UNL     1     -11.490   8.388  12.005  1.00  0.00     0.091 A 
ATOM     71  F   UNL     1     -10.131   6.633  12.885  1.00  0.00    -0.205 F 
ATOM     72  C   UNL     1     -12.602   8.781  11.242  1.00  0.00     0.022 A 
BRANCH  70  73
ATOM     73  S   UNL     1     -10.493   9.696  12.727  1.00  0.00     0.127 S 
ATOM     74  O   UNL     1      -9.756  10.183  11.562  1.00  0.00    -0.237 OA
ATOM     75  O   UNL     1     -11.511  10.618  13.233  1.00  0.00    -0.237 OA
ATOM     76  O   UNL     1      -9.688   9.059  13.760  1.00  0.00    -0.744 OA
ENDBRANCH  70  73
ENDBRANCH  52  66
BRANCH  53  77
ATOM     77  C   UNL     1     -10.018  -3.643  12.843  1.00  0.00     0.023 A 
ATOM     78  C   UNL     1     -11.058  -4.560  13.091  1.00  0.00     0.012 A 
ATOM     79  C   UNL     1      -8.695  -4.116  12.749  1.00  0.00     0.148 A 
ATOM     80  C   UNL     1     -10.786  -5.916  13.273  1.00  0.00     0.002 A 
ATOM     81  C   UNL     1      -8.436  -5.476  12.882  1.00  0.00     0.091 A 
ATOM     82  F   UNL     1      -7.716  -3.228  12.527  1.00  0.00    -0.205 F 
ATOM     83  C   UNL     1      -9.477  -6.376  13.159  1.00  0.00     0.022 A 
BRANCH  81  84
ATOM     84  S   UNL     1      -6.799  -6.169  12.619  1.00  0.00     0.127 S 
ATOM     85  O   UNL     1      -6.370  -6.450  13.986  1.00  0.00    -0.237 OA
ATOM     86  O   UNL     1      -7.094  -7.353  11.810  1.00  0.00    -0.237 OA
ATOM     87  O   UNL     1      -6.051  -5.137  11.914  1.00  0.00    -0.744 OA
ENDBRANCH  81  84
ENDBRANCH  53  77
BRANCH  65  88
ATOM     88  C   UNL     1     -12.616   1.293  17.047  1.00  0.00     0.023 A 
ATOM     89  C   UNL     1     -11.640   1.280  18.062  1.00  0.00     0.012 A 
ATOM     90  C   UNL     1     -13.977   1.390  17.395  1.00  0.00     0.148 A 
ATOM     91  C   UNL     1     -12.013   1.339  19.404  1.00  0.00     0.002 A 
ATOM     92  C   UNL     1     -14.340   1.493  18.732  1.00  0.00     0.091 A 
ATOM     93  F   UNL     1     -14.892   1.379  16.414  1.00  0.00    -0.205 F 
ATOM     94  C   UNL     1     -13.360   1.458  19.738  1.00  0.00     0.022 A 
BRANCH  92  95
ATOM     95  S   UNL     1     -16.044   1.745  19.244  1.00  0.00     0.127 S 
ATOM     96  O   UNL     1     -16.418   0.409  19.703  1.00  0.00    -0.237 OA
ATOM     97  O   UNL     1     -15.909   2.741  20.308  1.00  0.00    -0.237 OA
ATOM     98  O   UNL     1     -16.745   2.224  18.060  1.00  0.00    -0.744 OA
ENDBRANCH  92  95
ENDBRANCH  65  88
ENDBRANCH  39  40
ENDBRANCH  31  34
ENDBRANCH  29  30
ENDBRANCH  28  29
ENDBRANCH  27  28
ENDBRANCH   1  27
TORSDOF 17
