REMARK SMILES CCCOC(=O)c1c(NC(=O)[C@@H]2CC=CC[C@H]2C(=O)NCCCCNC(=O)c2ccc(-c3c4nc(c(-c5cccc(S(=O)(=O)[O-])c5F)c5ccc([nH]5)c(-c5cccc(S(=O)(=O)[O-])c5F)c5nc(c(-c6cccc(S(=O)(=O)[O-])c6F)c6ccc3[nH]6)C=C5)C=C4)cc2)sc2c1CCCC2
REMARK SMILES IDX 21 1 20 2 18 3 19 4 17 6 12 7 13 8 14 9 16 10 15 11 10 12
REMARK SMILES IDX 9 13 11 15 8 16 7 17 93 18 91 19 92 20 94 21 97 22 95 23
REMARK SMILES IDX 96 24 5 25 6 26 4 27 3 28 2 29 1 30 22 31 23 32 24 33 25 34
REMARK SMILES IDX 26 35 27 37 28 38 29 39 90 40 30 41 89 42 31 43 32 44 33 45
REMARK SMILES IDX 83 46 34 47 88 48 82 49 84 50 35 51 87 52 81 53 80 54 36 56
REMARK SMILES IDX 68 57 48 58 67 59 49 60 52 61 66 62 85 63 50 64 51 65 65 67
REMARK SMILES IDX 86 68 53 69 37 70 38 71 46 72 39 73 41 74 47 75 40 76 42 77
REMARK SMILES IDX 43 78 44 79 45 80 69 81 70 82 78 83 71 84 73 85 79 86 72 87
REMARK SMILES IDX 74 88 75 89 76 90 77 91 54 92 55 93 63 94 56 95 58 96 64 97
REMARK SMILES IDX 57 98 59 99 60 100 61 101 62 102
REMARK H PARENT 20 5 9 14 25 36 84 55 52 66
REMARK Flexibility Score: inf
ROOT
ATOM      1  C   UNL     1      -0.832   2.173   0.197  1.00  0.00     0.116 C 
ENDROOT
BRANCH   1   2
ATOM      2  N   UNL     1       0.596   2.092   0.551  1.00  0.00    -0.356 N 
ATOM      3  C   UNL     1       1.674   1.286   0.298  1.00  0.00     0.224 C 
ATOM      4  O   UNL     1       2.718   1.958   0.177  1.00  0.00    -0.275 OA
ATOM      5  H   UNL     1       0.850   2.837   1.143  1.00  0.00     0.163 HD
BRANCH   3   6
ATOM      6  C   UNL     1       1.892  -0.302   0.287  1.00  0.00     0.095 C 
ATOM      7  C   UNL     1       2.263  -1.003   1.625  1.00  0.00     0.095 C 
ATOM      8  C   UNL     1       2.594  -2.490   1.533  1.00  0.00     0.041 C 
ATOM      9  C   UNL     1       1.347  -3.149   1.098  1.00  0.00    -0.030 C 
ATOM     10  C   UNL     1       0.946  -1.197  -0.486  1.00  0.00     0.041 C 
ATOM     11  C   UNL     1       0.592  -2.526   0.192  1.00  0.00    -0.030 C 
BRANCH   7  12
ATOM     12  C   UNL     1       3.411  -0.322   2.237  1.00  0.00     0.229 C 
ATOM     13  N   UNL     1       3.085   0.784   2.924  1.00  0.00    -0.317 N 
ATOM     14  H   UNL     1       3.864   1.322   3.194  1.00  0.00     0.170 HD
ATOM     15  O   UNL     1       4.568  -0.672   2.086  1.00  0.00    -0.274 OA
BRANCH  13  16
ATOM     16  C   UNL     1       1.887   1.317   3.328  1.00  0.00     0.110 A 
ATOM     17  C   UNL     1       0.490   1.119   3.466  1.00  0.00     0.098 A 
ATOM     18  C   UNL     1       0.114   2.136   4.523  1.00  0.00    -0.017 A 
ATOM     19  S   UNL     1       2.435   2.866   3.804  1.00  0.00    -0.122 S 
ATOM     20  C   UNL     1       1.092   3.097   4.746  1.00  0.00     0.011 A 
ATOM     21  C   UNL     1      -1.144   2.239   5.341  1.00  0.00     0.038 C 
ATOM     22  C   UNL     1       1.077   4.290   5.646  1.00  0.00     0.047 C 
ATOM     23  C   UNL     1      -1.338   3.670   5.902  1.00  0.00     0.005 C 
ATOM     24  C   UNL     1      -0.104   4.244   6.597  1.00  0.00     0.006 C 
BRANCH  17  25
ATOM     25  C   UNL     1      -0.530   0.019   2.952  1.00  0.00     0.341 C 
ATOM     26  O   UNL     1      -1.268  -0.557   3.748  1.00  0.00    -0.246 OA
BRANCH  25  27
ATOM     27  O   UNL     1      -0.730  -0.193   1.545  1.00  0.00    -0.462 OA
BRANCH  27  28
ATOM     28  C   UNL     1      -1.952  -0.935   0.996  1.00  0.00     0.233 C 
BRANCH  28  29
ATOM     29  C   UNL     1      -2.286  -1.069  -0.617  1.00  0.00     0.038 C 
ATOM     30  C   UNL     1      -1.798  -2.176  -1.603  1.00  0.00     0.007 C 
ENDBRANCH  28  29
ENDBRANCH  27  28
ENDBRANCH  25  27
ENDBRANCH  17  25
ENDBRANCH  13  16
ENDBRANCH   7  12
ENDBRANCH   3   6
ENDBRANCH   1   2
BRANCH   1  31
ATOM     31  C   UNL     1      -1.869   2.551   1.304  1.00  0.00     0.023 C 
BRANCH  31  32
ATOM     32  C   UNL     1      -1.661   3.916   1.945  1.00  0.00     0.023 C 
BRANCH  32  33
ATOM     33  C   UNL     1      -2.918   4.566   2.538  1.00  0.00     0.116 C 
BRANCH  33  34
ATOM     34  N   UNL     1      -3.649   3.881   3.607  1.00  0.00    -0.352 N 
ATOM     35  C   UNL     1      -4.238   4.418   4.752  1.00  0.00     0.251 C 
ATOM     36  H   UNL     1      -3.736   2.906   3.503  1.00  0.00     0.163 HD
ATOM     37  O   UNL     1      -4.824   3.684   5.544  1.00  0.00    -0.269 OA
BRANCH  35  38
ATOM     38  C   UNL     1      -4.074   5.864   5.069  1.00  0.00     0.039 A 
ATOM     39  C   UNL     1      -3.767   6.287   6.370  1.00  0.00     0.014 A 
ATOM     40  C   UNL     1      -4.118   6.799   4.043  1.00  0.00     0.014 A 
ATOM     41  C   UNL     1      -3.402   7.623   6.605  1.00  0.00     0.010 A 
ATOM     42  C   UNL     1      -3.584   8.060   4.241  1.00  0.00     0.010 A 
ATOM     43  C   UNL     1      -3.268   8.513   5.530  1.00  0.00    -0.014 A 
BRANCH  43  44
ATOM     44  C   UNL     1      -2.919   9.951   5.686  1.00  0.00     0.031 A 
ATOM     45  C   UNL     1      -3.865  10.985   5.114  1.00  0.00     0.074 A 
ATOM     46  C   UNL     1      -1.736  10.336   6.205  1.00  0.00     0.049 A 
ATOM     47  N   UNL     1      -3.691  12.269   4.949  1.00  0.00    -0.248 NA
ATOM     48  C   UNL     1      -5.154  10.491   4.591  1.00  0.00     0.031 C 
ATOM     49  C   UNL     1      -0.695   9.443   6.718  1.00  0.00     0.029 A 
ATOM     50  N   UNL     1      -1.196  11.590   6.355  1.00  0.00    -0.354 N 
ATOM     51  C   UNL     1      -4.806  12.710   4.244  1.00  0.00     0.074 A 
ATOM     52  C   UNL     1      -5.610  11.550   3.945  1.00  0.00     0.031 C 
ATOM     53  C   UNL     1       0.350  10.178   7.138  1.00  0.00     0.029 A 
ATOM     54  C   UNL     1       0.073  11.590   6.890  1.00  0.00     0.049 A 
ATOM     55  H   UNL     1      -1.672  12.414   6.103  1.00  0.00     0.167 HD
ATOM     56  C   UNL     1      -5.166  13.973   3.918  1.00  0.00     0.034 A 
ATOM     57  C   UNL     1       0.914  12.613   7.142  1.00  0.00     0.034 A 
ATOM     58  C   UNL     1      -4.416  15.132   4.305  1.00  0.00     0.049 A 
ATOM     59  C   UNL     1       0.466  14.019   6.832  1.00  0.00     0.074 A 
ATOM     60  C   UNL     1      -4.744  16.464   4.135  1.00  0.00     0.029 A 
ATOM     61  N   UNL     1      -3.189  15.095   4.947  1.00  0.00    -0.354 N 
ATOM     62  N   UNL     1      -0.661  14.429   6.301  1.00  0.00    -0.248 NA
ATOM     63  C   UNL     1       1.391  15.106   7.186  1.00  0.00     0.031 C 
ATOM     64  C   UNL     1      -3.698  17.234   4.652  1.00  0.00     0.029 A 
ATOM     65  C   UNL     1      -2.739  16.381   5.175  1.00  0.00     0.049 A 
ATOM     66  H   UNL     1      -2.710  14.274   5.204  1.00  0.00     0.167 HD
ATOM     67  C   UNL     1      -0.598  15.819   6.295  1.00  0.00     0.074 A 
ATOM     68  C   UNL     1       0.670  16.180   6.894  1.00  0.00     0.031 C 
ATOM     69  C   UNL     1      -1.499  16.716   5.825  1.00  0.00     0.034 A 
BRANCH  56  70
ATOM     70  C   UNL     1      -6.458  14.162   3.166  1.00  0.00     0.023 A 
ATOM     71  C   UNL     1      -7.688  13.880   3.799  1.00  0.00     0.012 A 
ATOM     72  C   UNL     1      -6.459  14.647   1.845  1.00  0.00     0.148 A 
ATOM     73  C   UNL     1      -8.892  14.028   3.113  1.00  0.00     0.002 A 
ATOM     74  C   UNL     1      -7.666  14.847   1.187  1.00  0.00     0.091 A 
ATOM     75  F   UNL     1      -5.281  14.889   1.251  1.00  0.00    -0.205 F 
ATOM     76  C   UNL     1      -8.882  14.522   1.812  1.00  0.00     0.022 A 
BRANCH  74  77
ATOM     77  S   UNL     1      -7.769  15.560  -0.458  1.00  0.00     0.127 S 
ATOM     78  O   UNL     1      -8.251  14.423  -1.242  1.00  0.00    -0.237 OA
ATOM     79  O   UNL     1      -8.749  16.628  -0.266  1.00  0.00    -0.237 OA
ATOM     80  O   UNL     1      -6.425  16.016  -0.784  1.00  0.00    -0.744 OA
ENDBRANCH  74  77
ENDBRANCH  56  70
BRANCH  57  81
ATOM     81  C   UNL     1       2.240  12.361   7.781  1.00  0.00     0.023 A 
ATOM     82  C   UNL     1       2.464  12.795   9.104  1.00  0.00     0.012 A 
ATOM     83  C   UNL     1       3.273  11.694   7.097  1.00  0.00     0.148 A 
ATOM     84  C   UNL     1       3.702  12.604   9.718  1.00  0.00     0.002 A 
ATOM     85  C   UNL     1       4.486  11.457   7.734  1.00  0.00     0.091 A 
ATOM     86  F   UNL     1       3.046  11.297   5.837  1.00  0.00    -0.205 F 
ATOM     87  C   UNL     1       4.710  11.929   9.037  1.00  0.00     0.022 A 
BRANCH  85  88
ATOM     88  S   UNL     1       5.798  10.486   6.984  1.00  0.00     0.127 S 
ATOM     89  O   UNL     1       6.826  11.497   6.755  1.00  0.00    -0.237 OA
ATOM     90  O   UNL     1       6.102   9.524   8.045  1.00  0.00    -0.237 OA
ATOM     91  O   UNL     1       5.213   9.896   5.787  1.00  0.00    -0.744 OA
ENDBRANCH  85  88
ENDBRANCH  57  81
BRANCH  69  92
ATOM     92  C   UNL     1      -1.179  18.179   5.977  1.00  0.00     0.023 A 
ATOM     93  C   UNL     1      -0.181  18.769   5.178  1.00  0.00     0.012 A 
ATOM     94  C   UNL     1      -1.939  18.986   6.847  1.00  0.00     0.148 A 
ATOM     95  C   UNL     1       0.079  20.136   5.267  1.00  0.00     0.002 A 
ATOM     96  C   UNL     1      -1.712  20.355   6.890  1.00  0.00     0.091 A 
ATOM     97  F   UNL     1      -2.876  18.401   7.607  1.00  0.00    -0.205 F 
ATOM     98  C   UNL     1      -0.694  20.930   6.111  1.00  0.00     0.022 A 
BRANCH  96  99
ATOM     99  S   UNL     1      -2.727  21.470   7.865  1.00  0.00     0.127 S 
ATOM    100  O   UNL     1      -1.793  21.885   8.910  1.00  0.00    -0.237 OA
ATOM    101  O   UNL     1      -3.060  22.513   6.894  1.00  0.00    -0.237 OA
ATOM    102  O   UNL     1      -3.865  20.684   8.323  1.00  0.00    -0.744 OA
ENDBRANCH  96  99
ENDBRANCH  69  92
ENDBRANCH  43  44
ENDBRANCH  35  38
ENDBRANCH  33  34
ENDBRANCH  32  33
ENDBRANCH  31  32
ENDBRANCH   1  31
TORSDOF 20
