REMARK SMILES CO[C@H]1C[C@@H](C(=O)NCCCCNC(=O)c2ccc(-c3c4nc(c(-c5cccc(S(=O)(=O)[O-])c5F)c5ccc([nH]5)c(-c5cccc(S(=O)(=O)[O-])c5F)c5nc(c(-c6cccc(S(=O)(=O)[O-])c6F)c6ccc3[nH]6)C=C5)C=C4)cc2)N(C(=O)Nc2cc(C)cc(F)c2)C1
REMARK SMILES IDX 11 1 10 2 9 3 8 4 6 5 7 6 5 8 3 9 4 10 91 11 79 12 2 13 1 14
REMARK SMILES IDX 80 15 81 16 82 17 83 19 84 20 90 21 85 22 88 23 86 24 87 25
REMARK SMILES IDX 89 26 12 27 13 28 14 29 15 31 16 32 17 33 78 34 18 35 77 36
REMARK SMILES IDX 19 37 20 38 21 39 71 40 22 41 76 42 70 43 72 44 23 45 75 46
REMARK SMILES IDX 69 47 68 48 24 50 56 51 36 52 55 53 37 54 40 55 54 56 73 57
REMARK SMILES IDX 38 58 39 59 53 61 74 62 41 63 25 64 26 65 34 66 27 67 29 68
REMARK SMILES IDX 35 69 28 70 30 71 31 72 32 73 33 74 57 75 58 76 66 77 59 78
REMARK SMILES IDX 61 79 67 80 60 81 62 82 63 83 64 84 65 85 42 86 43 87 51 88
REMARK SMILES IDX 44 89 46 90 52 91 45 92 47 93 48 94 49 95 50 96
REMARK H PARENT 8 7 82 18 13 30 72 49 40 60
REMARK Flexibility Score: inf
ROOT
ATOM      1  C   UNL     1       4.175   6.575  -0.440  1.00  0.00     0.023 C 
ENDROOT
BRANCH   1   2
ATOM      2  C   UNL     1       3.325   5.642  -1.304  1.00  0.00     0.023 C 
BRANCH   2   3
ATOM      3  C   UNL     1       3.762   4.179  -1.450  1.00  0.00     0.116 C 
BRANCH   3   4
ATOM      4  N   UNL     1       3.883   3.391  -0.239  1.00  0.00    -0.354 N 
ATOM      5  C   UNL     1       2.986   2.623   0.447  1.00  0.00     0.242 C 
ATOM      6  O   UNL     1       3.448   1.855   1.301  1.00  0.00    -0.273 OA
ATOM      7  H   UNL     1       4.780   3.415   0.165  1.00  0.00     0.163 HD
BRANCH   5   8
ATOM      8  C   UNL     1       1.484   2.538   0.096  1.00  0.00     0.179 C 
ATOM      9  C   UNL     1       0.479   1.744  -1.997  1.00  0.00     0.140 C 
ATOM     10  C   UNL     1       1.434   1.349  -0.885  1.00  0.00     0.069 C 
ATOM     11  C   UNL     1       0.379   3.265  -1.911  1.00  0.00     0.154 C 
ATOM     12  N   UNL     1       0.763   3.647  -0.547  1.00  0.00    -0.310 N 
BRANCH   9  13
ATOM     13  O   UNL     1       0.760   1.280  -3.319  1.00  0.00    -0.380 OA
ATOM     14  C   UNL     1       2.101   0.940  -3.637  1.00  0.00     0.195 C 
ENDBRANCH   9  13
BRANCH  12  15
ATOM     15  C   UNL     1       0.143   4.753  -0.018  1.00  0.00     0.322 C 
ATOM     16  O   UNL     1      -0.610   5.433  -0.731  1.00  0.00    -0.248 OA
ATOM     17  N   UNL     1       0.185   5.142   1.279  1.00  0.00    -0.308 N 
ATOM     18  H   UNL     1      -0.639   5.617   1.535  1.00  0.00     0.171 HD
BRANCH  17  19
ATOM     19  C   UNL     1       1.077   5.055   2.360  1.00  0.00     0.046 A 
ATOM     20  C   UNL     1       0.654   5.395   3.649  1.00  0.00     0.029 A 
ATOM     21  C   UNL     1       2.416   4.799   2.195  1.00  0.00     0.065 A 
ATOM     22  C   UNL     1       1.536   5.303   4.750  1.00  0.00    -0.046 A 
ATOM     23  C   UNL     1       3.284   4.639   3.265  1.00  0.00     0.125 A 
ATOM     24  C   UNL     1       1.139   5.790   6.111  1.00  0.00     0.044 C 
ATOM     25  C   UNL     1       2.847   4.860   4.552  1.00  0.00     0.042 A 
ATOM     26  F   UNL     1       4.564   4.320   3.032  1.00  0.00    -0.207 F 
ENDBRANCH  17  19
ENDBRANCH  12  15
ENDBRANCH   5   8
ENDBRANCH   3   4
ENDBRANCH   2   3
ENDBRANCH   1   2
BRANCH   1  27
ATOM     27  C   UNL     1       5.672   6.470  -0.634  1.00  0.00     0.116 C 
BRANCH  27  28
ATOM     28  N   UNL     1       6.066   6.740  -2.004  1.00  0.00    -0.352 N 
ATOM     29  C   UNL     1       7.060   7.562  -2.475  1.00  0.00     0.251 C 
ATOM     30  H   UNL     1       5.546   6.267  -2.694  1.00  0.00     0.163 HD
ATOM     31  O   UNL     1       7.135   7.790  -3.675  1.00  0.00    -0.269 OA
BRANCH  29  32
ATOM     32  C   UNL     1       8.014   8.186  -1.530  1.00  0.00     0.039 A 
ATOM     33  C   UNL     1       8.393   9.514  -1.742  1.00  0.00     0.014 A 
ATOM     34  C   UNL     1       8.535   7.474  -0.447  1.00  0.00     0.014 A 
ATOM     35  C   UNL     1       9.263  10.136  -0.845  1.00  0.00     0.010 A 
ATOM     36  C   UNL     1       9.322   8.124   0.498  1.00  0.00     0.010 A 
ATOM     37  C   UNL     1       9.715   9.455   0.296  1.00  0.00    -0.014 A 
BRANCH  37  38
ATOM     38  C   UNL     1      10.622  10.107   1.276  1.00  0.00     0.031 A 
ATOM     39  C   UNL     1      11.995   9.539   1.524  1.00  0.00     0.074 A 
ATOM     40  C   UNL     1      10.188  11.166   1.986  1.00  0.00     0.049 A 
ATOM     41  N   UNL     1      12.912   9.936   2.368  1.00  0.00    -0.248 NA
ATOM     42  C   UNL     1      12.380   8.351   0.742  1.00  0.00     0.031 C 
ATOM     43  C   UNL     1       8.854  11.764   1.888  1.00  0.00     0.029 A 
ATOM     44  N   UNL     1      10.817  11.917   2.947  1.00  0.00    -0.354 N 
ATOM     45  C   UNL     1      13.962   9.034   2.242  1.00  0.00     0.074 A 
ATOM     46  C   UNL     1      13.552   8.040   1.275  1.00  0.00     0.031 C 
ATOM     47  C   UNL     1       8.770  12.796   2.743  1.00  0.00     0.029 A 
ATOM     48  C   UNL     1      10.027  12.913   3.474  1.00  0.00     0.049 A 
ATOM     49  H   UNL     1      11.745  11.758   3.233  1.00  0.00     0.167 HD
ATOM     50  C   UNL     1      15.173   9.049   2.847  1.00  0.00     0.034 A 
ATOM     51  C   UNL     1      10.287  13.814   4.442  1.00  0.00     0.034 A 
ATOM     52  C   UNL     1      15.590  10.059   3.780  1.00  0.00     0.049 A 
ATOM     53  C   UNL     1      11.648  13.821   5.083  1.00  0.00     0.074 A 
ATOM     54  C   UNL     1      16.819  10.205   4.398  1.00  0.00     0.029 A 
ATOM     55  N   UNL     1      14.788  11.094   4.234  1.00  0.00    -0.354 N 
ATOM     56  N   UNL     1      12.678  13.044   4.847  1.00  0.00    -0.248 NA
ATOM     57  C   UNL     1      11.897  14.854   6.099  1.00  0.00     0.031 C 
ATOM     58  C   UNL     1      16.750  11.313   5.249  1.00  0.00     0.029 A 
ATOM     59  C   UNL     1      15.492  11.880   5.130  1.00  0.00     0.049 A 
ATOM     60  H   UNL     1      13.854  11.248   3.961  1.00  0.00     0.167 HD
ATOM     61  C   UNL     1      13.708  13.522   5.649  1.00  0.00     0.074 A 
ATOM     62  C   UNL     1      13.183  14.667   6.363  1.00  0.00     0.031 C 
ATOM     63  C   UNL     1      14.972  13.050   5.790  1.00  0.00     0.034 A 
BRANCH  50  64
ATOM     64  C   UNL     1      16.153   7.964   2.478  1.00  0.00     0.023 A 
ATOM     65  C   UNL     1      16.727   7.952   1.189  1.00  0.00     0.012 A 
ATOM     66  C   UNL     1      16.548   6.991   3.416  1.00  0.00     0.148 A 
ATOM     67  C   UNL     1      17.645   6.968   0.826  1.00  0.00     0.002 A 
ATOM     68  C   UNL     1      17.501   6.042   3.063  1.00  0.00     0.091 A 
ATOM     69  F   UNL     1      15.980   7.005   4.630  1.00  0.00    -0.205 F 
ATOM     70  C   UNL     1      18.040   6.021   1.766  1.00  0.00     0.022 A 
BRANCH  68  71
ATOM     71  S   UNL     1      18.140   4.829   4.224  1.00  0.00     0.127 S 
ATOM     72  O   UNL     1      17.598   3.585   3.678  1.00  0.00    -0.237 OA
ATOM     73  O   UNL     1      19.586   4.985   4.064  1.00  0.00    -0.237 OA
ATOM     74  O   UNL     1      17.627   5.211   5.531  1.00  0.00    -0.744 OA
ENDBRANCH  68  71
ENDBRANCH  50  64
BRANCH  51  75
ATOM     75  C   UNL     1       9.260  14.826   4.821  1.00  0.00     0.023 A 
ATOM     76  C   UNL     1       9.479  16.184   4.513  1.00  0.00     0.012 A 
ATOM     77  C   UNL     1       8.071  14.455   5.477  1.00  0.00     0.148 A 
ATOM     78  C   UNL     1       8.554  17.158   4.891  1.00  0.00     0.002 A 
ATOM     79  C   UNL     1       7.127  15.424   5.799  1.00  0.00     0.091 A 
ATOM     80  F   UNL     1       7.883  13.161   5.768  1.00  0.00    -0.205 F 
ATOM     81  C   UNL     1       7.375  16.778   5.526  1.00  0.00     0.022 A 
BRANCH  79  82
ATOM     82  S   UNL     1       5.527  15.013   6.505  1.00  0.00     0.127 S 
ATOM     83  O   UNL     1       5.654  15.539   7.861  1.00  0.00    -0.237 OA
ATOM     84  O   UNL     1       4.615  15.759   5.637  1.00  0.00    -0.237 OA
ATOM     85  O   UNL     1       5.408  13.566   6.396  1.00  0.00    -0.744 OA
ENDBRANCH  79  82
ENDBRANCH  51  75
BRANCH  63  86
ATOM     86  C   UNL     1      15.900  13.803   6.708  1.00  0.00     0.023 A 
ATOM     87  C   UNL     1      15.709  13.755   8.103  1.00  0.00     0.012 A 
ATOM     88  C   UNL     1      17.004  14.504   6.184  1.00  0.00     0.148 A 
ATOM     89  C   UNL     1      16.580  14.427   8.960  1.00  0.00     0.002 A 
ATOM     90  C   UNL     1      17.899  15.124   7.047  1.00  0.00     0.091 A 
ATOM     91  F   UNL     1      17.159  14.551   4.853  1.00  0.00    -0.205 F 
ATOM     92  C   UNL     1      17.680  15.100   8.433  1.00  0.00     0.022 A 
BRANCH  90  93
ATOM     93  S   UNL     1      19.398  15.926   6.466  1.00  0.00     0.127 S 
ATOM     94  O   UNL     1      19.084  17.337   6.688  1.00  0.00    -0.237 OA
ATOM     95  O   UNL     1      20.411  15.377   7.368  1.00  0.00    -0.237 OA
ATOM     96  O   UNL     1      19.552  15.532   5.072  1.00  0.00    -0.744 OA
ENDBRANCH  90  93
ENDBRANCH  63  86
ENDBRANCH  37  38
ENDBRANCH  29  32
ENDBRANCH  27  28
ENDBRANCH   1  27
TORSDOF 17
