REMARK SMILES COc1ccccc1-n1nnc(C(=O)NCCCCNC(=O)c2ccc(-c3c4nc(c(-c5cccc(S(=O)(=O)[O-])c5F)c5ccc([nH]5)c(-c5cccc(S(=O)(=O)[O-])c5F)c5nc(c(-c6cccc(S(=O)(=O)[O-])c6F)c6ccc3[nH]6)C=C5)C=C4)cc2)c1-c1ccc(Cl)cc1
REMARK SMILES IDX 18 1 17 2 16 3 15 4 13 5 14 6 12 8 9 9 10 10 86 11 11 12
REMARK SMILES IDX 8 13 3 14 4 15 5 16 7 17 6 18 2 19 1 20 87 21 88 22 93 23
REMARK SMILES IDX 89 24 92 25 90 26 91 27 19 28 20 29 21 30 22 32 23 33 24 34
REMARK SMILES IDX 85 35 25 36 84 37 26 38 27 39 28 40 78 41 29 42 83 43 77 44
REMARK SMILES IDX 79 45 30 46 82 47 76 48 75 49 31 51 63 52 43 53 62 54 44 55
REMARK SMILES IDX 47 56 61 57 80 58 45 59 46 60 60 62 81 63 48 64 32 65 33 66
REMARK SMILES IDX 41 67 34 68 36 69 42 70 35 71 37 72 38 73 39 74 40 75 64 76
REMARK SMILES IDX 65 77 73 78 66 79 68 80 74 81 67 82 69 83 70 84 71 85 72 86
REMARK SMILES IDX 49 87 50 88 58 89 51 90 53 91 59 92 52 93 54 94 55 95 56 96
REMARK SMILES IDX 57 97
REMARK H PARENT 15 7 20 31 79 50 47 61
REMARK Flexibility Score: inf
ROOT
ATOM      1  C   UNL     1       5.801  -4.287   4.746  1.00  0.00     0.023 C 
ENDROOT
BRANCH   1   2
ATOM      2  C   UNL     1       5.723  -3.975   3.254  1.00  0.00     0.023 C 
BRANCH   2   3
ATOM      3  C   UNL     1       4.979  -2.720   2.814  1.00  0.00     0.116 C 
BRANCH   3   4
ATOM      4  N   UNL     1       5.704  -1.501   2.601  1.00  0.00    -0.351 N 
ATOM      5  C   UNL     1       5.588  -0.595   1.555  1.00  0.00     0.274 C 
ATOM      6  O   UNL     1       6.368   0.361   1.608  1.00  0.00    -0.267 OA
ATOM      7  H   UNL     1       6.373  -1.277   3.287  1.00  0.00     0.163 HD
BRANCH   5   8
ATOM      8  C   UNL     1       4.681  -0.746   0.390  1.00  0.00     0.178 A 
ATOM      9  N   UNL     1       3.203  -1.096  -1.207  1.00  0.00    -0.208 N 
ATOM     10  N   UNL     1       4.212  -0.394  -1.751  1.00  0.00    -0.061 NA
ATOM     11  C   UNL     1       3.518  -1.471   0.101  1.00  0.00     0.108 A 
ATOM     12  N   UNL     1       5.041  -0.071  -0.774  1.00  0.00    -0.124 NA
BRANCH   9  13
ATOM     13  C   UNL     1       2.142  -1.601  -1.996  1.00  0.00     0.109 A 
ATOM     14  C   UNL     1       0.829  -1.654  -1.508  1.00  0.00     0.144 A 
ATOM     15  C   UNL     1      -0.087  -2.510  -2.127  1.00  0.00     0.049 A 
ATOM     16  C   UNL     1       0.281  -3.268  -3.239  1.00  0.00     0.004 A 
ATOM     17  C   UNL     1       2.496  -2.307  -3.161  1.00  0.00     0.032 A 
ATOM     18  C   UNL     1       1.566  -3.153  -3.767  1.00  0.00     0.003 A 
BRANCH  14  19
ATOM     19  O   UNL     1       0.344  -1.018  -0.399  1.00  0.00    -0.494 OA
ATOM     20  C   UNL     1       0.615   0.383  -0.306  1.00  0.00     0.278 C 
ENDBRANCH  14  19
ENDBRANCH   9  13
BRANCH  11  21
ATOM     21  C   UNL     1       2.785  -2.563   0.743  1.00  0.00     0.003 A 
ATOM     22  C   UNL     1       1.939  -2.363   1.836  1.00  0.00     0.012 A 
ATOM     23  C   UNL     1       2.984  -3.872   0.250  1.00  0.00     0.012 A 
ATOM     24  C   UNL     1       1.317  -3.462   2.439  1.00  0.00     0.021 A 
ATOM     25  C   UNL     1       2.379  -4.963   0.864  1.00  0.00     0.021 A 
ATOM     26  C   UNL     1       1.547  -4.752   1.958  1.00  0.00     0.041 A 
ATOM     27  Cl  UNL     1       0.801  -6.103   2.713  1.00  0.00    -0.084 Cl
ENDBRANCH  11  21
ENDBRANCH   5   8
ENDBRANCH   3   4
ENDBRANCH   2   3
ENDBRANCH   1   2
BRANCH   1  28
ATOM     28  C   UNL     1       4.473  -4.308   5.497  1.00  0.00     0.116 C 
BRANCH  28  29
ATOM     29  N   UNL     1       3.599  -5.442   5.182  1.00  0.00    -0.352 N 
ATOM     30  C   UNL     1       2.496  -5.853   5.916  1.00  0.00     0.251 C 
ATOM     31  H   UNL     1       3.815  -5.962   4.375  1.00  0.00     0.163 HD
ATOM     32  O   UNL     1       2.043  -6.993   5.817  1.00  0.00    -0.269 OA
BRANCH  30  33
ATOM     33  C   UNL     1       1.863  -4.881   6.827  1.00  0.00     0.039 A 
ATOM     34  C   UNL     1       1.489  -5.224   8.132  1.00  0.00     0.014 A 
ATOM     35  C   UNL     1       1.722  -3.576   6.363  1.00  0.00     0.014 A 
ATOM     36  C   UNL     1       1.084  -4.216   9.005  1.00  0.00     0.010 A 
ATOM     37  C   UNL     1       1.444  -2.570   7.249  1.00  0.00     0.010 A 
ATOM     38  C   UNL     1       1.099  -2.888   8.562  1.00  0.00    -0.014 A 
BRANCH  38  39
ATOM     39  C   UNL     1       0.976  -1.772   9.496  1.00  0.00     0.031 A 
ATOM     40  C   UNL     1       2.073  -1.706  10.508  1.00  0.00     0.074 A 
ATOM     41  C   UNL     1       0.150  -0.738   9.216  1.00  0.00     0.049 A 
ATOM     42  N   UNL     1       1.968  -1.733  11.796  1.00  0.00    -0.248 NA
ATOM     43  C   UNL     1       3.469  -1.779  10.034  1.00  0.00     0.031 C 
ATOM     44  C   UNL     1      -0.730  -0.606   8.047  1.00  0.00     0.029 A 
ATOM     45  N   UNL     1       0.082   0.498   9.783  1.00  0.00    -0.354 N 
ATOM     46  C   UNL     1       3.266  -1.566  12.281  1.00  0.00     0.074 A 
ATOM     47  C   UNL     1       4.142  -1.863  11.183  1.00  0.00     0.031 C 
ATOM     48  C   UNL     1      -0.999   0.699   7.838  1.00  0.00     0.029 A 
ATOM     49  C   UNL     1      -0.428   1.474   8.922  1.00  0.00     0.049 A 
ATOM     50  H   UNL     1       0.363   0.686  10.707  1.00  0.00     0.167 HD
ATOM     51  C   UNL     1       3.507  -0.902  13.447  1.00  0.00     0.034 A 
ATOM     52  C   UNL     1      -0.302   2.821   9.043  1.00  0.00     0.034 A 
ATOM     53  C   UNL     1       2.291  -0.733  14.204  1.00  0.00     0.049 A 
ATOM     54  C   UNL     1       0.045   3.102  10.456  1.00  0.00     0.074 A 
ATOM     55  C   UNL     1       1.326  -1.587  14.700  1.00  0.00     0.029 A 
ATOM     56  N   UNL     1       1.719   0.517  14.182  1.00  0.00    -0.354 N 
ATOM     57  N   UNL     1      -0.767   2.864  11.448  1.00  0.00    -0.248 NA
ATOM     58  C   UNL     1       1.453   3.194  10.807  1.00  0.00     0.031 C 
ATOM     59  C   UNL     1       0.094  -0.907  14.477  1.00  0.00     0.029 A 
ATOM     60  C   UNL     1       0.380   0.356  13.954  1.00  0.00     0.049 A 
ATOM     61  H   UNL     1       2.188   1.374  14.307  1.00  0.00     0.167 HD
ATOM     62  C   UNL     1       0.045   2.288  12.416  1.00  0.00     0.074 A 
ATOM     63  C   UNL     1       1.412   2.631  12.019  1.00  0.00     0.031 C 
ATOM     64  C   UNL     1      -0.438   1.323  13.253  1.00  0.00     0.034 A 
BRANCH  51  65
ATOM     65  C   UNL     1       4.726  -0.046  13.742  1.00  0.00     0.023 A 
ATOM     66  C   UNL     1       4.837   0.479  15.052  1.00  0.00     0.012 A 
ATOM     67  C   UNL     1       5.591   0.501  12.767  1.00  0.00     0.148 A 
ATOM     68  C   UNL     1       5.698   1.540  15.353  1.00  0.00     0.002 A 
ATOM     69  C   UNL     1       6.501   1.503  13.088  1.00  0.00     0.091 A 
ATOM     70  F   UNL     1       5.460   0.165  11.483  1.00  0.00    -0.205 F 
ATOM     71  C   UNL     1       6.534   2.052  14.370  1.00  0.00     0.022 A 
BRANCH  69  72
ATOM     72  S   UNL     1       7.635   2.170  11.861  1.00  0.00     0.127 S 
ATOM     73  O   UNL     1       7.045   3.480  11.601  1.00  0.00    -0.237 OA
ATOM     74  O   UNL     1       8.897   2.192  12.601  1.00  0.00    -0.237 OA
ATOM     75  O   UNL     1       7.611   1.226  10.751  1.00  0.00    -0.744 OA
ENDBRANCH  69  72
ENDBRANCH  51  65
BRANCH  52  76
ATOM     76  C   UNL     1      -0.200   3.853   7.978  1.00  0.00     0.023 A 
ATOM     77  C   UNL     1      -0.404   5.213   8.289  1.00  0.00     0.012 A 
ATOM     78  C   UNL     1       0.345   3.543   6.711  1.00  0.00     0.148 A 
ATOM     79  C   UNL     1      -0.053   6.224   7.383  1.00  0.00     0.002 A 
ATOM     80  C   UNL     1       0.674   4.548   5.807  1.00  0.00     0.091 A 
ATOM     81  F   UNL     1       0.642   2.269   6.425  1.00  0.00    -0.205 F 
ATOM     82  C   UNL     1       0.488   5.893   6.143  1.00  0.00     0.022 A 
BRANCH  80  83
ATOM     83  S   UNL     1       1.395   4.170   4.202  1.00  0.00     0.127 S 
ATOM     84  O   UNL     1       0.660   5.071   3.314  1.00  0.00    -0.237 OA
ATOM     85  O   UNL     1       2.795   4.519   4.414  1.00  0.00    -0.237 OA
ATOM     86  O   UNL     1       1.121   2.755   3.968  1.00  0.00    -0.744 OA
ENDBRANCH  80  83
ENDBRANCH  52  76
BRANCH  64  87
ATOM     87  C   UNL     1      -1.924   1.054  13.258  1.00  0.00     0.023 A 
ATOM     88  C   UNL     1      -2.614   0.579  12.122  1.00  0.00     0.012 A 
ATOM     89  C   UNL     1      -2.596   1.084  14.490  1.00  0.00     0.148 A 
ATOM     90  C   UNL     1      -3.945   0.162  12.208  1.00  0.00     0.002 A 
ATOM     91  C   UNL     1      -3.903   0.621  14.583  1.00  0.00     0.091 A 
ATOM     92  F   UNL     1      -1.929   1.532  15.564  1.00  0.00    -0.205 F 
ATOM     93  C   UNL     1      -4.585   0.168  13.443  1.00  0.00     0.022 A 
BRANCH  91  94
ATOM     94  S   UNL     1      -4.728   0.477  16.168  1.00  0.00     0.127 S 
ATOM     95  O   UNL     1      -5.638   1.619  16.142  1.00  0.00    -0.237 OA
ATOM     96  O   UNL     1      -5.381  -0.830  16.066  1.00  0.00    -0.237 OA
ATOM     97  O   UNL     1      -3.674   0.535  17.174  1.00  0.00    -0.744 OA
ENDBRANCH  91  94
ENDBRANCH  64  87
ENDBRANCH  38  39
ENDBRANCH  30  33
ENDBRANCH  28  29
ENDBRANCH   1  28
TORSDOF 17
