REMARK SMILES Cc1cccc(Nc2nc(C)c(CCO)c(OCC(=O)NCCCCNC(=O)c3ccc(-c4c5nc(c(-c6cccc(S(=O)(=O)[O-])c6F)c6ccc([nH]6)c(-c6cccc(S(=O)(=O)[O-])c6F)c6nc(c(-c7cccc(S(=O)(=O)[O-])c7F)c7ccc4[nH]7)C=C6)C=C5)cc3)n2)c1
REMARK SMILES IDX 22 1 21 2 19 3 20 4 18 6 17 7 16 8 8 9 9 10 92 11 10 12
REMARK SMILES IDX 11 13 12 14 7 15 6 17 1 18 2 19 3 20 93 21 4 22 5 23 13 24
REMARK SMILES IDX 14 25 15 26 23 28 24 29 25 30 26 31 27 32 28 34 29 35 30 36
REMARK SMILES IDX 91 37 31 38 90 39 32 40 33 41 34 42 84 43 35 44 89 45 83 46
REMARK SMILES IDX 85 47 36 48 88 49 82 50 81 51 37 53 69 54 49 55 68 56 50 57
REMARK SMILES IDX 53 58 67 59 86 60 51 61 52 62 66 64 87 65 54 66 38 67 39 68
REMARK SMILES IDX 47 69 40 70 42 71 48 72 41 73 43 74 44 75 45 76 46 77 70 78
REMARK SMILES IDX 71 79 79 80 72 81 74 82 80 83 73 84 75 85 76 86 77 87 78 88
REMARK SMILES IDX 55 89 56 90 64 91 57 92 59 93 65 94 58 95 60 96 61 97 62 98
REMARK SMILES IDX 63 99
REMARK H PARENT 21 5 7 16 15 27 26 33 85 52 53 63
REMARK Flexibility Score: inf
ROOT
ATOM      1  C   UNL     1      -6.270   3.010   4.409  1.00  0.00     0.116 C 
ENDROOT
BRANCH   1   2
ATOM      2  N   UNL     1      -7.404   3.329   3.566  1.00  0.00    -0.353 N 
ATOM      3  C   UNL     1      -7.991   2.571   2.607  1.00  0.00     0.258 C 
ATOM      4  O   UNL     1      -9.007   3.008   2.061  1.00  0.00    -0.271 OA
ATOM      5  H   UNL     1      -7.803   4.217   3.709  1.00  0.00     0.163 HD
BRANCH   3   6
ATOM      6  C   UNL     1      -7.427   1.186   2.272  1.00  0.00     0.331 C 
BRANCH   6   7
ATOM      7  O   UNL     1      -6.115   0.976   1.794  1.00  0.00    -0.467 OA
BRANCH   7   8
ATOM      8  C   UNL     1      -5.541   1.743   0.833  1.00  0.00     0.222 A 
ATOM      9  C   UNL     1      -3.445   2.441   0.158  1.00  0.00     0.230 A 
ATOM     10  N   UNL     1      -3.955   3.192  -0.815  1.00  0.00    -0.218 NA
ATOM     11  N   UNL     1      -4.206   1.757   1.012  1.00  0.00    -0.177 NA
ATOM     12  C   UNL     1      -5.282   3.092  -1.057  1.00  0.00     0.050 A 
ATOM     13  C   UNL     1      -5.703   3.829  -2.297  1.00  0.00     0.067 C 
ATOM     14  C   UNL     1      -6.136   2.288  -0.296  1.00  0.00     0.038 A 
BRANCH   9  15
ATOM     15  N   UNL     1      -2.054   2.314   0.167  1.00  0.00    -0.324 N 
ATOM     16  H   UNL     1      -1.545   3.156   0.195  1.00  0.00     0.170 HD
BRANCH  15  17
ATOM     17  C   UNL     1      -1.290   1.131   0.140  1.00  0.00     0.041 A 
ATOM     18  C   UNL     1       2.408   0.138   0.010  1.00  0.00     0.044 C 
ATOM     19  C   UNL     1       0.911   0.054   0.050  1.00  0.00    -0.049 A 
ATOM     20  C   UNL     1       0.294  -1.200   0.025  1.00  0.00     0.003 A 
ATOM     21  C   UNL     1       0.113   1.211   0.116  1.00  0.00     0.029 A 
ATOM     22  C   UNL     1      -1.092  -1.298   0.086  1.00  0.00     0.002 A 
ATOM     23  C   UNL     1      -1.872  -0.143   0.157  1.00  0.00     0.026 A 
ENDBRANCH  15  17
ENDBRANCH   9  15
BRANCH  14  24
ATOM     24  C   UNL     1      -7.540   1.974  -0.741  1.00  0.00     0.071 C 
BRANCH  24  25
ATOM     25  C   UNL     1      -7.791   0.535  -1.218  1.00  0.00     0.161 C 
BRANCH  25  26
ATOM     26  O   UNL     1      -7.377  -0.484  -0.322  1.00  0.00    -0.396 OA
ATOM     27  H   UNL     1      -6.415  -0.439  -0.203  1.00  0.00     0.210 HD
ENDBRANCH  25  26
ENDBRANCH  24  25
ENDBRANCH  14  24
ENDBRANCH   7   8
ENDBRANCH   6   7
ENDBRANCH   3   6
ENDBRANCH   1   2
BRANCH   1  28
ATOM     28  C   UNL     1      -4.993   3.753   4.003  1.00  0.00     0.023 C 
BRANCH  28  29
ATOM     29  C   UNL     1      -5.148   5.247   3.705  1.00  0.00     0.023 C 
BRANCH  29  30
ATOM     30  C   UNL     1      -5.873   6.010   4.793  1.00  0.00     0.116 C 
BRANCH  30  31
ATOM     31  N   UNL     1      -5.054   6.285   5.946  1.00  0.00    -0.352 N 
ATOM     32  C   UNL     1      -5.306   7.187   6.957  1.00  0.00     0.251 C 
ATOM     33  H   UNL     1      -4.218   5.770   6.019  1.00  0.00     0.163 HD
ATOM     34  O   UNL     1      -4.334   7.706   7.508  1.00  0.00    -0.269 OA
BRANCH  32  35
ATOM     35  C   UNL     1      -6.685   7.367   7.492  1.00  0.00     0.039 A 
ATOM     36  C   UNL     1      -6.795   7.662   8.858  1.00  0.00     0.014 A 
ATOM     37  C   UNL     1      -7.813   6.944   6.796  1.00  0.00     0.014 A 
ATOM     38  C   UNL     1      -7.904   7.226   9.572  1.00  0.00     0.010 A 
ATOM     39  C   UNL     1      -8.869   6.434   7.497  1.00  0.00     0.010 A 
ATOM     40  C   UNL     1      -8.852   6.485   8.889  1.00  0.00    -0.014 A 
BRANCH  40  41
ATOM     41  C   UNL     1      -9.946   5.754   9.483  1.00  0.00     0.031 A 
ATOM     42  C   UNL     1     -11.178   6.505   9.769  1.00  0.00     0.074 A 
ATOM     43  C   UNL     1      -9.868   4.408   9.371  1.00  0.00     0.049 A 
ATOM     44  N   UNL     1     -12.192   6.036  10.398  1.00  0.00    -0.248 NA
ATOM     45  C   UNL     1     -11.353   7.892   9.342  1.00  0.00     0.031 C 
ATOM     46  C   UNL     1     -10.959   3.445   9.362  1.00  0.00     0.029 A 
ATOM     47  N   UNL     1      -8.735   3.586   9.285  1.00  0.00    -0.354 N 
ATOM     48  C   UNL     1     -13.244   6.907  10.179  1.00  0.00     0.074 A 
ATOM     49  C   UNL     1     -12.637   8.098   9.643  1.00  0.00     0.031 C 
ATOM     50  C   UNL     1     -10.451   2.220   9.596  1.00  0.00     0.029 A 
ATOM     51  C   UNL     1      -9.063   2.413   9.980  1.00  0.00     0.049 A 
ATOM     52  H   UNL     1      -7.886   3.790   8.830  1.00  0.00     0.167 HD
ATOM     53  C   UNL     1     -14.513   6.426  10.311  1.00  0.00     0.034 A 
ATOM     54  C   UNL     1      -8.552   2.118  11.221  1.00  0.00     0.034 A 
ATOM     55  C   UNL     1     -14.460   5.037  10.813  1.00  0.00     0.049 A 
ATOM     56  C   UNL     1      -9.633   2.098  12.304  1.00  0.00     0.074 A 
ATOM     57  C   UNL     1     -14.512   3.807  10.175  1.00  0.00     0.029 A 
ATOM     58  N   UNL     1     -13.933   4.792  12.079  1.00  0.00    -0.354 N 
ATOM     59  N   UNL     1     -10.855   2.522  12.119  1.00  0.00    -0.248 NA
ATOM     60  C   UNL     1      -9.438   1.599  13.665  1.00  0.00     0.031 C 
ATOM     61  C   UNL     1     -13.879   2.849  11.023  1.00  0.00     0.029 A 
ATOM     62  C   UNL     1     -13.480   3.482  12.188  1.00  0.00     0.049 A 
ATOM     63  H   UNL     1     -13.888   5.460  12.802  1.00  0.00     0.167 HD
ATOM     64  C   UNL     1     -11.563   2.480  13.286  1.00  0.00     0.074 A 
ATOM     65  C   UNL     1     -10.651   1.820  14.208  1.00  0.00     0.031 C 
ATOM     66  C   UNL     1     -12.809   3.037  13.413  1.00  0.00     0.034 A 
BRANCH  53  67
ATOM     67  C   UNL     1     -15.773   7.053   9.718  1.00  0.00     0.023 A 
ATOM     68  C   UNL     1     -16.908   6.217   9.607  1.00  0.00     0.012 A 
ATOM     69  C   UNL     1     -15.936   8.367   9.208  1.00  0.00     0.148 A 
ATOM     70  C   UNL     1     -18.092   6.622   8.976  1.00  0.00     0.002 A 
ATOM     71  C   UNL     1     -17.105   8.764   8.545  1.00  0.00     0.091 A 
ATOM     72  F   UNL     1     -14.992   9.284   9.404  1.00  0.00    -0.205 F 
ATOM     73  C   UNL     1     -18.185   7.889   8.424  1.00  0.00     0.022 A 
BRANCH  71  74
ATOM     74  S   UNL     1     -17.293  10.390   7.780  1.00  0.00     0.127 S 
ATOM     75  O   UNL     1     -17.651  10.043   6.404  1.00  0.00    -0.237 OA
ATOM     76  O   UNL     1     -18.381  10.977   8.560  1.00  0.00    -0.237 OA
ATOM     77  O   UNL     1     -16.005  11.060   7.911  1.00  0.00    -0.744 OA
ENDBRANCH  71  74
ENDBRANCH  53  67
BRANCH  54  78
ATOM     78  C   UNL     1      -7.140   2.594  11.396  1.00  0.00     0.023 A 
ATOM     79  C   UNL     1      -6.189   2.072  10.483  1.00  0.00     0.012 A 
ATOM     80  C   UNL     1      -6.850   3.802  12.053  1.00  0.00     0.148 A 
ATOM     81  C   UNL     1      -5.109   2.847  10.056  1.00  0.00     0.002 A 
ATOM     82  C   UNL     1      -5.753   4.560  11.638  1.00  0.00     0.091 A 
ATOM     83  F   UNL     1      -7.674   4.225  13.020  1.00  0.00    -0.205 F 
ATOM     84  C   UNL     1      -4.926   4.116  10.594  1.00  0.00     0.022 A 
BRANCH  82  85
ATOM     85  S   UNL     1      -5.425   6.184  12.341  1.00  0.00     0.127 S 
ATOM     86  O   UNL     1      -4.525   5.852  13.441  1.00  0.00    -0.237 OA
ATOM     87  O   UNL     1      -4.793   6.895  11.232  1.00  0.00    -0.237 OA
ATOM     88  O   UNL     1      -6.735   6.699  12.711  1.00  0.00    -0.744 OA
ENDBRANCH  82  85
ENDBRANCH  54  78
BRANCH  66  89
ATOM     89  C   UNL     1     -13.521   3.236  14.736  1.00  0.00     0.023 A 
ATOM     90  C   UNL     1     -12.823   3.363  15.952  1.00  0.00     0.012 A 
ATOM     91  C   UNL     1     -14.919   3.474  14.773  1.00  0.00     0.148 A 
ATOM     92  C   UNL     1     -13.482   3.629  17.156  1.00  0.00     0.002 A 
ATOM     93  C   UNL     1     -15.546   3.875  15.947  1.00  0.00     0.091 A 
ATOM     94  F   UNL     1     -15.657   3.296  13.668  1.00  0.00    -0.205 F 
ATOM     95  C   UNL     1     -14.840   3.912  17.150  1.00  0.00     0.022 A 
BRANCH  93  96
ATOM     96  S   UNL     1     -17.219   4.533  15.921  1.00  0.00     0.127 S 
ATOM     97  O   UNL     1     -18.012   3.360  16.276  1.00  0.00    -0.237 OA
ATOM     98  O   UNL     1     -17.163   5.569  16.955  1.00  0.00    -0.237 OA
ATOM     99  O   UNL     1     -17.404   5.051  14.572  1.00  0.00    -0.744 OA
ENDBRANCH  93  96
ENDBRANCH  66  89
ENDBRANCH  40  41
ENDBRANCH  32  35
ENDBRANCH  30  31
ENDBRANCH  29  30
ENDBRANCH  28  29
ENDBRANCH   1  28
TORSDOF 21
