REMARK SMILES CC[C@@H](C)[C@@H](NC(=O)Cn1nc(-c2ccc3ccccc3c2)ccc1=O)C(=O)NCCCCNC(=O)c1ccc(-c2c3nc(c(-c4cccc(S(=O)(=O)[O-])c4F)c4ccc([nH]4)c(-c4cccc(S(=O)(=O)[O-])c4F)c4nc(c(-c5cccc(S(=O)(=O)[O-])c5F)c5ccc2[nH]5)C=C4)C=C3)cc1
REMARK SMILES IDX 31 1 30 2 29 3 27 4 28 5 5 7 3 8 4 9 2 10 1 11 6 12 7 13
REMARK SMILES IDX 8 15 9 16 10 17 11 18 25 19 12 20 24 21 26 22 23 23 13 24
REMARK SMILES IDX 14 25 22 26 15 27 21 28 16 29 20 30 17 31 19 32 18 33 32 34
REMARK SMILES IDX 33 35 34 36 35 37 36 39 37 40 38 41 99 42 39 43 98 44 40 45
REMARK SMILES IDX 41 46 42 47 92 48 43 49 97 50 91 51 93 52 44 53 96 54 90 55
REMARK SMILES IDX 89 56 45 58 77 59 57 60 76 61 58 62 61 63 75 64 94 65 59 66
REMARK SMILES IDX 60 67 74 69 95 70 62 71 46 72 47 73 55 74 48 75 50 76 56 77
REMARK SMILES IDX 49 78 51 79 52 80 53 81 54 82 78 83 79 84 87 85 80 86 82 87
REMARK SMILES IDX 88 88 81 89 83 90 84 91 85 92 86 93 63 94 64 95 72 96 65 97
REMARK SMILES IDX 67 98 73 99 66 100 68 101 69 102 70 103 71 104
REMARK H PARENT 29 6 6 14 34 38 93 57 61 68
REMARK Flexibility Score: inf
ROOT
ATOM      1  C   UNL     1       5.006  -1.562   3.243  1.00  0.00     0.023 C 
ENDROOT
BRANCH   1   2
ATOM      2  C   UNL     1       4.037  -2.933   3.570  1.00  0.00     0.116 C 
BRANCH   2   3
ATOM      3  N   UNL     1       2.108  -3.131   4.330  1.00  0.00    -0.354 N 
ATOM      4  C   UNL     1       0.692  -3.191   3.941  1.00  0.00     0.242 C 
ATOM      5  O   UNL     1      -0.069  -3.305   4.920  1.00  0.00    -0.273 OA
ATOM      6  H   UNL     1       2.167  -3.216   5.309  1.00  0.00     0.163 HD
BRANCH   4   7
ATOM      7  C   UNL     1      -0.002  -3.098   2.420  1.00  0.00     0.174 C 
BRANCH   7   8
ATOM      8  C   UNL     1      -0.087  -1.675   1.728  1.00  0.00     0.018 C 
ATOM      9  C   UNL     1      -1.171  -0.823   2.400  1.00  0.00     0.010 C 
BRANCH   8  10
ATOM     10  C   UNL     1      -0.224  -1.621   0.182  1.00  0.00     0.002 C 
ATOM     11  C   UNL     1       0.378  -0.340  -0.409  1.00  0.00     0.004 C 
ENDBRANCH   8  10
ENDBRANCH   7   8
BRANCH   7  12
ATOM     12  N   UNL     1       0.112  -4.175   1.420  1.00  0.00    -0.342 N 
ATOM     13  C   UNL     1       1.122  -5.048   1.175  1.00  0.00     0.242 C 
ATOM     14  H   UNL     1      -0.672  -4.279   0.835  1.00  0.00     0.164 HD
ATOM     15  O   UNL     1       1.085  -5.732   0.151  1.00  0.00    -0.273 OA
BRANCH  13  16
ATOM     16  C   UNL     1       2.040  -5.370   2.299  1.00  0.00     0.248 C 
BRANCH  16  17
ATOM     17  N   UNL     1       2.704  -4.267   2.920  1.00  0.00    -0.220 N 
ATOM     18  N   UNL     1       2.416  -2.438   2.527  1.00  0.00    -0.169 NA
ATOM     19  C   UNL     1       3.301  -4.743   4.536  1.00  0.00     0.267 A 
ATOM     20  C   UNL     1       2.615  -1.383   3.706  1.00  0.00     0.091 A 
ATOM     21  C   UNL     1       3.740  -3.297   5.713  1.00  0.00     0.075 A 
ATOM     22  O   UNL     1       3.446  -5.910   4.889  1.00  0.00    -0.268 OA
ATOM     23  C   UNL     1       3.433  -1.890   5.386  1.00  0.00     0.036 A 
BRANCH  20  24
ATOM     24  C   UNL     1       2.002  -0.023   3.851  1.00  0.00     0.003 A 
ATOM     25  C   UNL     1       1.379   0.249   5.082  1.00  0.00     0.011 A 
ATOM     26  C   UNL     1       1.890   0.892   2.811  1.00  0.00     0.019 A 
ATOM     27  C   UNL     1       0.679   1.433   5.290  1.00  0.00     0.009 A 
ATOM     28  C   UNL     1       1.106   2.054   2.982  1.00  0.00    -0.018 A 
ATOM     29  C   UNL     1       0.521   2.336   4.243  1.00  0.00    -0.018 A 
ATOM     30  C   UNL     1       0.835   2.924   1.915  1.00  0.00     0.009 A 
ATOM     31  C   UNL     1      -0.255   3.489   4.421  1.00  0.00     0.009 A 
ATOM     32  C   UNL     1       0.017   4.044   2.093  1.00  0.00     0.001 A 
ATOM     33  C   UNL     1      -0.510   4.338   3.348  1.00  0.00     0.001 A 
ENDBRANCH  20  24
ENDBRANCH  16  17
ENDBRANCH  13  16
ENDBRANCH   7  12
ENDBRANCH   4   7
ENDBRANCH   2   3
ENDBRANCH   1   2
BRANCH   1  34
ATOM     34  C   UNL     1       6.207  -1.321   4.154  1.00  0.00     0.023 C 
BRANCH  34  35
ATOM     35  C   UNL     1       7.076  -2.527   4.429  1.00  0.00     0.116 C 
BRANCH  35  36
ATOM     36  N   UNL     1       7.883  -2.959   3.301  1.00  0.00    -0.352 N 
ATOM     37  C   UNL     1       9.121  -3.564   3.422  1.00  0.00     0.251 C 
ATOM     38  H   UNL     1       7.527  -2.812   2.395  1.00  0.00     0.163 HD
ATOM     39  O   UNL     1       9.829  -3.808   2.456  1.00  0.00    -0.269 OA
BRANCH  37  40
ATOM     40  C   UNL     1       9.546  -3.865   4.805  1.00  0.00     0.039 A 
ATOM     41  C   UNL     1       8.742  -4.722   5.564  1.00  0.00     0.014 A 
ATOM     42  C   UNL     1      10.516  -3.062   5.406  1.00  0.00     0.014 A 
ATOM     43  C   UNL     1       8.817  -4.665   6.950  1.00  0.00     0.010 A 
ATOM     44  C   UNL     1      10.656  -3.092   6.795  1.00  0.00     0.010 A 
ATOM     45  C   UNL     1       9.788  -3.868   7.582  1.00  0.00    -0.014 A 
BRANCH  45  46
ATOM     46  C   UNL     1       9.939  -3.914   9.061  1.00  0.00     0.031 A 
ATOM     47  C   UNL     1       9.822  -2.676   9.911  1.00  0.00     0.074 A 
ATOM     48  C   UNL     1      10.228  -5.099   9.635  1.00  0.00     0.049 A 
ATOM     49  N   UNL     1      10.035  -2.543  11.196  1.00  0.00    -0.248 NA
ATOM     50  C   UNL     1       9.420  -1.425   9.244  1.00  0.00     0.031 C 
ATOM     51  C   UNL     1      10.380  -6.369   8.918  1.00  0.00     0.029 A 
ATOM     52  N   UNL     1      10.458  -5.431  10.945  1.00  0.00    -0.354 N 
ATOM     53  C   UNL     1       9.846  -1.197  11.483  1.00  0.00     0.074 A 
ATOM     54  C   UNL     1       9.492  -0.548  10.239  1.00  0.00     0.031 C 
ATOM     55  C   UNL     1      10.649  -7.343   9.795  1.00  0.00     0.029 A 
ATOM     56  C   UNL     1      10.771  -6.758  11.123  1.00  0.00     0.049 A 
ATOM     57  H   UNL     1      10.404  -4.784  11.685  1.00  0.00     0.167 HD
ATOM     58  C   UNL     1       9.950  -0.565  12.677  1.00  0.00     0.034 A 
ATOM     59  C   UNL     1      11.153  -7.435  12.221  1.00  0.00     0.034 A 
ATOM     60  C   UNL     1      10.266  -1.222  13.917  1.00  0.00     0.049 A 
ATOM     61  C   UNL     1      11.282  -6.706  13.522  1.00  0.00     0.074 A 
ATOM     62  C   UNL     1      10.343  -0.666  15.183  1.00  0.00     0.029 A 
ATOM     63  N   UNL     1      10.561  -2.568  14.052  1.00  0.00    -0.354 N 
ATOM     64  N   UNL     1      11.039  -5.445  13.780  1.00  0.00    -0.248 NA
ATOM     65  C   UNL     1      11.723  -7.489  14.684  1.00  0.00     0.031 C 
ATOM     66  C   UNL     1      10.709  -1.673  16.080  1.00  0.00     0.029 A 
ATOM     67  C   UNL     1      10.830  -2.861  15.378  1.00  0.00     0.049 A 
ATOM     68  H   UNL     1      10.578  -3.221  13.315  1.00  0.00     0.167 HD
ATOM     69  C   UNL     1      11.276  -5.286  15.139  1.00  0.00     0.074 A 
ATOM     70  C   UNL     1      11.671  -6.582  15.651  1.00  0.00     0.031 C 
ATOM     71  C   UNL     1      11.181  -4.161  15.886  1.00  0.00     0.034 A 
BRANCH  58  72
ATOM     72  C   UNL     1       9.686   0.917  12.732  1.00  0.00     0.023 A 
ATOM     73  C   UNL     1       8.357   1.383  12.712  1.00  0.00     0.012 A 
ATOM     74  C   UNL     1      10.740   1.830  12.938  1.00  0.00     0.148 A 
ATOM     75  C   UNL     1       8.080   2.739  12.889  1.00  0.00     0.002 A 
ATOM     76  C   UNL     1      10.454   3.175  13.142  1.00  0.00     0.091 A 
ATOM     77  F   UNL     1      11.996   1.362  12.952  1.00  0.00    -0.205 F 
ATOM     78  C   UNL     1       9.125   3.631  13.115  1.00  0.00     0.022 A 
BRANCH  76  79
ATOM     79  S   UNL     1      11.720   4.403  13.484  1.00  0.00     0.127 S 
ATOM     80  O   UNL     1      11.612   5.269  12.310  1.00  0.00    -0.237 OA
ATOM     81  O   UNL     1      11.240   5.000  14.729  1.00  0.00    -0.237 OA
ATOM     82  O   UNL     1      12.974   3.671  13.596  1.00  0.00    -0.744 OA
ENDBRANCH  76  79
ENDBRANCH  58  72
BRANCH  59  83
ATOM     83  C   UNL     1      11.408  -8.895  12.116  1.00  0.00     0.023 A 
ATOM     84  C   UNL     1      10.450  -9.793  12.620  1.00  0.00     0.012 A 
ATOM     85  C   UNL     1      12.537  -9.392  11.436  1.00  0.00     0.148 A 
ATOM     86  C   UNL     1      10.615 -11.168  12.454  1.00  0.00     0.002 A 
ATOM     87  C   UNL     1      12.677 -10.760  11.242  1.00  0.00     0.091 A 
ATOM     88  F   UNL     1      13.425  -8.511  10.956  1.00  0.00    -0.205 F 
ATOM     89  C   UNL     1      11.720 -11.650  11.757  1.00  0.00     0.022 A 
BRANCH  87  90
ATOM     90  S   UNL     1      14.018 -11.473  10.284  1.00  0.00     0.127 S 
ATOM     91  O   UNL     1      14.703 -12.282  11.290  1.00  0.00    -0.237 OA
ATOM     92  O   UNL     1      13.287 -12.237   9.273  1.00  0.00    -0.237 OA
ATOM     93  O   UNL     1      14.780 -10.347   9.765  1.00  0.00    -0.744 OA
ENDBRANCH  87  90
ENDBRANCH  59  83
BRANCH  71  94
ATOM     94  C   UNL     1      11.479  -4.262  17.355  1.00  0.00     0.023 A 
ATOM     95  C   UNL     1      12.815  -4.309  17.792  1.00  0.00     0.012 A 
ATOM     96  C   UNL     1      10.437  -4.174  18.299  1.00  0.00     0.148 A 
ATOM     97  C   UNL     1      13.112  -4.269  19.154  1.00  0.00     0.002 A 
ATOM     98  C   UNL     1      10.742  -4.101  19.652  1.00  0.00     0.091 A 
ATOM     99  F   UNL     1       9.173  -4.136  17.852  1.00  0.00    -0.205 F 
ATOM    100  C   UNL     1      12.078  -4.151  20.081  1.00  0.00     0.022 A 
BRANCH  98 101
ATOM    101  S   UNL     1       9.486  -3.884  20.917  1.00  0.00     0.127 S 
ATOM    102  O   UNL     1       9.608  -5.130  21.674  1.00  0.00    -0.237 OA
ATOM    103  O   UNL     1       9.960  -2.693  21.621  1.00  0.00    -0.237 OA
ATOM    104  O   UNL     1       8.223  -3.715  20.212  1.00  0.00    -0.744 OA
ENDBRANCH  98 101
ENDBRANCH  71  94
ENDBRANCH  45  46
ENDBRANCH  37  40
ENDBRANCH  35  36
ENDBRANCH  34  35
ENDBRANCH   1  34
TORSDOF 20
