REMARK SMILES O=C1NC(=S)S/C1=C\c1ccc(OCc2cn(-c3ccc(C(=O)NCCCCNC(=O)c4ccc(-c5c6nc(c(-c7cccc(S(=O)(=O)[O-])c7F)c7ccc([nH]7)c(-c7cccc(S(=O)(=O)[O-])c7F)c7nc(c(-c8cccc(S(=O)(=O)[O-])c8F)c8ccc5[nH]8)C=C7)C=C6)cc4)cc3)nn2)cc1
REMARK SMILES IDX 25 1 24 2 22 3 23 4 21 6 18 7 19 8 96 9 20 10 95 11 17 12
REMARK SMILES IDX 15 13 16 14 98 15 97 16 14 17 13 18 12 19 9 20 10 21 100 22
REMARK SMILES IDX 11 23 99 24 8 25 1 26 2 27 3 28 7 29 4 30 6 32 5 33 26 34
REMARK SMILES IDX 27 35 28 36 29 37 30 38 31 40 32 41 33 42 94 43 34 44 93 45
REMARK SMILES IDX 35 46 36 47 37 48 87 49 38 50 92 51 86 52 88 53 39 54 91 55
REMARK SMILES IDX 85 56 84 57 40 59 72 60 52 61 71 62 53 63 56 64 70 65 89 66
REMARK SMILES IDX 54 67 55 68 69 70 90 71 57 72 41 73 42 74 50 75 43 76 45 77
REMARK SMILES IDX 51 78 44 79 46 80 47 81 48 82 49 83 73 84 74 85 82 86 75 87
REMARK SMILES IDX 77 88 83 89 76 90 78 91 79 92 80 93 81 94 58 95 59 96 67 97
REMARK SMILES IDX 60 98 62 99 68 100 61 101 63 102 64 103 65 104 66 105
REMARK H PARENT 24 5 3 31 29 39 88 58 56 69
REMARK Flexibility Score: inf
ROOT
ATOM      1  C   UNL     1       6.411  10.863   0.861  1.00  0.00     0.116 C 
ENDROOT
BRANCH   1   2
ATOM      2  N   UNL     1       7.032  10.047  -0.162  1.00  0.00    -0.352 N 
ATOM      3  C   UNL     1       6.574   9.017  -0.943  1.00  0.00     0.251 C 
ATOM      4  O   UNL     1       7.391   8.438  -1.660  1.00  0.00    -0.269 OA
ATOM      5  H   UNL     1       7.973  10.280  -0.332  1.00  0.00     0.163 HD
BRANCH   3   6
ATOM      6  C   UNL     1       5.147   8.588  -0.995  1.00  0.00     0.039 A 
ATOM      7  C   UNL     1       2.466   7.827  -1.321  1.00  0.00     0.066 A 
ATOM      8  C   UNL     1       3.402   7.500  -2.307  1.00  0.00     0.029 A 
ATOM      9  C   UNL     1       2.868   8.476  -0.154  1.00  0.00     0.029 A 
ATOM     10  C   UNL     1       4.728   7.915  -2.155  1.00  0.00     0.016 A 
ATOM     11  C   UNL     1       4.215   8.793   0.025  1.00  0.00     0.016 A 
BRANCH   7  12
ATOM     12  N   UNL     1       1.118   7.468  -1.484  1.00  0.00    -0.220 N 
ATOM     13  C   UNL     1      -1.052   7.290  -1.350  1.00  0.00     0.120 A 
ATOM     14  C   UNL     1      -0.001   8.109  -1.000  1.00  0.00     0.144 A 
ATOM     15  N   UNL     1      -0.552   6.226  -2.055  1.00  0.00    -0.131 NA
ATOM     16  N   UNL     1       0.756   6.364  -2.167  1.00  0.00    -0.062 NA
BRANCH  13  17
ATOM     17  C   UNL     1      -2.527   7.471  -1.185  1.00  0.00     0.289 C 
BRANCH  17  18
ATOM     18  O   UNL     1      -3.139   6.726  -0.115  1.00  0.00    -0.487 OA
BRANCH  18  19
ATOM     19  C   UNL     1      -3.162   5.360  -0.197  1.00  0.00     0.119 A 
ATOM     20  C   UNL     1      -2.925   2.567  -0.013  1.00  0.00    -0.024 A 
ATOM     21  C   UNL     1      -3.389   3.304   1.079  1.00  0.00     0.012 A 
ATOM     22  C   UNL     1      -2.685   3.222  -1.222  1.00  0.00     0.012 A 
ATOM     23  C   UNL     1      -3.499   4.697   0.986  1.00  0.00     0.047 A 
ATOM     24  C   UNL     1      -2.841   4.605  -1.321  1.00  0.00     0.047 A 
BRANCH  20  25
ATOM     25  C   UNL     1      -2.679   1.128   0.093  1.00  0.00     0.029 C 
ATOM     26  O   UNL     1      -2.198  -1.744   0.142  1.00  0.00    -0.268 OA
ATOM     27  C   UNL     1      -1.290  -0.918   0.104  1.00  0.00     0.263 C 
ATOM     28  N   UNL     1       0.036  -1.228   0.057  1.00  0.00    -0.307 N 
ATOM     29  C   UNL     1      -1.466   0.556   0.088  1.00  0.00     0.080 C 
ATOM     30  C   UNL     1       0.933  -0.204   0.024  1.00  0.00     0.145 C 
ATOM     31  H   UNL     1       0.337  -2.166   0.046  1.00  0.00     0.171 HD
ATOM     32  S   UNL     1       0.083   1.322   0.041  1.00  0.00    -0.055 SA
ATOM     33  S   UNL     1       2.572  -0.432  -0.017  1.00  0.00    -0.052 S 
ENDBRANCH  20  25
ENDBRANCH  18  19
ENDBRANCH  17  18
ENDBRANCH  13  17
ENDBRANCH   7  12
ENDBRANCH   3   6
ENDBRANCH   1   2
BRANCH   1  34
ATOM     34  C   UNL     1       6.629  10.245   2.250  1.00  0.00     0.023 C 
BRANCH  34  35
ATOM     35  C   UNL     1       8.042  10.435   2.822  1.00  0.00     0.023 C 
BRANCH  35  36
ATOM     36  C   UNL     1       8.399  11.879   3.151  1.00  0.00     0.116 C 
BRANCH  36  37
ATOM     37  N   UNL     1       7.529  12.456   4.180  1.00  0.00    -0.352 N 
ATOM     38  C   UNL     1       7.413  13.784   4.545  1.00  0.00     0.251 C 
ATOM     39  H   UNL     1       6.958  11.821   4.671  1.00  0.00     0.163 HD
ATOM     40  O   UNL     1       6.987  14.103   5.649  1.00  0.00    -0.269 OA
BRANCH  38  41
ATOM     41  C   UNL     1       7.784  14.811   3.558  1.00  0.00     0.039 A 
ATOM     42  C   UNL     1       8.524  15.944   3.902  1.00  0.00     0.014 A 
ATOM     43  C   UNL     1       7.402  14.576   2.240  1.00  0.00     0.014 A 
ATOM     44  C   UNL     1       8.941  16.799   2.885  1.00  0.00     0.010 A 
ATOM     45  C   UNL     1       7.961  15.312   1.232  1.00  0.00     0.010 A 
ATOM     46  C   UNL     1       8.669  16.463   1.548  1.00  0.00    -0.014 A 
BRANCH  46  47
ATOM     47  C   UNL     1       9.227  17.229   0.443  1.00  0.00     0.031 A 
ATOM     48  C   UNL     1      10.708  17.356   0.487  1.00  0.00     0.074 A 
ATOM     49  C   UNL     1       8.494  17.596  -0.632  1.00  0.00     0.049 A 
ATOM     50  N   UNL     1      11.385  18.422   0.755  1.00  0.00    -0.248 NA
ATOM     51  C   UNL     1      11.529  16.137   0.409  1.00  0.00     0.031 C 
ATOM     52  C   UNL     1       7.096  17.262  -0.941  1.00  0.00     0.029 A 
ATOM     53  N   UNL     1       8.895  18.234  -1.763  1.00  0.00    -0.354 N 
ATOM     54  C   UNL     1      12.723  18.065   0.608  1.00  0.00     0.074 A 
ATOM     55  C   UNL     1      12.752  16.627   0.634  1.00  0.00     0.031 C 
ATOM     56  C   UNL     1       6.863  17.462  -2.257  1.00  0.00     0.029 A 
ATOM     57  C   UNL     1       8.028  18.093  -2.845  1.00  0.00     0.049 A 
ATOM     58  H   UNL     1       9.729  18.754  -1.814  1.00  0.00     0.167 HD
ATOM     59  C   UNL     1      13.645  18.980   0.198  1.00  0.00     0.034 A 
ATOM     60  C   UNL     1       8.277  18.433  -4.136  1.00  0.00     0.034 A 
ATOM     61  C   UNL     1      13.108  20.320   0.274  1.00  0.00     0.049 A 
ATOM     62  C   UNL     1       9.383  19.419  -4.111  1.00  0.00     0.074 A 
ATOM     63  C   UNL     1      12.558  21.095   1.276  1.00  0.00     0.029 A 
ATOM     64  N   UNL     1      12.700  20.890  -0.910  1.00  0.00    -0.354 N 
ATOM     65  N   UNL     1       9.259  20.610  -3.596  1.00  0.00    -0.248 NA
ATOM     66  C   UNL     1      10.742  18.915  -4.215  1.00  0.00     0.031 C 
ATOM     67  C   UNL     1      11.460  21.761   0.656  1.00  0.00     0.029 A 
ATOM     68  C   UNL     1      11.461  21.433  -0.701  1.00  0.00     0.049 A 
ATOM     69  H   UNL     1      13.206  20.904  -1.754  1.00  0.00     0.167 HD
ATOM     70  C   UNL     1      10.431  20.787  -2.873  1.00  0.00     0.074 A 
ATOM     71  C   UNL     1      11.348  19.762  -3.377  1.00  0.00     0.031 C 
ATOM     72  C   UNL     1      10.448  21.532  -1.728  1.00  0.00     0.034 A 
BRANCH  59  73
ATOM     73  C   UNL     1      14.868  18.686  -0.647  1.00  0.00     0.023 A 
ATOM     74  C   UNL     1      15.743  19.769  -0.897  1.00  0.00     0.012 A 
ATOM     75  C   UNL     1      15.052  17.526  -1.433  1.00  0.00     0.148 A 
ATOM     76  C   UNL     1      16.685  19.734  -1.930  1.00  0.00     0.002 A 
ATOM     77  C   UNL     1      16.037  17.469  -2.413  1.00  0.00     0.091 A 
ATOM     78  F   UNL     1      14.199  16.505  -1.337  1.00  0.00    -0.205 F 
ATOM     79  C   UNL     1      16.832  18.582  -2.690  1.00  0.00     0.022 A 
BRANCH  77  80
ATOM     80  S   UNL     1      16.300  15.992  -3.406  1.00  0.00     0.127 S 
ATOM     81  O   UNL     1      15.807  16.427  -4.709  1.00  0.00    -0.237 OA
ATOM     82  O   UNL     1      17.750  15.827  -3.312  1.00  0.00    -0.237 OA
ATOM     83  O   UNL     1      15.534  14.937  -2.754  1.00  0.00    -0.744 OA
ENDBRANCH  77  80
ENDBRANCH  59  73
BRANCH  60  84
ATOM     84  C   UNL     1       7.814  17.817  -5.404  1.00  0.00     0.023 A 
ATOM     85  C   UNL     1       7.933  18.532  -6.615  1.00  0.00     0.012 A 
ATOM     86  C   UNL     1       7.542  16.433  -5.477  1.00  0.00     0.148 A 
ATOM     87  C   UNL     1       7.830  17.883  -7.853  1.00  0.00     0.002 A 
ATOM     88  C   UNL     1       7.441  15.793  -6.710  1.00  0.00     0.091 A 
ATOM     89  F   UNL     1       7.480  15.728  -4.340  1.00  0.00    -0.205 F 
ATOM     90  C   UNL     1       7.597  16.512  -7.901  1.00  0.00     0.022 A 
BRANCH  88  91
ATOM     91  S   UNL     1       7.182  14.018  -6.845  1.00  0.00     0.127 S 
ATOM     92  O   UNL     1       6.108  13.943  -7.836  1.00  0.00    -0.237 OA
ATOM     93  O   UNL     1       8.486  13.560  -7.316  1.00  0.00    -0.237 OA
ATOM     94  O   UNL     1       6.797  13.574  -5.511  1.00  0.00    -0.744 OA
ENDBRANCH  88  91
ENDBRANCH  60  84
BRANCH  72  95
ATOM     95  C   UNL     1       9.220  22.339  -1.381  1.00  0.00     0.023 A 
ATOM     96  C   UNL     1       7.964  21.749  -1.124  1.00  0.00     0.012 A 
ATOM     97  C   UNL     1       9.383  23.712  -1.135  1.00  0.00     0.148 A 
ATOM     98  C   UNL     1       6.891  22.514  -0.655  1.00  0.00     0.002 A 
ATOM     99  C   UNL     1       8.330  24.460  -0.625  1.00  0.00     0.091 A 
ATOM    100  F   UNL     1      10.584  24.259  -1.377  1.00  0.00    -0.205 F 
ATOM    101  C   UNL     1       7.079  23.869  -0.393  1.00  0.00     0.022 A 
BRANCH  99 102
ATOM    102  S   UNL     1       8.549  26.176  -0.153  1.00  0.00     0.127 S 
ATOM    103  O   UNL     1       7.865  26.879  -1.236  1.00  0.00    -0.237 OA
ATOM    104  O   UNL     1       7.868  26.235   1.142  1.00  0.00    -0.237 OA
ATOM    105  O   UNL     1       9.989  26.390  -0.075  1.00  0.00    -0.744 OA
ENDBRANCH  99 102
ENDBRANCH  72  95
ENDBRANCH  46  47
ENDBRANCH  38  41
ENDBRANCH  36  37
ENDBRANCH  35  36
ENDBRANCH  34  35
ENDBRANCH   1  34
TORSDOF 19
