REMARK SMILES Cc1ccc(NC(=O)c2ccccc2NC(=O)[C@H]2CCCC[C@H]2C(=O)NCCCCNC(=O)c2ccc(-c3c4nc(c(-c5cccc(S(=O)(=O)[O-])c5F)c5ccc([nH]5)c(-c5cccc(S(=O)(=O)[O-])c5F)c5nc(c(-c6cccc(S(=O)(=O)[O-])c6F)c6ccc3[nH]6)C=C5)C=C4)cc2)cc1
REMARK SMILES IDX 28 1 27 2 26 3 24 4 25 5 23 7 18 8 19 9 20 10 22 11 21 12
REMARK SMILES IDX 16 13 15 14 17 16 14 17 9 18 10 19 11 20 13 21 12 22 7 23
REMARK SMILES IDX 6 24 8 26 5 27 1 28 2 29 3 30 98 31 4 32 97 33 29 34 30 35
REMARK SMILES IDX 31 36 32 37 33 39 34 40 35 41 96 42 36 43 95 44 37 45 38 46
REMARK SMILES IDX 39 47 89 48 40 49 94 50 88 51 90 52 41 53 93 54 87 55 86 56
REMARK SMILES IDX 42 58 74 59 54 60 73 61 55 62 58 63 72 64 91 65 56 66 57 67
REMARK SMILES IDX 71 69 92 70 59 71 43 72 44 73 52 74 45 75 47 76 53 77 46 78
REMARK SMILES IDX 48 79 49 80 50 81 51 82 75 83 76 84 84 85 77 86 79 87 85 88
REMARK SMILES IDX 78 89 80 90 81 91 82 92 83 93 60 94 61 95 69 96 62 97 64 98
REMARK SMILES IDX 70 99 63 100 65 101 66 102 67 103 68 104
REMARK H PARENT 26 6 15 15 6 25 31 38 90 57 58 68
REMARK Flexibility Score: inf
ROOT
ATOM      1  C   UNL     1       1.695  -0.003   5.990  1.00  0.00     0.023 C 
ENDROOT
BRANCH   1   2
ATOM      2  C   UNL     1       0.642  -0.710   6.846  1.00  0.00     0.116 C 
BRANCH   2   3
ATOM      3  N   UNL     1      -0.696  -0.278   6.466  1.00  0.00    -0.356 N 
ATOM      4  C   UNL     1      -1.607  -0.754   5.585  1.00  0.00     0.223 C 
ATOM      5  O   UNL     1      -2.556  -0.001   5.323  1.00  0.00    -0.275 OA
ATOM      6  H   UNL     1      -1.000   0.524   6.949  1.00  0.00     0.163 HD
BRANCH   4   7
ATOM      7  C   UNL     1      -1.543  -2.111   4.878  1.00  0.00     0.091 C 
ATOM      8  C   UNL     1      -0.793  -2.101   3.528  1.00  0.00     0.091 C 
ATOM      9  C   UNL     1      -0.994  -3.440   2.786  1.00  0.00     0.014 C 
ATOM     10  C   UNL     1      -0.769  -4.676   3.670  1.00  0.00     0.001 C 
ATOM     11  C   UNL     1      -1.322  -3.345   5.753  1.00  0.00     0.014 C 
ATOM     12  C   UNL     1      -1.586  -4.626   4.958  1.00  0.00     0.001 C 
BRANCH   8  13
ATOM     13  C   UNL     1       0.696  -1.880   3.659  1.00  0.00     0.228 C 
ATOM     14  N   UNL     1       1.398  -0.891   3.048  1.00  0.00    -0.325 N 
ATOM     15  H   UNL     1       2.328  -0.885   3.373  1.00  0.00     0.169 HD
ATOM     16  O   UNL     1       1.356  -2.618   4.400  1.00  0.00    -0.274 OA
BRANCH  14  17
ATOM     17  C   UNL     1       1.210   0.126   2.096  1.00  0.00     0.054 A 
ATOM     18  C   UNL     1       2.172   1.167   1.951  1.00  0.00     0.063 A 
ATOM     19  C   UNL     1       1.895   2.227   1.055  1.00  0.00     0.016 A 
ATOM     20  C   UNL     1       0.728   2.264   0.301  1.00  0.00     0.001 A 
ATOM     21  C   UNL     1       0.082   0.148   1.265  1.00  0.00     0.027 A 
ATOM     22  C   UNL     1      -0.171   1.215   0.397  1.00  0.00     0.002 A 
BRANCH  18  23
ATOM     23  C   UNL     1       3.403   1.429   2.770  1.00  0.00     0.257 C 
ATOM     24  N   UNL     1       4.291   0.508   3.270  1.00  0.00    -0.322 N 
ATOM     25  H   UNL     1       4.930   0.906   3.905  1.00  0.00     0.170 HD
ATOM     26  O   UNL     1       3.627   2.607   3.080  1.00  0.00    -0.269 OA
BRANCH  24  27
ATOM     27  C   UNL     1       4.500  -0.861   3.089  1.00  0.00     0.041 A 
ATOM     28  C   UNL     1       4.040  -5.107   3.329  1.00  0.00     0.044 C 
ATOM     29  C   UNL     1       4.355  -3.648   3.187  1.00  0.00    -0.051 A 
ATOM     30  C   UNL     1       3.999  -2.959   2.020  1.00  0.00     0.005 A 
ATOM     31  C   UNL     1       4.918  -2.940   4.251  1.00  0.00     0.005 A 
ATOM     32  C   UNL     1       4.086  -1.565   1.963  1.00  0.00     0.026 A 
ATOM     33  C   UNL     1       5.018  -1.552   4.191  1.00  0.00     0.026 A 
ENDBRANCH  24  27
ENDBRANCH  18  23
ENDBRANCH  14  17
ENDBRANCH   8  13
ENDBRANCH   4   7
ENDBRANCH   2   3
ENDBRANCH   1   2
BRANCH   1  34
ATOM     34  C   UNL     1       2.158   1.377   6.415  1.00  0.00     0.023 C 
BRANCH  34  35
ATOM     35  C   UNL     1       3.013   1.370   7.658  1.00  0.00     0.116 C 
BRANCH  35  36
ATOM     36  N   UNL     1       4.403   0.987   7.463  1.00  0.00    -0.352 N 
ATOM     37  C   UNL     1       5.407   0.838   8.410  1.00  0.00     0.251 C 
ATOM     38  H   UNL     1       4.668   0.809   6.532  1.00  0.00     0.163 HD
ATOM     39  O   UNL     1       6.557   0.653   8.016  1.00  0.00    -0.269 OA
BRANCH  37  40
ATOM     40  C   UNL     1       5.061   0.752   9.858  1.00  0.00     0.039 A 
ATOM     41  C   UNL     1       5.687  -0.230  10.635  1.00  0.00     0.014 A 
ATOM     42  C   UNL     1       3.927   1.385  10.346  1.00  0.00     0.014 A 
ATOM     43  C   UNL     1       5.003  -0.792  11.713  1.00  0.00     0.010 A 
ATOM     44  C   UNL     1       3.170   0.722  11.280  1.00  0.00     0.010 A 
ATOM     45  C   UNL     1       3.686  -0.404  11.927  1.00  0.00    -0.014 A 
BRANCH  45  46
ATOM     46  C   UNL     1       2.706  -1.116  12.731  1.00  0.00     0.031 A 
ATOM     47  C   UNL     1       2.192  -0.499  13.970  1.00  0.00     0.074 A 
ATOM     48  C   UNL     1       2.067  -2.168  12.172  1.00  0.00     0.049 A 
ATOM     49  N   UNL     1       1.458  -1.105  14.836  1.00  0.00    -0.248 NA
ATOM     50  C   UNL     1       2.503   0.876  14.339  1.00  0.00     0.031 C 
ATOM     51  C   UNL     1       0.767  -2.713  12.547  1.00  0.00     0.029 A 
ATOM     52  N   UNL     1       2.574  -3.097  11.258  1.00  0.00    -0.354 N 
ATOM     53  C   UNL     1       0.964  -0.151  15.703  1.00  0.00     0.074 A 
ATOM     54  C   UNL     1       1.720   1.038  15.407  1.00  0.00     0.031 C 
ATOM     55  C   UNL     1       0.696  -3.983  12.121  1.00  0.00     0.029 A 
ATOM     56  C   UNL     1       2.011  -4.334  11.615  1.00  0.00     0.049 A 
ATOM     57  H   UNL     1       3.197  -2.921  10.516  1.00  0.00     0.167 HD
ATOM     58  C   UNL     1      -0.123  -0.463  16.466  1.00  0.00     0.034 A 
ATOM     59  C   UNL     1       2.753  -5.406  12.019  1.00  0.00     0.034 A 
ATOM     60  C   UNL     1      -0.456  -1.892  16.324  1.00  0.00     0.049 A 
ATOM     61  C   UNL     1       2.405  -5.877  13.422  1.00  0.00     0.074 A 
ATOM     62  C   UNL     1      -1.414  -2.578  15.596  1.00  0.00     0.029 A 
ATOM     63  N   UNL     1       0.443  -2.847  16.786  1.00  0.00    -0.354 N 
ATOM     64  N   UNL     1       1.571  -5.264  14.217  1.00  0.00    -0.248 NA
ATOM     65  C   UNL     1       2.985  -7.061  14.053  1.00  0.00     0.031 C 
ATOM     66  C   UNL     1      -1.022  -3.944  15.536  1.00  0.00     0.029 A 
ATOM     67  C   UNL     1       0.152  -4.095  16.255  1.00  0.00     0.049 A 
ATOM     68  H   UNL     1       1.185  -2.663  17.406  1.00  0.00     0.167 HD
ATOM     69  C   UNL     1       1.609  -5.828  15.465  1.00  0.00     0.074 A 
ATOM     70  C   UNL     1       2.441  -7.006  15.282  1.00  0.00     0.031 C 
ATOM     71  C   UNL     1       1.016  -5.237  16.550  1.00  0.00     0.034 A 
BRANCH  58  72
ATOM     72  C   UNL     1      -1.065   0.525  17.149  1.00  0.00     0.023 A 
ATOM     73  C   UNL     1      -2.294   0.012  17.627  1.00  0.00     0.012 A 
ATOM     74  C   UNL     1      -0.899   1.923  17.293  1.00  0.00     0.148 A 
ATOM     75  C   UNL     1      -3.315   0.830  18.130  1.00  0.00     0.002 A 
ATOM     76  C   UNL     1      -1.926   2.748  17.765  1.00  0.00     0.091 A 
ATOM     77  F   UNL     1       0.272   2.493  17.025  1.00  0.00    -0.205 F 
ATOM     78  C   UNL     1      -3.142   2.203  18.176  1.00  0.00     0.022 A 
BRANCH  76  79
ATOM     79  S   UNL     1      -1.775   4.546  17.824  1.00  0.00     0.127 S 
ATOM     80  O   UNL     1      -2.928   4.976  17.030  1.00  0.00    -0.237 OA
ATOM     81  O   UNL     1      -1.885   4.822  19.255  1.00  0.00    -0.237 OA
ATOM     82  O   UNL     1      -0.485   4.874  17.228  1.00  0.00    -0.744 OA
ENDBRANCH  76  79
ENDBRANCH  58  72
BRANCH  59  83
ATOM     83  C   UNL     1       4.093  -5.481  11.365  1.00  0.00     0.023 A 
ATOM     84  C   UNL     1       4.093  -5.698   9.965  1.00  0.00     0.012 A 
ATOM     85  C   UNL     1       5.252  -4.961  11.968  1.00  0.00     0.148 A 
ATOM     86  C   UNL     1       5.163  -5.286   9.171  1.00  0.00     0.002 A 
ATOM     87  C   UNL     1       6.323  -4.558  11.167  1.00  0.00     0.091 A 
ATOM     88  F   UNL     1       5.256  -4.779  13.295  1.00  0.00    -0.205 F 
ATOM     89  C   UNL     1       6.263  -4.685   9.769  1.00  0.00     0.022 A 
BRANCH  87  90
ATOM     90  S   UNL     1       7.769  -3.729  11.848  1.00  0.00     0.127 S 
ATOM     91  O   UNL     1       8.728  -4.827  11.920  1.00  0.00    -0.237 OA
ATOM     92  O   UNL     1       8.060  -2.722  10.829  1.00  0.00    -0.237 OA
ATOM     93  O   UNL     1       7.321  -3.179  13.119  1.00  0.00    -0.744 OA
ENDBRANCH  87  90
ENDBRANCH  59  83
BRANCH  71  94
ATOM     94  C   UNL     1       1.223  -5.642  18.001  1.00  0.00     0.023 A 
ATOM     95  C   UNL     1       2.358  -6.356  18.433  1.00  0.00     0.012 A 
ATOM     96  C   UNL     1       0.355  -5.162  19.018  1.00  0.00     0.148 A 
ATOM     97  C   UNL     1       2.598  -6.622  19.787  1.00  0.00     0.002 A 
ATOM     98  C   UNL     1       0.660  -5.329  20.367  1.00  0.00     0.091 A 
ATOM     99  F   UNL     1      -0.789  -4.545  18.686  1.00  0.00    -0.205 F 
ATOM    100  C   UNL     1       1.764  -6.085  20.758  1.00  0.00     0.022 A 
BRANCH  98 101
ATOM    101  S   UNL     1      -0.258  -4.423  21.623  1.00  0.00     0.127 S 
ATOM    102  O   UNL     1      -1.379  -5.319  21.893  1.00  0.00    -0.237 OA
ATOM    103  O   UNL     1       0.712  -4.317  22.716  1.00  0.00    -0.237 OA
ATOM    104  O   UNL     1      -0.579  -3.151  20.990  1.00  0.00    -0.744 OA
ENDBRANCH  98 101
ENDBRANCH  71  94
ENDBRANCH  45  46
ENDBRANCH  37  40
ENDBRANCH  35  36
ENDBRANCH  34  35
ENDBRANCH   1  34
TORSDOF 18
