REMARK SMILES CCCCCCNC(=O)Oc1cccc(-c2ccc([C@@H](C)C(=O)NCCCCNC(=O)c3ccc(-c4c5nc(c(-c6cccc(S(=O)(=O)[O-])c6F)c6ccc([nH]6)c(-c6cccc(S(=O)(=O)[O-])c6F)c6nc(c(-c7cccc(S(=O)(=O)[O-])c7F)c7ccc4[nH]7)C=C6)C=C5)cc3)cc2F)c1
REMARK SMILES IDX 20 1 21 2 19 3 16 4 17 5 96 6 18 7 95 8 97 9 15 10 11 11
REMARK SMILES IDX 12 12 98 13 13 14 14 15 10 16 8 17 7 18 9 20 6 21 5 22 4 23
REMARK SMILES IDX 3 24 2 25 1 26 22 27 23 28 24 29 25 31 26 32 27 33 28 34
REMARK SMILES IDX 29 35 30 36 31 38 32 39 33 40 94 41 34 42 93 43 35 44 36 45
REMARK SMILES IDX 37 46 87 47 38 48 92 49 86 50 88 51 39 52 91 53 85 54 84 55
REMARK SMILES IDX 40 57 72 58 52 59 71 60 53 61 56 62 70 63 89 64 54 65 55 66
REMARK SMILES IDX 69 68 90 69 57 70 41 71 42 72 50 73 43 74 45 75 51 76 44 77
REMARK SMILES IDX 46 78 47 79 48 80 49 81 73 82 74 83 82 84 75 85 77 86 83 87
REMARK SMILES IDX 76 88 78 89 79 90 80 91 81 92 58 93 59 94 67 95 60 96 62 97
REMARK SMILES IDX 68 98 61 99 63 100 64 101 65 102 66 103
REMARK H PARENT 7 19 24 30 29 37 88 56 56 67
REMARK Flexibility Score: inf
ROOT
ATOM      1  C   UNL     1      -4.501  -6.241 -12.210  1.00  0.00     0.105 C 
ATOM      2  C   UNL     1      -5.613  -6.658 -13.171  1.00  0.00     0.023 C 
ENDROOT
BRANCH   1   3
ATOM      3  C   UNL     1      -4.850  -5.131 -11.232  1.00  0.00    -0.033 A 
ATOM      4  C   UNL     1      -5.208  -2.954  -9.408  1.00  0.00     0.018 A 
ATOM      5  C   UNL     1      -5.668  -2.893 -10.733  1.00  0.00     0.012 A 
ATOM      6  C   UNL     1      -4.627  -4.166  -9.005  1.00  0.00     0.131 A 
ATOM      7  C   UNL     1      -5.534  -3.974 -11.611  1.00  0.00     0.005 A 
ATOM      8  C   UNL     1      -4.427  -5.224  -9.898  1.00  0.00     0.044 A 
ATOM      9  F   UNL     1      -4.232  -4.344  -7.734  1.00  0.00    -0.206 F 
BRANCH   4  10
ATOM     10  C   UNL     1      -5.305  -1.771  -8.525  1.00  0.00    -0.012 A 
ATOM     11  C   UNL     1      -4.362  -0.293  -6.838  1.00  0.00     0.133 A 
ATOM     12  C   UNL     1      -5.447   0.571  -6.934  1.00  0.00     0.047 A 
ATOM     13  C   UNL     1      -4.286  -1.454  -7.611  1.00  0.00     0.056 A 
ATOM     14  C   UNL     1      -6.469   0.275  -7.827  1.00  0.00     0.004 A 
ATOM     15  C   UNL     1      -6.401  -0.886  -8.605  1.00  0.00     0.009 A 
BRANCH  11  16
ATOM     16  O   UNL     1      -3.410  -0.009  -5.849  1.00  0.00    -0.410 OA
BRANCH  16  17
ATOM     17  C   UNL     1      -2.076   0.048  -6.226  1.00  0.00     0.412 C 
ATOM     18  N   UNL     1      -1.236   0.249  -5.165  1.00  0.00    -0.321 N 
ATOM     19  H   UNL     1      -0.275   0.315  -5.369  1.00  0.00     0.167 HD
ATOM     20  O   UNL     1      -1.644  -0.053  -7.365  1.00  0.00    -0.224 OA
BRANCH  18  21
ATOM     21  C   UNL     1      -1.617   0.375  -3.774  1.00  0.00     0.119 C 
BRANCH  21  22
ATOM     22  C   UNL     1      -1.012  -0.734  -2.914  1.00  0.00     0.021 C 
BRANCH  22  23
ATOM     23  C   UNL     1       0.518  -0.703  -2.815  1.00  0.00     0.002 C 
BRANCH  23  24
ATOM     24  C   UNL     1       1.115   0.595  -2.258  1.00  0.00    -0.000 C 
BRANCH  24  25
ATOM     25  C   UNL     1       0.629   0.994  -0.863  1.00  0.00    -0.003 C 
ATOM     26  C   UNL     1       0.998  -0.015   0.213  1.00  0.00     0.004 C 
ENDBRANCH  24  25
ENDBRANCH  23  24
ENDBRANCH  22  23
ENDBRANCH  21  22
ENDBRANCH  18  21
ENDBRANCH  16  17
ENDBRANCH  11  16
ENDBRANCH   4  10
ENDBRANCH   1   3
BRANCH   1  27
ATOM     27  C   UNL     1      -3.131  -6.060 -12.884  1.00  0.00     0.227 C 
ATOM     28  O   UNL     1      -2.193  -6.800 -12.564  1.00  0.00    -0.274 OA
ATOM     29  N   UNL     1      -2.875  -5.133 -13.848  1.00  0.00    -0.356 N 
ATOM     30  H   UNL     1      -1.965  -5.182 -14.222  1.00  0.00     0.163 HD
BRANCH  29  31
ATOM     31  C   UNL     1      -3.695  -4.088 -14.424  1.00  0.00     0.116 C 
BRANCH  31  32
ATOM     32  C   UNL     1      -3.444  -2.729 -13.769  1.00  0.00     0.023 C 
BRANCH  32  33
ATOM     33  C   UNL     1      -2.319  -1.911 -14.397  1.00  0.00     0.023 C 
BRANCH  33  34
ATOM     34  C   UNL     1      -2.527  -1.542 -15.860  1.00  0.00     0.116 C 
BRANCH  34  35
ATOM     35  N   UNL     1      -3.754  -0.797 -16.117  1.00  0.00    -0.352 N 
ATOM     36  C   UNL     1      -3.958   0.195 -17.050  1.00  0.00     0.251 C 
ATOM     37  H   UNL     1      -4.529  -1.031 -15.556  1.00  0.00     0.163 HD
ATOM     38  O   UNL     1      -5.025   0.797 -17.100  1.00  0.00    -0.269 OA
BRANCH  36  39
ATOM     39  C   UNL     1      -2.850   0.547 -17.961  1.00  0.00     0.039 A 
ATOM     40  C   UNL     1      -2.436   1.877 -18.045  1.00  0.00     0.014 A 
ATOM     41  C   UNL     1      -2.164  -0.456 -18.650  1.00  0.00     0.014 A 
ATOM     42  C   UNL     1      -1.280   2.191 -18.763  1.00  0.00     0.010 A 
ATOM     43  C   UNL     1      -0.966  -0.154 -19.286  1.00  0.00     0.010 A 
ATOM     44  C   UNL     1      -0.511   1.172 -19.352  1.00  0.00    -0.014 A 
BRANCH  44  45
ATOM     45  C   UNL     1       0.775   1.467 -20.035  1.00  0.00     0.031 A 
ATOM     46  C   UNL     1       0.944   1.134 -21.494  1.00  0.00     0.074 A 
ATOM     47  C   UNL     1       1.819   1.941 -19.325  1.00  0.00     0.049 A 
ATOM     48  N   UNL     1       2.006   1.246 -22.247  1.00  0.00    -0.248 NA
ATOM     49  C   UNL     1      -0.225   0.571 -22.193  1.00  0.00     0.031 C 
ATOM     50  C   UNL     1       1.810   2.219 -17.886  1.00  0.00     0.029 A 
ATOM     51  N   UNL     1       3.102   2.244 -19.710  1.00  0.00    -0.354 N 
ATOM     52  C   UNL     1       1.650   0.731 -23.487  1.00  0.00     0.074 A 
ATOM     53  C   UNL     1       0.283   0.274 -23.380  1.00  0.00     0.031 C 
ATOM     54  C   UNL     1       3.025   2.653 -17.512  1.00  0.00     0.029 A 
ATOM     55  C   UNL     1       3.909   2.654 -18.673  1.00  0.00     0.049 A 
ATOM     56  H   UNL     1       3.415   2.174 -20.640  1.00  0.00     0.167 HD
ATOM     57  C   UNL     1       2.384   0.671 -24.623  1.00  0.00     0.034 A 
ATOM     58  C   UNL     1       5.217   2.981 -18.657  1.00  0.00     0.034 A 
ATOM     59  C   UNL     1       3.723   1.177 -24.741  1.00  0.00     0.049 A 
ATOM     60  C   UNL     1       5.991   2.953 -19.948  1.00  0.00     0.074 A 
ATOM     61  C   UNL     1       4.512   1.258 -25.875  1.00  0.00     0.029 A 
ATOM     62  N   UNL     1       4.475   1.679 -23.692  1.00  0.00    -0.354 N 
ATOM     63  N   UNL     1       5.582   2.624 -21.149  1.00  0.00    -0.248 NA
ATOM     64  C   UNL     1       7.399   3.375 -19.890  1.00  0.00     0.031 C 
ATOM     65  C   UNL     1       5.754   1.781 -25.504  1.00  0.00     0.029 A 
ATOM     66  C   UNL     1       5.724   2.061 -24.148  1.00  0.00     0.049 A 
ATOM     67  H   UNL     1       4.166   1.753 -22.760  1.00  0.00     0.167 HD
ATOM     68  C   UNL     1       6.665   2.839 -21.994  1.00  0.00     0.074 A 
ATOM     69  C   UNL     1       7.743   3.347 -21.170  1.00  0.00     0.031 C 
ATOM     70  C   UNL     1       6.766   2.622 -23.328  1.00  0.00     0.034 A 
BRANCH  57  71
ATOM     71  C   UNL     1       1.739   0.085 -25.851  1.00  0.00     0.023 A 
ATOM     72  C   UNL     1       0.727   0.805 -26.519  1.00  0.00     0.012 A 
ATOM     73  C   UNL     1       2.193  -1.133 -26.391  1.00  0.00     0.148 A 
ATOM     74  C   UNL     1       0.158   0.308 -27.690  1.00  0.00     0.002 A 
ATOM     75  C   UNL     1       1.655  -1.599 -27.585  1.00  0.00     0.091 A 
ATOM     76  F   UNL     1       3.142  -1.811 -25.730  1.00  0.00    -0.205 F 
ATOM     77  C   UNL     1       0.630  -0.885 -28.229  1.00  0.00     0.022 A 
BRANCH  75  78
ATOM     78  S   UNL     1       2.250  -3.080 -28.407  1.00  0.00     0.127 S 
ATOM     79  O   UNL     1       1.091  -3.965 -28.295  1.00  0.00    -0.237 OA
ATOM     80  O   UNL     1       2.515  -2.592 -29.761  1.00  0.00    -0.237 OA
ATOM     81  O   UNL     1       3.430  -3.506 -27.669  1.00  0.00    -0.744 OA
ENDBRANCH  75  78
ENDBRANCH  57  71
BRANCH  58  82
ATOM     82  C   UNL     1       5.872   3.412 -17.388  1.00  0.00     0.023 A 
ATOM     83  C   UNL     1       6.298   4.747 -17.244  1.00  0.00     0.012 A 
ATOM     84  C   UNL     1       6.083   2.508 -16.329  1.00  0.00     0.148 A 
ATOM     85  C   UNL     1       6.962   5.163 -16.089  1.00  0.00     0.002 A 
ATOM     86  C   UNL     1       6.693   2.943 -15.158  1.00  0.00     0.091 A 
ATOM     87  F   UNL     1       5.683   1.239 -16.488  1.00  0.00    -0.205 F 
ATOM     88  C   UNL     1       7.152   4.264 -15.044  1.00  0.00     0.022 A 
BRANCH  86  89
ATOM     89  S   UNL     1       6.862   1.888 -13.715  1.00  0.00     0.127 S 
ATOM     90  O   UNL     1       8.294   1.599 -13.722  1.00  0.00    -0.237 OA
ATOM     91  O   UNL     1       6.417   2.773 -12.638  1.00  0.00    -0.237 OA
ATOM     92  O   UNL     1       5.983   0.752 -13.958  1.00  0.00    -0.744 OA
ENDBRANCH  86  89
ENDBRANCH  58  82
BRANCH  70  93
ATOM     93  C   UNL     1       8.064   2.978 -24.002  1.00  0.00     0.023 A 
ATOM     94  C   UNL     1       9.210   2.189 -23.787  1.00  0.00     0.012 A 
ATOM     95  C   UNL     1       8.122   4.051 -24.915  1.00  0.00     0.148 A 
ATOM     96  C   UNL     1      10.404   2.482 -24.445  1.00  0.00     0.002 A 
ATOM     97  C   UNL     1       9.299   4.303 -25.607  1.00  0.00     0.091 A 
ATOM     98  F   UNL     1       7.024   4.799 -25.093  1.00  0.00    -0.205 F 
ATOM     99  C   UNL     1      10.445   3.529 -25.363  1.00  0.00     0.022 A 
BRANCH  97 100
ATOM    100  S   UNL     1       9.416   5.564 -26.881  1.00  0.00     0.127 S 
ATOM    101  O   UNL     1      10.255   6.569 -26.229  1.00  0.00    -0.237 OA
ATOM    102  O   UNL     1      10.068   4.840 -27.973  1.00  0.00    -0.237 OA
ATOM    103  O   UNL     1       8.049   5.980 -27.162  1.00  0.00    -0.744 OA
ENDBRANCH  97 100
ENDBRANCH  70  93
ENDBRANCH  44  45
ENDBRANCH  36  39
ENDBRANCH  34  35
ENDBRANCH  33  34
ENDBRANCH  32  33
ENDBRANCH  31  32
ENDBRANCH  29  31
ENDBRANCH   1  27
TORSDOF 23
