REMARK SMILES CC(C)C[C@H](NC(=O)CNC(=O)[C@@H](NC(=O)OCc1ccccc1)C(C)C)C(=O)NCCCCNC(=O)c1ccc(-c2c3nc(c(-c4cccc(S(=O)(=O)[O-])c4F)c4ccc([nH]4)c(-c4cccc(S(=O)(=O)[O-])c4F)c4nc(c(-c5cccc(S(=O)(=O)[O-])c5F)c5ccc2[nH]5)C=C4)C=C3)cc1
REMARK SMILES IDX 28 1 29 2 30 3 5 5 4 6 2 7 1 8 3 9 6 10 7 11 8 13 9 14 10 15
REMARK SMILES IDX 11 16 12 18 13 19 14 20 15 21 16 23 17 24 18 25 19 26 20 27
REMARK SMILES IDX 24 28 21 29 23 30 22 31 25 32 26 33 27 34 31 35 32 36 33 37
REMARK SMILES IDX 34 38 35 39 36 40 37 42 38 43 39 44 100 45 40 46 99 47 41 48
REMARK SMILES IDX 42 49 43 50 93 51 44 52 98 53 92 54 94 55 45 56 97 57 91 58
REMARK SMILES IDX 90 59 46 61 78 62 58 63 77 64 59 65 62 66 76 67 95 68 60 69
REMARK SMILES IDX 61 70 75 72 96 73 63 74 47 75 48 76 56 77 49 78 51 79 57 80
REMARK SMILES IDX 50 81 52 82 53 83 54 84 55 85 79 86 80 87 88 88 81 89 83 90
REMARK SMILES IDX 89 91 82 92 84 93 85 94 86 95 87 96 64 97 65 98 73 99 66 100
REMARK SMILES IDX 68 101 74 102 67 103 69 104 70 105 71 106 72 107
REMARK H PARENT 30 4 6 12 10 17 14 22 35 41 94 60 62 71
REMARK Flexibility Score: inf
ROOT
ATOM      1  C   UNL     1      -3.400   1.143  -0.702  1.00  0.00     0.242 C 
ATOM      2  O   UNL     1      -4.077   0.905   0.298  1.00  0.00    -0.273 OA
ATOM      3  N   UNL     1      -3.948   0.950  -1.940  1.00  0.00    -0.354 N 
ATOM      4  H   UNL     1      -4.855   0.568  -1.955  1.00  0.00     0.163 HD
ENDROOT
BRANCH   1   5
ATOM      5  C   UNL     1      -1.958   1.679  -0.594  1.00  0.00     0.171 C 
BRANCH   5   6
ATOM      6  C   UNL     1      -1.876   3.110  -1.121  1.00  0.00     0.038 C 
BRANCH   6   7
ATOM      7  C   UNL     1      -2.991   4.112  -0.760  1.00  0.00    -0.015 C 
ATOM      8  C   UNL     1      -3.202   4.254   0.747  1.00  0.00     0.007 C 
ATOM      9  C   UNL     1      -2.614   5.480  -1.349  1.00  0.00     0.007 C 
ENDBRANCH   6   7
ENDBRANCH   5   6
BRANCH   5  10
ATOM     10  N   UNL     1      -1.112   0.640  -1.233  1.00  0.00    -0.343 N 
ATOM     11  C   UNL     1       0.070   0.465  -1.850  1.00  0.00     0.240 C 
ATOM     12  H   UNL     1      -1.581  -0.224  -1.190  1.00  0.00     0.164 HD
ATOM     13  O   UNL     1       0.350  -0.720  -2.098  1.00  0.00    -0.273 OA
BRANCH  11  14
ATOM     14  C   UNL     1       1.131   1.516  -2.198  1.00  0.00     0.216 C 
BRANCH  14  15
ATOM     15  N   UNL     1       0.816   2.899  -2.442  1.00  0.00    -0.345 N 
ATOM     16  C   UNL     1       1.083   4.023  -1.731  1.00  0.00     0.243 C 
ATOM     17  H   UNL     1       0.318   3.058  -3.276  1.00  0.00     0.164 HD
ATOM     18  O   UNL     1       0.884   5.091  -2.321  1.00  0.00    -0.273 OA
BRANCH  16  19
ATOM     19  C   UNL     1       1.641   4.029  -0.278  1.00  0.00     0.177 C 
BRANCH  19  20
ATOM     20  N   UNL     1       1.100   2.952   0.563  1.00  0.00    -0.309 N 
ATOM     21  C   UNL     1       1.568   1.738   0.947  1.00  0.00     0.408 C 
ATOM     22  H   UNL     1       0.207   3.155   0.924  1.00  0.00     0.167 HD
ATOM     23  O   UNL     1       0.814   0.923   1.447  1.00  0.00    -0.225 OA
BRANCH  21  24
ATOM     24  O   UNL     1       2.901   1.589   0.791  1.00  0.00    -0.445 OA
BRANCH  24  25
ATOM     25  C   UNL     1       3.451   0.413   1.401  1.00  0.00     0.270 C 
BRANCH  25  26
ATOM     26  C   UNL     1       3.748   0.577   2.880  1.00  0.00    -0.011 A 
ATOM     27  C   UNL     1       2.969   1.381   3.729  1.00  0.00     0.007 A 
ATOM     28  C   UNL     1       4.785  -0.171   3.456  1.00  0.00     0.007 A 
ATOM     29  C   UNL     1       3.216   1.445   5.099  1.00  0.00     0.000 A 
ATOM     30  C   UNL     1       5.035  -0.106   4.830  1.00  0.00     0.000 A 
ATOM     31  C   UNL     1       4.250   0.700   5.651  1.00  0.00     0.000 A 
ENDBRANCH  25  26
ENDBRANCH  24  25
ENDBRANCH  21  24
ENDBRANCH  19  20
BRANCH  19  32
ATOM     32  C   UNL     1       3.161   4.290  -0.210  1.00  0.00     0.015 C 
ATOM     33  C   UNL     1       3.573   5.493  -1.073  1.00  0.00     0.010 C 
ATOM     34  C   UNL     1       3.606   4.585   1.230  1.00  0.00     0.010 C 
ENDBRANCH  19  32
ENDBRANCH  16  19
ENDBRANCH  14  15
ENDBRANCH  11  14
ENDBRANCH   5  10
ENDBRANCH   1   5
BRANCH   3  35
ATOM     35  C   UNL     1      -3.358   1.238  -3.233  1.00  0.00     0.116 C 
BRANCH  35  36
ATOM     36  C   UNL     1      -3.768   0.233  -4.295  1.00  0.00     0.023 C 
BRANCH  36  37
ATOM     37  C   UNL     1      -5.240   0.312  -4.678  1.00  0.00     0.023 C 
BRANCH  37  38
ATOM     38  C   UNL     1      -5.720   1.710  -5.047  1.00  0.00     0.116 C 
BRANCH  38  39
ATOM     39  N   UNL     1      -4.947   2.303  -6.133  1.00  0.00    -0.352 N 
ATOM     40  C   UNL     1      -5.416   2.856  -7.301  1.00  0.00     0.251 C 
ATOM     41  H   UNL     1      -3.970   2.307  -6.015  1.00  0.00     0.163 HD
ATOM     42  O   UNL     1      -4.647   3.181  -8.198  1.00  0.00    -0.269 OA
BRANCH  40  43
ATOM     43  C   UNL     1      -6.872   3.019  -7.453  1.00  0.00     0.039 A 
ATOM     44  C   UNL     1      -7.514   2.431  -8.543  1.00  0.00     0.014 A 
ATOM     45  C   UNL     1      -7.601   3.659  -6.446  1.00  0.00     0.014 A 
ATOM     46  C   UNL     1      -8.908   2.427  -8.589  1.00  0.00     0.010 A 
ATOM     47  C   UNL     1      -8.987   3.576  -6.453  1.00  0.00     0.010 A 
ATOM     48  C   UNL     1      -9.654   2.965  -7.526  1.00  0.00    -0.014 A 
BRANCH  48  49
ATOM     49  C   UNL     1     -11.136   2.897  -7.510  1.00  0.00     0.031 A 
ATOM     50  C   UNL     1     -11.943   4.166  -7.505  1.00  0.00     0.074 A 
ATOM     51  C   UNL     1     -11.750   1.701  -7.404  1.00  0.00     0.049 A 
ATOM     52  N   UNL     1     -13.239   4.317  -7.437  1.00  0.00    -0.248 NA
ATOM     53  C   UNL     1     -11.194   5.434  -7.548  1.00  0.00     0.031 C 
ATOM     54  C   UNL     1     -11.073   0.405  -7.311  1.00  0.00     0.029 A 
ATOM     55  N   UNL     1     -13.083   1.384  -7.332  1.00  0.00    -0.354 N 
ATOM     56  C   UNL     1     -13.458   5.687  -7.385  1.00  0.00     0.074 A 
ATOM     57  C   UNL     1     -12.161   6.326  -7.393  1.00  0.00     0.031 C 
ATOM     58  C   UNL     1     -11.995  -0.567  -7.210  1.00  0.00     0.029 A 
ATOM     59  C   UNL     1     -13.324   0.036  -7.202  1.00  0.00     0.049 A 
ATOM     60  H   UNL     1     -13.799   2.058  -7.370  1.00  0.00     0.167 HD
ATOM     61  C   UNL     1     -14.634   6.357  -7.365  1.00  0.00     0.034 A 
ATOM     62  C   UNL     1     -14.486  -0.638  -7.090  1.00  0.00     0.034 A 
ATOM     63  C   UNL     1     -15.920   5.720  -7.419  1.00  0.00     0.049 A 
ATOM     64  C   UNL     1     -15.780   0.130  -7.128  1.00  0.00     0.074 A 
ATOM     65  C   UNL     1     -17.168   6.309  -7.514  1.00  0.00     0.029 A 
ATOM     66  N   UNL     1     -16.126   4.350  -7.376  1.00  0.00    -0.354 N 
ATOM     67  N   UNL     1     -15.970   1.421  -7.253  1.00  0.00    -0.248 NA
ATOM     68  C   UNL     1     -17.021  -0.654  -7.047  1.00  0.00     0.031 C 
ATOM     69  C   UNL     1     -18.130   5.295  -7.507  1.00  0.00     0.029 A 
ATOM     70  C   UNL     1     -17.480   4.073  -7.433  1.00  0.00     0.049 A 
ATOM     71  H   UNL     1     -15.413   3.673  -7.315  1.00  0.00     0.167 HD
ATOM     72  C   UNL     1     -17.347   1.601  -7.303  1.00  0.00     0.074 A 
ATOM     73  C   UNL     1     -17.943   0.284  -7.215  1.00  0.00     0.031 C 
ATOM     74  C   UNL     1     -18.055   2.753  -7.401  1.00  0.00     0.034 A 
BRANCH  61  75
ATOM     75  C   UNL     1     -14.582   7.862  -7.340  1.00  0.00     0.023 A 
ATOM     76  C   UNL     1     -14.167   8.563  -8.491  1.00  0.00     0.012 A 
ATOM     77  C   UNL     1     -14.997   8.581  -6.203  1.00  0.00     0.148 A 
ATOM     78  C   UNL     1     -14.133   9.957  -8.499  1.00  0.00     0.002 A 
ATOM     79  C   UNL     1     -15.005   9.971  -6.235  1.00  0.00     0.091 A 
ATOM     80  F   UNL     1     -15.365   7.897  -5.111  1.00  0.00    -0.205 F 
ATOM     81  C   UNL     1     -14.562  10.660  -7.377  1.00  0.00     0.022 A 
BRANCH  79  82
ATOM     82  S   UNL     1     -15.614  10.968  -4.871  1.00  0.00     0.127 S 
ATOM     83  O   UNL     1     -14.376  11.551  -4.356  1.00  0.00    -0.237 OA
ATOM     84  O   UNL     1     -16.497  11.915  -5.553  1.00  0.00    -0.237 OA
ATOM     85  O   UNL     1     -16.292  10.045  -3.971  1.00  0.00    -0.744 OA
ENDBRANCH  79  82
ENDBRANCH  61  75
BRANCH  62  86
ATOM     86  C   UNL     1     -14.482  -2.127  -7.018  1.00  0.00     0.023 A 
ATOM     87  C   UNL     1     -14.948  -2.868  -8.121  1.00  0.00     0.012 A 
ATOM     88  C   UNL     1     -13.996  -2.810  -5.888  1.00  0.00     0.148 A 
ATOM     89  C   UNL     1     -14.960  -4.263  -8.089  1.00  0.00     0.002 A 
ATOM     90  C   UNL     1     -13.961  -4.200  -5.882  1.00  0.00     0.091 A 
ATOM     91  F   UNL     1     -13.566  -2.087  -4.844  1.00  0.00    -0.205 F 
ATOM     92  C   UNL     1     -14.459  -4.929  -6.974  1.00  0.00     0.022 A 
BRANCH  90  93
ATOM     93  S   UNL     1     -13.216  -5.142  -4.546  1.00  0.00     0.127 S 
ATOM     94  O   UNL     1     -14.386  -5.761  -3.928  1.00  0.00    -0.237 OA
ATOM     95  O   UNL     1     -12.344  -6.063  -5.277  1.00  0.00    -0.237 OA
ATOM     96  O   UNL     1     -12.507  -4.168  -3.727  1.00  0.00    -0.744 OA
ENDBRANCH  90  93
ENDBRANCH  62  86
BRANCH  74  97
ATOM     97  C   UNL     1     -19.557   2.650  -7.455  1.00  0.00     0.023 A 
ATOM     98  C   UNL     1     -20.279   2.319  -6.291  1.00  0.00     0.012 A 
ATOM     99  C   UNL     1     -20.255   2.966  -8.637  1.00  0.00     0.148 A 
ATOM    100  C   UNL     1     -21.672   2.273  -6.312  1.00  0.00     0.002 A 
ATOM    101  C   UNL     1     -21.644   2.967  -8.637  1.00  0.00     0.091 A 
ATOM    102  F   UNL     1     -19.548   3.261  -9.738  1.00  0.00    -0.205 F 
ATOM    103  C   UNL     1     -22.354   2.610  -7.479  1.00  0.00     0.022 A 
BRANCH 101 104
ATOM    104  S   UNL     1     -22.605   3.483 -10.065  1.00  0.00     0.127 S 
ATOM    105  O   UNL     1     -23.127   2.207 -10.549  1.00  0.00    -0.237 OA
ATOM    106  O   UNL     1     -23.607   4.364  -9.464  1.00  0.00    -0.237 OA
ATOM    107  O   UNL     1     -21.669   4.155 -10.955  1.00  0.00    -0.744 OA
ENDBRANCH 101 104
ENDBRANCH  74  97
ENDBRANCH  48  49
ENDBRANCH  40  43
ENDBRANCH  38  39
ENDBRANCH  37  38
ENDBRANCH  36  37
ENDBRANCH  35  36
ENDBRANCH   3  35
TORSDOF 25
