REMARK SMILES COC(=O)c1ccccc1-c1ccc(/C=C(\C#N)C(=O)NCCCCNC(=O)c2ccc(-c3c4nc(c(-c5cccc(S(=O)(=O)[O-])c5F)c5ccc([nH]5)c(-c5cccc(S(=O)(=O)[O-])c5F)c5nc(c(-c6cccc(S(=O)(=O)[O-])c6F)c6ccc3[nH]6)C=C5)C=C4)cc2)o1
REMARK SMILES IDX 23 1 22 2 21 3 19 4 20 5 16 7 15 8 14 9 11 10 12 11 92 12
REMARK SMILES IDX 13 13 10 14 5 15 6 16 7 17 9 18 8 19 3 20 4 21 2 22 1 23
REMARK SMILES IDX 17 24 18 25 24 26 25 27 26 28 27 29 28 31 29 32 30 33 91 34
REMARK SMILES IDX 31 35 90 36 32 37 33 38 34 39 84 40 35 41 89 42 83 43 85 44
REMARK SMILES IDX 36 45 88 46 82 47 81 48 37 50 69 51 49 52 68 53 50 54 53 55
REMARK SMILES IDX 67 56 86 57 51 58 52 59 66 61 87 62 54 63 38 64 39 65 47 66
REMARK SMILES IDX 40 67 42 68 48 69 41 70 43 71 44 72 45 73 46 74 70 75 71 76
REMARK SMILES IDX 79 77 72 78 74 79 80 80 73 81 75 82 76 83 77 84 78 85 55 86
REMARK SMILES IDX 56 87 64 88 57 89 59 90 65 91 58 92 60 93 61 94 62 95 63 96
REMARK H PARENT 21 6 26 30 85 49 53 60
REMARK Flexibility Score: inf
ROOT
ATOM      1  C   UNL     1      -2.968   3.124   7.573  1.00  0.00     0.023 C 
ENDROOT
BRANCH   1   2
ATOM      2  C   UNL     1      -4.307   2.721   6.955  1.00  0.00     0.116 C 
BRANCH   2   3
ATOM      3  N   UNL     1      -4.537   3.409   5.698  1.00  0.00    -0.351 N 
ATOM      4  C   UNL     1      -4.246   3.098   4.407  1.00  0.00     0.262 C 
ATOM      5  O   UNL     1      -4.597   3.918   3.553  1.00  0.00    -0.268 OA
ATOM      6  H   UNL     1      -4.995   4.275   5.801  1.00  0.00     0.163 HD
BRANCH   4   7
ATOM      7  C   UNL     1      -3.561   1.834   3.990  1.00  0.00     0.120 C 
ATOM      8  C   UNL     1      -3.545   1.573   2.665  1.00  0.00     0.072 C 
BRANCH   8   9
ATOM      9  C   UNL     1      -2.967   0.411   2.073  1.00  0.00     0.129 A 
ATOM     10  C   UNL     1      -1.826  -1.495   1.893  1.00  0.00     0.135 A 
ATOM     11  C   UNL     1      -2.239  -1.181   0.620  1.00  0.00     0.051 A 
ATOM     12  O   UNL     1      -2.284  -0.560   2.764  1.00  0.00    -0.457 OA
ATOM     13  C   UNL     1      -2.961   0.035   0.734  1.00  0.00     0.051 A 
BRANCH  10  14
ATOM     14  C   UNL     1      -1.007  -2.543   2.483  1.00  0.00     0.032 A 
ATOM     15  C   UNL     1       0.299  -2.834   2.047  1.00  0.00     0.071 A 
ATOM     16  C   UNL     1       1.019  -3.897   2.621  1.00  0.00     0.016 A 
ATOM     17  C   UNL     1       0.455  -4.660   3.643  1.00  0.00     0.001 A 
ATOM     18  C   UNL     1      -1.551  -3.317   3.523  1.00  0.00     0.013 A 
ATOM     19  C   UNL     1      -0.829  -4.367   4.096  1.00  0.00     0.001 A 
BRANCH  15  20
ATOM     20  C   UNL     1       0.982  -2.076   0.976  1.00  0.00     0.338 C 
ATOM     21  O   UNL     1       1.637  -2.612   0.088  1.00  0.00    -0.246 OA
BRANCH  20  22
ATOM     22  O   UNL     1       0.818  -0.748   1.158  1.00  0.00    -0.465 OA
ATOM     23  C   UNL     1       1.332   0.064   0.103  1.00  0.00     0.282 C 
ENDBRANCH  20  22
ENDBRANCH  15  20
ENDBRANCH  10  14
ENDBRANCH   8   9
BRANCH   7  24
ATOM     24  C   UNL     1      -2.960   0.861   4.992  1.00  0.00     0.105 C 
ATOM     25  N   UNL     1      -2.461   0.053   5.822  1.00  0.00    -0.192 NA
ENDBRANCH   7  24
ENDBRANCH   4   7
ENDBRANCH   2   3
ENDBRANCH   1   2
BRANCH   1  26
ATOM     26  C   UNL     1      -3.029   4.401   8.422  1.00  0.00     0.023 C 
BRANCH  26  27
ATOM     27  C   UNL     1      -3.985   4.349   9.613  1.00  0.00     0.116 C 
BRANCH  27  28
ATOM     28  N   UNL     1      -3.755   3.214  10.493  1.00  0.00    -0.352 N 
ATOM     29  C   UNL     1      -4.093   3.076  11.818  1.00  0.00     0.251 C 
ATOM     30  H   UNL     1      -3.296   2.444  10.087  1.00  0.00     0.163 HD
ATOM     31  O   UNL     1      -3.732   2.082  12.441  1.00  0.00    -0.269 OA
BRANCH  29  32
ATOM     32  C   UNL     1      -4.851   4.146  12.500  1.00  0.00     0.039 A 
ATOM     33  C   UNL     1      -4.395   4.595  13.742  1.00  0.00     0.014 A 
ATOM     34  C   UNL     1      -5.991   4.712  11.924  1.00  0.00     0.014 A 
ATOM     35  C   UNL     1      -5.049   5.651  14.378  1.00  0.00     0.010 A 
ATOM     36  C   UNL     1      -6.603   5.809  12.528  1.00  0.00     0.010 A 
ATOM     37  C   UNL     1      -6.140   6.288  13.762  1.00  0.00    -0.014 A 
BRANCH  37  38
ATOM     38  C   UNL     1      -6.775   7.473  14.391  1.00  0.00     0.031 A 
ATOM     39  C   UNL     1      -8.198   7.421  14.874  1.00  0.00     0.074 A 
ATOM     40  C   UNL     1      -6.078   8.623  14.474  1.00  0.00     0.049 A 
ATOM     41  N   UNL     1      -8.890   8.343  15.491  1.00  0.00    -0.248 NA
ATOM     42  C   UNL     1      -8.952   6.185  14.608  1.00  0.00     0.031 C 
ATOM     43  C   UNL     1      -4.729   8.834  13.943  1.00  0.00     0.029 A 
ATOM     44  N   UNL     1      -6.410   9.836  15.023  1.00  0.00    -0.354 N 
ATOM     45  C   UNL     1     -10.163   7.813  15.665  1.00  0.00     0.074 A 
ATOM     46  C   UNL     1     -10.160   6.503  15.052  1.00  0.00     0.031 C 
ATOM     47  C   UNL     1      -4.343  10.092  14.208  1.00  0.00     0.029 A 
ATOM     48  C   UNL     1      -5.415  10.779  14.919  1.00  0.00     0.049 A 
ATOM     49  H   UNL     1      -7.279  10.013  15.450  1.00  0.00     0.167 HD
ATOM     50  C   UNL     1     -11.226   8.351  16.310  1.00  0.00     0.034 A 
ATOM     51  C   UNL     1      -5.365  12.049  15.367  1.00  0.00     0.034 A 
ATOM     52  C   UNL     1     -11.209   9.635  16.959  1.00  0.00     0.049 A 
ATOM     53  C   UNL     1      -6.525  12.589  16.158  1.00  0.00     0.074 A 
ATOM     54  C   UNL     1     -12.202  10.232  17.716  1.00  0.00     0.029 A 
ATOM     55  N   UNL     1     -10.144  10.523  16.927  1.00  0.00    -0.354 N 
ATOM     56  N   UNL     1      -7.652  12.000  16.476  1.00  0.00    -0.248 NA
ATOM     57  C   UNL     1      -6.385  13.950  16.695  1.00  0.00     0.031 C 
ATOM     58  C   UNL     1     -11.739  11.484  18.136  1.00  0.00     0.029 A 
ATOM     59  C   UNL     1     -10.454  11.662  17.651  1.00  0.00     0.049 A 
ATOM     60  H   UNL     1      -9.293  10.366  16.459  1.00  0.00     0.167 HD
ATOM     61  C   UNL     1      -8.342  12.904  17.275  1.00  0.00     0.074 A 
ATOM     62  C   UNL     1      -7.491  14.068  17.417  1.00  0.00     0.031 C 
ATOM     63  C   UNL     1      -9.576  12.791  17.825  1.00  0.00     0.034 A 
BRANCH  50  64
ATOM     64  C   UNL     1     -12.476   7.516  16.409  1.00  0.00     0.023 A 
ATOM     65  C   UNL     1     -12.489   6.396  17.267  1.00  0.00     0.012 A 
ATOM     66  C   UNL     1     -13.646   7.860  15.706  1.00  0.00     0.148 A 
ATOM     67  C   UNL     1     -13.634   5.613  17.398  1.00  0.00     0.002 A 
ATOM     68  C   UNL     1     -14.798   7.097  15.874  1.00  0.00     0.091 A 
ATOM     69  F   UNL     1     -13.610   8.913  14.877  1.00  0.00    -0.205 F 
ATOM     70  C   UNL     1     -14.790   5.969  16.711  1.00  0.00     0.022 A 
BRANCH  68  71
ATOM     71  S   UNL     1     -16.358   7.517  15.089  1.00  0.00     0.127 S 
ATOM     72  O   UNL     1     -16.447   6.497  14.045  1.00  0.00    -0.237 OA
ATOM     73  O   UNL     1     -17.312   7.350  16.186  1.00  0.00    -0.237 OA
ATOM     74  O   UNL     1     -16.212   8.887  14.617  1.00  0.00    -0.744 OA
ENDBRANCH  68  71
ENDBRANCH  50  64
BRANCH  51  75
ATOM     75  C   UNL     1      -4.127  12.855  15.171  1.00  0.00     0.023 A 
ATOM     76  C   UNL     1      -3.303  13.130  16.280  1.00  0.00     0.012 A 
ATOM     77  C   UNL     1      -3.740  13.313  13.897  1.00  0.00     0.148 A 
ATOM     78  C   UNL     1      -2.133  13.874  16.130  1.00  0.00     0.002 A 
ATOM     79  C   UNL     1      -2.545  14.007  13.746  1.00  0.00     0.091 A 
ATOM     80  F   UNL     1      -4.543  13.052  12.856  1.00  0.00    -0.205 F 
ATOM     81  C   UNL     1      -1.748  14.303  14.863  1.00  0.00     0.022 A 
BRANCH  79  82
ATOM     82  S   UNL     1      -1.910  14.476  12.132  1.00  0.00     0.127 S 
ATOM     83  O   UNL     1      -2.188  15.909  12.105  1.00  0.00    -0.237 OA
ATOM     84  O   UNL     1      -0.493  14.125  12.246  1.00  0.00    -0.237 OA
ATOM     85  O   UNL     1      -2.649  13.664  11.174  1.00  0.00    -0.744 OA
ENDBRANCH  79  82
ENDBRANCH  51  75
BRANCH  63  86
ATOM     86  C   UNL     1     -10.076  13.950  18.647  1.00  0.00     0.023 A 
ATOM     87  C   UNL     1     -10.460  15.144  18.004  1.00  0.00     0.012 A 
ATOM     88  C   UNL     1     -10.212  13.844  20.044  1.00  0.00     0.148 A 
ATOM     89  C   UNL     1     -10.933  16.228  18.742  1.00  0.00     0.002 A 
ATOM     90  C   UNL     1     -10.727  14.913  20.769  1.00  0.00     0.091 A 
ATOM     91  F   UNL     1      -9.821  12.710  20.645  1.00  0.00    -0.205 F 
ATOM     92  C   UNL     1     -11.077  16.109  20.123  1.00  0.00     0.022 A 
BRANCH  90  93
ATOM     93  S   UNL     1     -11.027  14.800  22.537  1.00  0.00     0.127 S 
ATOM     94  O   UNL     1      -9.833  15.441  23.085  1.00  0.00    -0.237 OA
ATOM     95  O   UNL     1     -12.261  15.571  22.701  1.00  0.00    -0.237 OA
ATOM     96  O   UNL     1     -11.170  13.378  22.819  1.00  0.00    -0.744 OA
ENDBRANCH  90  93
ENDBRANCH  63  86
ENDBRANCH  37  38
ENDBRANCH  29  32
ENDBRANCH  27  28
ENDBRANCH  26  27
ENDBRANCH   1  26
TORSDOF 19
