REMARK SMILES C#Cc1ccc2c(c1)C=C(C(=O)NCCCCNC(=O)c1ccc(-c3c4nc(c(-c5cccc(S(=O)(=O)[O-])c5F)c5ccc([nH]5)c(-c5cccc(S(=O)(=O)[O-])c5F)c5nc(c(-c6cccc(S(=O)(=O)[O-])c6F)c6ccc3[nH]6)C=C5)C=C4)cc1)[C@@H](C(F)(F)F)O2
REMARK SMILES IDX 16 1 15 2 14 3 13 4 11 5 12 6 10 8 3 9 4 10 8 11 5 12 7 13
REMARK SMILES IDX 6 14 9 15 89 16 84 17 2 18 1 19 85 20 86 21 87 22 88 23
REMARK SMILES IDX 17 24 18 25 19 26 20 28 21 29 22 30 83 31 23 32 82 33 24 34
REMARK SMILES IDX 25 35 26 36 76 37 27 38 81 39 75 40 77 41 28 42 80 43 74 44
REMARK SMILES IDX 73 45 29 47 61 48 41 49 60 50 42 51 45 52 59 53 78 54 43 55
REMARK SMILES IDX 44 56 58 58 79 59 46 60 30 61 31 62 39 63 32 64 34 65 40 66
REMARK SMILES IDX 33 67 35 68 36 69 37 70 38 71 62 72 63 73 71 74 64 75 66 76
REMARK SMILES IDX 72 77 65 78 67 79 68 80 69 81 70 82 47 83 48 84 56 85 49 86
REMARK SMILES IDX 51 87 57 88 50 89 52 90 53 91 54 92 55 93
REMARK H PARENT 13 7 18 27 77 46 45 57
REMARK Flexibility Score: inf
ROOT
ATOM      1  C   UNL     1     -10.946   3.471   1.632  1.00  0.00     0.023 C 
ENDROOT
BRANCH   1   2
ATOM      2  C   UNL     1      -9.886   2.392   1.471  1.00  0.00     0.023 C 
BRANCH   2   3
ATOM      3  C   UNL     1      -9.139   2.480   0.147  1.00  0.00     0.116 C 
BRANCH   3   4
ATOM      4  N   UNL     1      -8.042   3.433   0.194  1.00  0.00    -0.352 N 
ATOM      5  C   UNL     1      -6.689   3.388   0.114  1.00  0.00     0.251 C 
ATOM      6  O   UNL     1      -6.110   4.478   0.149  1.00  0.00    -0.270 OA
ATOM      7  H   UNL     1      -8.368   4.355   0.315  1.00  0.00     0.163 HD
BRANCH   5   8
ATOM      8  C   UNL     1      -5.889   2.131  -0.003  1.00  0.00     0.067 C 
ATOM      9  C   UNL     1      -1.582  -0.067  -0.014  1.00  0.00     0.025 A 
ATOM     10  C   UNL     1      -2.219  -1.310  -0.015  1.00  0.00     0.021 A 
ATOM     11  C   UNL     1      -2.335   1.114   0.009  1.00  0.00     0.029 A 
ATOM     12  C   UNL     1      -3.607  -1.376   0.003  1.00  0.00     0.048 A 
ATOM     13  C   UNL     1      -3.732   1.050   0.027  1.00  0.00     0.018 A 
ATOM     14  C   UNL     1      -4.352  -0.201   0.016  1.00  0.00     0.128 A 
ATOM     15  C   UNL     1      -4.554   2.253   0.113  1.00  0.00     0.025 C 
ATOM     16  O   UNL     1      -5.701  -0.366   0.063  1.00  0.00    -0.475 OA
ATOM     17  C   UNL     1      -6.510   0.790  -0.258  1.00  0.00     0.314 C 
BRANCH   9  18
ATOM     18  C   UNL     1      -0.154  -0.018  -0.022  1.00  0.00    -0.070 C 
ATOM     19  C   UNL     1       1.048  -0.013  -0.023  1.00  0.00     0.010 C 
ENDBRANCH   9  18
BRANCH  17  20
ATOM     20  C   UNL     1      -7.030   0.650  -1.702  1.00  0.00     0.429 C 
ATOM     21  F   UNL     1      -7.938  -0.355  -1.781  1.00  0.00    -0.167 F 
ATOM     22  F   UNL     1      -7.655   1.764  -2.151  1.00  0.00    -0.167 F 
ATOM     23  F   UNL     1      -6.043   0.374  -2.584  1.00  0.00    -0.167 F 
ENDBRANCH  17  20
ENDBRANCH   5   8
ENDBRANCH   3   4
ENDBRANCH   2   3
ENDBRANCH   1   2
BRANCH   1  24
ATOM     24  C   UNL     1     -11.956   3.536   0.494  1.00  0.00     0.116 C 
BRANCH  24  25
ATOM     25  N   UNL     1     -12.659   2.280   0.252  1.00  0.00    -0.352 N 
ATOM     26  C   UNL     1     -14.007   2.105   0.014  1.00  0.00     0.251 C 
ATOM     27  H   UNL     1     -12.109   1.464   0.259  1.00  0.00     0.163 HD
ATOM     28  O   UNL     1     -14.495   0.985  -0.068  1.00  0.00    -0.269 OA
BRANCH  26  29
ATOM     29  C   UNL     1     -14.843   3.318  -0.085  1.00  0.00     0.039 A 
ATOM     30  C   UNL     1     -14.419   4.361  -0.908  1.00  0.00     0.014 A 
ATOM     31  C   UNL     1     -15.920   3.483   0.786  1.00  0.00     0.014 A 
ATOM     32  C   UNL     1     -14.915   5.635  -0.684  1.00  0.00     0.010 A 
ATOM     33  C   UNL     1     -16.508   4.744   0.909  1.00  0.00     0.010 A 
ATOM     34  C   UNL     1     -15.966   5.845   0.227  1.00  0.00    -0.014 A 
BRANCH  34  35
ATOM     35  C   UNL     1     -16.477   7.226   0.432  1.00  0.00     0.031 A 
ATOM     36  C   UNL     1     -16.447   7.885   1.787  1.00  0.00     0.074 A 
ATOM     37  C   UNL     1     -16.932   7.908  -0.638  1.00  0.00     0.049 A 
ATOM     38  N   UNL     1     -16.847   9.087   2.118  1.00  0.00    -0.248 NA
ATOM     39  C   UNL     1     -15.904   7.110   2.916  1.00  0.00     0.031 C 
ATOM     40  C   UNL     1     -17.016   7.377  -2.002  1.00  0.00     0.029 A 
ATOM     41  N   UNL     1     -17.395   9.193  -0.756  1.00  0.00    -0.354 N 
ATOM     42  C   UNL     1     -16.647   9.197   3.489  1.00  0.00     0.074 A 
ATOM     43  C   UNL     1     -16.090   7.939   3.936  1.00  0.00     0.031 C 
ATOM     44  C   UNL     1     -17.455   8.338  -2.825  1.00  0.00     0.029 A 
ATOM     45  C   UNL     1     -17.762   9.526  -2.038  1.00  0.00     0.049 A 
ATOM     46  H   UNL     1     -17.459   9.816   0.003  1.00  0.00     0.167 HD
ATOM     47  C   UNL     1     -16.892  10.255   4.297  1.00  0.00     0.034 A 
ATOM     48  C   UNL     1     -18.314  10.648  -2.534  1.00  0.00     0.034 A 
ATOM     49  C   UNL     1     -17.408  11.518   3.843  1.00  0.00     0.049 A 
ATOM     50  C   UNL     1     -18.595  11.794  -1.613  1.00  0.00     0.074 A 
ATOM     51  C   UNL     1     -17.642  12.661   4.588  1.00  0.00     0.029 A 
ATOM     52  N   UNL     1     -17.775  11.806   2.539  1.00  0.00    -0.354 N 
ATOM     53  N   UNL     1     -18.337  11.896  -0.333  1.00  0.00    -0.248 NA
ATOM     54  C   UNL     1     -19.227  12.983  -2.200  1.00  0.00     0.031 C 
ATOM     55  C   UNL     1     -18.182  13.630   3.740  1.00  0.00     0.029 A 
ATOM     56  C   UNL     1     -18.248  13.104   2.461  1.00  0.00     0.049 A 
ATOM     57  H   UNL     1     -17.709  11.181   1.782  1.00  0.00     0.167 HD
ATOM     58  C   UNL     1     -18.757  13.165   0.038  1.00  0.00     0.074 A 
ATOM     59  C   UNL     1     -19.274  13.802  -1.156  1.00  0.00     0.031 C 
ATOM     60  C   UNL     1     -18.723  13.742   1.262  1.00  0.00     0.034 A 
BRANCH  47  61
ATOM     61  C   UNL     1     -16.580  10.130   5.764  1.00  0.00     0.023 A 
ATOM     62  C   UNL     1     -15.246  10.240   6.202  1.00  0.00     0.012 A 
ATOM     63  C   UNL     1     -17.619  10.047   6.713  1.00  0.00     0.148 A 
ATOM     64  C   UNL     1     -14.949  10.271   7.564  1.00  0.00     0.002 A 
ATOM     65  C   UNL     1     -17.318  10.104   8.069  1.00  0.00     0.091 A 
ATOM     66  F   UNL     1     -18.879   9.941   6.270  1.00  0.00    -0.205 F 
ATOM     67  C   UNL     1     -15.984  10.216   8.495  1.00  0.00     0.022 A 
BRANCH  65  68
ATOM     68  S   UNL     1     -18.577  10.079   9.349  1.00  0.00     0.127 S 
ATOM     69  O   UNL     1     -18.255   8.837  10.052  1.00  0.00    -0.237 OA
ATOM     70  O   UNL     1     -18.277  11.299  10.098  1.00  0.00    -0.237 OA
ATOM     71  O   UNL     1     -19.859  10.080   8.658  1.00  0.00    -0.744 OA
ENDBRANCH  65  68
ENDBRANCH  47  61
BRANCH  48  72
ATOM     72  C   UNL     1     -18.611  10.723  -3.988  1.00  0.00     0.023 A 
ATOM     73  C   UNL     1     -17.787  11.498  -4.824  1.00  0.00     0.012 A 
ATOM     74  C   UNL     1     -19.647   9.954  -4.553  1.00  0.00     0.148 A 
ATOM     75  C   UNL     1     -17.991  11.508  -6.203  1.00  0.00     0.002 A 
ATOM     76  C   UNL     1     -19.822   9.940  -5.930  1.00  0.00     0.091 A 
ATOM     77  F   UNL     1     -20.408   9.217  -3.732  1.00  0.00    -0.205 F 
ATOM     78  C   UNL     1     -19.000  10.722  -6.757  1.00  0.00     0.022 A 
BRANCH  76  79
ATOM     79  S   UNL     1     -21.038   8.897  -6.742  1.00  0.00     0.127 S 
ATOM     80  O   UNL     1     -21.905   9.890  -7.373  1.00  0.00    -0.237 OA
ATOM     81  O   UNL     1     -20.203   8.130  -7.665  1.00  0.00    -0.237 OA
ATOM     82  O   UNL     1     -21.658   8.111  -5.685  1.00  0.00    -0.744 OA
ENDBRANCH  76  79
ENDBRANCH  48  72
BRANCH  60  83
ATOM     83  C   UNL     1     -19.230  15.150   1.397  1.00  0.00     0.023 A 
ATOM     84  C   UNL     1     -20.616  15.389   1.439  1.00  0.00     0.012 A 
ATOM     85  C   UNL     1     -18.331  16.211   1.621  1.00  0.00     0.148 A 
ATOM     86  C   UNL     1     -21.102  16.669   1.702  1.00  0.00     0.002 A 
ATOM     87  C   UNL     1     -18.821  17.476   1.914  1.00  0.00     0.091 A 
ATOM     88  F   UNL     1     -17.016  15.951   1.574  1.00  0.00    -0.205 F 
ATOM     89  C   UNL     1     -20.206  17.707   1.953  1.00  0.00     0.022 A 
BRANCH  87  90
ATOM     90  S   UNL     1     -17.751  18.864   2.304  1.00  0.00     0.127 S 
ATOM     91  O   UNL     1     -18.034  19.776   1.197  1.00  0.00    -0.237 OA
ATOM     92  O   UNL     1     -18.269  19.297   3.601  1.00  0.00    -0.237 OA
ATOM     93  O   UNL     1     -16.393  18.335   2.333  1.00  0.00    -0.744 OA
ENDBRANCH  87  90
ENDBRANCH  60  83
ENDBRANCH  34  35
ENDBRANCH  26  29
ENDBRANCH  24  25
ENDBRANCH   1  24
TORSDOF 16
