REMARK SMILES Cc1ccc(S(=O)(=O)N2CCCC2)cc1C(=O)N[C@H](CC1=c2ccccc2=NC1)C(=O)NCCCCNC(=O)c1ccc(-c2c3nc(c(-c4cccc(S(=O)(=O)[O-])c4F)c4ccc([nH]4)c(-c4cccc(S(=O)(=O)[O-])c4F)c4nc(c(-c5cccc(S(=O)(=O)[O-])c5F)c5ccc2[nH]5)C=C4)C=C3)cc1
REMARK SMILES IDX 34 1 33 2 32 3 30 4 31 5 19 7 18 8 16 9 17 10 15 12 1 13
REMARK SMILES IDX 2 14 3 15 4 16 14 17 5 18 6 19 7 20 8 21 9 22 10 23 13 24
REMARK SMILES IDX 11 25 12 26 20 27 21 28 22 29 29 30 23 31 27 32 28 33 24 34
REMARK SMILES IDX 26 35 25 36 35 37 36 38 37 39 38 40 39 42 40 43 41 44 102 45
REMARK SMILES IDX 42 46 101 47 43 48 44 49 45 50 95 51 46 52 100 53 94 54
REMARK SMILES IDX 96 55 47 56 99 57 93 58 92 59 48 61 80 62 60 63 79 64 61 65
REMARK SMILES IDX 64 66 78 67 97 68 62 69 63 70 77 72 98 73 65 74 49 75 50 76
REMARK SMILES IDX 58 77 51 78 53 79 59 80 52 81 54 82 55 83 56 84 57 85 81 86
REMARK SMILES IDX 82 87 90 88 83 89 85 90 91 91 84 92 86 93 87 94 88 95 89 96
REMARK SMILES IDX 66 97 67 98 75 99 68 100 70 101 76 102 69 103 71 104 72 105
REMARK SMILES IDX 73 106 74 107
REMARK H PARENT 32 6 18 11 37 41 96 60 64 71
REMARK Flexibility Score: inf
ROOT
ATOM      1  C   UNL     1       5.354   4.341   1.661  1.00  0.00     0.023 C 
ENDROOT
BRANCH   1   2
ATOM      2  C   UNL     1       5.830   3.003   1.093  1.00  0.00     0.116 C 
BRANCH   2   3
ATOM      3  N   UNL     1       5.124   1.866   1.647  1.00  0.00    -0.354 N 
ATOM      4  C   UNL     1       4.157   1.042   1.183  1.00  0.00     0.242 C 
ATOM      5  O   UNL     1       3.965   0.036   1.881  1.00  0.00    -0.273 OA
ATOM      6  H   UNL     1       5.410   1.645   2.563  1.00  0.00     0.163 HD
BRANCH   4   7
ATOM      7  C   UNL     1       3.249   1.274  -0.064  1.00  0.00     0.175 C 
BRANCH   7   8
ATOM      8  N   UNL     1       3.738   1.972  -1.298  1.00  0.00    -0.340 N 
ATOM      9  C   UNL     1       3.988   3.157  -1.937  1.00  0.00     0.252 C 
ATOM     10  O   UNL     1       4.470   2.990  -3.068  1.00  0.00    -0.269 OA
ATOM     11  H   UNL     1       3.994   1.262  -1.931  1.00  0.00     0.164 HD
BRANCH   9  12
ATOM     12  C   UNL     1       3.813   4.592  -1.511  1.00  0.00     0.044 A 
ATOM     13  C   UNL     1       2.135   4.300   0.365  1.00  0.00     0.045 C 
ATOM     14  C   UNL     1       2.972   5.108  -0.524  1.00  0.00    -0.038 A 
ATOM     15  C   UNL     1       2.849   6.492  -0.285  1.00  0.00     0.005 A 
ATOM     16  C   UNL     1       3.542   7.403  -1.037  1.00  0.00     0.022 A 
ATOM     17  C   UNL     1       4.547   5.551  -2.251  1.00  0.00     0.035 A 
ATOM     18  C   UNL     1       4.375   6.933  -2.038  1.00  0.00     0.083 A 
BRANCH  18  19
ATOM     19  S   UNL     1       5.143   8.206  -2.999  1.00  0.00     0.243 S 
ATOM     20  O   UNL     1       4.082   8.907  -3.685  1.00  0.00    -0.207 OA
ATOM     21  O   UNL     1       6.038   8.891  -2.088  1.00  0.00    -0.207 OA
BRANCH  19  22
ATOM     22  N   UNL     1       6.057   7.402  -4.138  1.00  0.00    -0.198 NA
ATOM     23  C   UNL     1       5.383   6.750  -5.273  1.00  0.00     0.102 C 
ATOM     24  C   UNL     1       7.182   8.164  -4.729  1.00  0.00     0.102 C 
ATOM     25  C   UNL     1       6.585   6.175  -5.999  1.00  0.00     0.018 C 
ATOM     26  C   UNL     1       7.612   7.303  -5.920  1.00  0.00     0.018 C 
ENDBRANCH  19  22
ENDBRANCH  18  19
ENDBRANCH   9  12
ENDBRANCH   7   8
BRANCH   7  27
ATOM     27  C   UNL     1       1.680   1.270   0.194  1.00  0.00     0.068 C 
BRANCH  27  28
ATOM     28  C   UNL     1       1.110   1.388   1.603  1.00  0.00    -0.037 C 
ATOM     29  C   UNL     1       0.973   0.418   2.506  1.00  0.00     0.001 A 
ATOM     30  C   UNL     1       0.505   2.645   2.177  1.00  0.00     0.174 C 
ATOM     31  C   UNL     1       1.272  -0.973   2.543  1.00  0.00     0.010 A 
ATOM     32  C   UNL     1       0.387   1.098   3.675  1.00  0.00     0.065 A 
ATOM     33  N   UNL     1       0.004   2.326   3.531  1.00  0.00    -0.280 NA
ATOM     34  C   UNL     1       1.126  -1.631   3.704  1.00  0.00     0.001 A 
ATOM     35  C   UNL     1       0.304   0.331   4.928  1.00  0.00     0.028 A 
ATOM     36  C   UNL     1       0.685  -0.956   4.913  1.00  0.00     0.002 A 
ENDBRANCH  27  28
ENDBRANCH   7  27
ENDBRANCH   4   7
ENDBRANCH   2   3
ENDBRANCH   1   2
BRANCH   1  37
ATOM     37  C   UNL     1       5.703   4.704   3.110  1.00  0.00     0.023 C 
BRANCH  37  38
ATOM     38  C   UNL     1       7.068   5.343   3.348  1.00  0.00     0.116 C 
BRANCH  38  39
ATOM     39  N   UNL     1       7.265   6.567   2.561  1.00  0.00    -0.352 N 
ATOM     40  C   UNL     1       8.431   7.122   2.052  1.00  0.00     0.251 C 
ATOM     41  H   UNL     1       6.443   7.072   2.363  1.00  0.00     0.163 HD
ATOM     42  O   UNL     1       8.476   8.326   1.835  1.00  0.00    -0.269 OA
BRANCH  40  43
ATOM     43  C   UNL     1       9.557   6.232   1.721  1.00  0.00     0.039 A 
ATOM     44  C   UNL     1      10.890   6.638   1.595  1.00  0.00     0.014 A 
ATOM     45  C   UNL     1       9.206   4.925   1.436  1.00  0.00     0.014 A 
ATOM     46  C   UNL     1      11.831   5.716   1.131  1.00  0.00     0.010 A 
ATOM     47  C   UNL     1      10.154   3.969   1.344  1.00  0.00     0.010 A 
ATOM     48  C   UNL     1      11.422   4.395   0.974  1.00  0.00    -0.014 A 
BRANCH  48  49
ATOM     49  C   UNL     1      12.123   3.328   0.294  1.00  0.00     0.031 A 
ATOM     50  C   UNL     1      13.227   2.655   0.947  1.00  0.00     0.074 A 
ATOM     51  C   UNL     1      11.437   2.795  -0.744  1.00  0.00     0.049 A 
ATOM     52  N   UNL     1      14.001   1.831   0.346  1.00  0.00    -0.248 NA
ATOM     53  C   UNL     1      13.535   2.849   2.355  1.00  0.00     0.031 C 
ATOM     54  C   UNL     1      11.451   1.469  -1.333  1.00  0.00     0.029 A 
ATOM     55  N   UNL     1      10.503   3.468  -1.521  1.00  0.00    -0.354 N 
ATOM     56  C   UNL     1      14.635   1.117   1.334  1.00  0.00     0.074 A 
ATOM     57  C   UNL     1      14.468   1.910   2.529  1.00  0.00     0.031 C 
ATOM     58  C   UNL     1      10.816   1.520  -2.523  1.00  0.00     0.029 A 
ATOM     59  C   UNL     1      10.532   2.921  -2.801  1.00  0.00     0.049 A 
ATOM     60  H   UNL     1       9.922   4.204  -1.220  1.00  0.00     0.167 HD
ATOM     61  C   UNL     1      15.015  -0.159   1.042  1.00  0.00     0.034 A 
ATOM     62  C   UNL     1      11.097   3.712  -3.770  1.00  0.00     0.034 A 
ATOM     63  C   UNL     1      14.714  -0.475  -0.377  1.00  0.00     0.049 A 
ATOM     64  C   UNL     1      12.447   3.170  -4.216  1.00  0.00     0.074 A 
ATOM     65  C   UNL     1      13.745  -1.213  -1.038  1.00  0.00     0.029 A 
ATOM     66  N   UNL     1      15.300   0.310  -1.355  1.00  0.00    -0.354 N 
ATOM     67  N   UNL     1      12.996   2.086  -3.736  1.00  0.00    -0.248 NA
ATOM     68  C   UNL     1      13.303   3.818  -5.205  1.00  0.00     0.031 C 
ATOM     69  C   UNL     1      13.725  -0.795  -2.413  1.00  0.00     0.029 A 
ATOM     70  C   UNL     1      14.698   0.175  -2.592  1.00  0.00     0.049 A 
ATOM     71  H   UNL     1      16.067   0.904  -1.186  1.00  0.00     0.167 HD
ATOM     72  C   UNL     1      14.285   1.976  -4.170  1.00  0.00     0.074 A 
ATOM     73  C   UNL     1      14.416   3.065  -5.130  1.00  0.00     0.031 C 
ATOM     74  C   UNL     1      15.160   1.042  -3.680  1.00  0.00     0.034 A 
BRANCH  61  75
ATOM     75  C   UNL     1      15.404  -1.216   2.062  1.00  0.00     0.023 A 
ATOM     76  C   UNL     1      15.431  -2.553   1.607  1.00  0.00     0.012 A 
ATOM     77  C   UNL     1      15.727  -1.027   3.428  1.00  0.00     0.148 A 
ATOM     78  C   UNL     1      15.693  -3.634   2.454  1.00  0.00     0.002 A 
ATOM     79  C   UNL     1      15.947  -2.108   4.288  1.00  0.00     0.091 A 
ATOM     80  F   UNL     1      15.899   0.199   3.918  1.00  0.00    -0.205 F 
ATOM     81  C   UNL     1      15.930  -3.415   3.802  1.00  0.00     0.022 A 
BRANCH  79  82
ATOM     82  S   UNL     1      16.228  -1.904   6.059  1.00  0.00     0.127 S 
ATOM     83  O   UNL     1      15.217  -2.795   6.632  1.00  0.00    -0.237 OA
ATOM     84  O   UNL     1      17.605  -2.370   6.211  1.00  0.00    -0.237 OA
ATOM     85  O   UNL     1      16.010  -0.492   6.352  1.00  0.00    -0.744 OA
ENDBRANCH  79  82
ENDBRANCH  61  75
BRANCH  62  86
ATOM     86  C   UNL     1      10.736   5.172  -3.529  1.00  0.00     0.023 A 
ATOM     87  C   UNL     1       9.353   5.432  -3.311  1.00  0.00     0.012 A 
ATOM     88  C   UNL     1      11.659   6.128  -3.063  1.00  0.00     0.148 A 
ATOM     89  C   UNL     1       8.937   6.451  -2.451  1.00  0.00     0.002 A 
ATOM     90  C   UNL     1      11.217   7.204  -2.281  1.00  0.00     0.091 A 
ATOM     91  F   UNL     1      12.958   5.968  -3.342  1.00  0.00    -0.205 F 
ATOM     92  C   UNL     1       9.869   7.332  -1.923  1.00  0.00     0.022 A 
BRANCH  90  93
ATOM     93  S   UNL     1      12.384   8.416  -1.645  1.00  0.00     0.127 S 
ATOM     94  O   UNL     1      12.531   9.309  -2.792  1.00  0.00    -0.237 OA
ATOM     95  O   UNL     1      11.684   9.007  -0.505  1.00  0.00    -0.237 OA
ATOM     96  O   UNL     1      13.557   7.634  -1.278  1.00  0.00    -0.744 OA
ENDBRANCH  90  93
ENDBRANCH  62  86
BRANCH  74  97
ATOM     97  C   UNL     1      16.572   0.890  -4.208  1.00  0.00     0.023 A 
ATOM     98  C   UNL     1      16.833   1.023  -5.585  1.00  0.00     0.012 A 
ATOM     99  C   UNL     1      17.655   0.476  -3.390  1.00  0.00     0.148 A 
ATOM    100  C   UNL     1      18.116   0.839  -6.110  1.00  0.00     0.002 A 
ATOM    101  C   UNL     1      18.895   0.175  -3.933  1.00  0.00     0.091 A 
ATOM    102  F   UNL     1      17.517   0.424  -2.063  1.00  0.00    -0.205 F 
ATOM    103  C   UNL     1      19.143   0.396  -5.287  1.00  0.00     0.022 A 
BRANCH 101 104
ATOM    104  S   UNL     1      20.191  -0.618  -2.968  1.00  0.00     0.127 S 
ATOM    105  O   UNL     1      20.526  -1.766  -3.814  1.00  0.00    -0.237 OA
ATOM    106  O   UNL     1      21.211   0.426  -2.923  1.00  0.00    -0.237 OA
ATOM    107  O   UNL     1      19.588  -0.971  -1.691  1.00  0.00    -0.744 OA
ENDBRANCH 101 104
ENDBRANCH  74  97
ENDBRANCH  48  49
ENDBRANCH  40  43
ENDBRANCH  38  39
ENDBRANCH  37  38
ENDBRANCH   1  37
TORSDOF 20
