REMARK SMILES CCOc1cc(N2CCC[C@@H](C(=O)NCCCCNC(=O)c3ccc(-c4c5nc(c(-c6cccc(S(=O)(=O)[O-])c6F)c6ccc([nH]6)c(-c6cccc(S(=O)(=O)[O-])c6F)c6nc(c(-c7cccc(S(=O)(=O)[O-])c7F)c7ccc4[nH]7)C=C6)C=C5)cc3)C2)nc(SC)n1
REMARK SMILES IDX 16 1 15 2 14 3 12 4 13 5 11 7 7 8 8 9 85 10 9 11 10 12 6 13
REMARK SMILES IDX 4 14 5 15 90 16 87 17 86 18 3 19 2 20 1 21 88 22 89 23 17 24
REMARK SMILES IDX 18 25 19 26 20 27 21 29 22 30 23 31 84 32 24 33 83 34 25 35
REMARK SMILES IDX 26 36 27 37 77 38 28 39 82 40 76 41 78 42 29 43 81 44 75 45
REMARK SMILES IDX 74 46 30 48 62 49 42 50 61 51 43 52 46 53 60 54 79 55 44 56
REMARK SMILES IDX 45 57 59 59 80 60 47 61 31 62 32 63 40 64 33 65 35 66 41 67
REMARK SMILES IDX 34 68 36 69 37 70 38 71 39 72 63 73 64 74 72 75 65 76 67 77
REMARK SMILES IDX 73 78 66 79 68 80 69 81 70 82 71 83 48 84 49 85 57 86 50 87
REMARK SMILES IDX 52 88 58 89 51 90 53 91 54 92 55 93 56 94
REMARK H PARENT 14 6 19 28 78 47 46 58
REMARK Flexibility Score: inf
ROOT
ATOM      1  C   UNL     1       5.820   4.502   1.707  1.00  0.00     0.023 C 
ENDROOT
BRANCH   1   2
ATOM      2  C   UNL     1       6.866   3.410   1.904  1.00  0.00     0.116 C 
BRANCH   2   3
ATOM      3  N   UNL     1       6.863   2.845   3.241  1.00  0.00    -0.356 N 
ATOM      4  C   UNL     1       7.007   1.554   3.656  1.00  0.00     0.224 C 
ATOM      5  O   UNL     1       7.071   1.343   4.869  1.00  0.00    -0.275 OA
ATOM      6  H   UNL     1       6.738   3.499   3.966  1.00  0.00     0.163 HD
BRANCH   4   7
ATOM      7  C   UNL     1       7.028   0.395   2.674  1.00  0.00     0.098 C 
ATOM      8  N   UNL     1       5.673  -0.680   0.946  1.00  0.00    -0.356 N 
ATOM      9  C   UNL     1       6.637  -0.425  -0.108  1.00  0.00     0.118 C 
ATOM     10  C   UNL     1       5.627   0.239   2.070  1.00  0.00     0.131 C 
ATOM     11  C   UNL     1       8.036  -0.488   0.483  1.00  0.00     0.022 C 
ATOM     12  C   UNL     1       8.200   0.452   1.678  1.00  0.00     0.017 C 
BRANCH   8  13
ATOM     13  C   UNL     1       4.723  -1.652   0.752  1.00  0.00     0.137 A 
ATOM     14  C   UNL     1       2.516  -2.390   0.608  1.00  0.00     0.219 A 
ATOM     15  C   UNL     1       3.391  -1.393   0.956  1.00  0.00     0.115 A 
ATOM     16  N   UNL     1       2.885  -3.620   0.233  1.00  0.00    -0.187 NA
ATOM     17  C   UNL     1       4.207  -3.811   0.154  1.00  0.00     0.192 A 
ATOM     18  N   UNL     1       5.135  -2.857   0.335  1.00  0.00    -0.205 NA
BRANCH  14  19
ATOM     19  O   UNL     1       1.165  -2.151   0.690  1.00  0.00    -0.478 OA
BRANCH  19  20
ATOM     20  C   UNL     1       0.702  -1.420  -0.455  1.00  0.00     0.228 C 
ATOM     21  C   UNL     1       0.723   0.082  -0.200  1.00  0.00     0.049 C 
ENDBRANCH  19  20
ENDBRANCH  14  19
BRANCH  17  22
ATOM     22  S   UNL     1       4.770  -5.463  -0.192  1.00  0.00    -0.089 SA
ATOM     23  C   UNL     1       6.464  -5.348   0.448  1.00  0.00     0.094 C 
ENDBRANCH  17  22
ENDBRANCH   8  13
ENDBRANCH   4   7
ENDBRANCH   2   3
ENDBRANCH   1   2
BRANCH   1  24
ATOM     24  C   UNL     1       5.987   5.737   2.589  1.00  0.00     0.023 C 
BRANCH  24  25
ATOM     25  C   UNL     1       7.370   6.382   2.568  1.00  0.00     0.116 C 
BRANCH  25  26
ATOM     26  N   UNL     1       7.788   6.791   1.236  1.00  0.00    -0.352 N 
ATOM     27  C   UNL     1       8.178   8.025   0.770  1.00  0.00     0.251 C 
ATOM     28  H   UNL     1       7.793   6.072   0.563  1.00  0.00     0.163 HD
ATOM     29  O   UNL     1       8.360   8.181  -0.432  1.00  0.00    -0.269 OA
BRANCH  27  30
ATOM     30  C   UNL     1       8.349   9.164   1.702  1.00  0.00     0.039 A 
ATOM     31  C   UNL     1       7.867  10.419   1.319  1.00  0.00     0.014 A 
ATOM     32  C   UNL     1       8.977   9.010   2.940  1.00  0.00     0.014 A 
ATOM     33  C   UNL     1       7.951  11.495   2.206  1.00  0.00     0.010 A 
ATOM     34  C   UNL     1       8.978  10.060   3.857  1.00  0.00     0.010 A 
ATOM     35  C   UNL     1       8.468  11.316   3.501  1.00  0.00    -0.014 A 
BRANCH  35  36
ATOM     36  C   UNL     1       8.445  12.429   4.489  1.00  0.00     0.031 A 
ATOM     37  C   UNL     1       9.721  12.972   5.076  1.00  0.00     0.074 A 
ATOM     38  C   UNL     1       7.258  12.916   4.905  1.00  0.00     0.049 A 
ATOM     39  N   UNL     1       9.882  13.952   5.928  1.00  0.00    -0.248 NA
ATOM     40  C   UNL     1      10.977  12.317   4.677  1.00  0.00     0.031 C 
ATOM     41  C   UNL     1       5.946  12.413   4.489  1.00  0.00     0.029 A 
ATOM     42  N   UNL     1       6.959  13.931   5.780  1.00  0.00    -0.354 N 
ATOM     43  C   UNL     1      11.246  14.014   6.187  1.00  0.00     0.074 A 
ATOM     44  C   UNL     1      11.865  12.946   5.434  1.00  0.00     0.031 C 
ATOM     45  C   UNL     1       4.986  13.135   5.089  1.00  0.00     0.029 A 
ATOM     46  C   UNL     1       5.609  14.129   5.956  1.00  0.00     0.049 A 
ATOM     47  H   UNL     1       7.646  14.466   6.238  1.00  0.00     0.167 HD
ATOM     48  C   UNL     1      11.927  14.898   6.956  1.00  0.00     0.034 A 
ATOM     49  C   UNL     1       4.944  15.011   6.728  1.00  0.00     0.034 A 
ATOM     50  C   UNL     1      11.313  15.978   7.681  1.00  0.00     0.049 A 
ATOM     51  C   UNL     1       5.726  16.007   7.540  1.00  0.00     0.074 A 
ATOM     52  C   UNL     1      11.925  16.980   8.414  1.00  0.00     0.029 A 
ATOM     53  N   UNL     1       9.947  16.192   7.780  1.00  0.00    -0.354 N 
ATOM     54  N   UNL     1       7.024  16.159   7.632  1.00  0.00    -0.248 NA
ATOM     55  C   UNL     1       4.950  16.980   8.322  1.00  0.00     0.031 C 
ATOM     56  C   UNL     1      10.928  17.777   8.985  1.00  0.00     0.029 A 
ATOM     57  C   UNL     1       9.695  17.298   8.574  1.00  0.00     0.049 A 
ATOM     58  H   UNL     1       9.257  15.638   7.348  1.00  0.00     0.167 HD
ATOM     59  C   UNL     1       7.221  17.261   8.456  1.00  0.00     0.074 A 
ATOM     60  C   UNL     1       5.907  17.756   8.811  1.00  0.00     0.031 C 
ATOM     61  C   UNL     1       8.385  17.806   8.891  1.00  0.00     0.034 A 
BRANCH  48  62
ATOM     62  C   UNL     1      13.428  14.762   7.018  1.00  0.00     0.023 A 
ATOM     63  C   UNL     1      14.204  15.072   5.882  1.00  0.00     0.012 A 
ATOM     64  C   UNL     1      14.075  14.393   8.214  1.00  0.00     0.148 A 
ATOM     65  C   UNL     1      15.595  14.980   5.922  1.00  0.00     0.002 A 
ATOM     66  C   UNL     1      15.464  14.350   8.260  1.00  0.00     0.091 A 
ATOM     67  F   UNL     1      13.322  14.084   9.279  1.00  0.00    -0.205 F 
ATOM     68  C   UNL     1      16.224  14.630   7.113  1.00  0.00     0.022 A 
BRANCH  66  69
ATOM     69  S   UNL     1      16.375  13.992   9.767  1.00  0.00     0.127 S 
ATOM     70  O   UNL     1      16.945  12.680   9.461  1.00  0.00    -0.237 OA
ATOM     71  O   UNL     1      17.347  15.085   9.804  1.00  0.00    -0.237 OA
ATOM     72  O   UNL     1      15.396  14.011  10.844  1.00  0.00    -0.744 OA
ENDBRANCH  66  69
ENDBRANCH  48  62
BRANCH  49  73
ATOM     73  C   UNL     1       3.453  15.032   6.721  1.00  0.00     0.023 A 
ATOM     74  C   UNL     1       2.775  16.124   6.143  1.00  0.00     0.012 A 
ATOM     75  C   UNL     1       2.706  13.968   7.261  1.00  0.00     0.148 A 
ATOM     76  C   UNL     1       1.381  16.172   6.137  1.00  0.00     0.002 A 
ATOM     77  C   UNL     1       1.318  13.995   7.198  1.00  0.00     0.091 A 
ATOM     78  F   UNL     1       3.370  12.944   7.815  1.00  0.00    -0.205 F 
ATOM     79  C   UNL     1       0.652  15.104   6.655  1.00  0.00     0.022 A 
BRANCH  77  80
ATOM     80  S   UNL     1       0.304  12.604   7.713  1.00  0.00     0.127 S 
ATOM     81  O   UNL     1      -0.347  13.135   8.907  1.00  0.00    -0.237 OA
ATOM     82  O   UNL     1      -0.575  12.429   6.556  1.00  0.00    -0.237 OA
ATOM     83  O   UNL     1       1.231  11.502   7.934  1.00  0.00    -0.744 OA
ENDBRANCH  77  80
ENDBRANCH  49  73
BRANCH  61  84
ATOM     84  C   UNL     1       8.295  19.023   9.776  1.00  0.00     0.023 A 
ATOM     85  C   UNL     1       7.814  18.902  11.095  1.00  0.00     0.012 A 
ATOM     86  C   UNL     1       8.736  20.280   9.315  1.00  0.00     0.148 A 
ATOM     87  C   UNL     1       7.731  20.019  11.926  1.00  0.00     0.002 A 
ATOM     88  C   UNL     1       8.702  21.377  10.166  1.00  0.00     0.091 A 
ATOM     89  F   UNL     1       9.175  20.380   8.052  1.00  0.00    -0.205 F 
ATOM     90  C   UNL     1       8.184  21.253  11.466  1.00  0.00     0.022 A 
BRANCH  88  91
ATOM     91  S   UNL     1       9.355  22.983   9.694  1.00  0.00     0.127 S 
ATOM     92  O   UNL     1       8.131  23.765   9.527  1.00  0.00    -0.237 OA
ATOM     93  O   UNL     1      10.157  23.347  10.863  1.00  0.00    -0.237 OA
ATOM     94  O   UNL     1      10.126  22.761   8.478  1.00  0.00    -0.744 OA
ENDBRANCH  88  91
ENDBRANCH  61  84
ENDBRANCH  35  36
ENDBRANCH  27  30
ENDBRANCH  25  26
ENDBRANCH  24  25
ENDBRANCH   1  24
TORSDOF 18
