REMARK SMILES C[NH+]1CCC([NH+]2CCC(Oc3ccc4ccccc4c3)(C(=O)NCCCCNC(=O)c3ccc(-c4c5nc(c(-c6cccc(S(=O)(=O)[O-])c6F)c6ccc([nH]6)c(-c6cccc(S(=O)(=O)[O-])c6F)c6nc(c(-c7cccc(S(=O)(=O)[O-])c7F)c7ccc4[nH]7)C=C6)C=C5)cc3)CC2)CC1
REMARK SMILES IDX 26 1 25 2 24 3 23 4 21 5 22 6 9 8 6 9 7 10 95 11 8 13 94 14
REMARK SMILES IDX 5 15 1 16 2 17 3 18 97 19 4 21 96 22 10 23 11 24 12 25 20 26
REMARK SMILES IDX 13 27 19 28 14 29 18 30 15 31 17 32 16 33 27 34 28 35 29 36
REMARK SMILES IDX 30 38 31 39 32 40 93 41 33 42 92 43 34 44 35 45 36 46 86 47
REMARK SMILES IDX 37 48 91 49 85 50 87 51 38 52 90 53 84 54 83 55 39 57 71 58
REMARK SMILES IDX 51 59 70 60 52 61 55 62 69 63 88 64 53 65 54 66 68 68 89 69
REMARK SMILES IDX 56 70 40 71 41 72 49 73 42 74 44 75 50 76 43 77 45 78 46 79
REMARK SMILES IDX 47 80 48 81 72 82 73 83 81 84 74 85 76 86 82 87 75 88 77 89
REMARK SMILES IDX 78 90 79 91 80 92 57 93 58 94 66 95 59 96 61 97 67 98 60 99
REMARK SMILES IDX 62 100 63 101 64 102 65 103
REMARK H PARENT 23 7 6 12 2 20 28 37 87 56 55 67
REMARK Flexibility Score: inf
ROOT
ATOM      1  C   UNL     1       3.804  -2.076   6.286  1.00  0.00     0.023 C 
ENDROOT
BRANCH   1   2
ATOM      2  C   UNL     1       4.478  -1.025   5.406  1.00  0.00     0.023 C 
BRANCH   2   3
ATOM      3  C   UNL     1       5.671  -1.541   4.601  1.00  0.00     0.116 C 
BRANCH   3   4
ATOM      4  N   UNL     1       5.251  -2.464   3.564  1.00  0.00    -0.353 N 
ATOM      5  C   UNL     1       5.213  -2.309   2.207  1.00  0.00     0.264 C 
ATOM      6  O   UNL     1       4.874  -3.303   1.555  1.00  0.00    -0.270 OA
ATOM      7  H   UNL     1       4.944  -3.341   3.890  1.00  0.00     0.163 HD
BRANCH   5   8
ATOM      8  C   UNL     1       5.579  -0.953   1.530  1.00  0.00     0.197 C 
ATOM      9  N   UNL     1       3.099  -0.105   0.182  1.00  0.00    -0.332 N 
ATOM     10  C   UNL     1       3.214  -0.102   1.643  1.00  0.00     0.267 C 
ATOM     11  C   UNL     1       3.922  -1.175  -0.413  1.00  0.00     0.267 C 
ATOM     12  H   UNL     1       3.472   0.786  -0.146  1.00  0.00     0.348 HD
ATOM     13  C   UNL     1       4.661   0.175   2.010  1.00  0.00     0.120 C 
ATOM     14  C   UNL     1       5.404  -1.081   0.001  1.00  0.00     0.120 C 
BRANCH   9  15
ATOM     15  C   UNL     1       1.693  -0.128  -0.296  1.00  0.00     0.195 C 
ATOM     16  C   UNL     1      -2.615   0.070  -0.212  1.00  0.00     0.332 C 
ATOM     17  N   UNL     1      -1.197   0.024   0.132  1.00  0.00    -0.337 N 
ATOM     18  C   UNL     1      -0.483   1.181  -0.418  1.00  0.00     0.268 C 
ATOM     19  C   UNL     1      -0.588  -1.231  -0.322  1.00  0.00     0.268 C 
ATOM     20  H   UNL     1      -1.121   0.064   1.148  1.00  0.00     0.347 HD
ATOM     21  C   UNL     1       0.967   1.187   0.060  1.00  0.00     0.126 C 
ATOM     22  C   UNL     1       0.858  -1.336   0.166  1.00  0.00     0.126 C 
ENDBRANCH   9  15
BRANCH   8  23
ATOM     23  O   UNL     1       6.972  -0.827   1.914  1.00  0.00    -0.477 OA
BRANCH  23  24
ATOM     24  C   UNL     1       7.687   0.256   1.502  1.00  0.00     0.121 A 
ATOM     25  C   UNL     1       7.446   1.540   1.977  1.00  0.00     0.047 A 
ATOM     26  C   UNL     1       8.801   0.012   0.701  1.00  0.00     0.055 A 
ATOM     27  C   UNL     1       8.232   2.607   1.545  1.00  0.00     0.012 A 
ATOM     28  C   UNL     1       9.633   1.068   0.294  1.00  0.00    -0.015 A 
ATOM     29  C   UNL     1       9.325   2.387   0.698  1.00  0.00    -0.018 A 
ATOM     30  C   UNL     1      10.772   0.844  -0.496  1.00  0.00     0.009 A 
ATOM     31  C   UNL     1      10.133   3.450   0.267  1.00  0.00     0.009 A 
ATOM     32  C   UNL     1      11.579   1.909  -0.899  1.00  0.00     0.001 A 
ATOM     33  C   UNL     1      11.253   3.211  -0.528  1.00  0.00     0.001 A 
ENDBRANCH  23  24
ENDBRANCH   8  23
ENDBRANCH   5   8
ENDBRANCH   3   4
ENDBRANCH   2   3
ENDBRANCH   1   2
BRANCH   1  34
ATOM     34  C   UNL     1       4.733  -2.781   7.265  1.00  0.00     0.116 C 
BRANCH  34  35
ATOM     35  N   UNL     1       5.433  -1.857   8.144  1.00  0.00    -0.352 N 
ATOM     36  C   UNL     1       5.687  -1.978   9.487  1.00  0.00     0.251 C 
ATOM     37  H   UNL     1       5.768  -1.034   7.719  1.00  0.00     0.163 HD
ATOM     38  O   UNL     1       6.167  -1.032  10.107  1.00  0.00    -0.269 OA
BRANCH  36  39
ATOM     39  C   UNL     1       5.361  -3.240  10.182  1.00  0.00     0.039 A 
ATOM     40  C   UNL     1       4.737  -3.182  11.430  1.00  0.00     0.014 A 
ATOM     41  C   UNL     1       5.663  -4.476   9.604  1.00  0.00     0.014 A 
ATOM     42  C   UNL     1       4.386  -4.366  12.081  1.00  0.00     0.010 A 
ATOM     43  C   UNL     1       5.230  -5.649  10.210  1.00  0.00     0.010 A 
ATOM     44  C   UNL     1       4.613  -5.610  11.468  1.00  0.00    -0.014 A 
BRANCH  44  45
ATOM     45  C   UNL     1       4.250  -6.878  12.150  1.00  0.00     0.031 A 
ATOM     46  C   UNL     1       5.321  -7.877  12.504  1.00  0.00     0.074 A 
ATOM     47  C   UNL     1       2.956  -7.158  12.400  1.00  0.00     0.049 A 
ATOM     48  N   UNL     1       5.202  -9.041  13.089  1.00  0.00    -0.248 NA
ATOM     49  C   UNL     1       6.704  -7.539  12.126  1.00  0.00     0.031 C 
ATOM     50  C   UNL     1       1.819  -6.312  12.031  1.00  0.00     0.029 A 
ATOM     51  N   UNL     1       2.378  -8.243  13.010  1.00  0.00    -0.354 N 
ATOM     52  C   UNL     1       6.481  -9.585  13.116  1.00  0.00     0.074 A 
ATOM     53  C   UNL     1       7.353  -8.647  12.447  1.00  0.00     0.031 C 
ATOM     54  C   UNL     1       0.682  -6.903  12.434  1.00  0.00     0.029 A 
ATOM     55  C   UNL     1       1.006  -8.179  13.065  1.00  0.00     0.049 A 
ATOM     56  H   UNL     1       2.898  -8.996  13.373  1.00  0.00     0.167 HD
ATOM     57  C   UNL     1       6.901 -10.744  13.676  1.00  0.00     0.034 A 
ATOM     58  C   UNL     1       0.110  -9.051  13.567  1.00  0.00     0.034 A 
ATOM     59  C   UNL     1       6.038 -11.656  14.377  1.00  0.00     0.049 A 
ATOM     60  C   UNL     1       0.608 -10.308  14.228  1.00  0.00     0.074 A 
ATOM     61  C   UNL     1       6.377 -12.814  15.053  1.00  0.00     0.029 A 
ATOM     62  N   UNL     1       4.663 -11.516  14.486  1.00  0.00    -0.354 N 
ATOM     63  N   UNL     1       1.840 -10.730  14.383  1.00  0.00    -0.248 NA
ATOM     64  C   UNL     1      -0.407 -11.188  14.825  1.00  0.00     0.031 C 
ATOM     65  C   UNL     1       5.201 -13.392  15.545  1.00  0.00     0.029 A 
ATOM     66  C   UNL     1       4.136 -12.571  15.211  1.00  0.00     0.049 A 
ATOM     67  H   UNL     1       4.139 -10.776  14.104  1.00  0.00     0.167 HD
ATOM     68  C   UNL     1       1.752 -11.901  15.128  1.00  0.00     0.074 A 
ATOM     69  C   UNL     1       0.346 -12.106  15.414  1.00  0.00     0.031 C 
ATOM     70  C   UNL     1       2.741 -12.738  15.529  1.00  0.00     0.034 A 
BRANCH  57  71
ATOM     71  C   UNL     1       8.371 -11.068  13.591  1.00  0.00     0.023 A 
ATOM     72  C   UNL     1       9.300 -10.300  14.324  1.00  0.00     0.012 A 
ATOM     73  C   UNL     1       8.830 -12.158  12.826  1.00  0.00     0.148 A 
ATOM     74  C   UNL     1      10.664 -10.582  14.263  1.00  0.00     0.002 A 
ATOM     75  C   UNL     1      10.186 -12.465  12.811  1.00  0.00     0.091 A 
ATOM     76  F   UNL     1       7.937 -12.865  12.120  1.00  0.00    -0.205 F 
ATOM     77  C   UNL     1      11.105 -11.671  13.516  1.00  0.00     0.022 A 
BRANCH  75  78
ATOM     78  S   UNL     1      10.847 -13.896  11.950  1.00  0.00     0.127 S 
ATOM     79  O   UNL     1      11.598 -13.266  10.865  1.00  0.00    -0.237 OA
ATOM     80  O   UNL     1      11.674 -14.520  12.983  1.00  0.00    -0.237 OA
ATOM     81  O   UNL     1       9.695 -14.684  11.534  1.00  0.00    -0.744 OA
ENDBRANCH  75  78
ENDBRANCH  57  71
BRANCH  58  82
ATOM     82  C   UNL     1      -1.346  -8.734  13.529  1.00  0.00     0.023 A 
ATOM     83  C   UNL     1      -2.027  -8.449  14.729  1.00  0.00     0.012 A 
ATOM     84  C   UNL     1      -2.055  -8.704  12.313  1.00  0.00     0.148 A 
ATOM     85  C   UNL     1      -3.396  -8.181  14.724  1.00  0.00     0.002 A 
ATOM     86  C   UNL     1      -3.407  -8.380  12.309  1.00  0.00     0.091 A 
ATOM     87  F   UNL     1      -1.391  -8.985  11.183  1.00  0.00    -0.205 F 
ATOM     88  C   UNL     1      -4.084  -8.138  13.514  1.00  0.00     0.022 A 
BRANCH  86  89
ATOM     89  S   UNL     1      -4.345  -8.176  10.791  1.00  0.00     0.127 S 
ATOM     90  O   UNL     1      -5.253  -9.319  10.845  1.00  0.00    -0.237 OA
ATOM     91  O   UNL     1      -4.978  -6.874  11.002  1.00  0.00    -0.237 OA
ATOM     92  O   UNL     1      -3.363  -8.200   9.715  1.00  0.00    -0.744 OA
ENDBRANCH  86  89
ENDBRANCH  58  82
BRANCH  70  93
ATOM     93  C   UNL     1       2.347 -13.930  16.363  1.00  0.00     0.023 A 
ATOM     94  C   UNL     1       1.619 -14.990  15.786  1.00  0.00     0.012 A 
ATOM     95  C   UNL     1       2.737 -14.017  17.715  1.00  0.00     0.148 A 
ATOM     96  C   UNL     1       1.242 -16.092  16.553  1.00  0.00     0.002 A 
ATOM     97  C   UNL     1       2.407 -15.144  18.457  1.00  0.00     0.091 A 
ATOM     98  F   UNL     1       3.414 -12.992  18.254  1.00  0.00    -0.205 F 
ATOM     99  C   UNL     1       1.645 -16.174  17.884  1.00  0.00     0.022 A 
BRANCH  97 100
ATOM    100  S   UNL     1       2.972 -15.378  20.146  1.00  0.00     0.127 S 
ATOM    101  O   UNL     1       1.750 -15.125  20.907  1.00  0.00    -0.237 OA
ATOM    102  O   UNL     1       3.406 -16.776  20.137  1.00  0.00    -0.237 OA
ATOM    103  O   UNL     1       4.047 -14.415  20.345  1.00  0.00    -0.744 OA
ENDBRANCH  97 100
ENDBRANCH  70  93
ENDBRANCH  44  45
ENDBRANCH  36  39
ENDBRANCH  34  35
ENDBRANCH   1  34
TORSDOF 17
