REMARK SMILES Cc1ccc(-c2ncccc2C(=O)NCCCCNC(=O)c2ccc(-c3c4nc(c(-c5cccc(S(=O)(=O)[O-])c5F)c5ccc([nH]5)c(-c5cccc(S(=O)(=O)[O-])c5F)c5nc(c(-c6cccc(S(=O)(=O)[O-])c6F)c6ccc3[nH]6)C=C5)C=C4)cc2)c(Cl)c1
REMARK SMILES IDX 17 1 16 2 15 3 14 4 12 5 13 6 11 8 6 9 7 10 8 11 10 12 9 13
REMARK SMILES IDX 5 14 1 15 2 16 3 17 87 18 4 19 85 20 86 21 18 22 19 23 20 24
REMARK SMILES IDX 21 26 22 27 23 28 84 29 24 30 83 31 25 32 26 33 27 34 77 35
REMARK SMILES IDX 28 36 82 37 76 38 78 39 29 40 81 41 75 42 74 43 30 45 62 46
REMARK SMILES IDX 42 47 61 48 43 49 46 50 60 51 79 52 44 53 45 54 59 56 80 57
REMARK SMILES IDX 47 58 31 59 32 60 40 61 33 62 35 63 41 64 34 65 36 66 37 67
REMARK SMILES IDX 38 68 39 69 63 70 64 71 72 72 65 73 67 74 73 75 66 76 68 77
REMARK SMILES IDX 69 78 70 79 71 80 48 81 49 82 57 83 50 84 52 85 58 86 51 87
REMARK SMILES IDX 53 88 54 89 55 90 56 91
REMARK H PARENT 14 7 19 25 78 44 46 55
REMARK Flexibility Score: inf
ROOT
ATOM      1  C   UNL     1      -0.036  -6.850  -4.418  1.00  0.00     0.023 C 
ENDROOT
BRANCH   1   2
ATOM      2  C   UNL     1       1.068  -6.478  -3.417  1.00  0.00     0.023 C 
BRANCH   2   3
ATOM      3  C   UNL     1       1.738  -5.131  -3.693  1.00  0.00     0.116 C 
BRANCH   3   4
ATOM      4  N   UNL     1       0.878  -4.033  -3.308  1.00  0.00    -0.352 N 
ATOM      5  C   UNL     1       0.719  -3.246  -2.197  1.00  0.00     0.253 C 
ATOM      6  O   UNL     1      -0.136  -2.372  -2.335  1.00  0.00    -0.269 OA
ATOM      7  H   UNL     1       0.249  -3.789  -4.025  1.00  0.00     0.163 HD
BRANCH   5   8
ATOM      8  C   UNL     1       1.497  -3.358  -0.915  1.00  0.00     0.066 A 
ATOM      9  C   UNL     1       1.355  -2.386   0.102  1.00  0.00     0.084 A 
ATOM     10  N   UNL     1       2.107  -2.392   1.249  1.00  0.00    -0.255 NA
ATOM     11  C   UNL     1       3.014  -3.368   1.414  1.00  0.00     0.112 A 
ATOM     12  C   UNL     1       2.393  -4.399  -0.641  1.00  0.00     0.018 A 
ATOM     13  C   UNL     1       3.176  -4.397   0.515  1.00  0.00     0.021 A 
BRANCH   9  14
ATOM     14  C   UNL     1       0.342  -1.317   0.124  1.00  0.00     0.020 A 
ATOM     15  C   UNL     1      -2.771   1.701   0.061  1.00  0.00     0.044 C 
ATOM     16  C   UNL     1      -1.698   0.655   0.116  1.00  0.00    -0.050 A 
ATOM     17  C   UNL     1      -2.018  -0.688   0.318  1.00  0.00     0.004 A 
ATOM     18  C   UNL     1      -0.354   1.015  -0.042  1.00  0.00     0.024 A 
ATOM     19  C   UNL     1      -1.011  -1.657   0.336  1.00  0.00     0.012 A 
ATOM     20  C   UNL     1       0.655   0.041  -0.044  1.00  0.00     0.050 A 
ATOM     21  Cl  UNL     1       2.282   0.585  -0.290  1.00  0.00    -0.084 Cl
ENDBRANCH   9  14
ENDBRANCH   5   8
ENDBRANCH   3   4
ENDBRANCH   2   3
ENDBRANCH   1   2
BRANCH   1  22
ATOM     22  C   UNL     1       0.388  -6.890  -5.886  1.00  0.00     0.116 C 
BRANCH  22  23
ATOM     23  N   UNL     1       1.554  -7.726  -6.126  1.00  0.00    -0.352 N 
ATOM     24  C   UNL     1       1.885  -8.438  -7.255  1.00  0.00     0.251 C 
ATOM     25  H   UNL     1       2.193  -7.792  -5.379  1.00  0.00     0.163 HD
ATOM     26  O   UNL     1       2.863  -9.172  -7.254  1.00  0.00    -0.269 OA
BRANCH  24  27
ATOM     27  C   UNL     1       1.025  -8.337  -8.454  1.00  0.00     0.039 A 
ATOM     28  C   UNL     1       0.585  -9.515  -9.064  1.00  0.00     0.014 A 
ATOM     29  C   UNL     1       0.637  -7.093  -8.956  1.00  0.00     0.014 A 
ATOM     30  C   UNL     1      -0.302  -9.445 -10.141  1.00  0.00     0.010 A 
ATOM     31  C   UNL     1      -0.291  -7.027  -9.991  1.00  0.00     0.010 A 
ATOM     32  C   UNL     1      -0.773  -8.201 -10.591  1.00  0.00    -0.014 A 
BRANCH  32  33
ATOM     33  C   UNL     1      -1.792  -8.105 -11.667  1.00  0.00     0.031 A 
ATOM     34  C   UNL     1      -1.455  -7.446 -12.975  1.00  0.00     0.074 A 
ATOM     35  C   UNL     1      -3.051  -8.520 -11.423  1.00  0.00     0.049 A 
ATOM     36  N   UNL     1      -2.230  -7.210 -14.001  1.00  0.00    -0.248 NA
ATOM     37  C   UNL     1      -0.074  -6.961 -13.143  1.00  0.00     0.031 C 
ATOM     38  C   UNL     1      -3.524  -9.091 -10.159  1.00  0.00     0.029 A 
ATOM     39  N   UNL     1      -4.173  -8.491 -12.213  1.00  0.00    -0.354 N 
ATOM     40  C   UNL     1      -1.448  -6.515 -14.917  1.00  0.00     0.074 A 
ATOM     41  C   UNL     1      -0.143  -6.347 -14.316  1.00  0.00     0.031 C 
ATOM     42  C   UNL     1      -4.838  -9.351 -10.258  1.00  0.00     0.029 A 
ATOM     43  C   UNL     1      -5.306  -8.948 -11.580  1.00  0.00     0.049 A 
ATOM     44  H   UNL     1      -4.168  -8.174 -13.145  1.00  0.00     0.167 HD
ATOM     45  C   UNL     1      -1.778  -6.083 -16.157  1.00  0.00     0.034 A 
ATOM     46  C   UNL     1      -6.580  -9.027 -12.013  1.00  0.00     0.034 A 
ATOM     47  C   UNL     1      -3.058  -6.306 -16.773  1.00  0.00     0.049 A 
ATOM     48  C   UNL     1      -6.900  -8.605 -13.422  1.00  0.00     0.074 A 
ATOM     49  C   UNL     1      -3.454  -6.006 -18.065  1.00  0.00     0.029 A 
ATOM     50  N   UNL     1      -4.150  -6.880 -16.143  1.00  0.00    -0.354 N 
ATOM     51  N   UNL     1      -6.098  -8.120 -14.339  1.00  0.00    -0.248 NA
ATOM     52  C   UNL     1      -8.289  -8.779 -13.871  1.00  0.00     0.031 C 
ATOM     53  C   UNL     1      -4.791  -6.388 -18.212  1.00  0.00     0.029 A 
ATOM     54  C   UNL     1      -5.223  -6.939 -17.016  1.00  0.00     0.049 A 
ATOM     55  H   UNL     1      -4.162  -7.199 -15.212  1.00  0.00     0.167 HD
ATOM     56  C   UNL     1      -6.876  -7.963 -15.480  1.00  0.00     0.074 A 
ATOM     57  C   UNL     1      -8.206  -8.427 -15.147  1.00  0.00     0.031 C 
ATOM     58  C   UNL     1      -6.524  -7.462 -16.690  1.00  0.00     0.034 A 
BRANCH  45  59
ATOM     59  C   UNL     1      -0.718  -5.381 -16.962  1.00  0.00     0.023 A 
ATOM     60  C   UNL     1       0.345  -6.129 -17.507  1.00  0.00     0.012 A 
ATOM     61  C   UNL     1      -0.810  -4.004 -17.244  1.00  0.00     0.148 A 
ATOM     62  C   UNL     1       1.315  -5.514 -18.296  1.00  0.00     0.002 A 
ATOM     63  C   UNL     1       0.139  -3.405 -18.065  1.00  0.00     0.091 A 
ATOM     64  F   UNL     1      -1.817  -3.305 -16.699  1.00  0.00    -0.205 F 
ATOM     65  C   UNL     1       1.206  -4.157 -18.584  1.00  0.00     0.022 A 
BRANCH  63  66
ATOM     66  S   UNL     1       0.046  -1.680 -18.558  1.00  0.00     0.127 S 
ATOM     67  O   UNL     1       1.156  -1.099 -17.805  1.00  0.00    -0.237 OA
ATOM     68  O   UNL     1       0.265  -1.760 -20.003  1.00  0.00    -0.237 OA
ATOM     69  O   UNL     1      -1.281  -1.223 -18.170  1.00  0.00    -0.744 OA
ENDBRANCH  63  66
ENDBRANCH  45  59
BRANCH  46  70
ATOM     70  C   UNL     1      -7.634  -9.596 -11.127  1.00  0.00     0.023 A 
ATOM     71  C   UNL     1      -8.176 -10.861 -11.425  1.00  0.00     0.012 A 
ATOM     72  C   UNL     1      -8.083  -8.909  -9.982  1.00  0.00     0.148 A 
ATOM     73  C   UNL     1      -9.170 -11.418 -10.619  1.00  0.00     0.002 A 
ATOM     74  C   UNL     1      -9.034  -9.494  -9.153  1.00  0.00     0.091 A 
ATOM     75  F   UNL     1      -7.568  -7.700  -9.722  1.00  0.00    -0.205 F 
ATOM     76  C   UNL     1      -9.591 -10.740  -9.478  1.00  0.00     0.022 A 
BRANCH  74  77
ATOM     77  S   UNL     1      -9.530  -8.748  -7.595  1.00  0.00     0.127 S 
ATOM     78  O   UNL     1     -10.834  -8.186  -7.933  1.00  0.00    -0.237 OA
ATOM     79  O   UNL     1      -9.570  -9.906  -6.700  1.00  0.00    -0.237 OA
ATOM     80  O   UNL     1      -8.481  -7.788  -7.277  1.00  0.00    -0.744 OA
ENDBRANCH  74  77
ENDBRANCH  46  70
BRANCH  58  81
ATOM     81  C   UNL     1      -7.580  -7.414 -17.762  1.00  0.00     0.023 A 
ATOM     82  C   UNL     1      -8.604  -6.449 -17.689  1.00  0.00     0.012 A 
ATOM     83  C   UNL     1      -7.510  -8.266 -18.881  1.00  0.00     0.148 A 
ATOM     84  C   UNL     1      -9.558  -6.351 -18.701  1.00  0.00     0.002 A 
ATOM     85  C   UNL     1      -8.437  -8.132 -19.908  1.00  0.00     0.091 A 
ATOM     86  F   UNL     1      -6.540  -9.191 -18.922  1.00  0.00    -0.205 F 
ATOM     87  C   UNL     1      -9.467  -7.183 -19.815  1.00  0.00     0.022 A 
BRANCH  85  88
ATOM     88  S   UNL     1      -8.338  -9.097 -21.421  1.00  0.00     0.127 S 
ATOM     89  O   UNL     1      -9.412 -10.068 -21.226  1.00  0.00    -0.237 OA
ATOM     90  O   UNL     1      -8.603  -8.091 -22.451  1.00  0.00    -0.237 OA
ATOM     91  O   UNL     1      -6.990  -9.649 -21.453  1.00  0.00    -0.744 OA
ENDBRANCH  85  88
ENDBRANCH  58  81
ENDBRANCH  32  33
ENDBRANCH  24  27
ENDBRANCH  22  23
ENDBRANCH   1  22
TORSDOF 15
