REMARK SMILES Cc1ccc(O)c(C(=O)NCc2ccc(C(=O)NCCCCNC(=O)c3ccc(-c4c5nc(c(-c6cccc(S(=O)(=O)[O-])c6F)c6ccc([nH]6)c(-c6cccc(S(=O)(=O)[O-])c6F)c6nc(c(-c7cccc(S(=O)(=O)[O-])c7F)c7ccc4[nH]7)C=C6)C=C5)cc3)o2)c1
REMARK SMILES IDX 20 1 19 2 18 3 16 4 17 5 15 7 12 8 13 9 89 10 14 11 11 12
REMARK SMILES IDX 10 13 8 14 9 15 7 17 1 18 2 19 3 20 90 21 4 22 5 23 6 24
REMARK SMILES IDX 21 26 22 27 23 28 24 29 25 31 26 32 27 33 88 34 28 35 87 36
REMARK SMILES IDX 29 37 30 38 31 39 81 40 32 41 86 42 80 43 82 44 33 45 85 46
REMARK SMILES IDX 79 47 78 48 34 50 66 51 46 52 65 53 47 54 50 55 64 56 83 57
REMARK SMILES IDX 48 58 49 59 63 61 84 62 51 63 35 64 36 65 44 66 37 67 39 68
REMARK SMILES IDX 45 69 38 70 40 71 41 72 42 73 43 74 67 75 68 76 76 77 69 78
REMARK SMILES IDX 71 79 77 80 70 81 72 82 73 83 74 84 75 85 52 86 53 87 61 88
REMARK SMILES IDX 54 89 56 90 62 91 55 92 57 93 58 94 59 95 60 96
REMARK H PARENT 18 6 10 16 6 25 23 30 82 49 50 60
REMARK Flexibility Score: inf
ROOT
ATOM      1  C   UNL     1       1.981  -6.441   6.406  1.00  0.00     0.023 C 
ENDROOT
BRANCH   1   2
ATOM      2  C   UNL     1       2.927  -6.785   5.258  1.00  0.00     0.116 C 
BRANCH   2   3
ATOM      3  N   UNL     1       2.273  -7.616   4.271  1.00  0.00    -0.349 N 
ATOM      4  C   UNL     1       1.718  -7.322   3.051  1.00  0.00     0.286 C 
ATOM      5  O   UNL     1       1.263  -8.288   2.427  1.00  0.00    -0.266 OA
ATOM      6  H   UNL     1       2.215  -8.567   4.521  1.00  0.00     0.163 HD
BRANCH   4   7
ATOM      7  C   UNL     1       1.682  -5.971   2.519  1.00  0.00     0.191 A 
ATOM      8  C   UNL     1       1.256  -4.531   0.879  1.00  0.00     0.124 A 
ATOM      9  C   UNL     1       1.720  -3.788   1.939  1.00  0.00     0.048 A 
ATOM     10  O   UNL     1       1.252  -5.849   1.218  1.00  0.00    -0.454 OA
ATOM     11  C   UNL     1       1.950  -4.700   2.997  1.00  0.00     0.056 A 
BRANCH   8  12
ATOM     12  C   UNL     1       0.721  -4.210  -0.466  1.00  0.00     0.191 C 
BRANCH  12  13
ATOM     13  N   UNL     1      -0.629  -3.711  -0.303  1.00  0.00    -0.345 N 
ATOM     14  C   UNL     1      -1.202  -2.481  -0.155  1.00  0.00     0.255 C 
ATOM     15  O   UNL     1      -2.433  -2.470  -0.029  1.00  0.00    -0.269 OA
ATOM     16  H   UNL     1      -1.296  -4.435  -0.296  1.00  0.00     0.164 HD
BRANCH  14  17
ATOM     17  C   UNL     1      -0.495  -1.161  -0.135  1.00  0.00     0.081 A 
ATOM     18  C   UNL     1       2.993   0.400   0.057  1.00  0.00     0.044 C 
ATOM     19  C   UNL     1       1.500   0.268  -0.028  1.00  0.00    -0.050 A 
ATOM     20  C   UNL     1       0.697   1.409  -0.031  1.00  0.00     0.007 A 
ATOM     21  C   UNL     1       0.895  -1.001  -0.090  1.00  0.00     0.021 A 
ATOM     22  C   UNL     1      -0.687   1.282  -0.079  1.00  0.00     0.047 A 
ATOM     23  C   UNL     1      -1.274   0.015  -0.120  1.00  0.00     0.128 A 
BRANCH  23  24
ATOM     24  O   UNL     1      -2.647   0.020  -0.135  1.00  0.00    -0.507 OA
ATOM     25  H   UNL     1      -3.113   0.834  -0.124  1.00  0.00     0.293 HD
ENDBRANCH  23  24
ENDBRANCH  14  17
ENDBRANCH  12  13
ENDBRANCH   8  12
ENDBRANCH   4   7
ENDBRANCH   2   3
ENDBRANCH   1   2
BRANCH   1  26
ATOM     26  C   UNL     1       1.814  -7.574   7.425  1.00  0.00     0.023 C 
BRANCH  26  27
ATOM     27  C   UNL     1       3.111  -8.054   8.072  1.00  0.00     0.116 C 
BRANCH  27  28
ATOM     28  N   UNL     1       3.868  -6.983   8.706  1.00  0.00    -0.352 N 
ATOM     29  C   UNL     1       4.605  -7.033   9.865  1.00  0.00     0.251 C 
ATOM     30  H   UNL     1       3.850  -6.113   8.245  1.00  0.00     0.163 HD
ATOM     31  O   UNL     1       5.091  -6.010  10.336  1.00  0.00    -0.269 OA
BRANCH  29  32
ATOM     32  C   UNL     1       4.770  -8.330  10.551  1.00  0.00     0.039 A 
ATOM     33  C   UNL     1       4.470  -8.419  11.911  1.00  0.00     0.014 A 
ATOM     34  C   UNL     1       5.160  -9.464   9.833  1.00  0.00     0.014 A 
ATOM     35  C   UNL     1       4.498  -9.665  12.539  1.00  0.00     0.010 A 
ATOM     36  C   UNL     1       5.106 -10.713  10.440  1.00  0.00     0.010 A 
ATOM     37  C   UNL     1       4.778 -10.827  11.800  1.00  0.00    -0.014 A 
BRANCH  37  38
ATOM     38  C   UNL     1       4.715 -12.171  12.429  1.00  0.00     0.031 A 
ATOM     39  C   UNL     1       5.943 -13.037  12.492  1.00  0.00     0.074 A 
ATOM     40  C   UNL     1       3.532 -12.644  12.869  1.00  0.00     0.049 A 
ATOM     41  N   UNL     1       6.072 -14.250  12.964  1.00  0.00    -0.248 NA
ATOM     42  C   UNL     1       7.184 -12.481  11.927  1.00  0.00     0.031 C 
ATOM     43  C   UNL     1       2.253 -11.934  12.788  1.00  0.00     0.029 A 
ATOM     44  N   UNL     1       3.207 -13.844  13.452  1.00  0.00    -0.354 N 
ATOM     45  C   UNL     1       7.391 -14.613  12.724  1.00  0.00     0.074 A 
ATOM     46  C   UNL     1       8.014 -13.509  12.028  1.00  0.00     0.031 C 
ATOM     47  C   UNL     1       1.286 -12.707  13.310  1.00  0.00     0.029 A 
ATOM     48  C   UNL     1       1.867 -13.978  13.730  1.00  0.00     0.049 A 
ATOM     49  H   UNL     1       3.871 -14.543  13.651  1.00  0.00     0.167 HD
ATOM     50  C   UNL     1       8.037 -15.750  13.076  1.00  0.00     0.034 A 
ATOM     51  C   UNL     1       1.180 -15.011  14.256  1.00  0.00     0.034 A 
ATOM     52  C   UNL     1       7.423 -16.832  13.797  1.00  0.00     0.049 A 
ATOM     53  C   UNL     1       1.926 -16.253  14.664  1.00  0.00     0.074 A 
ATOM     54  C   UNL     1       8.012 -17.988  14.278  1.00  0.00     0.029 A 
ATOM     55  N   UNL     1       6.079 -16.901  14.129  1.00  0.00    -0.354 N 
ATOM     56  N   UNL     1       3.208 -16.511  14.574  1.00  0.00    -0.248 NA
ATOM     57  C   UNL     1       1.138 -17.331  15.277  1.00  0.00     0.031 C 
ATOM     58  C   UNL     1       7.017 -18.773  14.868  1.00  0.00     0.029 A 
ATOM     59  C   UNL     1       5.816 -18.087  14.793  1.00  0.00     0.049 A 
ATOM     60  H   UNL     1       5.410 -16.209  13.922  1.00  0.00     0.167 HD
ATOM     61  C   UNL     1       3.386 -17.763  15.153  1.00  0.00     0.074 A 
ATOM     62  C   UNL     1       2.082 -18.200  15.609  1.00  0.00     0.031 C 
ATOM     63  C   UNL     1       4.523 -18.490  15.285  1.00  0.00     0.034 A 
BRANCH  50  64
ATOM     64  C   UNL     1       9.497 -15.866  12.722  1.00  0.00     0.023 A 
ATOM     65  C   UNL     1      10.443 -15.058  13.386  1.00  0.00     0.012 A 
ATOM     66  C   UNL     1       9.940 -16.810  11.776  1.00  0.00     0.148 A 
ATOM     67  C   UNL     1      11.801 -15.160  13.088  1.00  0.00     0.002 A 
ATOM     68  C   UNL     1      11.299 -16.941  11.519  1.00  0.00     0.091 A 
ATOM     69  F   UNL     1       9.025 -17.555  11.140  1.00  0.00    -0.205 F 
ATOM     70  C   UNL     1      12.229 -16.108  12.163  1.00  0.00     0.022 A 
BRANCH  68  71
ATOM     71  S   UNL     1      11.961 -18.187  10.408  1.00  0.00     0.127 S 
ATOM     72  O   UNL     1      12.449 -17.365   9.301  1.00  0.00    -0.237 OA
ATOM     73  O   UNL     1      13.011 -18.798  11.223  1.00  0.00    -0.237 OA
ATOM     74  O   UNL     1      10.850 -19.070  10.085  1.00  0.00    -0.744 OA
ENDBRANCH  68  71
ENDBRANCH  50  64
BRANCH  51  75
ATOM     75  C   UNL     1      -0.290 -14.897  14.477  1.00  0.00     0.023 A 
ATOM     76  C   UNL     1      -0.792 -14.834  15.792  1.00  0.00     0.012 A 
ATOM     77  C   UNL     1      -1.189 -14.833  13.396  1.00  0.00     0.148 A 
ATOM     78  C   UNL     1      -2.165 -14.748  16.026  1.00  0.00     0.002 A 
ATOM     79  C   UNL     1      -2.550 -14.689  13.635  1.00  0.00     0.091 A 
ATOM     80  F   UNL     1      -0.692 -14.902  12.153  1.00  0.00    -0.205 F 
ATOM     81  C   UNL     1      -3.043 -14.666  14.949  1.00  0.00     0.022 A 
BRANCH  79  82
ATOM     82  S   UNL     1      -3.740 -14.444  12.312  1.00  0.00     0.127 S 
ATOM     83  O   UNL     1      -4.497 -15.692  12.356  1.00  0.00    -0.237 OA
ATOM     84  O   UNL     1      -4.469 -13.264  12.779  1.00  0.00    -0.237 OA
ATOM     85  O   UNL     1      -2.951 -14.224  11.108  1.00  0.00    -0.744 OA
ENDBRANCH  79  82
ENDBRANCH  51  75
BRANCH  63  86
ATOM     86  C   UNL     1       4.426 -19.819  15.989  1.00  0.00     0.023 A 
ATOM     87  C   UNL     1       3.784 -20.905  15.362  1.00  0.00     0.012 A 
ATOM     88  C   UNL     1       5.038 -20.007  17.244  1.00  0.00     0.148 A 
ATOM     89  C   UNL     1       3.720 -22.148  15.991  1.00  0.00     0.002 A 
ATOM     90  C   UNL     1       5.017 -21.262  17.840  1.00  0.00     0.091 A 
ATOM     91  F   UNL     1       5.629 -18.957  17.831  1.00  0.00    -0.205 F 
ATOM     92  C   UNL     1       4.346 -22.330  17.222  1.00  0.00     0.022 A 
BRANCH  90  93
ATOM     93  S   UNL     1       5.881 -21.615  19.374  1.00  0.00     0.127 S 
ATOM     94  O   UNL     1       4.770 -21.800  20.306  1.00  0.00    -0.237 OA
ATOM     95  O   UNL     1       6.610 -22.840  19.043  1.00  0.00    -0.237 OA
ATOM     96  O   UNL     1       6.728 -20.459  19.636  1.00  0.00    -0.744 OA
ENDBRANCH  90  93
ENDBRANCH  63  86
ENDBRANCH  37  38
ENDBRANCH  29  32
ENDBRANCH  27  28
ENDBRANCH  26  27
ENDBRANCH   1  26
TORSDOF 18
