REMARK SMILES Cc1ccccc1OCC(=O)N[C@@H](Cc1c[nH]c2ccccc12)C(=O)NCCCCNC(=O)c1ccc(-c2c3nc(c(-c4cccc(S(=O)(=O)[O-])c4F)c4ccc([nH]4)c(-c4cccc(S(=O)(=O)[O-])c4F)c4nc(c(-c5cccc(S(=O)(=O)[O-])c5F)c5ccc2[nH]5)C=C4)C=C3)cc1
REMARK SMILES IDX 28 1 27 2 26 3 24 4 25 5 13 7 12 8 10 9 11 10 9 12 8 13 7 14
REMARK SMILES IDX 1 15 2 16 3 17 4 18 6 19 5 20 14 21 15 22 16 23 23 24 17 25
REMARK SMILES IDX 18 26 22 27 19 29 21 30 20 31 29 32 30 33 31 34 32 35 33 37
REMARK SMILES IDX 34 38 35 39 96 40 36 41 95 42 37 43 38 44 39 45 89 46 40 47
REMARK SMILES IDX 94 48 88 49 90 50 41 51 93 52 87 53 86 54 42 56 74 57 54 58
REMARK SMILES IDX 73 59 55 60 58 61 72 62 91 63 56 64 57 65 71 67 92 68 59 69
REMARK SMILES IDX 43 70 44 71 52 72 45 73 47 74 53 75 46 76 48 77 49 78 50 79
REMARK SMILES IDX 51 80 75 81 76 82 84 83 77 84 79 85 85 86 78 87 80 88 81 89
REMARK SMILES IDX 82 90 83 91 60 92 61 93 69 94 62 95 64 96 70 97 63 98 65 99
REMARK SMILES IDX 66 100 67 101 68 102
REMARK H PARENT 26 6 12 11 17 28 31 36 90 55 58 66
REMARK Flexibility Score: inf
ROOT
ATOM      1  C   UNL     1       4.837   2.165   5.203  1.00  0.00     0.023 C 
ENDROOT
BRANCH   1   2
ATOM      2  C   UNL     1       3.461   2.834   5.203  1.00  0.00     0.116 C 
BRANCH   2   3
ATOM      3  N   UNL     1       3.366   4.049   4.409  1.00  0.00    -0.354 N 
ATOM      4  C   UNL     1       2.477   4.423   3.437  1.00  0.00     0.242 C 
ATOM      5  O   UNL     1       2.397   5.634   3.193  1.00  0.00    -0.273 OA
ATOM      6  H   UNL     1       4.062   4.718   4.604  1.00  0.00     0.163 HD
BRANCH   4   7
ATOM      7  C   UNL     1       1.549   3.435   2.679  1.00  0.00     0.175 C 
BRANCH   7   8
ATOM      8  N   UNL     1       2.270   2.208   2.336  1.00  0.00    -0.341 N 
ATOM      9  C   UNL     1       2.965   1.999   1.182  1.00  0.00     0.258 C 
ATOM     10  O   UNL     1       4.019   1.362   1.220  1.00  0.00    -0.271 OA
ATOM     11  H   UNL     1       2.252   1.475   2.993  1.00  0.00     0.164 HD
BRANCH   9  12
ATOM     12  C   UNL     1       2.397   2.541  -0.131  1.00  0.00     0.329 C 
BRANCH  12  13
ATOM     13  O   UNL     1       1.029   2.310  -0.408  1.00  0.00    -0.484 OA
BRANCH  13  14
ATOM     14  C   UNL     1       0.442   1.084  -0.272  1.00  0.00     0.122 A 
ATOM     15  C   UNL     1       2.444  -0.565  -0.489  1.00  0.00     0.048 C 
ATOM     16  C   UNL     1       0.999  -0.204  -0.301  1.00  0.00    -0.009 A 
ATOM     17  C   UNL     1       0.139  -1.313  -0.111  1.00  0.00     0.007 A 
ATOM     18  C   UNL     1      -1.236  -1.164   0.051  1.00  0.00     0.001 A 
ATOM     19  C   UNL     1      -0.952   1.213  -0.119  1.00  0.00     0.047 A 
ATOM     20  C   UNL     1      -1.786   0.106   0.040  1.00  0.00     0.004 A 
ENDBRANCH  13  14
ENDBRANCH  12  13
ENDBRANCH   9  12
ENDBRANCH   7   8
BRANCH   7  21
ATOM     21  C   UNL     1       0.163   3.236   3.322  1.00  0.00     0.072 C 
BRANCH  21  22
ATOM     22  C   UNL     1       0.172   2.583   4.663  1.00  0.00    -0.020 A 
ATOM     23  C   UNL     1       0.225   3.228   5.884  1.00  0.00     0.087 A 
ATOM     24  C   UNL     1       0.184   1.178   4.932  1.00  0.00     0.003 A 
ATOM     25  N   UNL     1       0.396   2.285   6.865  1.00  0.00    -0.361 N 
ATOM     26  C   UNL     1       0.445   1.032   6.294  1.00  0.00     0.046 A 
ATOM     27  C   UNL     1       0.084   0.019   4.134  1.00  0.00     0.010 A 
ATOM     28  H   UNL     1       0.471   2.474   7.828  1.00  0.00     0.166 HD
ATOM     29  C   UNL     1       0.711  -0.212   6.870  1.00  0.00     0.026 A 
ATOM     30  C   UNL     1       0.274  -1.238   4.718  1.00  0.00     0.001 A 
ATOM     31  C   UNL     1       0.609  -1.348   6.064  1.00  0.00     0.002 A 
ENDBRANCH  21  22
ENDBRANCH   7  21
ENDBRANCH   4   7
ENDBRANCH   2   3
ENDBRANCH   1   2
BRANCH   1  32
ATOM     32  C   UNL     1       5.967   2.892   5.948  1.00  0.00     0.023 C 
BRANCH  32  33
ATOM     33  C   UNL     1       5.638   3.264   7.383  1.00  0.00     0.116 C 
BRANCH  33  34
ATOM     34  N   UNL     1       5.335   2.098   8.204  1.00  0.00    -0.352 N 
ATOM     35  C   UNL     1       5.060   2.021   9.550  1.00  0.00     0.251 C 
ATOM     36  H   UNL     1       5.326   1.238   7.724  1.00  0.00     0.163 HD
ATOM     37  O   UNL     1       5.329   0.964  10.134  1.00  0.00    -0.269 OA
BRANCH  35  38
ATOM     38  C   UNL     1       4.346   3.105  10.252  1.00  0.00     0.039 A 
ATOM     39  C   UNL     1       4.158   3.059  11.642  1.00  0.00     0.014 A 
ATOM     40  C   UNL     1       3.618   4.016   9.495  1.00  0.00     0.014 A 
ATOM     41  C   UNL     1       3.092   3.759  12.205  1.00  0.00     0.010 A 
ATOM     42  C   UNL     1       2.734   4.866  10.074  1.00  0.00     0.010 A 
ATOM     43  C   UNL     1       2.331   4.553  11.363  1.00  0.00    -0.014 A 
BRANCH  43  44
ATOM     44  C   UNL     1       0.970   4.994  11.581  1.00  0.00     0.031 A 
ATOM     45  C   UNL     1       0.765   6.276  12.245  1.00  0.00     0.074 A 
ATOM     46  C   UNL     1       0.087   4.420  10.725  1.00  0.00     0.049 A 
ATOM     47  N   UNL     1      -0.381   6.744  12.577  1.00  0.00    -0.248 NA
ATOM     48  C   UNL     1       1.885   7.139  12.598  1.00  0.00     0.031 C 
ATOM     49  C   UNL     1      -1.102   4.990  10.113  1.00  0.00     0.029 A 
ATOM     50  N   UNL     1       0.108   3.096  10.244  1.00  0.00    -0.354 N 
ATOM     51  C   UNL     1      -0.186   8.072  12.895  1.00  0.00     0.074 A 
ATOM     52  C   UNL     1       1.242   8.225  13.030  1.00  0.00     0.031 C 
ATOM     53  C   UNL     1      -1.832   3.989   9.583  1.00  0.00     0.029 A 
ATOM     54  C   UNL     1      -1.232   2.742  10.043  1.00  0.00     0.049 A 
ATOM     55  H   UNL     1       0.902   2.536  10.082  1.00  0.00     0.167 HD
ATOM     56  C   UNL     1      -1.249   8.918  12.807  1.00  0.00     0.034 A 
ATOM     57  C   UNL     1      -1.862   1.811  10.823  1.00  0.00     0.034 A 
ATOM     58  C   UNL     1      -2.451   8.162  12.403  1.00  0.00     0.049 A 
ATOM     59  C   UNL     1      -2.994   2.427  11.626  1.00  0.00     0.074 A 
ATOM     60  C   UNL     1      -3.039   7.953  11.165  1.00  0.00     0.029 A 
ATOM     61  N   UNL     1      -2.979   7.195  13.255  1.00  0.00    -0.354 N 
ATOM     62  N   UNL     1      -3.151   3.709  11.806  1.00  0.00    -0.248 NA
ATOM     63  C   UNL     1      -4.021   1.641  12.297  1.00  0.00     0.031 C 
ATOM     64  C   UNL     1      -3.849   6.788  11.257  1.00  0.00     0.029 A 
ATOM     65  C   UNL     1      -3.786   6.306  12.555  1.00  0.00     0.049 A 
ATOM     66  H   UNL     1      -2.805   7.147  14.222  1.00  0.00     0.167 HD
ATOM     67  C   UNL     1      -4.164   3.932  12.694  1.00  0.00     0.074 A 
ATOM     68  C   UNL     1      -4.728   2.607  12.909  1.00  0.00     0.031 C 
ATOM     69  C   UNL     1      -4.407   5.168  13.231  1.00  0.00     0.034 A 
BRANCH  56  70
ATOM     70  C   UNL     1      -1.174  10.439  12.743  1.00  0.00     0.023 A 
ATOM     71  C   UNL     1      -2.312  11.107  12.235  1.00  0.00     0.012 A 
ATOM     72  C   UNL     1      -0.082  11.271  13.092  1.00  0.00     0.148 A 
ATOM     73  C   UNL     1      -2.342  12.488  12.009  1.00  0.00     0.002 A 
ATOM     74  C   UNL     1      -0.092  12.646  12.824  1.00  0.00     0.091 A 
ATOM     75  F   UNL     1       0.956  10.771  13.761  1.00  0.00    -0.205 F 
ATOM     76  C   UNL     1      -1.222  13.256  12.278  1.00  0.00     0.022 A 
BRANCH  74  77
ATOM     77  S   UNL     1       1.338  13.709  13.115  1.00  0.00     0.127 S 
ATOM     78  O   UNL     1       1.506  14.362  11.815  1.00  0.00    -0.237 OA
ATOM     79  O   UNL     1       0.860  14.590  14.179  1.00  0.00    -0.237 OA
ATOM     80  O   UNL     1       2.438  12.826  13.483  1.00  0.00    -0.744 OA
ENDBRANCH  74  77
ENDBRANCH  56  70
BRANCH  57  81
ATOM     81  C   UNL     1      -0.944   0.750  11.354  1.00  0.00     0.023 A 
ATOM     82  C   UNL     1      -0.396  -0.162  10.426  1.00  0.00     0.012 A 
ATOM     83  C   UNL     1      -0.297   0.922  12.593  1.00  0.00     0.148 A 
ATOM     84  C   UNL     1       0.852  -0.752  10.656  1.00  0.00     0.002 A 
ATOM     85  C   UNL     1       0.957   0.348  12.803  1.00  0.00     0.091 A 
ATOM     86  F   UNL     1      -0.866   1.721  13.504  1.00  0.00    -0.205 F 
ATOM     87  C   UNL     1       1.555  -0.447  11.816  1.00  0.00     0.022 A 
BRANCH  85  88
ATOM     88  S   UNL     1       1.913   0.711  14.282  1.00  0.00     0.127 S 
ATOM     89  O   UNL     1       1.562  -0.420  15.138  1.00  0.00    -0.237 OA
ATOM     90  O   UNL     1       3.291   0.699  13.787  1.00  0.00    -0.237 OA
ATOM     91  O   UNL     1       1.451   2.018  14.710  1.00  0.00    -0.744 OA
ENDBRANCH  85  88
ENDBRANCH  57  81
BRANCH  69  92
ATOM     92  C   UNL     1      -5.269   5.401  14.456  1.00  0.00     0.023 A 
ATOM     93  C   UNL     1      -5.535   4.375  15.384  1.00  0.00     0.012 A 
ATOM     94  C   UNL     1      -5.721   6.700  14.801  1.00  0.00     0.148 A 
ATOM     95  C   UNL     1      -6.293   4.594  16.538  1.00  0.00     0.002 A 
ATOM     96  C   UNL     1      -6.361   6.938  16.013  1.00  0.00     0.091 A 
ATOM     97  F   UNL     1      -5.549   7.718  13.945  1.00  0.00    -0.205 F 
ATOM     98  C   UNL     1      -6.690   5.881  16.863  1.00  0.00     0.022 A 
BRANCH  96  99
ATOM     99  S   UNL     1      -6.649   8.611  16.605  1.00  0.00     0.127 S 
ATOM    100  O   UNL     1      -8.042   8.829  16.223  1.00  0.00    -0.237 OA
ATOM    101  O   UNL     1      -6.427   8.474  18.046  1.00  0.00    -0.237 OA
ATOM    102  O   UNL     1      -5.659   9.435  15.925  1.00  0.00    -0.744 OA
ENDBRANCH  96  99
ENDBRANCH  69  92
ENDBRANCH  43  44
ENDBRANCH  35  38
ENDBRANCH  33  34
ENDBRANCH  32  33
ENDBRANCH   1  32
TORSDOF 20
