REMARK SMILES COc1ccc(OC)c([C@H](C(=O)NCCCCNC(=O)c2ccc(-c3c4nc(c(-c5cccc(S(=O)(=O)[O-])c5F)c5ccc([nH]5)c(-c5cccc(S(=O)(=O)[O-])c5F)c5nc(c(-c6cccc(S(=O)(=O)[O-])c6F)c6ccc3[nH]6)C=C5)C=C4)cc2)[NH+]2CC[NH+](Cc3nccn3C)CC2)c1
REMARK SMILES IDX 15 1 14 2 13 3 11 4 12 5 10 7 9 8 3 9 4 10 97 11 5 12 6 13
REMARK SMILES IDX 2 14 1 15 7 16 8 17 84 18 85 19 96 20 86 22 95 23 87 24
REMARK SMILES IDX 88 26 89 27 90 28 93 29 91 30 92 31 94 32 16 33 17 34 18 35
REMARK SMILES IDX 19 36 20 38 21 39 22 40 83 41 23 42 82 43 24 44 25 45 26 46
REMARK SMILES IDX 76 47 27 48 81 49 75 50 77 51 28 52 80 53 74 54 73 55 29 57
REMARK SMILES IDX 61 58 41 59 60 60 42 61 45 62 59 63 78 64 43 65 44 66 58 68
REMARK SMILES IDX 79 69 46 70 30 71 31 72 39 73 32 74 34 75 40 76 33 77 35 78
REMARK SMILES IDX 36 79 37 80 38 81 62 82 63 83 71 84 64 85 66 86 72 87 65 88
REMARK SMILES IDX 67 89 68 90 69 91 70 92 47 93 48 94 56 95 49 96 51 97 57 98
REMARK SMILES IDX 50 99 52 100 53 101 54 102 55 103
REMARK H PARENT 13 6 84 21 87 25 18 37 77 56 45 67
REMARK Flexibility Score: inf
ROOT
ATOM      1  C   UNL     1       3.435   1.889  -2.486  1.00  0.00     0.023 C 
ENDROOT
BRANCH   1   2
ATOM      2  C   UNL     1       3.651   2.989  -1.451  1.00  0.00     0.116 C 
BRANCH   2   3
ATOM      3  N   UNL     1       2.596   3.023  -0.458  1.00  0.00    -0.351 N 
ATOM      4  C   UNL     1       2.594   3.572   0.791  1.00  0.00     0.283 C 
ATOM      5  O   UNL     1       1.490   3.634   1.332  1.00  0.00    -0.268 OA
ATOM      6  H   UNL     1       1.756   2.585  -0.725  1.00  0.00     0.163 HD
BRANCH   4   7
ATOM      7  C   UNL     1       3.922   4.042   1.449  1.00  0.00     0.309 C 
BRANCH   7   8
ATOM      8  C   UNL     1       4.629   5.150   0.659  1.00  0.00     0.065 A 
ATOM      9  C   UNL     1       4.426   7.005  -0.933  1.00  0.00     0.119 A 
ATOM     10  C   UNL     1       5.813   7.079  -1.015  1.00  0.00     0.050 A 
ATOM     11  C   UNL     1       3.848   6.083  -0.063  1.00  0.00     0.060 A 
ATOM     12  C   UNL     1       6.610   6.207  -0.270  1.00  0.00     0.051 A 
ATOM     13  C   UNL     1       6.027   5.247   0.564  1.00  0.00     0.128 A 
BRANCH   9  14
ATOM     14  O   UNL     1       3.736   7.851  -1.757  1.00  0.00    -0.497 OA
ATOM     15  C   UNL     1       2.351   7.559  -1.944  1.00  0.00     0.278 C 
ENDBRANCH   9  14
BRANCH  13  16
ATOM     16  O   UNL     1       6.902   4.357   1.130  1.00  0.00    -0.496 OA
ATOM     17  C   UNL     1       6.901   4.383   2.557  1.00  0.00     0.278 C 
ENDBRANCH  13  16
ENDBRANCH   7   8
BRANCH   7  18
ATOM     18  N   UNL     1       3.787   4.374   2.887  1.00  0.00    -0.311 N 
ATOM     19  C   UNL     1       3.138   5.638   3.248  1.00  0.00     0.325 C 
ATOM     20  C   UNL     1       3.407   3.262   3.766  1.00  0.00     0.325 C 
ATOM     21  H   UNL     1       4.768   4.566   3.089  1.00  0.00     0.349 HD
ATOM     22  C   UNL     1       1.681   5.570   3.749  1.00  0.00     0.324 C 
ATOM     23  C   UNL     1       1.963   3.242   4.335  1.00  0.00     0.324 C 
ATOM     24  N   UNL     1       1.385   4.526   4.734  1.00  0.00    -0.319 N 
ATOM     25  H   UNL     1       0.377   4.365   4.726  1.00  0.00     0.348 HD
BRANCH  24  26
ATOM     26  C   UNL     1       1.572   4.937   6.128  1.00  0.00     0.339 C 
BRANCH  26  27
ATOM     27  C   UNL     1       2.987   5.090   6.599  1.00  0.00     0.164 A 
ATOM     28  N   UNL     1       3.731   6.173   6.443  1.00  0.00    -0.236 NA
ATOM     29  N   UNL     1       3.703   4.124   7.269  1.00  0.00    -0.333 N 
ATOM     30  C   UNL     1       4.981   5.846   6.888  1.00  0.00     0.131 A 
ATOM     31  C   UNL     1       4.991   4.575   7.402  1.00  0.00     0.107 A 
ATOM     32  C   UNL     1       3.250   2.844   7.754  1.00  0.00     0.151 C 
ENDBRANCH  26  27
ENDBRANCH  24  26
ENDBRANCH   7  18
ENDBRANCH   4   7
ENDBRANCH   2   3
ENDBRANCH   1   2
BRANCH   1  33
ATOM     33  C   UNL     1       2.049   1.867  -3.137  1.00  0.00     0.023 C 
BRANCH  33  34
ATOM     34  C   UNL     1       1.559   3.208  -3.674  1.00  0.00     0.116 C 
BRANCH  34  35
ATOM     35  N   UNL     1       2.366   3.683  -4.787  1.00  0.00    -0.352 N 
ATOM     36  C   UNL     1       1.975   3.912  -6.088  1.00  0.00     0.251 C 
ATOM     37  H   UNL     1       3.312   3.865  -4.584  1.00  0.00     0.163 HD
ATOM     38  O   UNL     1       2.798   4.131  -6.961  1.00  0.00    -0.269 OA
BRANCH  36  39
ATOM     39  C   UNL     1       0.532   3.868  -6.408  1.00  0.00     0.039 A 
ATOM     40  C   UNL     1       0.080   3.019  -7.421  1.00  0.00     0.014 A 
ATOM     41  C   UNL     1      -0.369   4.629  -5.660  1.00  0.00     0.014 A 
ATOM     42  C   UNL     1      -1.293   2.884  -7.642  1.00  0.00     0.010 A 
ATOM     43  C   UNL     1      -1.734   4.439  -5.835  1.00  0.00     0.010 A 
ATOM     44  C   UNL     1      -2.211   3.568  -6.829  1.00  0.00    -0.014 A 
BRANCH  44  45
ATOM     45  C   UNL     1      -3.679   3.415  -6.995  1.00  0.00     0.031 A 
ATOM     46  C   UNL     1      -4.508   4.615  -7.366  1.00  0.00     0.074 A 
ATOM     47  C   UNL     1      -4.277   2.245  -6.694  1.00  0.00     0.049 A 
ATOM     48  N   UNL     1      -5.808   4.745  -7.398  1.00  0.00    -0.248 NA
ATOM     49  C   UNL     1      -3.773   5.845  -7.710  1.00  0.00     0.031 C 
ATOM     50  C   UNL     1      -3.588   1.026  -6.265  1.00  0.00     0.029 A 
ATOM     51  N   UNL     1      -5.606   1.902  -6.666  1.00  0.00    -0.354 N 
ATOM     52  C   UNL     1      -6.047   6.077  -7.714  1.00  0.00     0.074 A 
ATOM     53  C   UNL     1      -4.758   6.722  -7.836  1.00  0.00     0.031 C 
ATOM     54  C   UNL     1      -4.500   0.073  -6.008  1.00  0.00     0.029 A 
ATOM     55  C   UNL     1      -5.837   0.621  -6.218  1.00  0.00     0.049 A 
ATOM     56  H   UNL     1      -6.327   2.514  -6.940  1.00  0.00     0.167 HD
ATOM     57  C   UNL     1      -7.231   6.702  -7.910  1.00  0.00     0.034 A 
ATOM     58  C   UNL     1      -6.994  -0.031  -5.988  1.00  0.00     0.034 A 
ATOM     59  C   UNL     1      -8.506   6.043  -7.846  1.00  0.00     0.049 A 
ATOM     60  C   UNL     1      -8.297   0.674  -6.261  1.00  0.00     0.074 A 
ATOM     61  C   UNL     1      -9.759   6.567  -8.106  1.00  0.00     0.029 A 
ATOM     62  N   UNL     1      -8.691   4.713  -7.500  1.00  0.00    -0.354 N 
ATOM     63  N   UNL     1      -8.499   1.897  -6.687  1.00  0.00    -0.248 NA
ATOM     64  C   UNL     1      -9.531  -0.100  -6.054  1.00  0.00     0.031 C 
ATOM     65  C   UNL     1     -10.704   5.556  -7.907  1.00  0.00     0.029 A 
ATOM     66  C   UNL     1     -10.036   4.396  -7.545  1.00  0.00     0.049 A 
ATOM     67  H   UNL     1      -7.970   4.087  -7.259  1.00  0.00     0.167 HD
ATOM     68  C   UNL     1      -9.874   2.024  -6.847  1.00  0.00     0.074 A 
ATOM     69  C   UNL     1     -10.457   0.750  -6.479  1.00  0.00     0.031 C 
ATOM     70  C   UNL     1     -10.591   3.100  -7.252  1.00  0.00     0.034 A 
BRANCH  57  71
ATOM     71  C   UNL     1      -7.199   8.164  -8.270  1.00  0.00     0.023 A 
ATOM     72  C   UNL     1      -6.742   8.555  -9.546  1.00  0.00     0.012 A 
ATOM     73  C   UNL     1      -7.666   9.144  -7.373  1.00  0.00     0.148 A 
ATOM     74  C   UNL     1      -6.713   9.900  -9.909  1.00  0.00     0.002 A 
ATOM     75  C   UNL     1      -7.678  10.480  -7.760  1.00  0.00     0.091 A 
ATOM     76  F   UNL     1      -8.077   8.757  -6.158  1.00  0.00    -0.205 F 
ATOM     77  C   UNL     1      -7.190  10.860  -9.021  1.00  0.00     0.022 A 
BRANCH  75  78
ATOM     78  S   UNL     1      -8.349  11.782  -6.721  1.00  0.00     0.127 S 
ATOM     79  O   UNL     1      -7.134  12.479  -6.300  1.00  0.00    -0.237 OA
ATOM     80  O   UNL     1      -9.184  12.529  -7.662  1.00  0.00    -0.237 OA
ATOM     81  O   UNL     1      -9.085  11.109  -5.660  1.00  0.00    -0.744 OA
ENDBRANCH  75  78
ENDBRANCH  57  71
BRANCH  58  82
ATOM     82  C   UNL     1      -6.976  -1.453  -5.540  1.00  0.00     0.023 A 
ATOM     83  C   UNL     1      -7.389  -2.460  -6.435  1.00  0.00     0.012 A 
ATOM     84  C   UNL     1      -6.537  -1.819  -4.253  1.00  0.00     0.148 A 
ATOM     85  C   UNL     1      -7.399  -3.800  -6.046  1.00  0.00     0.002 A 
ATOM     86  C   UNL     1      -6.499  -3.161  -3.889  1.00  0.00     0.091 A 
ATOM     87  F   UNL     1      -6.158  -0.847  -3.411  1.00  0.00    -0.205 F 
ATOM     88  C   UNL     1      -6.946  -4.151  -4.777  1.00  0.00     0.022 A 
BRANCH  86  89
ATOM     89  S   UNL     1      -5.812  -3.716  -2.325  1.00  0.00     0.127 S 
ATOM     90  O   UNL     1      -7.011  -4.131  -1.601  1.00  0.00    -0.237 OA
ATOM     91  O   UNL     1      -4.939  -4.812  -2.749  1.00  0.00    -0.237 OA
ATOM     92  O   UNL     1      -5.106  -2.567  -1.776  1.00  0.00    -0.744 OA
ENDBRANCH  86  89
ENDBRANCH  58  82
BRANCH  70  93
ATOM     93  C   UNL     1     -12.082   2.947  -7.389  1.00  0.00     0.023 A 
ATOM     94  C   UNL     1     -12.895   2.907  -6.240  1.00  0.00     0.012 A 
ATOM     95  C   UNL     1     -12.682   2.955  -8.664  1.00  0.00     0.148 A 
ATOM     96  C   UNL     1     -14.283   2.857  -6.359  1.00  0.00     0.002 A 
ATOM     97  C   UNL     1     -14.067   2.953  -8.774  1.00  0.00     0.091 A 
ATOM     98  F   UNL     1     -11.887   2.975  -9.744  1.00  0.00    -0.205 F 
ATOM     99  C   UNL     1     -14.869   2.894  -7.623  1.00  0.00     0.022 A 
BRANCH  97 100
ATOM    100  S   UNL     1     -14.908   3.101 -10.355  1.00  0.00     0.127 S 
ATOM    101  O   UNL     1     -15.455   1.756 -10.527  1.00  0.00    -0.237 OA
ATOM    102  O   UNL     1     -15.906   4.135 -10.079  1.00  0.00    -0.237 OA
ATOM    103  O   UNL     1     -13.887   3.487 -11.319  1.00  0.00    -0.744 OA
ENDBRANCH  97 100
ENDBRANCH  70  93
ENDBRANCH  44  45
ENDBRANCH  36  39
ENDBRANCH  34  35
ENDBRANCH  33  34
ENDBRANCH   1  33
TORSDOF 20
