REMARK SMILES Cc1csc(=O)n1CC(=O)N[C@@H](C(=O)NCCCCNC(=O)c1ccc(-c2c3nc(c(-c4cccc(S(=O)(=O)[O-])c4F)c4ccc([nH]4)c(-c4cccc(S(=O)(=O)[O-])c4F)c4nc(c(-c5cccc(S(=O)(=O)[O-])c5F)c5ccc2[nH]5)C=C4)C=C3)cc1)[C@@H](C)O
REMARK SMILES IDX 17 1 16 2 15 3 13 4 14 5 12 7 11 8 9 9 10 10 8 12 7 13 1 14
REMARK SMILES IDX 2 15 3 16 4 17 5 18 6 19 86 20 87 21 88 22 18 24 19 25 20 26
REMARK SMILES IDX 21 27 22 29 23 30 24 31 85 32 25 33 84 34 26 35 27 36 28 37
REMARK SMILES IDX 78 38 29 39 83 40 77 41 79 42 30 43 82 44 76 45 75 46 31 48
REMARK SMILES IDX 63 49 43 50 62 51 44 52 47 53 61 54 80 55 45 56 46 57 60 59
REMARK SMILES IDX 81 60 48 61 32 62 33 63 41 64 34 65 36 66 42 67 35 68 37 69
REMARK SMILES IDX 38 70 39 71 40 72 64 73 65 74 73 75 66 76 68 77 74 78 67 79
REMARK SMILES IDX 69 80 70 81 71 82 72 83 49 84 50 85 58 86 51 87 53 88 59 89
REMARK SMILES IDX 52 90 54 91 55 92 56 93 57 94
REMARK H PARENT 15 6 11 11 88 23 20 28 79 47 47 58
REMARK Flexibility Score: inf
ROOT
ATOM      1  C   UNL     1      -1.158   5.357  -1.147  1.00  0.00     0.023 C 
ENDROOT
BRANCH   1   2
ATOM      2  C   UNL     1      -1.310   3.842  -1.005  1.00  0.00     0.116 C 
BRANCH   2   3
ATOM      3  N   UNL     1      -1.923   3.221  -2.163  1.00  0.00    -0.354 N 
ATOM      4  C   UNL     1      -1.408   2.279  -3.015  1.00  0.00     0.245 C 
ATOM      5  O   UNL     1      -2.164   1.810  -3.868  1.00  0.00    -0.273 OA
ATOM      6  H   UNL     1      -2.840   3.519  -2.365  1.00  0.00     0.163 HD
BRANCH   4   7
ATOM      7  C   UNL     1       0.049   1.767  -2.836  1.00  0.00     0.200 C 
BRANCH   7   8
ATOM      8  N   UNL     1       0.969   2.904  -2.897  1.00  0.00    -0.340 N 
ATOM      9  C   UNL     1       2.059   3.194  -2.132  1.00  0.00     0.240 C 
ATOM     10  O   UNL     1       2.703   4.199  -2.448  1.00  0.00    -0.273 OA
ATOM     11  H   UNL     1       0.768   3.562  -3.600  1.00  0.00     0.164 HD
BRANCH   9  12
ATOM     12  C   UNL     1       2.531   2.274  -0.986  1.00  0.00     0.226 C 
BRANCH  12  13
ATOM     13  N   UNL     1       1.684   2.228   0.194  1.00  0.00    -0.294 N 
ATOM     14  C   UNL     1       1.228  -0.273   0.139  1.00  0.00     0.065 C 
ATOM     15  C   UNL     1       1.069   1.094   0.719  1.00  0.00     0.029 A 
ATOM     16  C   UNL     1       0.375   1.339   1.841  1.00  0.00     0.091 A 
ATOM     17  S   UNL     1       0.554   2.977   2.370  1.00  0.00    -0.082 S 
ATOM     18  C   UNL     1       1.565   3.378   0.979  1.00  0.00     0.307 A 
ATOM     19  O   UNL     1       2.023   4.477   0.773  1.00  0.00    -0.257 OA
ENDBRANCH  12  13
ENDBRANCH   9  12
ENDBRANCH   7   8
BRANCH   7  20
ATOM     20  C   UNL     1       0.369   0.669  -3.894  1.00  0.00     0.143 C 
ATOM     21  C   UNL     1       1.860   0.449  -4.152  1.00  0.00     0.041 C 
BRANCH  20  22
ATOM     22  O   UNL     1      -0.109  -0.607  -3.451  1.00  0.00    -0.391 OA
ATOM     23  H   UNL     1       0.362  -0.866  -2.644  1.00  0.00     0.211 HD
ENDBRANCH  20  22
ENDBRANCH   7  20
ENDBRANCH   4   7
ENDBRANCH   2   3
ENDBRANCH   1   2
BRANCH   1  24
ATOM     24  C   UNL     1      -2.417   6.168  -0.815  1.00  0.00     0.023 C 
BRANCH  24  25
ATOM     25  C   UNL     1      -2.865   6.079   0.642  1.00  0.00     0.116 C 
BRANCH  25  26
ATOM     26  N   UNL     1      -1.907   6.662   1.579  1.00  0.00    -0.352 N 
ATOM     27  C   UNL     1      -1.987   6.674   2.959  1.00  0.00     0.251 C 
ATOM     28  H   UNL     1      -1.115   7.093   1.184  1.00  0.00     0.163 HD
ATOM     29  O   UNL     1      -1.384   7.513   3.620  1.00  0.00    -0.269 OA
BRANCH  27  30
ATOM     30  C   UNL     1      -2.814   5.653   3.629  1.00  0.00     0.039 A 
ATOM     31  C   UNL     1      -3.668   5.988   4.681  1.00  0.00     0.014 A 
ATOM     32  C   UNL     1      -2.739   4.342   3.164  1.00  0.00     0.014 A 
ATOM     33  C   UNL     1      -4.512   5.007   5.200  1.00  0.00     0.010 A 
ATOM     34  C   UNL     1      -3.625   3.394   3.617  1.00  0.00     0.010 A 
ATOM     35  C   UNL     1      -4.501   3.716   4.649  1.00  0.00    -0.014 A 
BRANCH  35  36
ATOM     36  C   UNL     1      -5.530   2.748   5.018  1.00  0.00     0.031 A 
ATOM     37  C   UNL     1      -6.928   3.207   4.782  1.00  0.00     0.074 A 
ATOM     38  C   UNL     1      -5.263   1.453   5.294  1.00  0.00     0.049 A 
ATOM     39  N   UNL     1      -7.856   3.388   5.664  1.00  0.00    -0.248 NA
ATOM     40  C   UNL     1      -7.307   3.630   3.425  1.00  0.00     0.031 C 
ATOM     41  C   UNL     1      -3.961   0.779   5.233  1.00  0.00     0.029 A 
ATOM     42  N   UNL     1      -6.129   0.423   5.517  1.00  0.00    -0.354 N 
ATOM     43  C   UNL     1      -9.004   3.709   4.942  1.00  0.00     0.074 A 
ATOM     44  C   UNL     1      -8.562   4.043   3.614  1.00  0.00     0.031 C 
ATOM     45  C   UNL     1      -4.155  -0.554   5.139  1.00  0.00     0.029 A 
ATOM     46  C   UNL     1      -5.571  -0.832   5.292  1.00  0.00     0.049 A 
ATOM     47  H   UNL     1      -7.060   0.555   5.809  1.00  0.00     0.167 HD
ATOM     48  C   UNL     1     -10.244   3.414   5.422  1.00  0.00     0.034 A 
ATOM     49  C   UNL     1      -6.231  -2.009   5.172  1.00  0.00     0.034 A 
ATOM     50  C   UNL     1     -10.205   3.106   6.831  1.00  0.00     0.049 A 
ATOM     51  C   UNL     1      -7.553  -1.839   5.816  1.00  0.00     0.074 A 
ATOM     52  C   UNL     1      -9.730   3.745   7.960  1.00  0.00     0.029 A 
ATOM     53  N   UNL     1     -10.371   1.790   7.190  1.00  0.00    -0.354 N 
ATOM     54  N   UNL     1      -7.711  -1.656   7.097  1.00  0.00    -0.248 NA
ATOM     55  C   UNL     1      -8.683  -1.459   4.985  1.00  0.00     0.031 C 
ATOM     56  C   UNL     1      -9.167   2.704   8.756  1.00  0.00     0.029 A 
ATOM     57  C   UNL     1      -9.398   1.492   8.102  1.00  0.00     0.049 A 
ATOM     58  H   UNL     1     -11.063   1.176   6.852  1.00  0.00     0.167 HD
ATOM     59  C   UNL     1      -8.728  -0.716   7.183  1.00  0.00     0.074 A 
ATOM     60  C   UNL     1      -9.371  -0.735   5.871  1.00  0.00     0.031 C 
ATOM     61  C   UNL     1      -8.759   0.199   8.198  1.00  0.00     0.034 A 
BRANCH  48  62
ATOM     62  C   UNL     1     -11.435   3.013   4.574  1.00  0.00     0.023 A 
ATOM     63  C   UNL     1     -12.674   2.852   5.239  1.00  0.00     0.012 A 
ATOM     64  C   UNL     1     -11.351   2.507   3.257  1.00  0.00     0.148 A 
ATOM     65  C   UNL     1     -13.738   2.153   4.659  1.00  0.00     0.002 A 
ATOM     66  C   UNL     1     -12.441   1.889   2.652  1.00  0.00     0.091 A 
ATOM     67  F   UNL     1     -10.181   2.487   2.616  1.00  0.00    -0.205 F 
ATOM     68  C   UNL     1     -13.623   1.675   3.361  1.00  0.00     0.022 A 
BRANCH  66  69
ATOM     69  S   UNL     1     -12.360   1.305   0.954  1.00  0.00     0.127 S 
ATOM     70  O   UNL     1     -12.231  -0.136   1.148  1.00  0.00    -0.237 OA
ATOM     71  O   UNL     1     -13.649   1.749   0.423  1.00  0.00    -0.237 OA
ATOM     72  O   UNL     1     -11.210   1.982   0.366  1.00  0.00    -0.744 OA
ENDBRANCH  66  69
ENDBRANCH  48  62
BRANCH  49  73
ATOM     73  C   UNL     1      -5.890  -3.205   4.367  1.00  0.00     0.023 A 
ATOM     74  C   UNL     1      -6.503  -4.440   4.656  1.00  0.00     0.012 A 
ATOM     75  C   UNL     1      -5.170  -3.090   3.156  1.00  0.00     0.148 A 
ATOM     76  C   UNL     1      -6.432  -5.511   3.756  1.00  0.00     0.002 A 
ATOM     77  C   UNL     1      -5.087  -4.162   2.272  1.00  0.00     0.091 A 
ATOM     78  F   UNL     1      -4.647  -1.903   2.820  1.00  0.00    -0.205 F 
ATOM     79  C   UNL     1      -5.730  -5.371   2.562  1.00  0.00     0.022 A 
BRANCH  77  80
ATOM     80  S   UNL     1      -4.192  -4.035   0.717  1.00  0.00     0.127 S 
ATOM     81  O   UNL     1      -3.474  -5.309   0.670  1.00  0.00    -0.237 OA
ATOM     82  O   UNL     1      -5.278  -3.906  -0.250  1.00  0.00    -0.237 OA
ATOM     83  O   UNL     1      -3.322  -2.871   0.854  1.00  0.00    -0.744 OA
ENDBRANCH  77  80
ENDBRANCH  49  73
BRANCH  61  84
ATOM     84  C   UNL     1      -7.845  -0.002   9.381  1.00  0.00     0.023 A 
ATOM     85  C   UNL     1      -6.441  -0.031   9.257  1.00  0.00     0.012 A 
ATOM     86  C   UNL     1      -8.411   0.030  10.668  1.00  0.00     0.148 A 
ATOM     87  C   UNL     1      -5.621  -0.053  10.388  1.00  0.00     0.002 A 
ATOM     88  C   UNL     1      -7.592   0.061  11.790  1.00  0.00     0.091 A 
ATOM     89  F   UNL     1      -9.748   0.061  10.773  1.00  0.00    -0.205 F 
ATOM     90  C   UNL     1      -6.196   0.009  11.655  1.00  0.00     0.022 A 
BRANCH  88  91
ATOM     91  S   UNL     1      -8.271   0.276  13.436  1.00  0.00     0.127 S 
ATOM     92  O   UNL     1      -8.189  -1.078  13.980  1.00  0.00    -0.237 OA
ATOM     93  O   UNL     1      -7.343   1.235  14.039  1.00  0.00    -0.237 OA
ATOM     94  O   UNL     1      -9.619   0.797  13.246  1.00  0.00    -0.744 OA
ENDBRANCH  88  91
ENDBRANCH  61  84
ENDBRANCH  35  36
ENDBRANCH  27  30
ENDBRANCH  25  26
ENDBRANCH  24  25
ENDBRANCH   1  24
TORSDOF 19
