REMARK SMILES Cc1cc2c(c(C)c1Cl)C=C(C(=O)NCCCCNC(=O)c1ccc(-c3c4nc(c(-c5cccc(S(=O)(=O)[O-])c5F)c5ccc([nH]5)c(-c5cccc(S(=O)(=O)[O-])c5F)c5nc(c(-c6cccc(S(=O)(=O)[O-])c6F)c6ccc3[nH]6)C=C5)C=C4)cc1)[C@@H](C(F)(F)F)O2
REMARK SMILES IDX 17 1 16 2 15 3 14 4 12 5 13 6 11 8 1 9 2 10 3 11 8 12 4 13
REMARK SMILES IDX 6 14 9 15 5 16 90 17 7 18 10 19 85 20 86 21 87 22 88 23
REMARK SMILES IDX 89 24 18 25 19 26 20 27 21 29 22 30 23 31 84 32 24 33 83 34
REMARK SMILES IDX 25 35 26 36 27 37 77 38 28 39 82 40 76 41 78 42 29 43 81 44
REMARK SMILES IDX 75 45 74 46 30 48 62 49 42 50 61 51 43 52 46 53 60 54 79 55
REMARK SMILES IDX 44 56 45 57 59 59 80 60 47 61 31 62 32 63 40 64 33 65 35 66
REMARK SMILES IDX 41 67 34 68 36 69 37 70 38 71 39 72 63 73 64 74 72 75 65 76
REMARK SMILES IDX 67 77 73 78 66 79 68 80 69 81 70 82 71 83 48 84 49 85 57 86
REMARK SMILES IDX 50 87 52 88 58 89 51 90 53 91 54 92 55 93 56 94
REMARK H PARENT 14 7 19 28 78 47 46 58
REMARK Flexibility Score: inf
ROOT
ATOM      1  C   UNL     1      -2.369   5.554   8.890  1.00  0.00     0.023 C 
ENDROOT
BRANCH   1   2
ATOM      2  C   UNL     1      -2.188   4.569   7.732  1.00  0.00     0.023 C 
BRANCH   2   3
ATOM      3  C   UNL     1      -2.934   4.953   6.457  1.00  0.00     0.116 C 
BRANCH   3   4
ATOM      4  N   UNL     1      -2.179   5.886   5.641  1.00  0.00    -0.352 N 
ATOM      5  C   UNL     1      -1.414   5.830   4.527  1.00  0.00     0.251 C 
ATOM      6  O   UNL     1      -0.947   6.910   4.152  1.00  0.00    -0.270 OA
ATOM      7  H   UNL     1      -2.239   6.804   5.992  1.00  0.00     0.163 HD
BRANCH   5   8
ATOM      8  C   UNL     1      -1.111   4.593   3.745  1.00  0.00     0.067 C 
ATOM      9  C   UNL     1       1.177   0.010  -0.285  1.00  0.00     0.046 C 
ATOM     10  C   UNL     1       0.830   1.276   0.451  1.00  0.00    -0.028 A 
ATOM     11  C   UNL     1       0.045   1.188   1.604  1.00  0.00     0.052 A 
ATOM     12  C   UNL     1       1.273   2.544   0.023  1.00  0.00     0.047 A 
ATOM     13  C   UNL     1      -0.295   2.333   2.317  1.00  0.00     0.128 A 
ATOM     14  C   UNL     1       0.935   3.718   0.740  1.00  0.00    -0.021 A 
ATOM     15  Cl  UNL     1       2.263   2.632  -1.405  1.00  0.00    -0.084 Cl
ATOM     16  C   UNL     1       0.151   3.595   1.913  1.00  0.00     0.022 A 
ATOM     17  O   UNL     1      -1.039   2.127   3.444  1.00  0.00    -0.475 OA
ATOM     18  C   UNL     1       1.405   5.085   0.299  1.00  0.00     0.047 C 
ATOM     19  C   UNL     1      -0.191   4.734   2.772  1.00  0.00     0.026 C 
ATOM     20  C   UNL     1      -1.784   3.270   3.949  1.00  0.00     0.314 C 
BRANCH  20  21
ATOM     21  C   UNL     1      -3.215   3.235   3.383  1.00  0.00     0.429 C 
ATOM     22  F   UNL     1      -3.875   2.137   3.833  1.00  0.00    -0.167 F 
ATOM     23  F   UNL     1      -3.951   4.306   3.760  1.00  0.00    -0.167 F 
ATOM     24  F   UNL     1      -3.240   3.193   2.032  1.00  0.00    -0.167 F 
ENDBRANCH  20  21
ENDBRANCH   5   8
ENDBRANCH   3   4
ENDBRANCH   2   3
ENDBRANCH   1   2
BRANCH   1  25
ATOM     25  C   UNL     1      -3.814   5.853   9.284  1.00  0.00     0.116 C 
BRANCH  25  26
ATOM     26  N   UNL     1      -4.628   4.664   9.509  1.00  0.00    -0.352 N 
ATOM     27  C   UNL     1      -5.728   4.545  10.327  1.00  0.00     0.251 C 
ATOM     28  H   UNL     1      -4.358   3.853   9.020  1.00  0.00     0.163 HD
ATOM     29  O   UNL     1      -6.293   3.465  10.471  1.00  0.00    -0.269 OA
BRANCH  27  30
ATOM     30  C   UNL     1      -6.178   5.737  11.067  1.00  0.00     0.039 A 
ATOM     31  C   UNL     1      -6.173   5.703  12.462  1.00  0.00     0.014 A 
ATOM     32  C   UNL     1      -6.484   6.914  10.377  1.00  0.00     0.014 A 
ATOM     33  C   UNL     1      -6.393   6.882  13.173  1.00  0.00     0.010 A 
ATOM     34  C   UNL     1      -6.644   8.098  11.088  1.00  0.00     0.010 A 
ATOM     35  C   UNL     1      -6.585   8.095  12.490  1.00  0.00    -0.014 A 
BRANCH  35  36
ATOM     36  C   UNL     1      -6.676   9.377  13.229  1.00  0.00     0.031 A 
ATOM     37  C   UNL     1      -7.955  10.161  13.229  1.00  0.00     0.074 A 
ATOM     38  C   UNL     1      -5.577   9.867  13.836  1.00  0.00     0.049 A 
ATOM     39  N   UNL     1      -8.219  11.296  13.819  1.00  0.00    -0.248 NA
ATOM     40  C   UNL     1      -9.077   9.613  12.448  1.00  0.00     0.031 C 
ATOM     41  C   UNL     1      -4.255   9.236  13.826  1.00  0.00     0.029 A 
ATOM     42  N   UNL     1      -5.391  11.013  14.568  1.00  0.00    -0.354 N 
ATOM     43  C   UNL     1      -9.525  11.609  13.467  1.00  0.00     0.074 A 
ATOM     44  C   UNL     1      -9.988  10.567  12.578  1.00  0.00     0.031 C 
ATOM     45  C   UNL     1      -3.402   9.990  14.539  1.00  0.00     0.029 A 
ATOM     46  C   UNL     1      -4.109  11.163  15.044  1.00  0.00     0.049 A 
ATOM     47  H   UNL     1      -6.108  11.666  14.736  1.00  0.00     0.167 HD
ATOM     48  C   UNL     1     -10.286  12.647  13.884  1.00  0.00     0.034 A 
ATOM     49  C   UNL     1      -3.571  12.127  15.817  1.00  0.00     0.034 A 
ATOM     50  C   UNL     1      -9.840  13.647  14.814  1.00  0.00     0.049 A 
ATOM     51  C   UNL     1      -4.451  13.246  16.305  1.00  0.00     0.074 A 
ATOM     52  C   UNL     1     -10.564  14.687  15.368  1.00  0.00     0.029 A 
ATOM     53  N   UNL     1      -8.557  13.728  15.331  1.00  0.00    -0.354 N 
ATOM     54  N   UNL     1      -5.732  13.434  16.096  1.00  0.00    -0.248 NA
ATOM     55  C   UNL     1      -3.826  14.266  17.160  1.00  0.00     0.031 C 
ATOM     56  C   UNL     1      -9.716  15.398  16.223  1.00  0.00     0.029 A 
ATOM     57  C   UNL     1      -8.465  14.801  16.199  1.00  0.00     0.049 A 
ATOM     58  H   UNL     1      -7.820  13.113  15.114  1.00  0.00     0.167 HD
ATOM     59  C   UNL     1      -6.073  14.574  16.814  1.00  0.00     0.074 A 
ATOM     60  C   UNL     1      -4.867  15.025  17.479  1.00  0.00     0.031 C 
ATOM     61  C   UNL     1      -7.272  15.200  16.900  1.00  0.00     0.034 A 
BRANCH  48  62
ATOM     62  C   UNL     1     -11.713  12.698  13.413  1.00  0.00     0.023 A 
ATOM     63  C   UNL     1     -12.647  11.807  13.978  1.00  0.00     0.012 A 
ATOM     64  C   UNL     1     -12.145  13.651  12.472  1.00  0.00     0.148 A 
ATOM     65  C   UNL     1     -13.987  11.846  13.597  1.00  0.00     0.002 A 
ATOM     66  C   UNL     1     -13.490  13.707  12.122  1.00  0.00     0.091 A 
ATOM     67  F   UNL     1     -11.236  14.472  11.927  1.00  0.00    -0.205 F 
ATOM     68  C   UNL     1     -14.409  12.801  12.678  1.00  0.00     0.022 A 
BRANCH  66  69
ATOM     69  S   UNL     1     -14.143  14.944  10.995  1.00  0.00     0.127 S 
ATOM     70  O   UNL     1     -14.357  14.155   9.783  1.00  0.00    -0.237 OA
ATOM     71  O   UNL     1     -15.370  15.366  11.673  1.00  0.00    -0.237 OA
ATOM     72  O   UNL     1     -13.120  15.976  10.901  1.00  0.00    -0.744 OA
ENDBRANCH  66  69
ENDBRANCH  48  62
BRANCH  49  73
ATOM     73  C   UNL     1      -2.159  12.000  16.276  1.00  0.00     0.023 A 
ATOM     74  C   UNL     1      -1.909  11.657  17.619  1.00  0.00     0.012 A 
ATOM     75  C   UNL     1      -1.072  12.146  15.392  1.00  0.00     0.148 A 
ATOM     76  C   UNL     1      -0.605  11.477  18.078  1.00  0.00     0.002 A 
ATOM     77  C   UNL     1       0.224  11.918  15.845  1.00  0.00     0.091 A 
ATOM     78  F   UNL     1      -1.327  12.490  14.121  1.00  0.00    -0.205 F 
ATOM     79  C   UNL     1       0.460  11.595  17.190  1.00  0.00     0.022 A 
BRANCH  77  80
ATOM     80  S   UNL     1       1.638  11.917  14.736  1.00  0.00     0.127 S 
ATOM     81  O   UNL     1       2.260  13.202  15.042  1.00  0.00    -0.237 OA
ATOM     82  O   UNL     1       2.387  10.745  15.194  1.00  0.00    -0.237 OA
ATOM     83  O   UNL     1       1.079  11.779  13.398  1.00  0.00    -0.744 OA
ENDBRANCH  77  80
ENDBRANCH  49  73
BRANCH  61  84
ATOM     84  C   UNL     1      -7.364  16.443  17.742  1.00  0.00     0.023 A 
ATOM     85  C   UNL     1      -6.873  17.658  17.227  1.00  0.00     0.012 A 
ATOM     86  C   UNL     1      -8.061  16.437  18.966  1.00  0.00     0.148 A 
ATOM     87  C   UNL     1      -7.069  18.850  17.921  1.00  0.00     0.002 A 
ATOM     88  C   UNL     1      -8.288  17.635  19.633  1.00  0.00     0.091 A 
ATOM     89  F   UNL     1      -8.506  15.265  19.443  1.00  0.00    -0.205 F 
ATOM     90  C   UNL     1      -7.788  18.841  19.114  1.00  0.00     0.022 A 
BRANCH  88  91
ATOM     91  S   UNL     1      -9.285  17.736  21.125  1.00  0.00     0.127 S 
ATOM     92  O   UNL     1      -8.272  18.011  22.142  1.00  0.00    -0.237 OA
ATOM     93  O   UNL     1     -10.174  18.860  20.829  1.00  0.00    -0.237 OA
ATOM     94  O   UNL     1      -9.958  16.449  21.245  1.00  0.00    -0.744 OA
ENDBRANCH  88  91
ENDBRANCH  61  84
ENDBRANCH  35  36
ENDBRANCH  27  30
ENDBRANCH  25  26
ENDBRANCH   1  25
TORSDOF 15
