REMARK SMILES CCC[C@]1(C(=O)NCCCCNC(=O)c2ccc(-c3c4nc(c(-c5cccc(S(=O)(=O)[O-])c5F)c5ccc([nH]5)c(-c5cccc(S(=O)(=O)[O-])c5F)c5nc(c(-c6cccc(S(=O)(=O)[O-])c6F)c6ccc3[nH]6)C=C5)C=C4)cc2)CCCN(C(=O)c2ccc(NS(=O)(=O)CC)cc2)C1
REMARK SMILES IDX 8 1 7 2 5 3 6 4 4 6 78 7 96 8 79 9 81 10 80 11 3 12 2 13
REMARK SMILES IDX 1 14 82 15 83 16 84 17 85 18 95 19 86 20 94 21 87 22 88 23
REMARK SMILES IDX 89 25 90 26 91 27 92 28 93 29 9 30 10 31 11 32 12 33 13 34
REMARK SMILES IDX 14 36 15 37 16 38 77 39 17 40 76 41 18 42 19 43 20 44 70 45
REMARK SMILES IDX 21 46 75 47 69 48 71 49 22 50 74 51 68 52 67 53 23 55 55 56
REMARK SMILES IDX 35 57 54 58 36 59 39 60 53 61 72 62 37 63 38 64 52 66 73 67
REMARK SMILES IDX 40 68 24 69 25 70 33 71 26 72 28 73 34 74 27 75 29 76 30 77
REMARK SMILES IDX 31 78 32 79 56 80 57 81 65 82 58 83 60 84 66 85 59 86 61 87
REMARK SMILES IDX 62 88 63 89 64 90 41 91 42 92 50 93 43 94 45 95 51 96 44 97
REMARK SMILES IDX 46 98 47 99 48 100 49 101
REMARK H PARENT 7 5 88 24 12 35 71 54 39 65
REMARK Flexibility Score: inf
ROOT
ATOM      1  C   UNL     1      -1.306   2.718   4.538  1.00  0.00     0.116 C 
ENDROOT
BRANCH   1   2
ATOM      2  N   UNL     1      -1.270   1.261   4.556  1.00  0.00    -0.356 N 
ATOM      3  C   UNL     1      -0.527   0.363   3.840  1.00  0.00     0.228 C 
ATOM      4  O   UNL     1      -0.716  -0.832   4.075  1.00  0.00    -0.274 OA
ATOM      5  H   UNL     1      -1.893   0.849   5.197  1.00  0.00     0.163 HD
BRANCH   3   6
ATOM      6  C   UNL     1       0.502   0.834   2.789  1.00  0.00     0.067 C 
ATOM      7  C   UNL     1      -0.231   1.549   1.633  1.00  0.00     0.020 C 
ATOM      8  C   UNL     1       1.511   1.730   3.563  1.00  0.00     0.136 C 
ATOM      9  C   UNL     1       0.696   2.448   0.833  1.00  0.00     0.023 C 
ATOM     10  N   UNL     1       2.119   2.821   2.812  1.00  0.00    -0.338 N 
ATOM     11  C   UNL     1       1.367   3.458   1.735  1.00  0.00     0.120 C 
BRANCH   6  12
ATOM     12  C   UNL     1       1.340  -0.390   2.259  1.00  0.00     0.018 C 
BRANCH  12  13
ATOM     13  C   UNL     1       0.749  -1.274   1.147  1.00  0.00    -0.002 C 
ATOM     14  C   UNL     1       1.151  -0.840  -0.261  1.00  0.00     0.004 C 
ENDBRANCH  12  13
ENDBRANCH   6  12
BRANCH  10  15
ATOM     15  C   UNL     1       3.214   3.432   3.412  1.00  0.00     0.253 C 
ATOM     16  O   UNL     1       3.627   3.186   4.540  1.00  0.00    -0.269 OA
BRANCH  15  17
ATOM     17  C   UNL     1       4.002   4.338   2.577  1.00  0.00     0.040 A 
ATOM     18  C   UNL     1       4.963   3.750   1.760  1.00  0.00     0.016 A 
ATOM     19  C   UNL     1       3.817   5.716   2.610  1.00  0.00     0.016 A 
ATOM     20  C   UNL     1       5.787   4.560   0.991  1.00  0.00     0.027 A 
ATOM     21  C   UNL     1       4.674   6.521   1.858  1.00  0.00     0.027 A 
ATOM     22  C   UNL     1       5.694   5.950   1.080  1.00  0.00     0.049 A 
BRANCH  22  23
ATOM     23  N   UNL     1       6.752   6.817   0.683  1.00  0.00    -0.284 N 
ATOM     24  H   UNL     1       6.758   7.720   1.076  1.00  0.00     0.180 HD
BRANCH  23  25
ATOM     25  S   UNL     1       7.975   6.453  -0.377  1.00  0.00     0.232 S 
ATOM     26  O   UNL     1       7.377   5.946  -1.597  1.00  0.00    -0.207 OA
ATOM     27  O   UNL     1       8.799   7.642  -0.412  1.00  0.00    -0.207 OA
BRANCH  25  28
ATOM     28  C   UNL     1       8.954   5.138   0.361  1.00  0.00     0.156 C 
ATOM     29  C   UNL     1       9.060   5.147   1.871  1.00  0.00     0.023 C 
ENDBRANCH  25  28
ENDBRANCH  23  25
ENDBRANCH  22  23
ENDBRANCH  15  17
ENDBRANCH  10  15
ENDBRANCH   3   6
ENDBRANCH   1   2
BRANCH   1  30
ATOM     30  C   UNL     1      -2.732   3.241   4.630  1.00  0.00     0.023 C 
BRANCH  30  31
ATOM     31  C   UNL     1      -3.295   3.188   6.048  1.00  0.00     0.023 C 
BRANCH  31  32
ATOM     32  C   UNL     1      -2.493   3.981   7.075  1.00  0.00     0.116 C 
BRANCH  32  33
ATOM     33  N   UNL     1      -2.361   5.387   6.715  1.00  0.00    -0.352 N 
ATOM     34  C   UNL     1      -2.694   6.495   7.456  1.00  0.00     0.251 C 
ATOM     35  H   UNL     1      -1.983   5.567   5.824  1.00  0.00     0.163 HD
ATOM     36  O   UNL     1      -2.702   7.607   6.938  1.00  0.00    -0.269 OA
BRANCH  34  37
ATOM     37  C   UNL     1      -3.059   6.321   8.875  1.00  0.00     0.039 A 
ATOM     38  C   UNL     1      -4.212   6.936   9.363  1.00  0.00     0.014 A 
ATOM     39  C   UNL     1      -2.278   5.512   9.706  1.00  0.00     0.014 A 
ATOM     40  C   UNL     1      -4.610   6.695  10.678  1.00  0.00     0.010 A 
ATOM     41  C   UNL     1      -2.729   5.198  10.982  1.00  0.00     0.010 A 
ATOM     42  C   UNL     1      -3.889   5.801  11.489  1.00  0.00    -0.014 A 
BRANCH  42  43
ATOM     43  C   UNL     1      -4.330   5.498  12.874  1.00  0.00     0.031 A 
ATOM     44  C   UNL     1      -3.435   5.824  14.040  1.00  0.00     0.074 A 
ATOM     45  C   UNL     1      -5.504   4.869  13.079  1.00  0.00     0.049 A 
ATOM     46  N   UNL     1      -3.641   5.625  15.316  1.00  0.00    -0.248 NA
ATOM     47  C   UNL     1      -2.126   6.425  13.734  1.00  0.00     0.031 C 
ATOM     48  C   UNL     1      -6.418   4.418  12.026  1.00  0.00     0.029 A 
ATOM     49  N   UNL     1      -6.121   4.481  14.241  1.00  0.00    -0.354 N 
ATOM     50  C   UNL     1      -2.481   6.040  15.958  1.00  0.00     0.074 A 
ATOM     51  C   UNL     1      -1.556   6.461  14.929  1.00  0.00     0.031 C 
ATOM     52  C   UNL     1      -7.485   3.831  12.591  1.00  0.00     0.029 A 
ATOM     53  C   UNL     1      -7.318   3.833  14.041  1.00  0.00     0.049 A 
ATOM     54  H   UNL     1      -5.744   4.651  15.134  1.00  0.00     0.167 HD
ATOM     55  C   UNL     1      -2.217   6.097  17.284  1.00  0.00     0.034 A 
ATOM     56  C   UNL     1      -8.181   3.297  14.926  1.00  0.00     0.034 A 
ATOM     57  C   UNL     1      -3.153   5.713  18.305  1.00  0.00     0.049 A 
ATOM     58  C   UNL     1      -7.885   3.413  16.396  1.00  0.00     0.074 A 
ATOM     59  C   UNL     1      -3.020   5.821  19.678  1.00  0.00     0.029 A 
ATOM     60  N   UNL     1      -4.389   5.134  18.067  1.00  0.00    -0.354 N 
ATOM     61  N   UNL     1      -6.854   3.963  16.989  1.00  0.00    -0.248 NA
ATOM     62  C   UNL     1      -8.891   2.871  17.321  1.00  0.00     0.031 C 
ATOM     63  C   UNL     1      -4.161   5.271  20.270  1.00  0.00     0.029 A 
ATOM     64  C   UNL     1      -5.024   4.863  19.266  1.00  0.00     0.049 A 
ATOM     65  H   UNL     1      -4.761   4.943  17.175  1.00  0.00     0.167 HD
ATOM     66  C   UNL     1      -7.103   3.868  18.354  1.00  0.00     0.074 A 
ATOM     67  C   UNL     1      -8.393   3.226  18.497  1.00  0.00     0.031 C 
ATOM     68  C   UNL     1      -6.329   4.265  19.394  1.00  0.00     0.034 A 
BRANCH  55  69
ATOM     69  C   UNL     1      -0.873   6.633  17.709  1.00  0.00     0.023 A 
ATOM     70  C   UNL     1      -0.573   7.999  17.526  1.00  0.00     0.012 A 
ATOM     71  C   UNL     1       0.073   5.797  18.334  1.00  0.00     0.148 A 
ATOM     72  C   UNL     1       0.661   8.515  17.920  1.00  0.00     0.002 A 
ATOM     73  C   UNL     1       1.280   6.330  18.770  1.00  0.00     0.091 A 
ATOM     74  F   UNL     1      -0.220   4.497  18.480  1.00  0.00    -0.205 F 
ATOM     75  C   UNL     1       1.582   7.684  18.551  1.00  0.00     0.022 A 
BRANCH  73  76
ATOM     76  S   UNL     1       2.497   5.364  19.670  1.00  0.00     0.127 S 
ATOM     77  O   UNL     1       3.581   5.271  18.693  1.00  0.00    -0.237 OA
ATOM     78  O   UNL     1       2.782   6.224  20.818  1.00  0.00    -0.237 OA
ATOM     79  O   UNL     1       1.847   4.104  20.001  1.00  0.00    -0.744 OA
ENDBRANCH  73  76
ENDBRANCH  55  69
BRANCH  56  80
ATOM     80  C   UNL     1      -9.438   2.655  14.445  1.00  0.00     0.023 A 
ATOM     81  C   UNL     1     -10.677   3.276  14.696  1.00  0.00     0.012 A 
ATOM     82  C   UNL     1      -9.409   1.448  13.722  1.00  0.00     0.148 A 
ATOM     83  C   UNL     1     -11.867   2.687  14.268  1.00  0.00     0.002 A 
ATOM     84  C   UNL     1     -10.593   0.896  13.247  1.00  0.00     0.091 A 
ATOM     85  F   UNL     1      -8.220   0.870  13.499  1.00  0.00    -0.205 F 
ATOM     86  C   UNL     1     -11.825   1.503  13.536  1.00  0.00     0.022 A 
BRANCH  84  87
ATOM     87  S   UNL     1     -10.624  -0.551  12.184  1.00  0.00     0.127 S 
ATOM     88  O   UNL     1     -11.246  -1.547  13.053  1.00  0.00    -0.237 OA
ATOM     89  O   UNL     1     -11.461  -0.090  11.076  1.00  0.00    -0.237 OA
ATOM     90  O   UNL     1      -9.237  -0.806  11.824  1.00  0.00    -0.744 OA
ENDBRANCH  84  87
ENDBRANCH  56  80
BRANCH  68  91
ATOM     91  C   UNL     1      -6.870   4.062  20.786  1.00  0.00     0.023 A 
ATOM     92  C   UNL     1      -6.970   2.764  21.325  1.00  0.00     0.012 A 
ATOM     93  C   UNL     1      -7.219   5.170  21.583  1.00  0.00     0.148 A 
ATOM     94  C   UNL     1      -7.447   2.570  22.620  1.00  0.00     0.002 A 
ATOM     95  C   UNL     1      -7.640   4.973  22.892  1.00  0.00     0.091 A 
ATOM     96  F   UNL     1      -7.133   6.397  21.047  1.00  0.00    -0.205 F 
ATOM     97  C   UNL     1      -7.770   3.673  23.407  1.00  0.00     0.022 A 
BRANCH  95  98
ATOM     98  S   UNL     1      -7.980   6.337  24.010  1.00  0.00     0.127 S 
ATOM     99  O   UNL     1      -9.436   6.273  24.123  1.00  0.00    -0.237 OA
ATOM    100  O   UNL     1      -7.256   5.936  25.216  1.00  0.00    -0.237 OA
ATOM    101  O   UNL     1      -7.456   7.530  23.360  1.00  0.00    -0.744 OA
ENDBRANCH  95  98
ENDBRANCH  68  91
ENDBRANCH  42  43
ENDBRANCH  34  37
ENDBRANCH  32  33
ENDBRANCH  31  32
ENDBRANCH  30  31
ENDBRANCH   1  30
TORSDOF 21
