REMARK SMILES CNC(=O)C[N@@H+]1CC[C@@H](C(=O)NCCCCNC(=O)c2ccc(-c3c4nc(c(-c5cccc(S(=O)(=O)[O-])c5F)c5ccc([nH]5)c(-c5cccc(S(=O)(=O)[O-])c5F)c5nc(c(-c6cccc(S(=O)(=O)[O-])c6F)c6ccc3[nH]6)C=C5)C=C4)cc2)[C@H]1C
REMARK SMILES IDX 15 1 14 2 13 3 12 4 10 5 11 6 9 8 6 9 7 10 83 11 8 13 84 14
REMARK SMILES IDX 5 15 3 16 1 17 2 18 4 20 16 21 17 22 18 23 19 25 20 26 21 27
REMARK SMILES IDX 82 28 22 29 81 30 23 31 24 32 25 33 75 34 26 35 80 36 74 37
REMARK SMILES IDX 76 38 27 39 79 40 73 41 72 42 28 44 60 45 40 46 59 47 41 48
REMARK SMILES IDX 44 49 58 50 77 51 42 52 43 53 57 55 78 56 45 57 29 58 30 59
REMARK SMILES IDX 38 60 31 61 33 62 39 63 32 64 34 65 35 66 36 67 37 68 61 69
REMARK SMILES IDX 62 70 70 71 63 72 65 73 71 74 64 75 66 76 67 77 68 78 69 79
REMARK SMILES IDX 46 80 47 81 55 82 48 83 50 84 56 85 49 86 51 87 52 88 53 89
REMARK SMILES IDX 54 90
REMARK H PARENT 12 7 6 12 2 19 17 24 76 43 44 54
REMARK Flexibility Score: inf
ROOT
ATOM      1  C   UNL     1       0.357  -3.865   0.657  1.00  0.00     0.023 C 
ENDROOT
BRANCH   1   2
ATOM      2  C   UNL     1       0.297  -2.580  -0.158  1.00  0.00     0.023 C 
BRANCH   2   3
ATOM      3  C   UNL     1       1.625  -1.836  -0.321  1.00  0.00     0.116 C 
BRANCH   3   4
ATOM      4  N   UNL     1       2.332  -2.247  -1.515  1.00  0.00    -0.356 N 
ATOM      5  C   UNL     1       2.615  -1.575  -2.660  1.00  0.00     0.229 C 
ATOM      6  O   UNL     1       3.252  -2.193  -3.522  1.00  0.00    -0.275 OA
ATOM      7  H   UNL     1       2.664  -3.174  -1.494  1.00  0.00     0.163 HD
BRANCH   5   8
ATOM      8  C   UNL     1       2.249  -0.116  -2.920  1.00  0.00     0.142 C 
ATOM      9  N   UNL     1       0.756   1.269  -1.726  1.00  0.00    -0.324 N 
ATOM     10  C   UNL     1       2.010   2.017  -1.827  1.00  0.00     0.263 C 
ATOM     11  C   UNL     1       0.783   0.356  -2.889  1.00  0.00     0.194 C 
ATOM     12  H   UNL     1       0.695   0.758  -0.846  1.00  0.00     0.348 HD
ATOM     13  C   UNL     1       3.003   0.882  -2.032  1.00  0.00     0.081 C 
ATOM     14  C   UNL     1      -0.315  -0.696  -2.896  1.00  0.00     0.076 C 
BRANCH   9  15
ATOM     15  C   UNL     1      -0.448   2.106  -1.643  1.00  0.00     0.363 C 
BRANCH  15  16
ATOM     16  C   UNL     1      -0.437   3.078  -0.452  1.00  0.00     0.274 C 
ATOM     17  C   UNL     1       0.225   1.329   1.256  1.00  0.00     0.143 C 
ATOM     18  N   UNL     1      -0.160   2.646   0.814  1.00  0.00    -0.354 N 
ATOM     19  H   UNL     1      -0.233   3.328   1.521  1.00  0.00     0.163 HD
ATOM     20  O   UNL     1      -0.738   4.266  -0.606  1.00  0.00    -0.269 OA
ENDBRANCH  15  16
ENDBRANCH   9  15
ENDBRANCH   5   8
ENDBRANCH   3   4
ENDBRANCH   2   3
ENDBRANCH   1   2
BRANCH   1  21
ATOM     21  C   UNL     1       0.774  -3.699   2.111  1.00  0.00     0.116 C 
BRANCH  21  22
ATOM     22  N   UNL     1      -0.084  -2.807   2.882  1.00  0.00    -0.352 N 
ATOM     23  C   UNL     1      -0.554  -2.961   4.168  1.00  0.00     0.251 C 
ATOM     24  H   UNL     1      -0.366  -1.984   2.421  1.00  0.00     0.163 HD
ATOM     25  O   UNL     1      -1.320  -2.128   4.647  1.00  0.00    -0.269 OA
BRANCH  23  26
ATOM     26  C   UNL     1      -0.171  -4.162   4.944  1.00  0.00     0.039 A 
ATOM     27  C   UNL     1      -1.169  -4.905   5.577  1.00  0.00     0.014 A 
ATOM     28  C   UNL     1       1.155  -4.599   4.971  1.00  0.00     0.014 A 
ATOM     29  C   UNL     1      -0.849  -6.138   6.151  1.00  0.00     0.010 A 
ATOM     30  C   UNL     1       1.451  -5.870   5.452  1.00  0.00     0.010 A 
ATOM     31  C   UNL     1       0.453  -6.657   6.045  1.00  0.00    -0.014 A 
BRANCH  31  32
ATOM     32  C   UNL     1       0.773  -8.034   6.507  1.00  0.00     0.031 A 
ATOM     33  C   UNL     1       1.815  -8.268   7.567  1.00  0.00     0.074 A 
ATOM     34  C   UNL     1       0.190  -9.089   5.899  1.00  0.00     0.049 A 
ATOM     35  N   UNL     1       2.220  -9.398   8.087  1.00  0.00    -0.248 NA
ATOM     36  C   UNL     1       2.524  -7.086   8.084  1.00  0.00     0.031 C 
ATOM     37  C   UNL     1      -0.741  -9.008   4.770  1.00  0.00     0.029 A 
ATOM     38  N   UNL     1       0.310 -10.437   6.130  1.00  0.00    -0.354 N 
ATOM     39  C   UNL     1       3.251  -9.069   8.958  1.00  0.00     0.074 A 
ATOM     40  C   UNL     1       3.442  -7.638   8.863  1.00  0.00     0.031 C 
ATOM     41  C   UNL     1      -1.122 -10.247   4.423  1.00  0.00     0.029 A 
ATOM     42  C   UNL     1      -0.452 -11.213   5.287  1.00  0.00     0.049 A 
ATOM     43  H   UNL     1       0.887 -10.813   6.833  1.00  0.00     0.167 HD
ATOM     44  C   UNL     1       3.952  -9.874   9.792  1.00  0.00     0.034 A 
ATOM     45  C   UNL     1      -0.606 -12.550   5.225  1.00  0.00     0.034 A 
ATOM     46  C   UNL     1       3.720 -11.287   9.928  1.00  0.00     0.049 A 
ATOM     47  C   UNL     1       0.103 -13.414   6.231  1.00  0.00     0.074 A 
ATOM     48  C   UNL     1       4.292 -12.171  10.825  1.00  0.00     0.029 A 
ATOM     49  N   UNL     1       2.849 -12.023   9.141  1.00  0.00    -0.354 N 
ATOM     50  N   UNL     1       0.929 -13.059   7.186  1.00  0.00    -0.248 NA
ATOM     51  C   UNL     1      -0.177 -14.856   6.186  1.00  0.00     0.031 C 
ATOM     52  C   UNL     1       3.777 -13.447  10.569  1.00  0.00     0.029 A 
ATOM     53  C   UNL     1       2.869 -13.353   9.527  1.00  0.00     0.049 A 
ATOM     54  H   UNL     1       2.296 -11.655   8.414  1.00  0.00     0.167 HD
ATOM     55  C   UNL     1       1.242 -14.225   7.873  1.00  0.00     0.074 A 
ATOM     56  C   UNL     1       0.495 -15.294   7.242  1.00  0.00     0.031 C 
ATOM     57  C   UNL     1       2.084 -14.399   8.922  1.00  0.00     0.034 A 
BRANCH  44  58
ATOM     58  C   UNL     1       4.989  -9.228  10.674  1.00  0.00     0.023 A 
ATOM     59  C   UNL     1       4.577  -8.395  11.735  1.00  0.00     0.012 A 
ATOM     60  C   UNL     1       6.363  -9.474  10.485  1.00  0.00     0.148 A 
ATOM     61  C   UNL     1       5.513  -7.782  12.566  1.00  0.00     0.002 A 
ATOM     62  C   UNL     1       7.289  -8.896  11.347  1.00  0.00     0.091 A 
ATOM     63  F   UNL     1       6.740 -10.248   9.458  1.00  0.00    -0.205 F 
ATOM     64  C   UNL     1       6.868  -8.041  12.378  1.00  0.00     0.022 A 
BRANCH  62  65
ATOM     65  S   UNL     1       9.050  -9.232  11.236  1.00  0.00     0.127 S 
ATOM     66  O   UNL     1       9.553  -7.988  10.656  1.00  0.00    -0.237 OA
ATOM     67  O   UNL     1       9.415  -9.442  12.638  1.00  0.00    -0.237 OA
ATOM     68  O   UNL     1       9.178 -10.415  10.396  1.00  0.00    -0.744 OA
ENDBRANCH  62  65
ENDBRANCH  44  58
BRANCH  45  69
ATOM     69  C   UNL     1      -1.551 -13.139   4.234  1.00  0.00     0.023 A 
ATOM     70  C   UNL     1      -2.773 -13.677   4.681  1.00  0.00     0.012 A 
ATOM     71  C   UNL     1      -1.272 -13.124   2.854  1.00  0.00     0.148 A 
ATOM     72  C   UNL     1      -3.689 -14.215   3.776  1.00  0.00     0.002 A 
ATOM     73  C   UNL     1      -2.212 -13.610   1.952  1.00  0.00     0.091 A 
ATOM     74  F   UNL     1      -0.099 -12.616   2.449  1.00  0.00    -0.205 F 
ATOM     75  C   UNL     1      -3.414 -14.171   2.412  1.00  0.00     0.022 A 
BRANCH  73  76
ATOM     76  S   UNL     1      -2.004 -13.468   0.174  1.00  0.00     0.127 S 
ATOM     77  O   UNL     1      -1.768 -14.856  -0.212  1.00  0.00    -0.237 OA
ATOM     78  O   UNL     1      -3.299 -12.924  -0.239  1.00  0.00    -0.237 OA
ATOM     79  O   UNL     1      -0.884 -12.556  -0.018  1.00  0.00    -0.744 OA
ENDBRANCH  73  76
ENDBRANCH  45  69
BRANCH  57  80
ATOM     80  C   UNL     1       2.227 -15.792   9.477  1.00  0.00     0.023 A 
ATOM     81  C   UNL     1       2.928 -16.769   8.742  1.00  0.00     0.012 A 
ATOM     82  C   UNL     1       1.722 -16.116  10.751  1.00  0.00     0.148 A 
ATOM     83  C   UNL     1       3.091 -18.057   9.251  1.00  0.00     0.002 A 
ATOM     84  C   UNL     1       1.930 -17.388  11.273  1.00  0.00     0.091 A 
ATOM     85  F   UNL     1       1.039 -15.181  11.428  1.00  0.00    -0.205 F 
ATOM     86  C   UNL     1       2.603 -18.363  10.519  1.00  0.00     0.022 A 
BRANCH  84  87
ATOM     87  S   UNL     1       1.417 -17.831  12.936  1.00  0.00     0.127 S 
ATOM     88  O   UNL     1       0.196 -18.591  12.680  1.00  0.00    -0.237 OA
ATOM     89  O   UNL     1       2.546 -18.634  13.410  1.00  0.00    -0.237 OA
ATOM     90  O   UNL     1       1.240 -16.570  13.644  1.00  0.00    -0.744 OA
ENDBRANCH  84  87
ENDBRANCH  57  80
ENDBRANCH  31  32
ENDBRANCH  23  26
ENDBRANCH  21  22
ENDBRANCH   1  21
TORSDOF 16
