REMARK SMILES COc1cccc(C[C@H](C(=O)NCCCCNC(=O)c2ccc(-c3c4nc(c(-c5cccc(S(=O)(=O)[O-])c5F)c5ccc([nH]5)c(-c5cccc(S(=O)(=O)[O-])c5F)c5nc(c(-c6cccc(S(=O)(=O)[O-])c6F)c6ccc3[nH]6)C=C5)C=C4)cc2)[C@H]2CCCCC[C@@H]2O)c1
REMARK SMILES IDX 14 1 13 2 12 3 10 4 11 5 9 7 8 8 7 9 3 10 4 11 91 12 5 13
REMARK SMILES IDX 6 14 2 15 1 16 83 17 84 18 85 19 86 20 89 22 88 23 87 24
REMARK SMILES IDX 90 26 15 28 16 29 17 30 18 31 19 33 20 34 21 35 82 36 22 37
REMARK SMILES IDX 81 38 23 39 24 40 25 41 75 42 26 43 80 44 74 45 76 46 27 47
REMARK SMILES IDX 79 48 73 49 72 50 28 52 60 53 40 54 59 55 41 56 44 57 58 58
REMARK SMILES IDX 77 59 42 60 43 61 57 63 78 64 45 65 29 66 30 67 38 68 31 69
REMARK SMILES IDX 33 70 39 71 32 72 34 73 35 74 36 75 37 76 61 77 62 78 70 79
REMARK SMILES IDX 63 80 65 81 71 82 64 83 66 84 67 85 68 86 69 87 46 88 47 89
REMARK SMILES IDX 55 90 48 91 50 92 56 93 49 94 51 95 52 96 53 97 54 98
REMARK H PARENT 12 6 90 27 17 32 76 51 44 62
REMARK Flexibility Score: 100.00
ROOT
ATOM      1  C   UNL     1       6.712   0.940  -1.678  1.00  0.00     0.023 C 
ENDROOT
BRANCH   1   2
ATOM      2  C   UNL     1       5.413   0.518  -2.384  1.00  0.00     0.116 C 
BRANCH   2   3
ATOM      3  N   UNL     1       4.471   1.616  -2.528  1.00  0.00    -0.356 N 
ATOM      4  C   UNL     1       4.140   2.424  -3.571  1.00  0.00     0.223 C 
ATOM      5  O   UNL     1       3.255   3.252  -3.325  1.00  0.00    -0.275 OA
ATOM      6  H   UNL     1       3.972   1.815  -1.703  1.00  0.00     0.163 HD
BRANCH   4   7
ATOM      7  C   UNL     1       4.784   2.329  -4.997  1.00  0.00     0.088 C 
BRANCH   7   8
ATOM      8  C   UNL     1       3.967   3.354  -5.867  1.00  0.00     0.049 C 
BRANCH   8   9
ATOM      9  C   UNL     1       4.195   3.588  -7.344  1.00  0.00    -0.044 A 
ATOM     10  C   UNL     1       4.319   2.867  -9.652  1.00  0.00     0.119 A 
ATOM     11  C   UNL     1       4.806   4.113 -10.047  1.00  0.00     0.046 A 
ATOM     12  C   UNL     1       4.023   2.591  -8.311  1.00  0.00     0.050 A 
ATOM     13  C   UNL     1       4.875   5.137  -9.116  1.00  0.00     0.004 A 
ATOM     14  C   UNL     1       4.520   4.884  -7.791  1.00  0.00     0.004 A 
BRANCH  10  15
ATOM     15  O   UNL     1       4.196   1.873 -10.585  1.00  0.00    -0.497 OA
ATOM     16  C   UNL     1       2.989   2.062 -11.325  1.00  0.00     0.278 C 
ENDBRANCH  10  15
ENDBRANCH   8   9
ENDBRANCH   7   8
BRANCH   7  17
ATOM     17  C   UNL     1       6.341   2.464  -4.875  1.00  0.00     0.030 C 
BRANCH  17  18
ATOM     18  C   UNL     1       7.210   1.603  -5.807  1.00  0.00     0.007 C 
BRANCH  18  19
ATOM     19  C   UNL     1       7.270   1.984  -7.260  1.00  0.00     0.000 C 
BRANCH  19  20
ATOM     20  C   UNL     1       7.983   3.268  -7.654  1.00  0.00     0.000 CG0
ATOM     21  G   UNL     1       8.258   4.386  -6.652  1.00  0.00     0.000 G0
ENDBRANCH  19  20
ENDBRANCH  18  19
ENDBRANCH  17  18
BRANCH  17  22
ATOM     22  C   UNL     1       6.928   3.829  -4.506  1.00  0.00     0.118 C 
BRANCH  22  23
ATOM     23  C   UNL     1       7.190   4.792  -5.645  1.00  0.00     0.032 C 
BRANCH  23  24
ATOM     24  C   UNL     1       8.258   4.386  -6.652  1.00  0.00     0.003 CG0
ATOM     25  G   UNL     1       7.983   3.268  -7.654  1.00  0.00     0.000 G0
ENDBRANCH  23  24
ENDBRANCH  22  23
BRANCH  22  26
ATOM     26  O   UNL     1       8.181   3.595  -3.841  1.00  0.00    -0.393 OA
ATOM     27  H   UNL     1       8.797   3.166  -4.455  1.00  0.00     0.210 HD
ENDBRANCH  22  26
ENDBRANCH  17  22
ENDBRANCH   7  17
ENDBRANCH   4   7
ENDBRANCH   2   3
ENDBRANCH   1   2
BRANCH   1  28
ATOM     28  C   UNL     1       6.592   1.261  -0.191  1.00  0.00     0.023 C 
BRANCH  28  29
ATOM     29  C   UNL     1       6.168   0.098   0.692  1.00  0.00     0.116 C 
BRANCH  29  30
ATOM     30  N   UNL     1       7.063  -1.050   0.599  1.00  0.00    -0.352 N 
ATOM     31  C   UNL     1       7.593  -1.818   1.608  1.00  0.00     0.251 C 
ATOM     32  H   UNL     1       7.323  -1.311  -0.314  1.00  0.00     0.163 HD
ATOM     33  O   UNL     1       8.420  -2.689   1.353  1.00  0.00    -0.269 OA
BRANCH  31  34
ATOM     34  C   UNL     1       7.190  -1.558   3.006  1.00  0.00     0.039 A 
ATOM     35  C   UNL     1       8.182  -1.409   3.978  1.00  0.00     0.014 A 
ATOM     36  C   UNL     1       5.843  -1.396   3.340  1.00  0.00     0.014 A 
ATOM     37  C   UNL     1       7.829  -0.999   5.266  1.00  0.00     0.010 A 
ATOM     38  C   UNL     1       5.502  -0.915   4.600  1.00  0.00     0.010 A 
ATOM     39  C   UNL     1       6.492  -0.695   5.570  1.00  0.00    -0.014 A 
BRANCH  39  40
ATOM     40  C   UNL     1       6.110  -0.079   6.867  1.00  0.00     0.031 A 
ATOM     41  C   UNL     1       5.166  -0.790   7.797  1.00  0.00     0.074 A 
ATOM     42  C   UNL     1       6.513   1.179   7.142  1.00  0.00     0.049 A 
ATOM     43  N   UNL     1       4.643  -0.365   8.918  1.00  0.00    -0.248 NA
ATOM     44  C   UNL     1       4.729  -2.141   7.407  1.00  0.00     0.031 C 
ATOM     45  C   UNL     1       7.359   2.006   6.278  1.00  0.00     0.029 A 
ATOM     46  N   UNL     1       6.230   2.000   8.207  1.00  0.00    -0.354 N 
ATOM     47  C   UNL     1       3.785  -1.371   9.342  1.00  0.00     0.074 A 
ATOM     48  C   UNL     1       3.845  -2.425   8.354  1.00  0.00     0.031 C 
ATOM     49  C   UNL     1       7.517   3.215   6.840  1.00  0.00     0.029 A 
ATOM     50  C   UNL     1       6.756   3.266   8.083  1.00  0.00     0.049 A 
ATOM     51  H   UNL     1       5.700   1.710   8.985  1.00  0.00     0.167 HD
ATOM     52  C   UNL     1       3.031  -1.419  10.465  1.00  0.00     0.034 A 
ATOM     53  C   UNL     1       6.622   4.354   8.868  1.00  0.00     0.034 A 
ATOM     54  C   UNL     1       3.020  -0.396  11.475  1.00  0.00     0.049 A 
ATOM     55  C   UNL     1       5.798   4.253  10.124  1.00  0.00     0.074 A 
ATOM     56  C   UNL     1       2.401  -0.421  12.712  1.00  0.00     0.029 A 
ATOM     57  N   UNL     1       3.634   0.839  11.357  1.00  0.00    -0.354 N 
ATOM     58  N   UNL     1       5.167   3.214  10.614  1.00  0.00    -0.248 NA
ATOM     59  C   UNL     1       5.689   5.465  10.949  1.00  0.00     0.031 C 
ATOM     60  C   UNL     1       2.611   0.816  13.329  1.00  0.00     0.029 A 
ATOM     61  C   UNL     1       3.380   1.600  12.486  1.00  0.00     0.049 A 
ATOM     62  H   UNL     1       4.171   1.133  10.587  1.00  0.00     0.167 HD
ATOM     63  C   UNL     1       4.608   3.640  11.814  1.00  0.00     0.074 A 
ATOM     64  C   UNL     1       5.002   5.022  11.993  1.00  0.00     0.031 C 
ATOM     65  C   UNL     1       3.820   2.956  12.679  1.00  0.00     0.034 A 
BRANCH  52  66
ATOM     66  C   UNL     1       2.183  -2.639  10.705  1.00  0.00     0.023 A 
ATOM     67  C   UNL     1       2.793  -3.841  11.114  1.00  0.00     0.012 A 
ATOM     68  C   UNL     1       0.778  -2.560  10.640  1.00  0.00     0.148 A 
ATOM     69  C   UNL     1       2.018  -4.952  11.443  1.00  0.00     0.002 A 
ATOM     70  C   UNL     1       0.011  -3.659  11.008  1.00  0.00     0.091 A 
ATOM     71  F   UNL     1       0.222  -1.411  10.230  1.00  0.00    -0.205 F 
ATOM     72  C   UNL     1       0.629  -4.857  11.402  1.00  0.00     0.022 A 
BRANCH  70  73
ATOM     73  S   UNL     1      -1.784  -3.616  11.066  1.00  0.00     0.127 S 
ATOM     74  O   UNL     1      -2.135  -4.551   9.998  1.00  0.00    -0.237 OA
ATOM     75  O   UNL     1      -2.057  -4.104  12.418  1.00  0.00    -0.237 OA
ATOM     76  O   UNL     1      -2.164  -2.231  10.827  1.00  0.00    -0.744 OA
ENDBRANCH  70  73
ENDBRANCH  52  66
BRANCH  53  77
ATOM     77  C   UNL     1       7.306   5.631   8.513  1.00  0.00     0.023 A 
ATOM     78  C   UNL     1       8.357   6.101   9.323  1.00  0.00     0.012 A 
ATOM     79  C   UNL     1       6.919   6.384   7.387  1.00  0.00     0.148 A 
ATOM     80  C   UNL     1       8.983   7.317   9.045  1.00  0.00     0.002 A 
ATOM     81  C   UNL     1       7.586   7.566   7.082  1.00  0.00     0.091 A 
ATOM     82  F   UNL     1       5.904   5.934   6.636  1.00  0.00    -0.205 F 
ATOM     83  C   UNL     1       8.604   8.045   7.920  1.00  0.00     0.022 A 
BRANCH  81  84
ATOM     84  S   UNL     1       7.247   8.489   5.579  1.00  0.00     0.127 S 
ATOM     85  O   UNL     1       6.436   9.594   6.081  1.00  0.00    -0.237 OA
ATOM     86  O   UNL     1       8.592   8.862   5.137  1.00  0.00    -0.237 OA
ATOM     87  O   UNL     1       6.571   7.549   4.694  1.00  0.00    -0.744 OA
ENDBRANCH  81  84
ENDBRANCH  53  77
BRANCH  65  88
ATOM     88  C   UNL     1       3.337   3.677  13.909  1.00  0.00     0.023 A 
ATOM     89  C   UNL     1       2.333   4.658  13.789  1.00  0.00     0.012 A 
ATOM     90  C   UNL     1       3.810   3.321  15.188  1.00  0.00     0.148 A 
ATOM     91  C   UNL     1       1.825   5.293  14.921  1.00  0.00     0.002 A 
ATOM     92  C   UNL     1       3.264   3.923  16.315  1.00  0.00     0.091 A 
ATOM     93  F   UNL     1       4.775   2.394  15.277  1.00  0.00    -0.205 F 
ATOM     94  C   UNL     1       2.280   4.917  16.183  1.00  0.00     0.022 A 
BRANCH  92  95
ATOM     95  S   UNL     1       3.716   3.440  17.985  1.00  0.00     0.127 S 
ATOM     96  O   UNL     1       4.429   4.627  18.456  1.00  0.00    -0.237 OA
ATOM     97  O   UNL     1       2.410   3.225  18.608  1.00  0.00    -0.237 OA
ATOM     98  O   UNL     1       4.530   2.240  17.852  1.00  0.00    -0.744 OA
ENDBRANCH  92  95
ENDBRANCH  65  88
ENDBRANCH  39  40
ENDBRANCH  31  34
ENDBRANCH  29  30
ENDBRANCH  28  29
ENDBRANCH   1  28
TORSDOF 19
