REMARK SMILES Cc1cc(C)cc(N2C(=O)NC(=O)/C(=C\c3ccc(OCC(=O)NCCCCNC(=O)c4ccc(-c5c6nc(c(-c7cccc(S(=O)(=O)[O-])c7F)c7ccc([nH]7)c(-c7cccc(S(=O)(=O)[O-])c7F)c7nc(c(-c8cccc(S(=O)(=O)[O-])c8F)c8ccc5[nH]8)C=C7)C=C6)cc4)c(Br)c3)C2=O)c1
REMARK SMILES IDX 26 1 25 2 24 3 22 4 23 5 21 7 20 8 19 9 16 10 17 11 97 12
REMARK SMILES IDX 18 13 95 14 96 15 15 16 8 17 9 18 98 19 10 20 11 21 14 22
REMARK SMILES IDX 99 23 12 24 13 26 7 27 1 28 2 29 3 30 100 31 4 32 5 33 6 34
REMARK SMILES IDX 27 35 28 36 29 37 30 38 31 40 32 41 33 42 94 43 34 44 93 45
REMARK SMILES IDX 35 46 36 47 37 48 87 49 38 50 92 51 86 52 88 53 39 54 91 55
REMARK SMILES IDX 85 56 84 57 40 59 72 60 52 61 71 62 53 63 56 64 70 65 89 66
REMARK SMILES IDX 54 67 55 68 69 70 90 71 57 72 41 73 42 74 50 75 43 76 45 77
REMARK SMILES IDX 51 78 44 79 46 80 47 81 48 82 49 83 73 84 74 85 82 86 75 87
REMARK SMILES IDX 77 88 83 89 76 90 78 91 79 92 80 93 81 94 58 95 59 96 67 97
REMARK SMILES IDX 60 98 62 99 68 100 61 101 63 102 64 103 65 104 66 105
REMARK H PARENT 24 6 11 25 29 39 88 58 56 69
REMARK Flexibility Score: inf
ROOT
ATOM      1  C   UNL     1      -5.053 -11.568  -3.185  1.00  0.00     0.023 C 
ENDROOT
BRANCH   1   2
ATOM      2  C   UNL     1      -4.053 -12.658  -3.560  1.00  0.00     0.116 C 
BRANCH   2   3
ATOM      3  N   UNL     1      -3.220 -12.287  -4.686  1.00  0.00    -0.353 N 
ATOM      4  C   UNL     1      -1.860 -12.192  -4.747  1.00  0.00     0.257 C 
ATOM      5  O   UNL     1      -1.334 -12.019  -5.847  1.00  0.00    -0.271 OA
ATOM      6  H   UNL     1      -3.700 -12.076  -5.519  1.00  0.00     0.163 HD
BRANCH   4   7
ATOM      7  C   UNL     1      -1.029 -12.386  -3.474  1.00  0.00     0.329 C 
BRANCH   7   8
ATOM      8  O   UNL     1      -1.283 -11.574  -2.347  1.00  0.00    -0.483 OA
BRANCH   8   9
ATOM      9  C   UNL     1      -1.269 -10.211  -2.431  1.00  0.00     0.134 A 
ATOM     10  C   UNL     1      -1.449  -7.409  -2.114  1.00  0.00    -0.023 A 
ATOM     11  C   UNL     1      -2.215  -8.248  -1.312  1.00  0.00     0.012 A 
ATOM     12  C   UNL     1      -0.623  -7.966  -3.093  1.00  0.00     0.027 A 
ATOM     13  C   UNL     1      -2.116  -9.632  -1.469  1.00  0.00     0.048 A 
ATOM     14  C   UNL     1      -0.505  -9.360  -3.238  1.00  0.00     0.060 A 
ATOM     15  Br  UNL     1       0.856  -9.900  -4.448  1.00  0.00    -0.047 Br
BRANCH  10  16
ATOM     16  C   UNL     1      -1.423  -5.960  -1.896  1.00  0.00     0.027 C 
ATOM     17  N   UNL     1      -0.021  -3.166   0.023  1.00  0.00    -0.228 N 
ATOM     18  C   UNL     1       0.739  -3.820   0.985  1.00  0.00     0.335 C 
ATOM     19  C   UNL     1      -0.785  -3.822  -0.949  1.00  0.00     0.272 C 
ATOM     20  O   UNL     1       1.382  -3.284   1.889  1.00  0.00    -0.247 OA
ATOM     21  N   UNL     1       0.734  -5.182   0.954  1.00  0.00    -0.273 N 
ATOM     22  C   UNL     1      -0.737  -5.314  -0.928  1.00  0.00     0.106 C 
ATOM     23  O   UNL     1      -1.425  -3.248  -1.830  1.00  0.00    -0.268 OA
ATOM     24  C   UNL     1       0.075  -6.007   0.096  1.00  0.00     0.264 C 
ATOM     25  H   UNL     1       1.278  -5.628   1.643  1.00  0.00     0.175 HD
ATOM     26  O   UNL     1       0.186  -7.217   0.224  1.00  0.00    -0.269 OA
BRANCH  17  27
ATOM     27  C   UNL     1      -0.017  -1.729   0.026  1.00  0.00     0.054 A 
ATOM     28  C   UNL     1       2.505   1.135   0.093  1.00  0.00     0.044 C 
ATOM     29  C   UNL     1       1.208   0.381   0.078  1.00  0.00    -0.049 A 
ATOM     30  C   UNL     1      -0.004   1.077   0.015  1.00  0.00     0.007 A 
ATOM     31  C   UNL     1       1.191  -1.019   0.111  1.00  0.00     0.030 A 
ATOM     32  C   UNL     1      -1.222   0.390  -0.042  1.00  0.00    -0.049 A 
ATOM     33  C   UNL     1      -2.514   1.151  -0.090  1.00  0.00     0.044 C 
ATOM     34  C   UNL     1      -1.217  -1.010  -0.064  1.00  0.00     0.030 A 
ENDBRANCH  17  27
ENDBRANCH  10  16
ENDBRANCH   8   9
ENDBRANCH   7   8
ENDBRANCH   4   7
ENDBRANCH   2   3
ENDBRANCH   1   2
BRANCH   1  35
ATOM     35  C   UNL     1      -6.010 -11.145  -4.302  1.00  0.00     0.023 C 
BRANCH  35  36
ATOM     36  C   UNL     1      -6.770 -12.276  -4.986  1.00  0.00     0.116 C 
BRANCH  36  37
ATOM     37  N   UNL     1      -7.614 -13.030  -4.071  1.00  0.00    -0.352 N 
ATOM     38  C   UNL     1      -8.950 -13.342  -4.176  1.00  0.00     0.251 C 
ATOM     39  H   UNL     1      -7.165 -13.365  -3.261  1.00  0.00     0.163 HD
ATOM     40  O   UNL     1      -9.529 -13.880  -3.236  1.00  0.00    -0.269 OA
BRANCH  38  41
ATOM     41  C   UNL     1      -9.693 -12.997  -5.408  1.00  0.00     0.039 A 
ATOM     42  C   UNL     1     -10.923 -12.344  -5.293  1.00  0.00     0.014 A 
ATOM     43  C   UNL     1      -9.168 -13.287  -6.670  1.00  0.00     0.014 A 
ATOM     44  C   UNL     1     -11.584 -11.903  -6.443  1.00  0.00     0.010 A 
ATOM     45  C   UNL     1      -9.791 -12.783  -7.809  1.00  0.00     0.010 A 
ATOM     46  C   UNL     1     -10.999 -12.075  -7.709  1.00  0.00    -0.014 A 
BRANCH  46  47
ATOM     47  C   UNL     1     -11.603 -11.479  -8.931  1.00  0.00     0.031 A 
ATOM     48  C   UNL     1     -12.055 -12.359 -10.066  1.00  0.00     0.074 A 
ATOM     49  C   UNL     1     -11.643 -10.137  -9.064  1.00  0.00     0.049 A 
ATOM     50  N   UNL     1     -12.521 -12.014 -11.238  1.00  0.00    -0.248 NA
ATOM     51  C   UNL     1     -11.948 -13.814  -9.868  1.00  0.00     0.031 C 
ATOM     52  C   UNL     1     -11.172  -9.173  -8.066  1.00  0.00     0.029 A 
ATOM     53  N   UNL     1     -12.067  -9.349 -10.107  1.00  0.00    -0.354 N 
ATOM     54  C   UNL     1     -12.718 -13.201 -11.934  1.00  0.00     0.074 A 
ATOM     55  C   UNL     1     -12.310 -14.277 -11.057  1.00  0.00     0.031 C 
ATOM     56  C   UNL     1     -11.329  -7.929  -8.544  1.00  0.00     0.029 A 
ATOM     57  C   UNL     1     -11.869  -8.002  -9.898  1.00  0.00     0.049 A 
ATOM     58  H   UNL     1     -12.474  -9.713 -10.926  1.00  0.00     0.167 HD
ATOM     59  C   UNL     1     -13.208 -13.378 -13.184  1.00  0.00     0.034 A 
ATOM     60  C   UNL     1     -12.074  -6.947 -10.711  1.00  0.00     0.034 A 
ATOM     61  C   UNL     1     -13.654 -12.309 -14.036  1.00  0.00     0.049 A 
ATOM     62  C   UNL     1     -12.632  -7.180 -12.090  1.00  0.00     0.074 A 
ATOM     63  C   UNL     1     -14.276 -12.400 -15.269  1.00  0.00     0.029 A 
ATOM     64  N   UNL     1     -13.504 -10.960 -13.762  1.00  0.00    -0.354 N 
ATOM     65  N   UNL     1     -12.989  -8.307 -12.656  1.00  0.00    -0.248 NA
ATOM     66  C   UNL     1     -12.841  -5.994 -12.934  1.00  0.00     0.031 C 
ATOM     67  C   UNL     1     -14.457 -11.106 -15.763  1.00  0.00     0.029 A 
ATOM     68  C   UNL     1     -13.989 -10.208 -14.818  1.00  0.00     0.049 A 
ATOM     69  H   UNL     1     -13.110 -10.591 -12.939  1.00  0.00     0.167 HD
ATOM     70  C   UNL     1     -13.495  -7.963 -13.904  1.00  0.00     0.074 A 
ATOM     71  C   UNL     1     -13.423  -6.521 -14.003  1.00  0.00     0.031 C 
ATOM     72  C   UNL     1     -13.963  -8.770 -14.886  1.00  0.00     0.034 A 
BRANCH  59  73
ATOM     73  C   UNL     1     -13.321 -14.784 -13.711  1.00  0.00     0.023 A 
ATOM     74  C   UNL     1     -14.314 -15.647 -13.206  1.00  0.00     0.012 A 
ATOM     75  C   UNL     1     -12.509 -15.214 -14.780  1.00  0.00     0.148 A 
ATOM     76  C   UNL     1     -14.481 -16.924 -13.739  1.00  0.00     0.002 A 
ATOM     77  C   UNL     1     -12.712 -16.470 -15.336  1.00  0.00     0.091 A 
ATOM     78  F   UNL     1     -11.559 -14.384 -15.233  1.00  0.00    -0.205 F 
ATOM     79  C   UNL     1     -13.690 -17.330 -14.811  1.00  0.00     0.022 A 
BRANCH  77  80
ATOM     80  S   UNL     1     -11.804 -17.055 -16.772  1.00  0.00     0.127 S 
ATOM     81  O   UNL     1     -11.012 -18.141 -16.197  1.00  0.00    -0.237 OA
ATOM     82  O   UNL     1     -12.883 -17.490 -17.659  1.00  0.00    -0.237 OA
ATOM     83  O   UNL     1     -11.037 -15.916 -17.257  1.00  0.00    -0.744 OA
ENDBRANCH  77  80
ENDBRANCH  59  73
BRANCH  60  84
ATOM     84  C   UNL     1     -11.776  -5.562 -10.242  1.00  0.00     0.023 A 
ATOM     85  C   UNL     1     -12.835  -4.650 -10.056  1.00  0.00     0.012 A 
ATOM     86  C   UNL     1     -10.457  -5.139  -9.991  1.00  0.00     0.148 A 
ATOM     87  C   UNL     1     -12.581  -3.332  -9.675  1.00  0.00     0.002 A 
ATOM     88  C   UNL     1     -10.216  -3.842  -9.552  1.00  0.00     0.091 A 
ATOM     89  F   UNL     1      -9.460  -6.015 -10.185  1.00  0.00    -0.205 F 
ATOM     90  C   UNL     1     -11.274  -2.930  -9.415  1.00  0.00     0.022 A 
BRANCH  88  91
ATOM     91  S   UNL     1      -8.581  -3.279  -9.068  1.00  0.00     0.127 S 
ATOM     92  O   UNL     1      -8.240  -2.374 -10.162  1.00  0.00    -0.237 OA
ATOM     93  O   UNL     1      -8.854  -2.624  -7.788  1.00  0.00    -0.237 OA
ATOM     94  O   UNL     1      -7.768  -4.483  -8.962  1.00  0.00    -0.744 OA
ENDBRANCH  88  91
ENDBRANCH  60  84
BRANCH  72  95
ATOM     95  C   UNL     1     -14.475  -8.124 -16.148  1.00  0.00     0.023 A 
ATOM     96  C   UNL     1     -13.569  -7.547 -17.059  1.00  0.00     0.012 A 
ATOM     97  C   UNL     1     -15.845  -8.173 -16.471  1.00  0.00     0.148 A 
ATOM     98  C   UNL     1     -14.023  -7.003 -18.260  1.00  0.00     0.002 A 
ATOM     99  C   UNL     1     -16.283  -7.678 -17.693  1.00  0.00     0.091 A 
ATOM    100  F   UNL     1     -16.692  -8.715 -15.583  1.00  0.00    -0.205 F 
ATOM    101  C   UNL     1     -15.376  -7.081 -18.583  1.00  0.00     0.022 A 
BRANCH  99 102
ATOM    102  S   UNL     1     -17.988  -7.822 -18.241  1.00  0.00     0.127 S 
ATOM    103  O   UNL     1     -18.415  -6.423 -18.256  1.00  0.00    -0.237 OA
ATOM    104  O   UNL     1     -17.836  -8.428 -19.563  1.00  0.00    -0.237 OA
ATOM    105  O   UNL     1     -18.660  -8.663 -17.259  1.00  0.00    -0.744 OA
ENDBRANCH  99 102
ENDBRANCH  72  95
ENDBRANCH  46  47
ENDBRANCH  38  41
ENDBRANCH  36  37
ENDBRANCH  35  36
ENDBRANCH   1  35
TORSDOF 18
