REMARK SMILES CN(C)c1oc(/C=N/c2ccc(O)c(C(=O)NCCCCNC(=O)c3ccc(-c4c5nc(c(-c6cccc(S(=O)(=O)[O-])c6F)c6ccc([nH]6)c(-c6cccc(S(=O)(=O)[O-])c6F)c6nc(c(-c7cccc(S(=O)(=O)[O-])c7F)c7ccc4[nH]7)C=C6)C=C5)cc3)c2)cc1Br
REMARK SMILES IDX 19 1 18 2 17 3 15 4 16 5 14 7 9 8 10 9 88 10 11 11 12 12
REMARK SMILES IDX 8 13 7 14 6 15 4 16 5 17 90 18 89 19 91 20 2 21 1 22 3 23
REMARK SMILES IDX 13 24 20 26 21 27 22 28 23 29 24 31 25 32 26 33 87 34 27 35
REMARK SMILES IDX 86 36 28 37 29 38 30 39 80 40 31 41 85 42 79 43 81 44 32 45
REMARK SMILES IDX 84 46 78 47 77 48 33 50 65 51 45 52 64 53 46 54 49 55 63 56
REMARK SMILES IDX 82 57 47 58 48 59 62 61 83 62 50 63 34 64 35 65 43 66 36 67
REMARK SMILES IDX 38 68 44 69 37 70 39 71 40 72 41 73 42 74 66 75 67 76 75 77
REMARK SMILES IDX 68 78 70 79 76 80 69 81 71 82 72 83 73 84 74 85 51 86 52 87
REMARK SMILES IDX 60 88 53 89 55 90 61 91 54 92 56 93 57 94 58 95 59 96
REMARK H PARENT 17 6 13 25 22 30 81 49 49 60
REMARK Flexibility Score: inf
ROOT
ATOM      1  C   UNL     1      -0.455  -1.690  14.358  1.00  0.00     0.023 C 
ENDROOT
BRANCH   1   2
ATOM      2  C   UNL     1      -0.543  -0.303  13.712  1.00  0.00     0.116 C 
BRANCH   2   3
ATOM      3  N   UNL     1       0.689   0.007  13.024  1.00  0.00    -0.352 N 
ATOM      4  C   UNL     1       1.097  -0.151  11.727  1.00  0.00     0.255 C 
ATOM      5  O   UNL     1       2.264   0.181  11.495  1.00  0.00    -0.269 OA
ATOM      6  H   UNL     1       1.372   0.414  13.604  1.00  0.00     0.163 HD
BRANCH   4   7
ATOM      7  C   UNL     1       0.254  -0.616  10.577  1.00  0.00     0.083 A 
ATOM      8  C   UNL     1       0.131  -0.582   8.115  1.00  0.00     0.064 A 
ATOM      9  C   UNL     1      -0.995  -1.398   8.159  1.00  0.00     0.032 A 
ATOM     10  C   UNL     1       0.725  -0.185   9.316  1.00  0.00     0.046 A 
ATOM     11  C   UNL     1      -1.488  -1.840   9.383  1.00  0.00     0.049 A 
ATOM     12  C   UNL     1      -0.846  -1.484  10.579  1.00  0.00     0.128 A 
BRANCH   8  13
ATOM     13  N   UNL     1       0.804  -0.311   6.921  1.00  0.00    -0.253 NA
ATOM     14  C   UNL     1       0.166   0.177   5.910  1.00  0.00     0.158 C 
BRANCH  14  15
ATOM     15  C   UNL     1       0.865   0.304   4.663  1.00  0.00     0.149 A 
ATOM     16  C   UNL     1       1.031   0.616   2.485  1.00  0.00     0.210 A 
ATOM     17  O   UNL     1       0.184   0.728   3.558  1.00  0.00    -0.438 OA
ATOM     18  C   UNL     1       2.260   0.179   2.936  1.00  0.00     0.082 A 
ATOM     19  C   UNL     1       2.168  -0.001   4.327  1.00  0.00     0.070 A 
ATOM     20  Br  UNL     1       3.850  -0.120   1.989  1.00  0.00    -0.045 Br
BRANCH  16  21
ATOM     21  N   UNL     1       0.505   0.901   1.268  1.00  0.00    -0.348 N 
ATOM     22  C   UNL     1       0.904   0.152   0.093  1.00  0.00     0.146 C 
ATOM     23  C   UNL     1      -0.521   1.919   1.149  1.00  0.00     0.146 C 
ENDBRANCH  16  21
ENDBRANCH  14  15
ENDBRANCH   8  13
BRANCH  12  24
ATOM     24  O   UNL     1      -1.301  -2.095  11.709  1.00  0.00    -0.507 OA
ATOM     25  H   UNL     1      -2.040  -2.668  11.666  1.00  0.00     0.293 HD
ENDBRANCH  12  24
ENDBRANCH   4   7
ENDBRANCH   2   3
ENDBRANCH   1   2
BRANCH   1  26
ATOM     26  C   UNL     1       0.170  -1.705  15.755  1.00  0.00     0.023 C 
BRANCH  26  27
ATOM     27  C   UNL     1      -0.631  -0.967  16.822  1.00  0.00     0.116 C 
BRANCH  27  28
ATOM     28  N   UNL     1      -2.001  -1.442  16.948  1.00  0.00    -0.352 N 
ATOM     29  C   UNL     1      -2.802  -1.476  18.065  1.00  0.00     0.251 C 
ATOM     30  H   UNL     1      -2.410  -1.787  16.121  1.00  0.00     0.163 HD
ATOM     31  O   UNL     1      -3.907  -2.001  18.012  1.00  0.00    -0.269 OA
BRANCH  29  32
ATOM     32  C   UNL     1      -2.299  -0.913  19.336  1.00  0.00     0.039 A 
ATOM     33  C   UNL     1      -2.421  -1.677  20.499  1.00  0.00     0.014 A 
ATOM     34  C   UNL     1      -1.682   0.340  19.376  1.00  0.00     0.014 A 
ATOM     35  C   UNL     1      -1.863  -1.211  21.690  1.00  0.00     0.010 A 
ATOM     36  C   UNL     1      -1.063   0.768  20.547  1.00  0.00     0.010 A 
ATOM     37  C   UNL     1      -1.147  -0.002  21.715  1.00  0.00    -0.014 A 
BRANCH  37  38
ATOM     38  C   UNL     1      -0.449   0.443  22.948  1.00  0.00     0.031 A 
ATOM     39  C   UNL     1      -0.854   1.714  23.642  1.00  0.00     0.074 A 
ATOM     40  C   UNL     1       0.604  -0.267  23.399  1.00  0.00     0.049 A 
ATOM     41  N   UNL     1      -0.364   2.246  24.732  1.00  0.00    -0.248 NA
ATOM     42  C   UNL     1      -1.930   2.504  23.023  1.00  0.00     0.031 C 
ATOM     43  C   UNL     1       1.155  -1.464  22.757  1.00  0.00     0.029 A 
ATOM     44  N   UNL     1       1.412  -0.077  24.492  1.00  0.00    -0.354 N 
ATOM     45  C   UNL     1      -1.045   3.444  24.911  1.00  0.00     0.074 A 
ATOM     46  C   UNL     1      -1.962   3.578  23.800  1.00  0.00     0.031 C 
ATOM     47  C   UNL     1       2.198  -1.909  23.476  1.00  0.00     0.029 A 
ATOM     48  C   UNL     1       2.406  -1.021  24.615  1.00  0.00     0.049 A 
ATOM     49  H   UNL     1       1.293   0.665  25.127  1.00  0.00     0.167 HD
ATOM     50  C   UNL     1      -0.939   4.336  25.924  1.00  0.00     0.034 A 
ATOM     51  C   UNL     1       3.371  -1.159  25.544  1.00  0.00     0.034 A 
ATOM     52  C   UNL     1      -0.060   4.175  27.051  1.00  0.00     0.049 A 
ATOM     53  C   UNL     1       3.427  -0.182  26.687  1.00  0.00     0.074 A 
ATOM     54  C   UNL     1       0.042   4.965  28.182  1.00  0.00     0.029 A 
ATOM     55  N   UNL     1       0.877   3.163  27.186  1.00  0.00    -0.354 N 
ATOM     56  N   UNL     1       2.644   0.839  26.941  1.00  0.00    -0.248 NA
ATOM     57  C   UNL     1       4.476  -0.399  27.694  1.00  0.00     0.031 C 
ATOM     58  C   UNL     1       1.058   4.444  28.990  1.00  0.00     0.029 A 
ATOM     59  C   UNL     1       1.573   3.316  28.373  1.00  0.00     0.049 A 
ATOM     60  H   UNL     1       1.026   2.441  26.533  1.00  0.00     0.167 HD
ATOM     61  C   UNL     1       3.084   1.365  28.150  1.00  0.00     0.074 A 
ATOM     62  C   UNL     1       4.183   0.531  28.592  1.00  0.00     0.031 C 
ATOM     63  C   UNL     1       2.632   2.451  28.825  1.00  0.00     0.034 A 
BRANCH  50  64
ATOM     64  C   UNL     1      -1.840   5.544  25.894  1.00  0.00     0.023 A 
ATOM     65  C   UNL     1      -3.218   5.389  26.147  1.00  0.00     0.012 A 
ATOM     66  C   UNL     1      -1.316   6.835  25.688  1.00  0.00     0.148 A 
ATOM     67  C   UNL     1      -4.067   6.495  26.166  1.00  0.00     0.002 A 
ATOM     68  C   UNL     1      -2.161   7.938  25.752  1.00  0.00     0.091 A 
ATOM     69  F   UNL     1      -0.007   6.961  25.428  1.00  0.00    -0.205 F 
ATOM     70  C   UNL     1      -3.537   7.769  25.981  1.00  0.00     0.022 A 
BRANCH  68  71
ATOM     71  S   UNL     1      -1.566   9.626  25.605  1.00  0.00     0.127 S 
ATOM     72  O   UNL     1      -2.108  10.017  24.304  1.00  0.00    -0.237 OA
ATOM     73  O   UNL     1      -2.202  10.278  26.750  1.00  0.00    -0.237 OA
ATOM     74  O   UNL     1      -0.114   9.549  25.679  1.00  0.00    -0.744 OA
ENDBRANCH  68  71
ENDBRANCH  50  64
BRANCH  51  75
ATOM     75  C   UNL     1       4.314  -2.311  25.480  1.00  0.00     0.023 A 
ATOM     76  C   UNL     1       4.221  -3.332  26.447  1.00  0.00     0.012 A 
ATOM     77  C   UNL     1       5.286  -2.413  24.467  1.00  0.00     0.148 A 
ATOM     78  C   UNL     1       5.102  -4.413  26.428  1.00  0.00     0.002 A 
ATOM     79  C   UNL     1       6.125  -3.521  24.421  1.00  0.00     0.091 A 
ATOM     80  F   UNL     1       5.369  -1.426  23.563  1.00  0.00    -0.205 F 
ATOM     81  C   UNL     1       6.047  -4.513  25.411  1.00  0.00     0.022 A 
BRANCH  79  82
ATOM     82  S   UNL     1       7.280  -3.795  23.073  1.00  0.00     0.127 S 
ATOM     83  O   UNL     1       8.560  -3.505  23.713  1.00  0.00    -0.237 OA
ATOM     84  O   UNL     1       7.052  -5.207  22.760  1.00  0.00    -0.237 OA
ATOM     85  O   UNL     1       6.872  -2.877  22.019  1.00  0.00    -0.744 OA
ENDBRANCH  79  82
ENDBRANCH  51  75
BRANCH  63  86
ATOM     86  C   UNL     1       3.311   2.791  30.126  1.00  0.00     0.023 A 
ATOM     87  C   UNL     1       4.620   3.312  30.116  1.00  0.00     0.012 A 
ATOM     88  C   UNL     1       2.634   2.645  31.353  1.00  0.00     0.148 A 
ATOM     89  C   UNL     1       5.260   3.645  31.309  1.00  0.00     0.002 A 
ATOM     90  C   UNL     1       3.260   3.026  32.534  1.00  0.00     0.091 A 
ATOM     91  F   UNL     1       1.396   2.129  31.346  1.00  0.00    -0.205 F 
ATOM     92  C   UNL     1       4.577   3.513  32.516  1.00  0.00     0.022 A 
BRANCH  90  93
ATOM     93  S   UNL     1       2.421   2.981  34.122  1.00  0.00     0.127 S 
ATOM     94  O   UNL     1       3.022   1.803  34.744  1.00  0.00    -0.237 OA
ATOM     95  O   UNL     1       2.816   4.256  34.721  1.00  0.00    -0.237 OA
ATOM     96  O   UNL     1       1.000   2.875  33.818  1.00  0.00    -0.744 OA
ENDBRANCH  90  93
ENDBRANCH  63  86
ENDBRANCH  37  38
ENDBRANCH  29  32
ENDBRANCH  27  28
ENDBRANCH  26  27
ENDBRANCH   1  26
TORSDOF 18
