REMARK SMILES Cc1ccc(NC(=O)C[C@@H](C(=O)NCCCCNC(=O)c2ccc(-c3c4nc(c(-c5cccc(S(=O)(=O)[O-])c5F)c5ccc([nH]5)c(-c5cccc(S(=O)(=O)[O-])c5F)c5nc(c(-c6cccc(S(=O)(=O)[O-])c6F)c6ccc3[nH]6)C=C5)C=C4)cc2)[NH+](C)C)cc1Cl
REMARK SMILES IDX 15 1 14 2 13 3 11 4 12 5 10 7 9 8 7 9 6 10 8 12 5 13 1 14
REMARK SMILES IDX 2 15 3 16 88 17 4 18 87 19 89 20 84 21 85 22 86 23 16 25
REMARK SMILES IDX 17 26 18 27 19 28 20 30 21 31 22 32 83 33 23 34 82 35 24 36
REMARK SMILES IDX 25 37 26 38 76 39 27 40 81 41 75 42 77 43 28 44 80 45 74 46
REMARK SMILES IDX 73 47 29 49 61 50 41 51 60 52 42 53 45 54 59 55 78 56 43 57
REMARK SMILES IDX 44 58 58 60 79 61 46 62 30 63 31 64 39 65 32 66 34 67 40 68
REMARK SMILES IDX 33 69 35 70 36 71 37 72 38 73 62 74 63 75 71 76 64 77 66 78
REMARK SMILES IDX 72 79 65 80 67 81 68 82 69 83 70 84 47 85 48 86 56 87 49 88
REMARK SMILES IDX 51 89 57 90 50 91 52 92 53 93 54 94 55 95
REMARK H PARENT 13 6 6 11 84 24 18 29 77 48 45 59
REMARK Flexibility Score: inf
ROOT
ATOM      1  C   UNL     1      -4.123  -2.850  -0.714  1.00  0.00     0.023 C 
ENDROOT
BRANCH   1   2
ATOM      2  C   UNL     1      -3.001  -3.054  -1.738  1.00  0.00     0.116 C 
BRANCH   2   3
ATOM      3  N   UNL     1      -1.939  -2.063  -1.665  1.00  0.00    -0.351 N 
ATOM      4  C   UNL     1      -0.591  -2.179  -1.466  1.00  0.00     0.278 C 
ATOM      5  O   UNL     1       0.072  -1.154  -1.645  1.00  0.00    -0.268 OA
ATOM      6  H   UNL     1      -2.248  -1.135  -1.780  1.00  0.00     0.163 HD
BRANCH   4   7
ATOM      7  C   UNL     1       0.050  -3.537  -1.075  1.00  0.00     0.283 C 
BRANCH   7   8
ATOM      8  C   UNL     1      -0.112  -3.968   0.398  1.00  0.00     0.175 C 
BRANCH   8   9
ATOM      9  C   UNL     1      -1.361  -3.614   1.166  1.00  0.00     0.230 C 
ATOM     10  N   UNL     1      -1.655  -2.358   1.613  1.00  0.00    -0.326 N 
ATOM     11  H   UNL     1      -2.486  -2.312   2.139  1.00  0.00     0.169 HD
ATOM     12  O   UNL     1      -2.181  -4.511   1.406  1.00  0.00    -0.274 OA
BRANCH  10  13
ATOM     13  C   UNL     1      -1.011  -1.117   1.473  1.00  0.00     0.042 A 
ATOM     14  C   UNL     1       0.581   2.692   0.213  1.00  0.00     0.046 C 
ATOM     15  C   UNL     1       0.055   1.396   0.759  1.00  0.00    -0.032 A 
ATOM     16  C   UNL     1      -1.319   1.241   0.972  1.00  0.00     0.007 A 
ATOM     17  C   UNL     1       0.895   0.310   1.036  1.00  0.00     0.046 A 
ATOM     18  C   UNL     1      -1.840   0.004   1.361  1.00  0.00     0.026 A 
ATOM     19  C   UNL     1       0.364  -0.940   1.389  1.00  0.00     0.047 A 
ATOM     20  Cl  UNL     1       2.616   0.458   0.932  1.00  0.00    -0.084 Cl
ENDBRANCH  10  13
ENDBRANCH   8   9
ENDBRANCH   7   8
BRANCH   7  21
ATOM     21  N   UNL     1       1.481  -3.711  -1.542  1.00  0.00    -0.329 N 
ATOM     22  C   UNL     1       1.714  -3.252  -2.915  1.00  0.00     0.333 C 
ATOM     23  C   UNL     1       2.499  -3.114  -0.675  1.00  0.00     0.333 C 
ATOM     24  H   UNL     1       1.591  -4.724  -1.497  1.00  0.00     0.348 HD
ENDBRANCH   7  21
ENDBRANCH   4   7
ENDBRANCH   2   3
ENDBRANCH   1   2
BRANCH   1  25
ATOM     25  C   UNL     1      -4.712  -1.445  -0.633  1.00  0.00     0.023 C 
BRANCH  25  26
ATOM     26  C   UNL     1      -5.562  -1.060  -1.829  1.00  0.00     0.116 C 
BRANCH  26  27
ATOM     27  N   UNL     1      -6.769  -1.871  -1.919  1.00  0.00    -0.352 N 
ATOM     28  C   UNL     1      -8.082  -1.512  -1.760  1.00  0.00     0.251 C 
ATOM     29  H   UNL     1      -6.618  -2.822  -2.124  1.00  0.00     0.163 HD
ATOM     30  O   UNL     1      -8.942  -2.392  -1.640  1.00  0.00    -0.269 OA
BRANCH  28  31
ATOM     31  C   UNL     1      -8.473  -0.088  -1.727  1.00  0.00     0.039 A 
ATOM     32  C   UNL     1      -9.483   0.330  -0.855  1.00  0.00     0.014 A 
ATOM     33  C   UNL     1      -7.856   0.836  -2.571  1.00  0.00     0.014 A 
ATOM     34  C   UNL     1      -9.833   1.682  -0.798  1.00  0.00     0.010 A 
ATOM     35  C   UNL     1      -8.121   2.191  -2.428  1.00  0.00     0.010 A 
ATOM     36  C   UNL     1      -9.135   2.628  -1.565  1.00  0.00    -0.014 A 
BRANCH  36  37
ATOM     37  C   UNL     1      -9.469   4.075  -1.525  1.00  0.00     0.031 A 
ATOM     38  C   UNL     1      -9.888   4.778  -2.792  1.00  0.00     0.074 A 
ATOM     39  C   UNL     1      -9.303   4.772  -0.385  1.00  0.00     0.049 A 
ATOM     40  N   UNL     1     -10.124   6.048  -2.992  1.00  0.00    -0.248 NA
ATOM     41  C   UNL     1     -10.016   3.951  -4.006  1.00  0.00     0.031 C 
ATOM     42  C   UNL     1      -8.817   4.222   0.883  1.00  0.00     0.029 A 
ATOM     43  N   UNL     1      -9.497   6.104  -0.114  1.00  0.00    -0.354 N 
ATOM     44  C   UNL     1     -10.374   6.178  -4.354  1.00  0.00     0.074 A 
ATOM     45  C   UNL     1     -10.215   4.867  -4.941  1.00  0.00     0.031 C 
ATOM     46  C   UNL     1      -8.763   5.204   1.798  1.00  0.00     0.029 A 
ATOM     47  C   UNL     1      -9.177   6.457   1.176  1.00  0.00     0.049 A 
ATOM     48  H   UNL     1      -9.833   6.745  -0.781  1.00  0.00     0.167 HD
ATOM     49  C   UNL     1     -10.742   7.279  -5.049  1.00  0.00     0.034 A 
ATOM     50  C   UNL     1      -9.211   7.658   1.787  1.00  0.00     0.034 A 
ATOM     51  C   UNL     1     -10.969   8.562  -4.445  1.00  0.00     0.049 A 
ATOM     52  C   UNL     1      -9.693   8.854   1.010  1.00  0.00     0.074 A 
ATOM     53  C   UNL     1     -11.443   9.720  -5.036  1.00  0.00     0.029 A 
ATOM     54  N   UNL     1     -10.741   8.856  -3.110  1.00  0.00    -0.354 N 
ATOM     55  N   UNL     1     -10.073   8.924  -0.243  1.00  0.00    -0.248 NA
ATOM     56  C   UNL     1      -9.788  10.127   1.738  1.00  0.00     0.031 C 
ATOM     57  C   UNL     1     -11.482  10.720  -4.060  1.00  0.00     0.029 A 
ATOM     58  C   UNL     1     -11.060  10.177  -2.856  1.00  0.00     0.049 A 
ATOM     59  H   UNL     1     -10.402   8.218  -2.441  1.00  0.00     0.167 HD
ATOM     60  C   UNL     1     -10.491  10.234  -0.442  1.00  0.00     0.074 A 
ATOM     61  C   UNL     1     -10.332  10.919   0.825  1.00  0.00     0.031 C 
ATOM     62  C   UNL     1     -10.952  10.823  -1.573  1.00  0.00     0.034 A 
BRANCH  49  63
ATOM     63  C   UNL     1     -10.983   7.128  -6.530  1.00  0.00     0.023 A 
ATOM     64  C   UNL     1     -12.100   6.396  -6.985  1.00  0.00     0.012 A 
ATOM     65  C   UNL     1     -10.136   7.749  -7.469  1.00  0.00     0.148 A 
ATOM     66  C   UNL     1     -12.347   6.248  -8.349  1.00  0.00     0.002 A 
ATOM     67  C   UNL     1     -10.417   7.639  -8.826  1.00  0.00     0.091 A 
ATOM     68  F   UNL     1      -9.068   8.423  -7.021  1.00  0.00    -0.205 F 
ATOM     69  C   UNL     1     -11.513   6.878  -9.268  1.00  0.00     0.022 A 
BRANCH  67  70
ATOM     70  S   UNL     1      -9.454   8.480 -10.088  1.00  0.00     0.127 S 
ATOM     71  O   UNL     1      -8.776   7.358 -10.737  1.00  0.00    -0.237 OA
ATOM     72  O   UNL     1     -10.495   9.113 -10.898  1.00  0.00    -0.237 OA
ATOM     73  O   UNL     1      -8.586   9.409  -9.379  1.00  0.00    -0.744 OA
ENDBRANCH  67  70
ENDBRANCH  49  63
BRANCH  50  74
ATOM     74  C   UNL     1      -8.850   7.772   3.229  1.00  0.00     0.023 A 
ATOM     75  C   UNL     1      -9.859   8.039   4.175  1.00  0.00     0.012 A 
ATOM     76  C   UNL     1      -7.526   7.588   3.672  1.00  0.00     0.148 A 
ATOM     77  C   UNL     1      -9.552   8.154   5.531  1.00  0.00     0.002 A 
ATOM     78  C   UNL     1      -7.236   7.647   5.030  1.00  0.00     0.091 A 
ATOM     79  F   UNL     1      -6.578   7.344   2.756  1.00  0.00    -0.205 F 
ATOM     80  C   UNL     1      -8.243   7.948   5.960  1.00  0.00     0.022 A 
BRANCH  78  81
ATOM     81  S   UNL     1      -5.607   7.262   5.683  1.00  0.00     0.127 S 
ATOM     82  O   UNL     1      -5.134   8.579   6.103  1.00  0.00    -0.237 OA
ATOM     83  O   UNL     1      -5.929   6.344   6.777  1.00  0.00    -0.237 OA
ATOM     84  O   UNL     1      -4.879   6.648   4.582  1.00  0.00    -0.744 OA
ENDBRANCH  78  81
ENDBRANCH  50  74
BRANCH  62  85
ATOM     85  C   UNL     1     -11.367  12.267  -1.492  1.00  0.00     0.023 A 
ATOM     86  C   UNL     1     -10.389  13.275  -1.385  1.00  0.00     0.012 A 
ATOM     87  C   UNL     1     -12.724  12.626  -1.612  1.00  0.00     0.148 A 
ATOM     88  C   UNL     1     -10.759  14.619  -1.369  1.00  0.00     0.002 A 
ATOM     89  C   UNL     1     -13.080  13.968  -1.647  1.00  0.00     0.091 A 
ATOM     90  F   UNL     1     -13.639  11.649  -1.695  1.00  0.00    -0.205 F 
ATOM     91  C   UNL     1     -12.101  14.965  -1.513  1.00  0.00     0.022 A 
BRANCH  89  92
ATOM     92  S   UNL     1     -14.770  14.507  -1.933  1.00  0.00     0.127 S 
ATOM     93  O   UNL     1     -15.147  15.012  -0.614  1.00  0.00    -0.237 OA
ATOM     94  O   UNL     1     -14.597  15.539  -2.955  1.00  0.00    -0.237 OA
ATOM     95  O   UNL     1     -15.497  13.327  -2.382  1.00  0.00    -0.744 OA
ENDBRANCH  89  92
ENDBRANCH  62  85
ENDBRANCH  36  37
ENDBRANCH  28  31
ENDBRANCH  26  27
ENDBRANCH  25  26
ENDBRANCH   1  25
TORSDOF 18
