REMARK SMILES COc1cccc(-n2cc(C(=O)NCCCCNC(=O)c3ccc(-c4c5nc(c(-c6cccc(S(=O)(=O)[O-])c6F)c6ccc([nH]6)c(-c6cccc(S(=O)(=O)[O-])c6F)c6nc(c(-c7cccc(S(=O)(=O)[O-])c7F)c7ccc4[nH]7)C=C6)C=C5)cc3)c3c2[C@H](c2cc(OC)c(OC)c(OC)c2)CC(=O)N3)c1
REMARK SMILES IDX 16 1 15 2 14 3 13 4 11 5 12 6 10 8 8 9 9 10 85 11 84 12
REMARK SMILES IDX 86 13 102 14 99 15 100 16 101 18 7 19 3 20 4 21 103 22 5 23
REMARK SMILES IDX 6 24 2 25 1 26 87 27 88 28 98 29 89 30 95 31 92 32 90 33
REMARK SMILES IDX 91 34 96 35 97 36 93 37 94 38 17 39 18 40 19 41 20 43 21 44
REMARK SMILES IDX 22 45 83 46 23 47 82 48 24 49 25 50 26 51 76 52 27 53 81 54
REMARK SMILES IDX 75 55 77 56 28 57 80 58 74 59 73 60 29 62 61 63 41 64 60 65
REMARK SMILES IDX 42 66 45 67 59 68 78 69 43 70 44 71 58 73 79 74 46 75 30 76
REMARK SMILES IDX 31 77 39 78 32 79 34 80 40 81 33 82 35 83 36 84 37 85 38 86
REMARK SMILES IDX 62 87 63 88 71 89 64 90 66 91 72 92 65 93 67 94 68 95 69 96
REMARK SMILES IDX 70 97 47 98 48 99 56 100 49 101 51 102 57 103 50 104 52 105
REMARK SMILES IDX 53 106 54 107 55 108
REMARK H PARENT 13 7 102 17 18 42 77 61 45 72
REMARK Flexibility Score: inf
ROOT
ATOM      1  C   UNL     1      10.913  -4.332   2.603  1.00  0.00     0.023 C 
ENDROOT
BRANCH   1   2
ATOM      2  C   UNL     1       9.482  -4.443   3.144  1.00  0.00     0.023 C 
BRANCH   2   3
ATOM      3  C   UNL     1       9.159  -3.503   4.314  1.00  0.00     0.116 C 
BRANCH   3   4
ATOM      4  N   UNL     1       8.753  -2.209   3.828  1.00  0.00    -0.352 N 
ATOM      5  C   UNL     1       7.549  -1.655   3.493  1.00  0.00     0.254 C 
ATOM      6  O   UNL     1       7.616  -0.491   3.081  1.00  0.00    -0.269 OA
ATOM      7  H   UNL     1       9.507  -1.587   3.713  1.00  0.00     0.163 HD
BRANCH   5   8
ATOM      8  C   UNL     1       6.239  -2.319   3.592  1.00  0.00     0.081 A 
ATOM      9  N   UNL     1       3.956  -2.263   3.595  1.00  0.00    -0.317 N 
ATOM     10  C   UNL     1       5.100  -1.520   3.483  1.00  0.00     0.107 A 
ATOM     11  C   UNL     1       4.319  -3.583   3.757  1.00  0.00     0.055 A 
ATOM     12  C   UNL     1       5.705  -3.643   3.683  1.00  0.00     0.076 A 
ATOM     13  C   UNL     1       3.415  -4.797   3.834  1.00  0.00     0.078 C 
ATOM     14  N   UNL     1       6.293  -4.887   3.674  1.00  0.00    -0.324 N 
ATOM     15  C   UNL     1       4.137  -5.941   3.099  1.00  0.00     0.115 C 
ATOM     16  C   UNL     1       5.599  -6.053   3.495  1.00  0.00     0.225 C 
ATOM     17  H   UNL     1       7.267  -4.941   3.803  1.00  0.00     0.170 HD
ATOM     18  O   UNL     1       6.170  -7.141   3.564  1.00  0.00    -0.275 OA
BRANCH   9  19
ATOM     19  C   UNL     1       2.667  -1.707   3.492  1.00  0.00     0.049 A 
ATOM     20  C   UNL     1       0.912  -0.706   2.172  1.00  0.00     0.120 A 
ATOM     21  C   UNL     1       0.109  -0.664   3.318  1.00  0.00     0.046 A 
ATOM     22  C   UNL     1       2.200  -1.242   2.255  1.00  0.00     0.073 A 
ATOM     23  C   UNL     1       0.608  -1.069   4.556  1.00  0.00     0.006 A 
ATOM     24  C   UNL     1       1.909  -1.550   4.650  1.00  0.00     0.027 A 
BRANCH  20  25
ATOM     25  O   UNL     1       0.313  -0.197   1.053  1.00  0.00    -0.497 OA
ATOM     26  C   UNL     1       1.118  -0.051  -0.109  1.00  0.00     0.278 C 
ENDBRANCH  20  25
ENDBRANCH   9  19
BRANCH  13  27
ATOM     27  C   UNL     1       2.980  -5.171   5.258  1.00  0.00    -0.031 A 
ATOM     28  C   UNL     1       1.888  -4.512   5.822  1.00  0.00     0.055 A 
ATOM     29  C   UNL     1       3.602  -6.143   6.059  1.00  0.00     0.055 A 
ATOM     30  C   UNL     1       1.552  -4.652   7.170  1.00  0.00     0.164 A 
ATOM     31  C   UNL     1       3.174  -6.423   7.377  1.00  0.00     0.164 A 
ATOM     32  C   UNL     1       2.158  -5.642   7.958  1.00  0.00     0.203 A 
BRANCH  30  33
ATOM     33  O   UNL     1       0.573  -3.786   7.600  1.00  0.00    -0.493 OA
ATOM     34  C   UNL     1       0.887  -3.130   8.833  1.00  0.00     0.278 C 
ENDBRANCH  30  33
BRANCH  31  35
ATOM     35  O   UNL     1       3.735  -7.421   8.132  1.00  0.00    -0.493 OA
ATOM     36  C   UNL     1       4.582  -8.366   7.489  1.00  0.00     0.278 C 
ENDBRANCH  31  35
BRANCH  32  37
ATOM     37  O   UNL     1       1.648  -5.742   9.226  1.00  0.00    -0.490 OA
ATOM     38  C   UNL     1       1.988  -6.844  10.045  1.00  0.00     0.278 C 
ENDBRANCH  32  37
ENDBRANCH  13  27
ENDBRANCH   5   8
ENDBRANCH   3   4
ENDBRANCH   2   3
ENDBRANCH   1   2
BRANCH   1  39
ATOM     39  C   UNL     1      11.972  -4.915   3.536  1.00  0.00     0.116 C 
BRANCH  39  40
ATOM     40  N   UNL     1      11.808  -6.353   3.727  1.00  0.00    -0.352 N 
ATOM     41  C   UNL     1      12.377  -7.151   4.699  1.00  0.00     0.251 C 
ATOM     42  H   UNL     1      11.219  -6.810   3.084  1.00  0.00     0.163 HD
ATOM     43  O   UNL     1      12.514  -8.350   4.520  1.00  0.00    -0.269 OA
BRANCH  41  44
ATOM     44  C   UNL     1      12.809  -6.532   5.965  1.00  0.00     0.039 A 
ATOM     45  C   UNL     1      14.059  -6.845   6.505  1.00  0.00     0.014 A 
ATOM     46  C   UNL     1      11.957  -5.625   6.599  1.00  0.00     0.014 A 
ATOM     47  C   UNL     1      14.488  -6.173   7.645  1.00  0.00     0.010 A 
ATOM     48  C   UNL     1      12.410  -4.908   7.688  1.00  0.00     0.010 A 
ATOM     49  C   UNL     1      13.671  -5.183   8.218  1.00  0.00    -0.014 A 
BRANCH  49  50
ATOM     50  C   UNL     1      14.244  -4.261   9.205  1.00  0.00     0.031 A 
ATOM     51  C   UNL     1      15.435  -3.522   8.686  1.00  0.00     0.074 A 
ATOM     52  C   UNL     1      13.619  -3.926  10.356  1.00  0.00     0.049 A 
ATOM     53  N   UNL     1      16.650  -3.561   9.125  1.00  0.00    -0.248 NA
ATOM     54  C   UNL     1      15.294  -2.788   7.414  1.00  0.00     0.031 C 
ATOM     55  C   UNL     1      12.292  -4.380  10.789  1.00  0.00     0.029 A 
ATOM     56  N   UNL     1      13.942  -2.994  11.305  1.00  0.00    -0.354 N 
ATOM     57  C   UNL     1      17.355  -2.639   8.347  1.00  0.00     0.074 A 
ATOM     58  C   UNL     1      16.550  -2.403   7.183  1.00  0.00     0.031 C 
ATOM     59  C   UNL     1      11.818  -3.545  11.737  1.00  0.00     0.029 A 
ATOM     60  C   UNL     1      12.852  -2.588  12.082  1.00  0.00     0.049 A 
ATOM     61  H   UNL     1      14.853  -2.643  11.428  1.00  0.00     0.167 HD
ATOM     62  C   UNL     1      18.367  -1.904   8.888  1.00  0.00     0.034 A 
ATOM     63  C   UNL     1      12.775  -1.510  12.902  1.00  0.00     0.034 A 
ATOM     64  C   UNL     1      18.812  -2.496  10.127  1.00  0.00     0.049 A 
ATOM     65  C   UNL     1      14.156  -1.084  13.197  1.00  0.00     0.074 A 
ATOM     66  C   UNL     1      19.345  -3.705  10.520  1.00  0.00     0.029 A 
ATOM     67  N   UNL     1      18.343  -1.881  11.258  1.00  0.00    -0.354 N 
ATOM     68  N   UNL     1      14.983  -1.772  13.929  1.00  0.00    -0.248 NA
ATOM     69  C   UNL     1      14.752  -0.041  12.380  1.00  0.00     0.031 C 
ATOM     70  C   UNL     1      18.841  -3.926  11.836  1.00  0.00     0.029 A 
ATOM     71  C   UNL     1      18.086  -2.815  12.216  1.00  0.00     0.049 A 
ATOM     72  H   UNL     1      18.212  -0.911  11.362  1.00  0.00     0.167 HD
ATOM     73  C   UNL     1      16.205  -1.591  13.302  1.00  0.00     0.074 A 
ATOM     74  C   UNL     1      16.034  -0.398  12.479  1.00  0.00     0.031 C 
ATOM     75  C   UNL     1      17.114  -2.608  13.267  1.00  0.00     0.034 A 
BRANCH  62  76
ATOM     76  C   UNL     1      18.619  -0.421   8.614  1.00  0.00     0.023 A 
ATOM     77  C   UNL     1      19.684   0.182   9.331  1.00  0.00     0.012 A 
ATOM     78  C   UNL     1      17.718   0.464   7.978  1.00  0.00     0.148 A 
ATOM     79  C   UNL     1      19.779   1.569   9.498  1.00  0.00     0.002 A 
ATOM     80  C   UNL     1      17.854   1.845   8.087  1.00  0.00     0.091 A 
ATOM     81  F   UNL     1      16.643  -0.003   7.345  1.00  0.00    -0.205 F 
ATOM     82  C   UNL     1      18.859   2.402   8.879  1.00  0.00     0.022 A 
BRANCH  80  83
ATOM     83  S   UNL     1      16.716   2.977   7.272  1.00  0.00     0.127 S 
ATOM     84  O   UNL     1      16.021   3.563   8.414  1.00  0.00    -0.237 OA
ATOM     85  O   UNL     1      17.640   3.873   6.578  1.00  0.00    -0.237 OA
ATOM     86  O   UNL     1      15.901   2.155   6.386  1.00  0.00    -0.744 OA
ENDBRANCH  80  83
ENDBRANCH  62  76
BRANCH  63  87
ATOM     87  C   UNL     1      11.623  -0.673  13.325  1.00  0.00     0.023 A 
ATOM     88  C   UNL     1      11.744   0.150  14.466  1.00  0.00     0.012 A 
ATOM     89  C   UNL     1      10.530  -0.450  12.461  1.00  0.00     0.148 A 
ATOM     90  C   UNL     1      10.839   1.191  14.710  1.00  0.00     0.002 A 
ATOM     91  C   UNL     1       9.628   0.582  12.712  1.00  0.00     0.091 A 
ATOM     92  F   UNL     1      10.429  -1.184  11.346  1.00  0.00    -0.205 F 
ATOM     93  C   UNL     1       9.788   1.415  13.827  1.00  0.00     0.022 A 
BRANCH  91  94
ATOM     94  S   UNL     1       8.265   0.952  11.599  1.00  0.00     0.127 S 
ATOM     95  O   UNL     1       7.139   1.068  12.525  1.00  0.00    -0.237 OA
ATOM     96  O   UNL     1       8.699   2.211  11.001  1.00  0.00    -0.237 OA
ATOM     97  O   UNL     1       8.178  -0.184  10.689  1.00  0.00    -0.744 OA
ENDBRANCH  91  94
ENDBRANCH  63  87
BRANCH  75  98
ATOM     98  C   UNL     1      16.980  -3.709  14.283  1.00  0.00     0.023 A 
ATOM     99  C   UNL     1      15.864  -4.566  14.363  1.00  0.00     0.012 A 
ATOM    100  C   UNL     1      18.092  -3.955  15.104  1.00  0.00     0.148 A 
ATOM    101  C   UNL     1      15.854  -5.633  15.267  1.00  0.00     0.002 A 
ATOM    102  C   UNL     1      18.100  -5.047  15.958  1.00  0.00     0.091 A 
ATOM    103  F   UNL     1      19.139  -3.119  15.023  1.00  0.00    -0.205 F 
ATOM    104  C   UNL     1      16.979  -5.883  16.053  1.00  0.00     0.022 A 
BRANCH 102 105
ATOM    105  S   UNL     1      19.573  -5.474  16.886  1.00  0.00     0.127 S 
ATOM    106  O   UNL     1      19.267  -4.937  18.209  1.00  0.00    -0.237 OA
ATOM    107  O   UNL     1      19.587  -6.935  16.805  1.00  0.00    -0.237 OA
ATOM    108  O   UNL     1      20.681  -4.834  16.185  1.00  0.00    -0.744 OA
ENDBRANCH 102 105
ENDBRANCH  75  98
ENDBRANCH  49  50
ENDBRANCH  41  44
ENDBRANCH  39  40
ENDBRANCH   1  39
TORSDOF 20
