REMARK SMILES C[C@@H](C(=O)NCCCCNC(=O)c1ccc(-c2c3nc(c(-c4cccc(S(=O)(=O)[O-])c4F)c4ccc([nH]4)c(-c4cccc(S(=O)(=O)[O-])c4F)c4nc(c(-c5cccc(S(=O)(=O)[O-])c5F)c5ccc2[nH]5)C=C4)C=C3)cc1)c1ccc2c3cc(Cl)ccc3n(C(=O)c3ccc(Cl)cc3)c2c1
REMARK SMILES IDX 7 1 6 2 5 3 3 4 4 5 2 7 1 8 76 9 77 10 98 11 78 12 97 13
REMARK SMILES IDX 79 14 87 15 80 16 86 17 81 18 85 19 82 20 84 21 83 22 88 23
REMARK SMILES IDX 89 24 90 25 91 26 96 27 92 28 95 29 93 30 94 31 8 32 9 33
REMARK SMILES IDX 10 34 11 35 12 37 13 38 14 39 75 40 15 41 74 42 16 43 17 44
REMARK SMILES IDX 18 45 68 46 19 47 73 48 67 49 69 50 20 51 72 52 66 53 65 54
REMARK SMILES IDX 21 56 53 57 33 58 52 59 34 60 37 61 51 62 70 63 35 64 36 65
REMARK SMILES IDX 50 67 71 68 38 69 22 70 23 71 31 72 24 73 26 74 32 75 25 76
REMARK SMILES IDX 27 77 28 78 29 79 30 80 54 81 55 82 63 83 56 84 58 85 64 86
REMARK SMILES IDX 57 87 59 88 60 89 61 90 62 91 39 92 40 93 48 94 41 95 43 96
REMARK SMILES IDX 49 97 42 98 44 99 45 100 46 101 47 102
REMARK H PARENT 5 6 10 36 69 55 37 66
REMARK Flexibility Score: inf
ROOT
ATOM      1  C   UNL     1       4.362   1.177   0.387  1.00  0.00     0.023 C 
ENDROOT
BRANCH   1   2
ATOM      2  C   UNL     1       3.639   0.628   1.619  1.00  0.00     0.116 C 
BRANCH   2   3
ATOM      3  N   UNL     1       2.672   1.579   2.121  1.00  0.00    -0.356 N 
ATOM      4  C   UNL     1       1.319   1.628   1.952  1.00  0.00     0.227 C 
ATOM      5  O   UNL     1       0.742   2.602   2.438  1.00  0.00    -0.274 OA
ATOM      6  H   UNL     1       3.049   2.305   2.669  1.00  0.00     0.163 HD
BRANCH   4   7
ATOM      7  C   UNL     1       0.599   0.467   1.249  1.00  0.00     0.105 C 
ATOM      8  C   UNL     1       0.936   0.317  -0.237  1.00  0.00     0.023 C 
BRANCH   7   9
ATOM      9  C   UNL     1      -0.922   0.524   1.334  1.00  0.00    -0.034 A 
ATOM     10  C   UNL     1      -1.636   1.671   0.983  1.00  0.00     0.005 A 
ATOM     11  C   UNL     1      -1.616  -0.654   1.645  1.00  0.00     0.032 A 
ATOM     12  C   UNL     1      -3.028   1.649   0.905  1.00  0.00     0.011 A 
ATOM     13  C   UNL     1      -3.023  -0.668   1.603  1.00  0.00     0.057 A 
ATOM     14  C   UNL     1      -3.726   0.459   1.195  1.00  0.00     0.008 A 
ATOM     15  N   UNL     1      -3.942  -1.697   1.875  1.00  0.00    -0.276 N 
ATOM     16  C   UNL     1      -5.101   0.123   1.191  1.00  0.00     0.009 A 
ATOM     17  C   UNL     1      -5.234  -1.172   1.714  1.00  0.00     0.057 A 
ATOM     18  C   UNL     1      -6.245   0.870   0.839  1.00  0.00     0.031 A 
ATOM     19  C   UNL     1      -6.512  -1.665   2.042  1.00  0.00     0.029 A 
ATOM     20  C   UNL     1      -7.504   0.349   1.105  1.00  0.00     0.041 A 
ATOM     21  C   UNL     1      -7.638  -0.885   1.727  1.00  0.00     0.023 A 
ATOM     22  Cl  UNL     1      -8.901   1.271   0.700  1.00  0.00    -0.084 Cl
BRANCH  15  23
ATOM     23  C   UNL     1      -3.536  -2.996   2.293  1.00  0.00     0.262 C 
ATOM     24  O   UNL     1      -2.438  -3.062   2.852  1.00  0.00    -0.268 OA
BRANCH  23  25
ATOM     25  C   UNL     1      -4.206  -4.319   2.113  1.00  0.00     0.040 A 
ATOM     26  C   UNL     1      -3.645  -5.407   2.820  1.00  0.00     0.015 A 
ATOM     27  C   UNL     1      -5.224  -4.582   1.194  1.00  0.00     0.015 A 
ATOM     28  C   UNL     1      -4.091  -6.715   2.627  1.00  0.00     0.021 A 
ATOM     29  C   UNL     1      -5.696  -5.896   1.023  1.00  0.00     0.021 A 
ATOM     30  C   UNL     1      -5.123  -6.954   1.731  1.00  0.00     0.041 A 
ATOM     31  Cl  UNL     1      -5.669  -8.565   1.474  1.00  0.00    -0.084 Cl
ENDBRANCH  23  25
ENDBRANCH  15  23
ENDBRANCH   7   9
ENDBRANCH   4   7
ENDBRANCH   2   3
ENDBRANCH   1   2
BRANCH   1  32
ATOM     32  C   UNL     1       5.136   2.472   0.633  1.00  0.00     0.023 C 
BRANCH  32  33
ATOM     33  C   UNL     1       6.106   2.418   1.801  1.00  0.00     0.116 C 
BRANCH  33  34
ATOM     34  N   UNL     1       7.082   1.350   1.661  1.00  0.00    -0.352 N 
ATOM     35  C   UNL     1       8.435   1.390   1.897  1.00  0.00     0.251 C 
ATOM     36  H   UNL     1       6.727   0.483   1.358  1.00  0.00     0.163 HD
ATOM     37  O   UNL     1       9.142   0.445   1.577  1.00  0.00    -0.269 OA
BRANCH  35  38
ATOM     38  C   UNL     1       9.023   2.595   2.521  1.00  0.00     0.039 A 
ATOM     39  C   UNL     1      10.203   3.120   1.993  1.00  0.00     0.014 A 
ATOM     40  C   UNL     1       8.403   3.206   3.615  1.00  0.00     0.014 A 
ATOM     41  C   UNL     1      10.748   4.279   2.547  1.00  0.00     0.010 A 
ATOM     42  C   UNL     1       8.895   4.411   4.102  1.00  0.00     0.010 A 
ATOM     43  C   UNL     1      10.090   4.941   3.597  1.00  0.00    -0.014 A 
BRANCH  43  44
ATOM     44  C   UNL     1      10.665   6.163   4.213  1.00  0.00     0.031 A 
ATOM     45  C   UNL     1      11.068   6.152   5.664  1.00  0.00     0.074 A 
ATOM     46  C   UNL     1      10.770   7.294   3.490  1.00  0.00     0.049 A 
ATOM     47  N   UNL     1      11.581   7.114   6.385  1.00  0.00    -0.248 NA
ATOM     48  C   UNL     1      10.836   4.904   6.413  1.00  0.00     0.031 C 
ATOM     49  C   UNL     1      10.345   7.453   2.098  1.00  0.00     0.029 A 
ATOM     50  N   UNL     1      11.255   8.531   3.832  1.00  0.00    -0.354 N 
ATOM     51  C   UNL     1      11.690   6.606   7.674  1.00  0.00     0.074 A 
ATOM     52  C   UNL     1      11.151   5.265   7.647  1.00  0.00     0.031 C 
ATOM     53  C   UNL     1      10.609   8.707   1.698  1.00  0.00     0.029 A 
ATOM     54  C   UNL     1      11.194   9.449   2.811  1.00  0.00     0.049 A 
ATOM     55  H   UNL     1      11.613   8.741   4.725  1.00  0.00     0.167 HD
ATOM     56  C   UNL     1      12.217   7.189   8.777  1.00  0.00     0.034 A 
ATOM     57  C   UNL     1      11.571  10.742   2.776  1.00  0.00     0.034 A 
ATOM     58  C   UNL     1      12.792   8.506   8.787  1.00  0.00     0.049 A 
ATOM     59  C   UNL     1      12.198  11.353   4.000  1.00  0.00     0.074 A 
ATOM     60  C   UNL     1      13.438   9.155   9.823  1.00  0.00     0.029 A 
ATOM     61  N   UNL     1      12.777   9.382   7.713  1.00  0.00    -0.354 N 
ATOM     62  N   UNL     1      12.438  10.805   5.167  1.00  0.00    -0.248 NA
ATOM     63  C   UNL     1      12.646  12.748   3.889  1.00  0.00     0.031 C 
ATOM     64  C   UNL     1      13.782  10.439   9.386  1.00  0.00     0.029 A 
ATOM     65  C   UNL     1      13.393  10.571   8.062  1.00  0.00     0.049 A 
ATOM     66  H   UNL     1      12.387   9.186   6.830  1.00  0.00     0.167 HD
ATOM     67  C   UNL     1      13.110  11.769   5.910  1.00  0.00     0.074 A 
ATOM     68  C   UNL     1      13.247  12.931   5.056  1.00  0.00     0.031 C 
ATOM     69  C   UNL     1      13.570  11.699   7.184  1.00  0.00     0.034 A 
BRANCH  56  70
ATOM     70  C   UNL     1      12.222   6.389  10.055  1.00  0.00     0.023 A 
ATOM     71  C   UNL     1      13.044   5.248  10.171  1.00  0.00     0.012 A 
ATOM     72  C   UNL     1      11.434   6.784  11.154  1.00  0.00     0.148 A 
ATOM     73  C   UNL     1      13.044   4.486  11.339  1.00  0.00     0.002 A 
ATOM     74  C   UNL     1      11.480   6.050  12.333  1.00  0.00     0.091 A 
ATOM     75  F   UNL     1      10.641   7.856  11.021  1.00  0.00    -0.205 F 
ATOM     76  C   UNL     1      12.270   4.892  12.422  1.00  0.00     0.022 A 
BRANCH  74  77
ATOM     77  S   UNL     1      10.588   6.542  13.813  1.00  0.00     0.127 S 
ATOM     78  O   UNL     1       9.536   5.529  13.874  1.00  0.00    -0.237 OA
ATOM     79  O   UNL     1      11.617   6.417  14.847  1.00  0.00    -0.237 OA
ATOM     80  O   UNL     1      10.134   7.904  13.573  1.00  0.00    -0.744 OA
ENDBRANCH  74  77
ENDBRANCH  56  70
BRANCH  57  81
ATOM     81  C   UNL     1      11.452  11.520   1.510  1.00  0.00     0.023 A 
ATOM     82  C   UNL     1      12.621  11.878   0.809  1.00  0.00     0.012 A 
ATOM     83  C   UNL     1      10.198  11.884   0.985  1.00  0.00     0.148 A 
ATOM     84  C   UNL     1      12.545  12.617  -0.371  1.00  0.00     0.002 A 
ATOM     85  C   UNL     1      10.127  12.573  -0.220  1.00  0.00     0.091 A 
ATOM     86  F   UNL     1       9.099  11.535   1.669  1.00  0.00    -0.205 F 
ATOM     87  C   UNL     1      11.299  12.957  -0.890  1.00  0.00     0.022 A 
BRANCH  85  88
ATOM     88  S   UNL     1       8.568  12.948  -1.029  1.00  0.00     0.127 S 
ATOM     89  O   UNL     1       8.538  14.407  -0.958  1.00  0.00    -0.237 OA
ATOM     90  O   UNL     1       8.788  12.401  -2.368  1.00  0.00    -0.237 OA
ATOM     91  O   UNL     1       7.545  12.259  -0.256  1.00  0.00    -0.744 OA
ENDBRANCH  85  88
ENDBRANCH  57  81
BRANCH  69  92
ATOM     92  C   UNL     1      14.329  12.886   7.720  1.00  0.00     0.023 A 
ATOM     93  C   UNL     1      13.660  14.092   8.004  1.00  0.00     0.012 A 
ATOM     94  C   UNL     1      15.706  12.777   8.001  1.00  0.00     0.148 A 
ATOM     95  C   UNL     1      14.358  15.185   8.519  1.00  0.00     0.002 A 
ATOM     96  C   UNL     1      16.382  13.850   8.567  1.00  0.00     0.091 A 
ATOM     97  F   UNL     1      16.331  11.628   7.706  1.00  0.00    -0.205 F 
ATOM     98  C   UNL     1      15.714  15.060   8.811  1.00  0.00     0.022 A 
BRANCH  96  99
ATOM     99  S   UNL     1      18.102  13.740   9.073  1.00  0.00     0.127 S 
ATOM    100  O   UNL     1      18.769  14.529   8.039  1.00  0.00    -0.237 OA
ATOM    101  O   UNL     1      18.077  14.365  10.396  1.00  0.00    -0.237 OA
ATOM    102  O   UNL     1      18.426  12.320   9.085  1.00  0.00    -0.744 OA
ENDBRANCH  96  99
ENDBRANCH  69  92
ENDBRANCH  43  44
ENDBRANCH  35  38
ENDBRANCH  33  34
ENDBRANCH  32  33
ENDBRANCH   1  32
TORSDOF 17
