REMARK SMILES O=C(NCCCCNC(=O)[C@H](c1c[nH]c2ccc(Cl)cc12)[NH+]1CCN(c2cccc(Cl)c2)CC1)c1ccc(-c2c3nc(c(-c4cccc(S(=O)(=O)[O-])c4F)c4ccc([nH]4)c(-c4cccc(S(=O)(=O)[O-])c4F)c4nc(c(-c5cccc(S(=O)(=O)[O-])c5F)c5ccc2[nH]5)C=C4)C=C3)cc1
REMARK SMILES IDX 5 1 4 2 3 3 1 4 2 5 35 7 36 8 97 9 37 10 96 11 38 12 39 13
REMARK SMILES IDX 40 14 90 15 41 16 95 17 89 18 91 19 42 20 94 21 88 22 87 23
REMARK SMILES IDX 43 25 75 26 55 27 74 28 56 29 59 30 73 31 92 32 57 33 58 34
REMARK SMILES IDX 72 36 93 37 60 38 44 39 45 40 53 41 46 42 48 43 54 44 47 45
REMARK SMILES IDX 49 46 50 47 51 48 52 49 76 50 77 51 85 52 78 53 80 54 86 55
REMARK SMILES IDX 79 56 81 57 82 58 83 59 84 60 61 61 62 62 70 63 63 64 65 65
REMARK SMILES IDX 71 66 64 67 66 68 67 69 68 70 69 71 6 72 7 73 8 74 9 75
REMARK SMILES IDX 10 77 11 78 22 79 23 80 34 81 24 83 33 84 25 85 26 86 27 87
REMARK SMILES IDX 32 88 28 89 30 90 29 91 31 92 12 93 13 94 21 95 14 96 15 97
REMARK SMILES IDX 20 98 16 100 18 101 17 102 19 103
REMARK H PARENT 3 6 91 24 59 35 8 76 22 82 14 99
REMARK Flexibility Score: inf
ROOT
ATOM      1  C   UNL     1       3.884  -2.111  10.826  1.00  0.00     0.023 C 
ENDROOT
BRANCH   1   2
ATOM      2  C   UNL     1       2.657  -3.076  10.203  1.00  0.00     0.116 C 
BRANCH   2   3
ATOM      3  N   UNL     1       1.851  -4.964  10.596  1.00  0.00    -0.352 N 
ATOM      4  O   UNL     1       0.943  -7.047  10.968  1.00  0.00    -0.269 OA
ATOM      5  C   UNL     1       0.721  -5.832  10.973  1.00  0.00     0.251 C 
ATOM      6  H   UNL     1       2.603  -5.585  10.461  1.00  0.00     0.163 HD
BRANCH   5   7
ATOM      7  C   UNL     1      -0.660  -5.398  11.387  1.00  0.00     0.039 A 
ATOM      8  C   UNL     1      -1.508  -4.840  10.439  1.00  0.00     0.014 A 
ATOM      9  C   UNL     1      -0.987  -5.279  12.742  1.00  0.00     0.014 A 
ATOM     10  C   UNL     1      -2.347  -3.804  10.846  1.00  0.00     0.010 A 
ATOM     11  C   UNL     1      -2.019  -4.405  13.139  1.00  0.00     0.010 A 
ATOM     12  C   UNL     1      -2.653  -3.577  12.200  1.00  0.00    -0.014 A 
BRANCH  12  13
ATOM     13  C   UNL     1      -3.677  -2.543  12.574  1.00  0.00     0.031 A 
ATOM     14  C   UNL     1      -3.462  -1.515  13.669  1.00  0.00     0.074 A 
ATOM     15  C   UNL     1      -4.858  -2.541  11.917  1.00  0.00     0.049 A 
ATOM     16  N   UNL     1      -4.329  -0.691  14.209  1.00  0.00    -0.248 NA
ATOM     17  C   UNL     1      -2.108  -1.388  14.232  1.00  0.00     0.031 C 
ATOM     18  C   UNL     1      -5.219  -3.454  10.828  1.00  0.00     0.029 A 
ATOM     19  N   UNL     1      -5.988  -1.773  12.078  1.00  0.00    -0.354 N 
ATOM     20  C   UNL     1      -3.656  -0.009  15.222  1.00  0.00     0.074 A 
ATOM     21  C   UNL     1      -2.290  -0.491  15.195  1.00  0.00     0.031 C 
ATOM     22  C   UNL     1      -6.452  -3.183  10.401  1.00  0.00     0.029 A 
ATOM     23  C   UNL     1      -7.037  -2.203  11.298  1.00  0.00     0.049 A 
ATOM     24  H   UNL     1      -6.040  -1.000  12.686  1.00  0.00     0.167 HD
ATOM     25  C   UNL     1      -4.136   0.911  16.100  1.00  0.00     0.034 A 
ATOM     26  C   UNL     1      -8.358  -1.956  11.350  1.00  0.00     0.034 A 
ATOM     27  C   UNL     1      -5.498   1.394  16.106  1.00  0.00     0.049 A 
ATOM     28  C   UNL     1      -8.881  -1.000  12.366  1.00  0.00     0.074 A 
ATOM     29  C   UNL     1      -6.065   2.364  16.918  1.00  0.00     0.029 A 
ATOM     30  N   UNL     1      -6.516   0.922  15.290  1.00  0.00    -0.354 N 
ATOM     31  N   UNL     1      -8.220  -0.338  13.282  1.00  0.00    -0.248 NA
ATOM     32  C   UNL     1     -10.324  -0.738  12.345  1.00  0.00     0.031 C 
ATOM     33  C   UNL     1      -7.435   2.424  16.644  1.00  0.00     0.029 A 
ATOM     34  C   UNL     1      -7.711   1.552  15.604  1.00  0.00     0.049 A 
ATOM     35  H   UNL     1      -6.406   0.240  14.588  1.00  0.00     0.167 HD
ATOM     36  C   UNL     1      -9.161   0.447  13.929  1.00  0.00     0.074 A 
ATOM     37  C   UNL     1     -10.436   0.183  13.292  1.00  0.00     0.031 C 
ATOM     38  C   UNL     1      -8.976   1.310  14.956  1.00  0.00     0.034 A 
BRANCH  25  39
ATOM     39  C   UNL     1      -3.205   1.438  17.175  1.00  0.00     0.023 A 
ATOM     40  C   UNL     1      -2.122   2.277  16.845  1.00  0.00     0.012 A 
ATOM     41  C   UNL     1      -3.451   1.146  18.536  1.00  0.00     0.148 A 
ATOM     42  C   UNL     1      -1.269   2.766  17.839  1.00  0.00     0.002 A 
ATOM     43  C   UNL     1      -2.626   1.676  19.524  1.00  0.00     0.091 A 
ATOM     44  F   UNL     1      -4.485   0.351  18.843  1.00  0.00    -0.205 F 
ATOM     45  C   UNL     1      -1.524   2.470  19.175  1.00  0.00     0.022 A 
BRANCH  43  46
ATOM     46  S   UNL     1      -2.923   1.422  21.279  1.00  0.00     0.127 S 
ATOM     47  O   UNL     1      -1.826   0.523  21.635  1.00  0.00    -0.237 OA
ATOM     48  O   UNL     1      -2.795   2.779  21.813  1.00  0.00    -0.237 OA
ATOM     49  O   UNL     1      -4.258   0.853  21.384  1.00  0.00    -0.744 OA
ENDBRANCH  43  46
ENDBRANCH  25  39
BRANCH  26  50
ATOM     50  C   UNL     1      -9.259  -2.706  10.433  1.00  0.00     0.023 A 
ATOM     51  C   UNL     1      -9.867  -2.044   9.353  1.00  0.00     0.012 A 
ATOM     52  C   UNL     1      -9.414  -4.102  10.569  1.00  0.00     0.148 A 
ATOM     53  C   UNL     1     -10.624  -2.760   8.427  1.00  0.00     0.002 A 
ATOM     54  C   UNL     1     -10.111  -4.817   9.606  1.00  0.00     0.091 A 
ATOM     55  F   UNL     1      -8.817  -4.708  11.605  1.00  0.00    -0.205 F 
ATOM     56  C   UNL     1     -10.732  -4.145   8.543  1.00  0.00     0.022 A 
BRANCH  54  57
ATOM     57  S   UNL     1     -10.162  -6.612   9.585  1.00  0.00     0.127 S 
ATOM     58  O   UNL     1     -11.582  -6.870   9.816  1.00  0.00    -0.237 OA
ATOM     59  O   UNL     1      -9.693  -6.907   8.232  1.00  0.00    -0.237 OA
ATOM     60  O   UNL     1      -9.264  -7.049  10.645  1.00  0.00    -0.744 OA
ENDBRANCH  54  57
ENDBRANCH  26  50
BRANCH  38  61
ATOM     61  C   UNL     1     -10.170   2.096  15.423  1.00  0.00     0.023 A 
ATOM     62  C   UNL     1     -11.207   1.470  16.140  1.00  0.00     0.012 A 
ATOM     63  C   UNL     1     -10.222   3.487  15.201  1.00  0.00     0.148 A 
ATOM     64  C   UNL     1     -12.291   2.213  16.608  1.00  0.00     0.002 A 
ATOM     65  C   UNL     1     -11.273   4.229  15.720  1.00  0.00     0.091 A 
ATOM     66  F   UNL     1      -9.236   4.056  14.493  1.00  0.00    -0.205 F 
ATOM     67  C   UNL     1     -12.316   3.592  16.412  1.00  0.00     0.022 A 
BRANCH  65  68
ATOM     68  S   UNL     1     -11.340   6.019  15.600  1.00  0.00     0.127 S 
ATOM     69  O   UNL     1     -12.521   6.217  14.760  1.00  0.00    -0.237 OA
ATOM     70  O   UNL     1     -11.511   6.412  16.998  1.00  0.00    -0.237 OA
ATOM     71  O   UNL     1     -10.079   6.434  14.999  1.00  0.00    -0.744 OA
ENDBRANCH  65  68
ENDBRANCH  38  61
ENDBRANCH  12  13
ENDBRANCH   5   7
ENDBRANCH   2   3
ENDBRANCH   1   2
BRANCH   1  72
ATOM     72  C   UNL     1       4.708  -1.299   9.760  1.00  0.00     0.023 C 
BRANCH  72  73
ATOM     73  C   UNL     1       4.038  -0.812   8.452  1.00  0.00     0.116 C 
BRANCH  73  74
ATOM     74  N   UNL     1       4.958  -0.506   7.336  1.00  0.00    -0.351 N 
ATOM     75  C   UNL     1       5.758  -0.996   6.352  1.00  0.00     0.283 C 
ATOM     76  H   UNL     1       5.017   0.475   7.282  1.00  0.00     0.163 HD
ATOM     77  O   UNL     1       5.970  -0.044   5.566  1.00  0.00    -0.268 OA
BRANCH  75  78
ATOM     78  C   UNL     1       6.576  -2.451   6.103  1.00  0.00     0.307 C 
BRANCH  78  79
ATOM     79  N   UNL     1       5.806  -3.731   5.794  1.00  0.00    -0.318 N 
ATOM     80  C   UNL     1       6.324  -5.059   6.411  1.00  0.00     0.284 C 
ATOM     81  C   UNL     1       4.454  -3.621   6.275  1.00  0.00     0.284 C 
ATOM     82  H   UNL     1       5.915  -3.796   4.782  1.00  0.00     0.349 HD
ATOM     83  C   UNL     1       5.728  -5.689   7.889  1.00  0.00     0.178 C 
ATOM     84  C   UNL     1       4.657  -3.670   7.759  1.00  0.00     0.178 C 
ATOM     85  N   UNL     1       4.475  -4.993   8.248  1.00  0.00    -0.360 N 
BRANCH  85  86
ATOM     86  C   UNL     1       3.496  -4.893   9.248  1.00  0.00     0.038 A 
ATOM     87  C   UNL     1       1.865  -4.385   8.626  1.00  0.00     0.026 A 
ATOM     88  C   UNL     1       3.865  -4.705  11.003  1.00  0.00     0.046 A 
ATOM     89  C   UNL     1       0.688  -3.537   9.714  1.00  0.00     0.004 A 
ATOM     90  C   UNL     1       2.642  -3.970  12.140  1.00  0.00     0.043 A 
ATOM     91  C   UNL     1       1.063  -3.334  11.513  1.00  0.00     0.020 A 
ATOM     92  Cl  UNL     1       2.991  -3.839  13.818  1.00  0.00    -0.084 Cl
ENDBRANCH  85  86
ENDBRANCH  78  79
BRANCH  78  93
ATOM     93  C   UNL     1       7.396  -2.169   4.828  1.00  0.00     0.044 A 
ATOM     94  C   UNL     1       6.870  -1.836   3.583  1.00  0.00     0.094 A 
ATOM     95  C   UNL     1       8.814  -1.981   4.718  1.00  0.00     0.011 A 
ATOM     96  N   UNL     1       7.874  -1.350   2.795  1.00  0.00    -0.361 N 
ATOM     97  C   UNL     1       9.077  -1.455   3.449  1.00  0.00     0.046 A 
ATOM     98  C   UNL     1       9.895  -2.150   5.605  1.00  0.00     0.031 A 
ATOM     99  H   UNL     1       7.753  -0.979   1.891  1.00  0.00     0.166 HD
ATOM    100  C   UNL     1      10.359  -1.089   3.020  1.00  0.00     0.028 A 
ATOM    101  C   UNL     1      11.184  -1.817   5.177  1.00  0.00     0.041 A 
ATOM    102  C   UNL     1      11.416  -1.293   3.909  1.00  0.00     0.022 A 
ATOM    103  Cl  UNL     1      12.512  -2.058   6.248  1.00  0.00    -0.084 Cl
ENDBRANCH  78  93
ENDBRANCH  75  78
ENDBRANCH  73  74
ENDBRANCH  72  73
ENDBRANCH   1  72
TORSDOF 17
