REMARK SMILES O=C(NCCCCNC(=O)[C@@H]1[NH2+]CC[C@H]1c1ccc2c(c1)OCCCO2)c1ccc(-c2c3nc(c(-c4cccc(S(=O)(=O)[O-])c4F)c4ccc([nH]4)c(-c4cccc(S(=O)(=O)[O-])c4F)c4nc(c(-c5cccc(S(=O)(=O)[O-])c5F)c5ccc2[nH]5)C=C4)C=C3)cc1
REMARK SMILES IDX 6 1 5 2 4 3 3 4 1 5 2 6 27 8 28 9 89 10 29 11 88 12 30 13
REMARK SMILES IDX 31 14 32 15 82 16 33 17 87 18 81 19 83 20 34 21 86 22 80 23
REMARK SMILES IDX 79 24 35 26 67 27 47 28 66 29 48 30 51 31 65 32 84 33 49 34
REMARK SMILES IDX 50 35 64 37 85 38 52 39 36 40 37 41 45 42 38 43 40 44 46 45
REMARK SMILES IDX 39 46 41 47 42 48 43 49 44 50 68 51 69 52 77 53 70 54 72 55
REMARK SMILES IDX 78 56 71 57 73 58 74 59 75 60 76 61 53 62 54 63 62 64 55 65
REMARK SMILES IDX 57 66 63 67 56 68 58 69 59 70 60 71 61 72 7 73 8 74 9 75
REMARK SMILES IDX 10 77 11 78 12 79 15 80 13 81 14 84 16 85 17 86 21 87 18 88
REMARK SMILES IDX 20 89 19 90 22 91 23 92 26 94 25 95 24 96
REMARK H PARENT 3 7 83 25 51 36 8 76 12 82 12 83
REMARK Flexibility Score: 90.00
ROOT
ATOM      1  C   UNL     1       7.214   2.350  -4.301  1.00  0.00     0.023 C 
ENDROOT
BRANCH   1   2
ATOM      2  C   UNL     1       7.308   1.864  -5.751  1.00  0.00     0.023 C 
BRANCH   2   3
ATOM      3  C   UNL     1       8.720   1.762  -6.315  1.00  0.00     0.116 C 
BRANCH   3   4
ATOM      4  N   UNL     1       9.574   0.873  -5.543  1.00  0.00    -0.352 N 
ATOM      5  O   UNL     1      10.961  -0.859  -5.170  1.00  0.00    -0.269 OA
ATOM      6  C   UNL     1      10.428  -0.107  -5.984  1.00  0.00     0.251 C 
ATOM      7  H   UNL     1       9.533   0.990  -4.566  1.00  0.00     0.163 HD
BRANCH   6   8
ATOM      8  C   UNL     1      10.690  -0.273  -7.431  1.00  0.00     0.039 A 
ATOM      9  C   UNL     1      10.740  -1.565  -7.960  1.00  0.00     0.014 A 
ATOM     10  C   UNL     1      10.900   0.831  -8.261  1.00  0.00     0.014 A 
ATOM     11  C   UNL     1      10.971  -1.744  -9.325  1.00  0.00     0.010 A 
ATOM     12  C   UNL     1      11.039   0.653  -9.636  1.00  0.00     0.010 A 
ATOM     13  C   UNL     1      11.105  -0.636 -10.180  1.00  0.00    -0.014 A 
BRANCH  13  14
ATOM     14  C   UNL     1      11.362  -0.825 -11.632  1.00  0.00     0.031 A 
ATOM     15  C   UNL     1      12.638  -0.312 -12.249  1.00  0.00     0.074 A 
ATOM     16  C   UNL     1      10.444  -1.443 -12.402  1.00  0.00     0.049 A 
ATOM     17  N   UNL     1      13.040  -0.400 -13.490  1.00  0.00    -0.248 NA
ATOM     18  C   UNL     1      13.579   0.408 -11.371  1.00  0.00     0.031 C 
ATOM     19  C   UNL     1       9.135  -1.916 -11.944  1.00  0.00     0.029 A 
ATOM     20  N   UNL     1      10.467  -1.779 -13.733  1.00  0.00    -0.354 N 
ATOM     21  C   UNL     1      14.258   0.267 -13.544  1.00  0.00     0.074 A 
ATOM     22  C   UNL     1      14.516   0.794 -12.225  1.00  0.00     0.031 C 
ATOM     23  C   UNL     1       8.495  -2.504 -12.967  1.00  0.00     0.029 A 
ATOM     24  C   UNL     1       9.333  -2.430 -14.161  1.00  0.00     0.049 A 
ATOM     25  H   UNL     1      11.226  -1.573 -14.327  1.00  0.00     0.167 HD
ATOM     26  C   UNL     1      15.108   0.391 -14.587  1.00  0.00     0.034 A 
ATOM     27  C   UNL     1       9.003  -2.917 -15.374  1.00  0.00     0.034 A 
ATOM     28  C   UNL     1      14.889  -0.193 -15.878  1.00  0.00     0.049 A 
ATOM     29  C   UNL     1       9.987  -2.805 -16.506  1.00  0.00     0.074 A 
ATOM     30  C   UNL     1      15.737  -0.186 -16.971  1.00  0.00     0.029 A 
ATOM     31  N   UNL     1      13.755  -0.894 -16.248  1.00  0.00    -0.354 N 
ATOM     32  N   UNL     1      11.184  -2.274 -16.498  1.00  0.00    -0.248 NA
ATOM     33  C   UNL     1       9.593  -3.381 -17.801  1.00  0.00     0.031 C 
ATOM     34  C   UNL     1      15.111  -0.877 -18.008  1.00  0.00     0.029 A 
ATOM     35  C   UNL     1      13.881  -1.326 -17.554  1.00  0.00     0.049 A 
ATOM     36  H   UNL     1      12.977  -1.060 -15.668  1.00  0.00     0.167 HD
ATOM     37  C   UNL     1      11.696  -2.469 -17.775  1.00  0.00     0.074 A 
ATOM     38  C   UNL     1      10.685  -3.177 -18.531  1.00  0.00     0.031 C 
ATOM     39  C   UNL     1      12.892  -2.082 -18.274  1.00  0.00     0.034 A 
BRANCH  26  40
ATOM     40  C   UNL     1      16.412   1.105 -14.369  1.00  0.00     0.023 A 
ATOM     41  C   UNL     1      17.462   0.421 -13.726  1.00  0.00     0.012 A 
ATOM     42  C   UNL     1      16.645   2.376 -14.928  1.00  0.00     0.148 A 
ATOM     43  C   UNL     1      18.731   0.991 -13.644  1.00  0.00     0.002 A 
ATOM     44  C   UNL     1      17.919   2.925 -14.868  1.00  0.00     0.091 A 
ATOM     45  F   UNL     1      15.625   3.005 -15.528  1.00  0.00    -0.205 F 
ATOM     46  C   UNL     1      18.962   2.235 -14.226  1.00  0.00     0.022 A 
BRANCH  44  47
ATOM     47  S   UNL     1      18.342   4.495 -15.630  1.00  0.00     0.127 S 
ATOM     48  O   UNL     1      18.770   5.280 -14.472  1.00  0.00    -0.237 OA
ATOM     49  O   UNL     1      19.421   4.112 -16.540  1.00  0.00    -0.237 OA
ATOM     50  O   UNL     1      17.128   4.971 -16.278  1.00  0.00    -0.744 OA
ENDBRANCH  44  47
ENDBRANCH  26  40
BRANCH  27  51
ATOM     51  C   UNL     1       7.698  -3.609 -15.554  1.00  0.00     0.023 A 
ATOM     52  C   UNL     1       7.664  -5.012 -15.664  1.00  0.00     0.012 A 
ATOM     53  C   UNL     1       6.489  -2.887 -15.552  1.00  0.00     0.148 A 
ATOM     54  C   UNL     1       6.447  -5.685 -15.779  1.00  0.00     0.002 A 
ATOM     55  C   UNL     1       5.279  -3.566 -15.627  1.00  0.00     0.091 A 
ATOM     56  F   UNL     1       6.550  -1.552 -15.451  1.00  0.00    -0.205 F 
ATOM     57  C   UNL     1       5.255  -4.964 -15.750  1.00  0.00     0.022 A 
BRANCH  55  58
ATOM     58  S   UNL     1       3.693  -2.733 -15.498  1.00  0.00     0.127 S 
ATOM     59  O   UNL     1       3.130  -2.958 -16.828  1.00  0.00    -0.237 OA
ATOM     60  O   UNL     1       3.048  -3.484 -14.421  1.00  0.00    -0.237 OA
ATOM     61  O   UNL     1       3.997  -1.348 -15.172  1.00  0.00    -0.744 OA
ENDBRANCH  55  58
ENDBRANCH  27  51
BRANCH  39  62
ATOM     62  C   UNL     1      13.227  -2.417 -19.700  1.00  0.00     0.023 A 
ATOM     63  C   UNL     1      12.743  -1.591 -20.730  1.00  0.00     0.012 A 
ATOM     64  C   UNL     1      14.181  -3.413 -19.988  1.00  0.00     0.148 A 
ATOM     65  C   UNL     1      13.215  -1.743 -22.033  1.00  0.00     0.002 A 
ATOM     66  C   UNL     1      14.671  -3.537 -21.281  1.00  0.00     0.091 A 
ATOM     67  F   UNL     1      14.625  -4.179 -18.981  1.00  0.00    -0.205 F 
ATOM     68  C   UNL     1      14.188  -2.704 -22.305  1.00  0.00     0.022 A 
BRANCH  66  69
ATOM     69  S   UNL     1      15.982  -4.684 -21.716  1.00  0.00     0.127 S 
ATOM     70  O   UNL     1      15.315  -5.541 -22.696  1.00  0.00    -0.237 OA
ATOM     71  O   UNL     1      16.998  -3.793 -22.274  1.00  0.00    -0.237 OA
ATOM     72  O   UNL     1      16.364  -5.353 -20.479  1.00  0.00    -0.744 OA
ENDBRANCH  66  69
ENDBRANCH  39  62
ENDBRANCH  13  14
ENDBRANCH   6   8
ENDBRANCH   3   4
ENDBRANCH   2   3
ENDBRANCH   1   2
BRANCH   1  73
ATOM     73  C   UNL     1       7.924   3.674  -4.028  1.00  0.00     0.116 C 
BRANCH  73  74
ATOM     74  N   UNL     1       7.316   4.761  -4.768  1.00  0.00    -0.351 N 
ATOM     75  C   UNL     1       6.534   5.795  -4.346  1.00  0.00     0.278 C 
ATOM     76  H   UNL     1       7.499   4.753  -5.735  1.00  0.00     0.163 HD
ATOM     77  O   UNL     1       6.103   6.557  -5.216  1.00  0.00    -0.268 OA
BRANCH  75  78
ATOM     78  C   UNL     1       6.268   6.011  -2.837  1.00  0.00     0.280 C 
ATOM     79  N   UNL     1       4.808   6.108  -2.568  1.00  0.00    -0.335 N 
ATOM     80  C   UNL     1       6.854   7.361  -2.390  1.00  0.00     0.093 C 
ATOM     81  C   UNL     1       4.453   7.529  -2.702  1.00  0.00     0.262 C 
ATOM     82  H   UNL     1       4.601   5.781  -1.624  1.00  0.00     0.346 HD
ATOM     83  H   UNL     1       4.274   5.531  -3.218  1.00  0.00     0.346 HD
ATOM     84  C   UNL     1       5.744   8.333  -2.801  1.00  0.00     0.076 C 
BRANCH  80  85
ATOM     85  C   UNL     1       7.244   7.356  -0.914  1.00  0.00    -0.034 A 
ATOM     86  C   UNL     1       6.561   8.088   0.068  1.00  0.00     0.008 A 
ATOM     87  C   UNL     1       8.347   6.578  -0.509  1.00  0.00     0.054 A 
ATOM     88  C   UNL     1       6.973   8.061   1.403  1.00  0.00     0.051 A 
ATOM     89  C   UNL     1       8.767   6.561   0.824  1.00  0.00     0.161 A 
ATOM     90  C   UNL     1       8.085   7.314   1.777  1.00  0.00     0.161 A 
BRANCH  89  91
ATOM     91  O   UNL     1       9.784   5.704   1.145  1.00  0.00    -0.490 OA
BRANCH  91  92
ATOM     92  C   UNL     1      10.928   6.389   1.655  1.00  0.00     0.233 CG0
ATOM     93  G   UNL     1      10.782   6.760   3.125  1.00  0.00     0.000 G0
ENDBRANCH  91  92
ENDBRANCH  89  91
BRANCH  90  94
ATOM     94  O   UNL     1       8.405   7.309   3.107  1.00  0.00    -0.490 OA
BRANCH  94  95
ATOM     95  C   UNL     1       9.718   7.827   3.326  1.00  0.00     0.233 C 
BRANCH  95  96
ATOM     96  C   UNL     1      10.782   6.760   3.125  1.00  0.00     0.083 CG0
ATOM     97  G   UNL     1      10.928   6.389   1.655  1.00  0.00     0.000 G0
ENDBRANCH  95  96
ENDBRANCH  94  95
ENDBRANCH  90  94
ENDBRANCH  80  85
ENDBRANCH  75  78
ENDBRANCH  73  74
ENDBRANCH   1  73
TORSDOF 15
