REMARK SMILES COc1ccc(/C=C2/SC(=S)N([C@H](C)C(=O)NCCCCNC(=O)c3ccc(-c4c5nc(c(-c6cccc(S(=O)(=O)[O-])c6F)c6ccc([nH]6)c(-c6cccc(S(=O)(=O)[O-])c6F)c6nc(c(-c7cccc(S(=O)(=O)[O-])c7F)c7ccc4[nH]7)C=C6)C=C5)cc3)C2=O)cc1OC
REMARK SMILES IDX 19 1 18 2 17 3 15 4 16 5 13 7 14 8 12 9 7 10 8 11 9 12 88 13
REMARK SMILES IDX 10 14 89 15 11 16 6 17 3 18 4 19 91 20 5 21 90 22 2 23 1 24
REMARK SMILES IDX 92 25 93 26 20 27 21 28 22 29 23 30 24 32 25 33 26 34 87 35
REMARK SMILES IDX 27 36 86 37 28 38 29 39 30 40 80 41 31 42 85 43 79 44 81 45
REMARK SMILES IDX 32 46 84 47 78 48 77 49 33 51 65 52 45 53 64 54 46 55 49 56
REMARK SMILES IDX 63 57 82 58 47 59 48 60 62 62 83 63 50 64 34 65 35 66 43 67
REMARK SMILES IDX 36 68 38 69 44 70 37 71 39 72 40 73 41 74 42 75 66 76 67 77
REMARK SMILES IDX 75 78 68 79 70 80 76 81 69 82 71 83 72 84 73 85 74 86 51 87
REMARK SMILES IDX 52 88 60 89 53 90 55 91 61 92 54 93 56 94 57 95 58 96 59 97
REMARK H PARENT 17 6 22 31 81 50 49 61
REMARK Flexibility Score: inf
ROOT
ATOM      1  C   UNL     1       1.818  -0.172   5.639  1.00  0.00     0.023 C 
ENDROOT
BRANCH   1   2
ATOM      2  C   UNL     1       3.148   0.524   5.377  1.00  0.00     0.116 C 
BRANCH   2   3
ATOM      3  N   UNL     1       3.627   1.236   6.542  1.00  0.00    -0.354 N 
ATOM      4  C   UNL     1       4.656   0.960   7.390  1.00  0.00     0.242 C 
ATOM      5  O   UNL     1       4.692   1.592   8.451  1.00  0.00    -0.273 OA
ATOM      6  H   UNL     1       3.127   2.056   6.758  1.00  0.00     0.163 HD
BRANCH   4   7
ATOM      7  C   UNL     1       5.685  -0.165   7.130  1.00  0.00     0.178 C 
ATOM      8  C   UNL     1       5.024  -1.504   7.470  1.00  0.00     0.042 C 
BRANCH   7   9
ATOM      9  N   UNL     1       6.342  -0.026   5.803  1.00  0.00    -0.281 N 
ATOM     10  C   UNL     1       6.352  -0.782   2.256  1.00  0.00     0.029 C 
ATOM     11  C   UNL     1       6.701  -0.407   3.497  1.00  0.00     0.081 C 
ATOM     12  S   UNL     1       7.780   0.882   3.841  1.00  0.00    -0.054 SA
ATOM     13  C   UNL     1       6.149  -0.936   4.778  1.00  0.00     0.266 C 
ATOM     14  C   UNL     1       7.253   0.980   5.524  1.00  0.00     0.149 C 
ATOM     15  O   UNL     1       5.652  -2.046   4.876  1.00  0.00    -0.268 OA
ATOM     16  S   UNL     1       7.844   2.169   6.535  1.00  0.00    -0.052 S 
BRANCH  10  17
ATOM     17  C   UNL     1       5.264  -1.729   1.991  1.00  0.00    -0.020 A 
ATOM     18  C   UNL     1       3.144  -3.561   1.883  1.00  0.00     0.160 A 
ATOM     19  C   UNL     1       4.460  -3.975   1.623  1.00  0.00     0.051 A 
ATOM     20  C   UNL     1       2.873  -2.216   2.155  1.00  0.00     0.161 A 
ATOM     21  C   UNL     1       5.519  -3.062   1.674  1.00  0.00     0.012 A 
ATOM     22  C   UNL     1       3.941  -1.310   2.179  1.00  0.00     0.058 A 
BRANCH  18  23
ATOM     23  O   UNL     1       2.192  -4.534   2.022  1.00  0.00    -0.493 OA
ATOM     24  C   UNL     1       1.695  -4.993   0.768  1.00  0.00     0.278 C 
ENDBRANCH  18  23
BRANCH  20  25
ATOM     25  O   UNL     1       1.683  -1.619   2.468  1.00  0.00    -0.493 OA
ATOM     26  C   UNL     1       0.487  -2.379   2.385  1.00  0.00     0.278 C 
ENDBRANCH  20  25
ENDBRANCH  10  17
ENDBRANCH   7   9
ENDBRANCH   4   7
ENDBRANCH   2   3
ENDBRANCH   1   2
BRANCH   1  27
ATOM     27  C   UNL     1       0.610   0.754   5.743  1.00  0.00     0.023 C 
BRANCH  27  28
ATOM     28  C   UNL     1       0.428   1.745   4.598  1.00  0.00     0.116 C 
BRANCH  28  29
ATOM     29  N   UNL     1       0.337   1.123   3.284  1.00  0.00    -0.352 N 
ATOM     30  C   UNL     1      -0.530   1.413   2.254  1.00  0.00     0.251 C 
ATOM     31  H   UNL     1       0.980   0.398   3.110  1.00  0.00     0.163 HD
ATOM     32  O   UNL     1      -0.543   0.721   1.240  1.00  0.00    -0.269 OA
BRANCH  30  33
ATOM     33  C   UNL     1      -1.488   2.533   2.394  1.00  0.00     0.039 A 
ATOM     34  C   UNL     1      -2.830   2.308   2.078  1.00  0.00     0.014 A 
ATOM     35  C   UNL     1      -1.080   3.781   2.873  1.00  0.00     0.014 A 
ATOM     36  C   UNL     1      -3.775   3.308   2.319  1.00  0.00     0.010 A 
ATOM     37  C   UNL     1      -2.034   4.747   3.186  1.00  0.00     0.010 A 
ATOM     38  C   UNL     1      -3.393   4.520   2.917  1.00  0.00    -0.014 A 
BRANCH  38  39
ATOM     39  C   UNL     1      -4.407   5.539   3.300  1.00  0.00     0.031 A 
ATOM     40  C   UNL     1      -4.377   6.916   2.691  1.00  0.00     0.074 A 
ATOM     41  C   UNL     1      -5.306   5.252   4.265  1.00  0.00     0.049 A 
ATOM     42  N   UNL     1      -5.159   7.937   2.931  1.00  0.00    -0.248 NA
ATOM     43  C   UNL     1      -3.319   7.194   1.705  1.00  0.00     0.031 C 
ATOM     44  C   UNL     1      -5.380   3.988   5.004  1.00  0.00     0.029 A 
ATOM     45  N   UNL     1      -6.309   6.012   4.814  1.00  0.00    -0.354 N 
ATOM     46  C   UNL     1      -4.664   8.986   2.164  1.00  0.00     0.074 A 
ATOM     47  C   UNL     1      -3.503   8.485   1.463  1.00  0.00     0.031 C 
ATOM     48  C   UNL     1      -6.370   4.062   5.908  1.00  0.00     0.029 A 
ATOM     49  C   UNL     1      -6.983   5.384   5.837  1.00  0.00     0.049 A 
ATOM     50  H   UNL     1      -6.527   6.921   4.505  1.00  0.00     0.167 HD
ATOM     51  C   UNL     1      -5.147  10.244   2.037  1.00  0.00     0.034 A 
ATOM     52  C   UNL     1      -7.973   5.825   6.639  1.00  0.00     0.034 A 
ATOM     53  C   UNL     1      -6.334  10.724   2.691  1.00  0.00     0.049 A 
ATOM     54  C   UNL     1      -8.527   7.209   6.426  1.00  0.00     0.074 A 
ATOM     55  C   UNL     1      -6.969  11.943   2.526  1.00  0.00     0.029 A 
ATOM     56  N   UNL     1      -7.054  10.024   3.644  1.00  0.00    -0.354 N 
ATOM     57  N   UNL     1      -8.168   8.115   5.549  1.00  0.00    -0.248 NA
ATOM     58  C   UNL     1      -9.647   7.619   7.286  1.00  0.00     0.031 C 
ATOM     59  C   UNL     1      -8.054  11.993   3.406  1.00  0.00     0.029 A 
ATOM     60  C   UNL     1      -8.116  10.791   4.091  1.00  0.00     0.049 A 
ATOM     61  H   UNL     1      -6.842   9.115   3.957  1.00  0.00     0.167 HD
ATOM     62  C   UNL     1      -9.040   9.184   5.728  1.00  0.00     0.074 A 
ATOM     63  C   UNL     1      -9.961   8.802   6.776  1.00  0.00     0.031 C 
ATOM     64  C   UNL     1      -9.062  10.381   5.094  1.00  0.00     0.034 A 
BRANCH  51  65
ATOM     65  C   UNL     1      -4.427  11.195   1.119  1.00  0.00     0.023 A 
ATOM     66  C   UNL     1      -4.533  11.033  -0.277  1.00  0.00     0.012 A 
ATOM     67  C   UNL     1      -3.744  12.313   1.637  1.00  0.00     0.148 A 
ATOM     68  C   UNL     1      -3.956  11.960  -1.144  1.00  0.00     0.002 A 
ATOM     69  C   UNL     1      -3.211  13.256   0.768  1.00  0.00     0.091 A 
ATOM     70  F   UNL     1      -3.641  12.437   2.968  1.00  0.00    -0.205 F 
ATOM     71  C   UNL     1      -3.308  13.077  -0.622  1.00  0.00     0.022 A 
BRANCH  69  72
ATOM     72  S   UNL     1      -2.433  14.772   1.337  1.00  0.00     0.127 S 
ATOM     73  O   UNL     1      -1.049  14.572   0.907  1.00  0.00    -0.237 OA
ATOM     74  O   UNL     1      -3.163  15.791   0.583  1.00  0.00    -0.237 OA
ATOM     75  O   UNL     1      -2.635  14.815   2.778  1.00  0.00    -0.744 OA
ENDBRANCH  69  72
ENDBRANCH  51  65
BRANCH  52  76
ATOM     76  C   UNL     1      -8.538   4.940   7.698  1.00  0.00     0.023 A 
ATOM     77  C   UNL     1      -9.861   4.471   7.585  1.00  0.00     0.012 A 
ATOM     78  C   UNL     1      -7.774   4.569   8.822  1.00  0.00     0.148 A 
ATOM     79  C   UNL     1     -10.430   3.692   8.593  1.00  0.00     0.002 A 
ATOM     80  C   UNL     1      -8.326   3.742   9.793  1.00  0.00     0.091 A 
ATOM     81  F   UNL     1      -6.521   5.036   8.922  1.00  0.00    -0.205 F 
ATOM     82  C   UNL     1      -9.661   3.320   9.692  1.00  0.00     0.022 A 
BRANCH  80  83
ATOM     83  S   UNL     1      -7.359   3.105  11.166  1.00  0.00     0.127 S 
ATOM     84  O   UNL     1      -7.843   3.921  12.276  1.00  0.00    -0.237 OA
ATOM     85  O   UNL     1      -7.773   1.702  11.206  1.00  0.00    -0.237 OA
ATOM     86  O   UNL     1      -5.968   3.305  10.784  1.00  0.00    -0.744 OA
ENDBRANCH  80  83
ENDBRANCH  52  76
BRANCH  64  87
ATOM     87  C   UNL     1     -10.142  11.359   5.480  1.00  0.00     0.023 A 
ATOM     88  C   UNL     1     -10.092  12.005   6.731  1.00  0.00     0.012 A 
ATOM     89  C   UNL     1     -11.168  11.688   4.572  1.00  0.00     0.148 A 
ATOM     90  C   UNL     1     -11.068  12.934   7.088  1.00  0.00     0.002 A 
ATOM     91  C   UNL     1     -12.106  12.654   4.914  1.00  0.00     0.091 A 
ATOM     92  F   UNL     1     -11.209  11.050   3.393  1.00  0.00    -0.205 F 
ATOM     93  C   UNL     1     -12.066  13.268   6.176  1.00  0.00     0.022 A 
BRANCH  91  94
ATOM     94  S   UNL     1     -13.367  13.219   3.765  1.00  0.00     0.127 S 
ATOM     95  O   UNL     1     -14.575  12.623   4.333  1.00  0.00    -0.237 OA
ATOM     96  O   UNL     1     -13.282  14.673   3.902  1.00  0.00    -0.237 OA
ATOM     97  O   UNL     1     -12.975  12.711   2.457  1.00  0.00    -0.744 OA
ENDBRANCH  91  94
ENDBRANCH  64  87
ENDBRANCH  38  39
ENDBRANCH  30  33
ENDBRANCH  28  29
ENDBRANCH  27  28
ENDBRANCH   1  27
TORSDOF 18
