REMARK SMILES C[C@H](C(=O)NCCCCNC(=O)c1ccc(-c2c3nc(c(-c4cccc(S(=O)(=O)[O-])c4F)c4ccc([nH]4)c(-c4cccc(S(=O)(=O)[O-])c4F)c4nc(c(-c5cccc(S(=O)(=O)[O-])c5F)c5ccc2[nH]5)C=C4)C=C3)cc1)[C@@H](C)Nc1cc(F)cc(F)c1F
REMARK SMILES IDX 7 1 6 2 5 3 3 4 4 5 2 7 1 8 76 9 77 10 78 11 79 13 80 14
REMARK SMILES IDX 86 15 81 16 84 17 87 18 82 19 83 20 85 21 8 22 9 23 10 24
REMARK SMILES IDX 11 25 12 27 13 28 14 29 75 30 15 31 74 32 16 33 17 34 18 35
REMARK SMILES IDX 68 36 19 37 73 38 67 39 69 40 20 41 72 42 66 43 65 44 21 46
REMARK SMILES IDX 53 47 33 48 52 49 34 50 37 51 51 52 70 53 35 54 36 55 50 57
REMARK SMILES IDX 71 58 38 59 22 60 23 61 31 62 24 63 26 64 32 65 25 66 27 67
REMARK SMILES IDX 28 68 29 69 30 70 54 71 55 72 63 73 56 74 58 75 64 76 57 77
REMARK SMILES IDX 59 78 60 79 61 80 62 81 39 82 40 83 48 84 41 85 43 86 49 87
REMARK SMILES IDX 42 88 44 89 45 90 46 91 47 92
REMARK H PARENT 5 6 78 12 10 26 69 45 37 56
REMARK Flexibility Score: inf
ROOT
ATOM      1  C   UNL     1      -2.077  -0.858   1.833  1.00  0.00     0.023 C 
ENDROOT
BRANCH   1   2
ATOM      2  C   UNL     1      -1.196   0.326   1.451  1.00  0.00     0.116 C 
BRANCH   2   3
ATOM      3  N   UNL     1       0.147  -0.051   1.051  1.00  0.00    -0.356 N 
ATOM      4  C   UNL     1       0.960   0.239   0.007  1.00  0.00     0.224 C 
ATOM      5  O   UNL     1       2.154  -0.046   0.196  1.00  0.00    -0.275 OA
ATOM      6  H   UNL     1       0.570  -0.665   1.694  1.00  0.00     0.163 HD
BRANCH   4   7
ATOM      7  C   UNL     1       0.570   0.842  -1.361  1.00  0.00     0.097 C 
ATOM      8  C   UNL     1       1.184  -0.111  -2.411  1.00  0.00     0.020 C 
BRANCH   7   9
ATOM      9  C   UNL     1      -0.915   1.147  -1.627  1.00  0.00     0.088 C 
ATOM     10  C   UNL     1      -1.298   2.513  -1.028  1.00  0.00     0.031 C 
BRANCH   9  11
ATOM     11  N   UNL     1      -1.225   1.239  -3.057  1.00  0.00    -0.379 N 
ATOM     12  H   UNL     1      -0.650   1.820  -3.607  1.00  0.00     0.160 HD
BRANCH  11  13
ATOM     13  C   UNL     1      -2.260   0.576  -3.699  1.00  0.00     0.077 A 
ATOM     14  C   UNL     1      -2.209   0.502  -5.101  1.00  0.00     0.068 A 
ATOM     15  C   UNL     1      -3.325  -0.092  -3.067  1.00  0.00     0.182 A 
ATOM     16  C   UNL     1      -3.164  -0.215  -5.823  1.00  0.00     0.128 A 
ATOM     17  C   UNL     1      -4.270  -0.810  -3.804  1.00  0.00     0.163 A 
ATOM     18  F   UNL     1      -3.489  -0.032  -1.736  1.00  0.00    -0.201 F 
ATOM     19  F   UNL     1      -3.074  -0.263  -7.159  1.00  0.00    -0.207 F 
ATOM     20  C   UNL     1      -4.195  -0.882  -5.186  1.00  0.00     0.081 A 
ATOM     21  F   UNL     1      -5.271  -1.440  -3.174  1.00  0.00    -0.204 F 
ENDBRANCH  11  13
ENDBRANCH   9  11
ENDBRANCH   7   9
ENDBRANCH   4   7
ENDBRANCH   2   3
ENDBRANCH   1   2
BRANCH   1  22
ATOM     22  C   UNL     1      -1.886  -1.382   3.254  1.00  0.00     0.023 C 
BRANCH  22  23
ATOM     23  C   UNL     1      -1.937  -0.336   4.366  1.00  0.00     0.116 C 
BRANCH  23  24
ATOM     24  N   UNL     1      -3.102   0.544   4.313  1.00  0.00    -0.352 N 
ATOM     25  C   UNL     1      -3.901   0.971   5.350  1.00  0.00     0.251 C 
ATOM     26  H   UNL     1      -3.347   0.875   3.419  1.00  0.00     0.163 HD
ATOM     27  O   UNL     1      -4.872   1.693   5.143  1.00  0.00    -0.269 OA
BRANCH  25  28
ATOM     28  C   UNL     1      -3.598   0.495   6.713  1.00  0.00     0.039 A 
ATOM     29  C   UNL     1      -4.559  -0.258   7.391  1.00  0.00     0.014 A 
ATOM     30  C   UNL     1      -2.319   0.671   7.244  1.00  0.00     0.014 A 
ATOM     31  C   UNL     1      -4.197  -0.942   8.552  1.00  0.00     0.010 A 
ATOM     32  C   UNL     1      -1.942  -0.067   8.360  1.00  0.00     0.010 A 
ATOM     33  C   UNL     1      -2.867  -0.906   9.005  1.00  0.00    -0.014 A 
BRANCH  33  34
ATOM     34  C   UNL     1      -2.386  -1.804  10.086  1.00  0.00     0.031 A 
ATOM     35  C   UNL     1      -1.807  -1.227  11.346  1.00  0.00     0.074 A 
ATOM     36  C   UNL     1      -2.325  -3.133   9.860  1.00  0.00     0.049 A 
ATOM     37  N   UNL     1      -1.210  -1.842  12.333  1.00  0.00    -0.248 NA
ATOM     38  C   UNL     1      -1.874   0.236  11.503  1.00  0.00     0.031 C 
ATOM     39  C   UNL     1      -2.760  -3.806   8.633  1.00  0.00     0.029 A 
ATOM     40  N   UNL     1      -1.824  -4.153  10.633  1.00  0.00    -0.354 N 
ATOM     41  C   UNL     1      -0.783  -0.844  13.198  1.00  0.00     0.074 A 
ATOM     42  C   UNL     1      -1.178   0.420  12.617  1.00  0.00     0.031 C 
ATOM     43  C   UNL     1      -2.493  -5.118   8.729  1.00  0.00     0.029 A 
ATOM     44  C   UNL     1      -1.841  -5.380  10.007  1.00  0.00     0.049 A 
ATOM     45  H   UNL     1      -1.486  -4.019  11.547  1.00  0.00     0.167 HD
ATOM     46  C   UNL     1      -0.141  -0.972  14.382  1.00  0.00     0.034 A 
ATOM     47  C   UNL     1      -1.365  -6.576  10.406  1.00  0.00     0.034 A 
ATOM     48  C   UNL     1       0.179  -2.232  14.995  1.00  0.00     0.049 A 
ATOM     49  C   UNL     1      -0.716  -6.692  11.758  1.00  0.00     0.074 A 
ATOM     50  C   UNL     1       0.679  -2.466  16.263  1.00  0.00     0.029 A 
ATOM     51  N   UNL     1       0.041  -3.466  14.382  1.00  0.00    -0.354 N 
ATOM     52  N   UNL     1      -0.518  -5.761  12.659  1.00  0.00    -0.248 NA
ATOM     53  C   UNL     1      -0.249  -8.027  12.163  1.00  0.00     0.031 C 
ATOM     54  C   UNL     1       0.862  -3.844  16.412  1.00  0.00     0.029 A 
ATOM     55  C   UNL     1       0.469  -4.466  15.238  1.00  0.00     0.049 A 
ATOM     56  H   UNL     1      -0.308  -3.611  13.473  1.00  0.00     0.167 HD
ATOM     57  C   UNL     1       0.073  -6.399  13.742  1.00  0.00     0.074 A 
ATOM     58  C   UNL     1       0.176  -7.802  13.399  1.00  0.00     0.031 C 
ATOM     59  C   UNL     1       0.514  -5.866  14.908  1.00  0.00     0.034 A 
BRANCH  46  60
ATOM     60  C   UNL     1       0.203   0.281  15.139  1.00  0.00     0.023 A 
ATOM     61  C   UNL     1      -0.816   0.979  15.819  1.00  0.00     0.012 A 
ATOM     62  C   UNL     1       1.538   0.713  15.254  1.00  0.00     0.148 A 
ATOM     63  C   UNL     1      -0.513   2.100  16.589  1.00  0.00     0.002 A 
ATOM     64  C   UNL     1       1.837   1.810  16.053  1.00  0.00     0.091 A 
ATOM     65  F   UNL     1       2.486   0.046  14.581  1.00  0.00    -0.205 F 
ATOM     66  C   UNL     1       0.813   2.507  16.716  1.00  0.00     0.022 A 
BRANCH  64  67
ATOM     67  S   UNL     1       3.518   2.375  16.338  1.00  0.00     0.127 S 
ATOM     68  O   UNL     1       3.526   3.648  15.617  1.00  0.00    -0.237 OA
ATOM     69  O   UNL     1       3.558   2.500  17.795  1.00  0.00    -0.237 OA
ATOM     70  O   UNL     1       4.388   1.344  15.791  1.00  0.00    -0.744 OA
ENDBRANCH  64  67
ENDBRANCH  46  60
BRANCH  47  71
ATOM     71  C   UNL     1      -1.527  -7.775   9.534  1.00  0.00     0.023 A 
ATOM     72  C   UNL     1      -2.428  -8.788   9.915  1.00  0.00     0.012 A 
ATOM     73  C   UNL     1      -0.812  -7.912   8.329  1.00  0.00     0.148 A 
ATOM     74  C   UNL     1      -2.590  -9.930   9.130  1.00  0.00     0.002 A 
ATOM     75  C   UNL     1      -1.018  -9.028   7.524  1.00  0.00     0.091 A 
ATOM     76  F   UNL     1       0.059  -6.951   7.989  1.00  0.00    -0.205 F 
ATOM     77  C   UNL     1      -1.893 -10.046   7.930  1.00  0.00     0.022 A 
BRANCH  75  78
ATOM     78  S   UNL     1      -0.257  -9.171   5.902  1.00  0.00     0.127 S 
ATOM     79  O   UNL     1       0.910  -9.998   6.189  1.00  0.00    -0.237 OA
ATOM     80  O   UNL     1      -1.305  -9.832   5.123  1.00  0.00    -0.237 OA
ATOM     81  O   UNL     1       0.009  -7.799   5.490  1.00  0.00    -0.744 OA
ENDBRANCH  75  78
ENDBRANCH  47  71
BRANCH  59  82
ATOM     82  C   UNL     1       1.141  -6.795  15.911  1.00  0.00     0.023 A 
ATOM     83  C   UNL     1       2.448  -7.272  15.687  1.00  0.00     0.012 A 
ATOM     84  C   UNL     1       0.481  -7.118  17.113  1.00  0.00     0.148 A 
ATOM     85  C   UNL     1       3.081  -8.072  16.636  1.00  0.00     0.002 A 
ATOM     86  C   UNL     1       1.135  -7.881  18.073  1.00  0.00     0.091 A 
ATOM     87  F   UNL     1      -0.769  -6.669  17.297  1.00  0.00    -0.205 F 
ATOM     88  C   UNL     1       2.431  -8.366  17.833  1.00  0.00     0.022 A 
BRANCH  86  89
ATOM     89  S   UNL     1       0.412  -8.230  19.680  1.00  0.00     0.127 S 
ATOM     90  O   UNL     1       0.068  -9.645  19.551  1.00  0.00    -0.237 OA
ATOM     91  O   UNL     1       1.525  -7.954  20.590  1.00  0.00    -0.237 OA
ATOM     92  O   UNL     1      -0.718  -7.322  19.817  1.00  0.00    -0.744 OA
ENDBRANCH  86  89
ENDBRANCH  59  82
ENDBRANCH  33  34
ENDBRANCH  25  28
ENDBRANCH  23  24
ENDBRANCH  22  23
ENDBRANCH   1  22
TORSDOF 17
