REMARK SMILES CCn1ccc([C@@H](C)NC(=O)[C@H](C)n2ccc(C(=O)NCCCCNC(=O)c3ccc(-c4c5nc(c(-c6cccc(S(=O)(=O)[O-])c6F)c6ccc([nH]6)c(-c6cccc(S(=O)(=O)[O-])c6F)c6nc(c(-c7cccc(S(=O)(=O)[O-])c7F)c7ccc4[nH]7)C=C6)C=C5)cc3)n2)n1
REMARK SMILES IDX 21 1 20 2 18 3 19 4 17 6 14 7 15 8 91 9 16 10 12 11 13 12
REMARK SMILES IDX 10 13 9 14 11 16 7 17 8 18 6 19 3 20 4 21 92 22 5 23 2 24
REMARK SMILES IDX 1 25 22 26 23 27 24 28 25 29 26 30 27 32 28 33 29 34 90 35
REMARK SMILES IDX 30 36 89 37 31 38 32 39 33 40 83 41 34 42 88 43 82 44 84 45
REMARK SMILES IDX 35 46 87 47 81 48 80 49 36 51 68 52 48 53 67 54 49 55 52 56
REMARK SMILES IDX 66 57 85 58 50 59 51 60 65 62 86 63 53 64 37 65 38 66 46 67
REMARK SMILES IDX 39 68 41 69 47 70 40 71 42 72 43 73 44 74 45 75 69 76 70 77
REMARK SMILES IDX 78 78 71 79 73 80 79 81 72 82 74 83 75 84 76 85 77 86 54 87
REMARK SMILES IDX 55 88 63 89 56 90 58 91 64 92 57 93 59 94 60 95 61 96 62 97
REMARK H PARENT 20 5 9 15 25 31 84 50 52 61
REMARK Flexibility Score: inf
ROOT
ATOM      1  C   UNL     1      -1.303 -11.802   2.828  1.00  0.00     0.116 C 
ENDROOT
BRANCH   1   2
ATOM      2  N   UNL     1       0.076 -12.028   2.439  1.00  0.00    -0.351 N 
ATOM      3  C   UNL     1       1.068 -11.148   2.065  1.00  0.00     0.271 C 
ATOM      4  O   UNL     1       2.149 -11.632   1.724  1.00  0.00    -0.267 OA
ATOM      5  H   UNL     1       0.350 -12.973   2.443  1.00  0.00     0.163 HD
BRANCH   3   6
ATOM      6  C   UNL     1       0.865  -9.687   2.077  1.00  0.00     0.150 A 
ATOM      7  N   UNL     1      -0.010  -7.756   2.322  1.00  0.00    -0.260 N 
ATOM      8  C   UNL     1       1.301  -7.496   2.037  1.00  0.00     0.110 A 
ATOM      9  N   UNL     1      -0.310  -9.067   2.293  1.00  0.00    -0.167 NA
ATOM     10  C   UNL     1       1.897  -8.722   1.879  1.00  0.00     0.056 A 
BRANCH   7  11
ATOM     11  C   UNL     1      -0.999  -6.812   2.866  1.00  0.00     0.193 C 
ATOM     12  C   UNL     1      -0.496  -6.343   4.229  1.00  0.00     0.044 C 
BRANCH  11  13
ATOM     13  C   UNL     1      -1.346  -5.754   1.808  1.00  0.00     0.245 C 
ATOM     14  N   UNL     1      -2.086  -4.643   2.068  1.00  0.00    -0.346 N 
ATOM     15  H   UNL     1      -2.413  -4.187   1.260  1.00  0.00     0.164 HD
ATOM     16  O   UNL     1      -1.069  -5.903   0.611  1.00  0.00    -0.273 OA
BRANCH  14  17
ATOM     17  C   UNL     1      -2.489  -3.997   3.310  1.00  0.00     0.130 C 
ATOM     18  C   UNL     1      -3.956  -3.585   3.240  1.00  0.00     0.038 C 
BRANCH  17  19
ATOM     19  C   UNL     1      -1.569  -2.821   3.523  1.00  0.00     0.084 A 
ATOM     20  N   UNL     1       0.021  -1.680   4.360  1.00  0.00    -0.273 N 
ATOM     21  C   UNL     1      -0.430  -0.928   3.315  1.00  0.00     0.109 A 
ATOM     22  N   UNL     1      -0.673  -2.825   4.521  1.00  0.00    -0.176 NA
ATOM     23  C   UNL     1      -1.460  -1.640   2.748  1.00  0.00     0.047 A 
BRANCH  20  24
ATOM     24  C   UNL     1       1.150  -1.425   5.239  1.00  0.00     0.141 C 
ATOM     25  C   UNL     1       1.664   0.006   5.250  1.00  0.00     0.029 C 
ENDBRANCH  20  24
ENDBRANCH  17  19
ENDBRANCH  14  17
ENDBRANCH  11  13
ENDBRANCH   7  11
ENDBRANCH   3   6
ENDBRANCH   1   2
BRANCH   1  26
ATOM     26  C   UNL     1      -2.275 -12.108   1.685  1.00  0.00     0.023 C 
BRANCH  26  27
ATOM     27  C   UNL     1      -2.372 -13.591   1.291  1.00  0.00     0.023 C 
BRANCH  27  28
ATOM     28  C   UNL     1      -2.840 -14.522   2.405  1.00  0.00     0.116 C 
BRANCH  28  29
ATOM     29  N   UNL     1      -4.197 -14.222   2.863  1.00  0.00    -0.352 N 
ATOM     30  C   UNL     1      -4.877 -14.776   3.932  1.00  0.00     0.251 C 
ATOM     31  H   UNL     1      -4.686 -13.542   2.346  1.00  0.00     0.163 HD
ATOM     32  O   UNL     1      -6.097 -14.756   3.975  1.00  0.00    -0.269 OA
BRANCH  30  33
ATOM     33  C   UNL     1      -4.100 -15.383   5.030  1.00  0.00     0.039 A 
ATOM     34  C   UNL     1      -4.498 -16.589   5.613  1.00  0.00     0.014 A 
ATOM     35  C   UNL     1      -2.947 -14.729   5.461  1.00  0.00     0.014 A 
ATOM     36  C   UNL     1      -3.675 -17.174   6.573  1.00  0.00     0.010 A 
ATOM     37  C   UNL     1      -2.076 -15.365   6.311  1.00  0.00     0.010 A 
ATOM     38  C   UNL     1      -2.450 -16.569   6.899  1.00  0.00    -0.014 A 
BRANCH  38  39
ATOM     39  C   UNL     1      -1.468 -17.281   7.714  1.00  0.00     0.031 A 
ATOM     40  C   UNL     1      -1.105 -18.616   7.165  1.00  0.00     0.074 A 
ATOM     41  C   UNL     1      -0.782 -16.704   8.726  1.00  0.00     0.049 A 
ATOM     42  N   UNL     1      -1.419 -19.774   7.645  1.00  0.00    -0.248 NA
ATOM     43  C   UNL     1      -0.489 -18.676   5.829  1.00  0.00     0.031 C 
ATOM     44  C   UNL     1      -0.828 -15.296   9.141  1.00  0.00     0.029 A 
ATOM     45  N   UNL     1       0.217 -17.210   9.505  1.00  0.00    -0.354 N 
ATOM     46  C   UNL     1      -0.777 -20.697   6.820  1.00  0.00     0.074 A 
ATOM     47  C   UNL     1      -0.466 -19.992   5.607  1.00  0.00     0.031 C 
ATOM     48  C   UNL     1       0.260 -15.009   9.887  1.00  0.00     0.029 A 
ATOM     49  C   UNL     1       0.987 -16.237  10.144  1.00  0.00     0.049 A 
ATOM     50  H   UNL     1       0.380 -18.176   9.607  1.00  0.00     0.167 HD
ATOM     51  C   UNL     1      -0.260 -21.846   7.341  1.00  0.00     0.034 A 
ATOM     52  C   UNL     1       2.162 -16.418  10.796  1.00  0.00     0.034 A 
ATOM     53  C   UNL     1      -0.792 -22.092   8.662  1.00  0.00     0.049 A 
ATOM     54  C   UNL     1       2.242 -17.851  11.148  1.00  0.00     0.074 A 
ATOM     55  C   UNL     1      -2.048 -22.230   9.216  1.00  0.00     0.029 A 
ATOM     56  N   UNL     1       0.060 -21.826   9.706  1.00  0.00    -0.354 N 
ATOM     57  N   UNL     1       1.451 -18.426  12.008  1.00  0.00    -0.248 NA
ATOM     58  C   UNL     1       2.945 -18.742  10.244  1.00  0.00     0.031 C 
ATOM     59  C   UNL     1      -1.958 -21.609  10.498  1.00  0.00     0.029 A 
ATOM     60  C   UNL     1      -0.639 -21.196  10.695  1.00  0.00     0.049 A 
ATOM     61  H   UNL     1       1.017 -22.053   9.736  1.00  0.00     0.167 HD
ATOM     62  C   UNL     1       1.180 -19.661  11.437  1.00  0.00     0.074 A 
ATOM     63  C   UNL     1       2.233 -19.854  10.441  1.00  0.00     0.031 C 
ATOM     64  C   UNL     1      -0.038 -20.252  11.611  1.00  0.00     0.034 A 
BRANCH  51  65
ATOM     65  C   UNL     1       1.050 -22.494   6.907  1.00  0.00     0.023 A 
ATOM     66  C   UNL     1       1.415 -23.689   7.575  1.00  0.00     0.012 A 
ATOM     67  C   UNL     1       2.063 -21.866   6.146  1.00  0.00     0.148 A 
ATOM     68  C   UNL     1       2.731 -24.165   7.577  1.00  0.00     0.002 A 
ATOM     69  C   UNL     1       3.353 -22.384   6.089  1.00  0.00     0.091 A 
ATOM     70  F   UNL     1       1.840 -20.692   5.557  1.00  0.00    -0.205 F 
ATOM     71  C   UNL     1       3.703 -23.510   6.835  1.00  0.00     0.022 A 
BRANCH  69  72
ATOM     72  S   UNL     1       4.644 -21.603   5.109  1.00  0.00     0.127 S 
ATOM     73  O   UNL     1       5.518 -21.074   6.152  1.00  0.00    -0.237 OA
ATOM     74  O   UNL     1       5.180 -22.744   4.366  1.00  0.00    -0.237 OA
ATOM     75  O   UNL     1       3.969 -20.613   4.280  1.00  0.00    -0.744 OA
ENDBRANCH  69  72
ENDBRANCH  51  65
BRANCH  52  76
ATOM     76  C   UNL     1       3.331 -15.521  10.965  1.00  0.00     0.023 A 
ATOM     77  C   UNL     1       4.285 -15.803  11.966  1.00  0.00     0.012 A 
ATOM     78  C   UNL     1       3.674 -14.581   9.969  1.00  0.00     0.148 A 
ATOM     79  C   UNL     1       5.554 -15.212  11.946  1.00  0.00     0.002 A 
ATOM     80  C   UNL     1       4.936 -13.991   9.957  1.00  0.00     0.091 A 
ATOM     81  F   UNL     1       2.801 -14.340   8.982  1.00  0.00    -0.205 F 
ATOM     82  C   UNL     1       5.884 -14.316  10.934  1.00  0.00     0.022 A 
BRANCH  80  83
ATOM     83  S   UNL     1       5.444 -12.844   8.668  1.00  0.00     0.127 S 
ATOM     84  O   UNL     1       6.010 -11.743   9.449  1.00  0.00    -0.237 OA
ATOM     85  O   UNL     1       6.424 -13.636   7.929  1.00  0.00    -0.237 OA
ATOM     86  O   UNL     1       4.228 -12.500   7.942  1.00  0.00    -0.744 OA
ENDBRANCH  80  83
ENDBRANCH  52  76
BRANCH  64  87
ATOM     87  C   UNL     1      -0.928 -19.734  12.710  1.00  0.00     0.023 A 
ATOM     88  C   UNL     1      -1.458 -18.427  12.723  1.00  0.00     0.012 A 
ATOM     89  C   UNL     1      -1.363 -20.655  13.677  1.00  0.00     0.148 A 
ATOM     90  C   UNL     1      -2.388 -18.045  13.696  1.00  0.00     0.002 A 
ATOM     91  C   UNL     1      -2.324 -20.288  14.609  1.00  0.00     0.091 A 
ATOM     92  F   UNL     1      -0.844 -21.892  13.651  1.00  0.00    -0.205 F 
ATOM     93  C   UNL     1      -2.832 -18.980  14.629  1.00  0.00     0.022 A 
BRANCH  91  94
ATOM     94  S   UNL     1      -3.021 -21.485  15.747  1.00  0.00     0.127 S 
ATOM     95  O   UNL     1      -2.376 -21.121  17.006  1.00  0.00    -0.237 OA
ATOM     96  O   UNL     1      -4.452 -21.185  15.682  1.00  0.00    -0.237 OA
ATOM     97  O   UNL     1      -2.666 -22.797  15.217  1.00  0.00    -0.744 OA
ENDBRANCH  91  94
ENDBRANCH  64  87
ENDBRANCH  38  39
ENDBRANCH  30  33
ENDBRANCH  28  29
ENDBRANCH  27  28
ENDBRANCH  26  27
ENDBRANCH   1  26
TORSDOF 19
