REMARK SMILES N#C[C@@H]1CN(C(=O)N2CCCCC[C@H]2C(=O)NCCCCNC(=O)c2ccc(-c3c4nc(c(-c5cccc(S(=O)(=O)[O-])c5F)c5ccc([nH]5)c(-c5cccc(S(=O)(=O)[O-])c5F)c5nc(c(-c6cccc(S(=O)(=O)[O-])c6F)c6ccc3[nH]6)C=C5)C=C4)cc2)CCO1
REMARK SMILES IDX 19 1 18 2 17 3 15 4 16 5 14 7 8 8 6 9 7 10 5 11 3 12 4 13
REMARK SMILES IDX 90 14 89 15 88 16 2 17 1 18 9 19 10 20 11 21 13 23 12 24
REMARK SMILES IDX 20 26 21 27 22 28 23 29 24 31 25 32 26 33 87 34 27 35 86 36
REMARK SMILES IDX 28 37 29 38 30 39 80 40 31 41 85 42 79 43 81 44 32 45 84 46
REMARK SMILES IDX 78 47 77 48 33 50 65 51 45 52 64 53 46 54 49 55 63 56 82 57
REMARK SMILES IDX 47 58 48 59 62 61 83 62 50 63 34 64 35 65 43 66 36 67 38 68
REMARK SMILES IDX 44 69 37 70 39 71 40 72 41 73 42 74 66 75 67 76 75 77 68 78
REMARK SMILES IDX 70 79 76 80 69 81 71 82 72 83 73 84 74 85 51 86 52 87 60 88
REMARK SMILES IDX 53 89 55 90 61 91 54 92 56 93 57 94 58 95 59 96
REMARK H PARENT 17 6 22 30 81 49 49 60
REMARK Flexibility Score: 100.00
ROOT
ATOM      1  C   UNL     1       6.777   5.713  -0.912  1.00  0.00     0.023 C 
ENDROOT
BRANCH   1   2
ATOM      2  C   UNL     1       5.986   4.468  -1.292  1.00  0.00     0.116 C 
BRANCH   2   3
ATOM      3  N   UNL     1       4.742   4.380  -0.551  1.00  0.00    -0.354 N 
ATOM      4  C   UNL     1       3.488   4.070  -0.990  1.00  0.00     0.242 C 
ATOM      5  O   UNL     1       2.583   4.024  -0.154  1.00  0.00    -0.273 OA
ATOM      6  H   UNL     1       4.814   4.573   0.412  1.00  0.00     0.163 HD
BRANCH   4   7
ATOM      7  C   UNL     1       3.246   3.783  -2.483  1.00  0.00     0.176 C 
BRANCH   7   8
ATOM      8  N   UNL     1       2.441   2.561  -2.697  1.00  0.00    -0.313 N 
BRANCH   8   9
ATOM      9  C   UNL     1       2.995   1.346  -3.076  1.00  0.00     0.320 C 
ATOM     10  O   UNL     1       2.535   0.724  -4.037  1.00  0.00    -0.248 OA
BRANCH   9  11
ATOM     11  N   UNL     1       4.028   0.801  -2.329  1.00  0.00    -0.319 N 
ATOM     12  C   UNL     1       3.827  -0.089   0.002  1.00  0.00     0.240 C 
ATOM     13  C   UNL     1       4.308   1.056  -0.908  1.00  0.00     0.169 C 
ATOM     14  O   UNL     1       4.367  -1.353  -0.456  1.00  0.00    -0.360 OA
ATOM     15  C   UNL     1       4.060  -1.617  -1.840  1.00  0.00     0.183 C 
ATOM     16  C   UNL     1       4.573  -0.495  -2.758  1.00  0.00     0.150 C 
BRANCH  12  17
ATOM     17  C   UNL     1       2.307  -0.089   0.002  1.00  0.00     0.096 C 
ATOM     18  N   UNL     1       1.046  -0.089   0.002  1.00  0.00    -0.195 NA
ENDBRANCH  12  17
ENDBRANCH   9  11
ENDBRANCH   8   9
BRANCH   8  19
ATOM     19  C   UNL     1       1.000   2.699  -2.899  1.00  0.00     0.122 C 
BRANCH  19  20
ATOM     20  C   UNL     1       0.606   3.120  -4.318  1.00  0.00     0.022 C 
BRANCH  20  21
ATOM     21  C   UNL     1       0.763   4.609  -4.599  1.00  0.00     0.002 CG0
ATOM     22  G   UNL     1       2.190   5.121  -4.446  1.00  0.00     0.000 G0
ENDBRANCH  20  21
ENDBRANCH  19  20
ENDBRANCH   8  19
ENDBRANCH   7   8
BRANCH   7  23
ATOM     23  C   UNL     1       2.655   5.113  -2.999  1.00  0.00     0.035 C 
BRANCH  23  24
ATOM     24  C   UNL     1       2.190   5.121  -4.446  1.00  0.00     0.003 CG0
ATOM     25  G   UNL     1       0.763   4.609  -4.599  1.00  0.00     0.000 G0
ENDBRANCH  23  24
ENDBRANCH   7  23
ENDBRANCH   4   7
ENDBRANCH   2   3
ENDBRANCH   1   2
BRANCH   1  26
ATOM     26  C   UNL     1       7.212   5.774   0.552  1.00  0.00     0.023 C 
BRANCH  26  27
ATOM     27  C   UNL     1       8.033   4.582   1.033  1.00  0.00     0.116 C 
BRANCH  27  28
ATOM     28  N   UNL     1       9.273   4.424   0.288  1.00  0.00    -0.352 N 
ATOM     29  C   UNL     1      10.562   4.357   0.759  1.00  0.00     0.251 C 
ATOM     30  H   UNL     1       9.175   4.354  -0.689  1.00  0.00     0.163 HD
ATOM     31  O   UNL     1      11.504   4.400  -0.031  1.00  0.00    -0.269 OA
BRANCH  29  32
ATOM     32  C   UNL     1      10.812   4.259   2.212  1.00  0.00     0.039 A 
ATOM     33  C   UNL     1      11.780   5.083   2.792  1.00  0.00     0.014 A 
ATOM     34  C   UNL     1      10.081   3.369   3.004  1.00  0.00     0.014 A 
ATOM     35  C   UNL     1      11.967   5.060   4.176  1.00  0.00     0.010 A 
ATOM     36  C   UNL     1      10.213   3.406   4.389  1.00  0.00     0.010 A 
ATOM     37  C   UNL     1      11.160   4.249   4.991  1.00  0.00    -0.014 A 
BRANCH  37  38
ATOM     38  C   UNL     1      11.280   4.280   6.472  1.00  0.00     0.031 A 
ATOM     39  C   UNL     1      11.674   3.040   7.230  1.00  0.00     0.074 A 
ATOM     40  C   UNL     1      10.950   5.402   7.144  1.00  0.00     0.049 A 
ATOM     41  N   UNL     1      11.780   2.863   8.521  1.00  0.00    -0.248 NA
ATOM     42  C   UNL     1      11.960   1.833   6.436  1.00  0.00     0.031 C 
ATOM     43  C   UNL     1      10.481   6.648   6.532  1.00  0.00     0.029 A 
ATOM     44  N   UNL     1      10.935   5.670   8.491  1.00  0.00    -0.354 N 
ATOM     45  C   UNL     1      12.104   1.523   8.698  1.00  0.00     0.074 A 
ATOM     46  C   UNL     1      12.148   0.924   7.382  1.00  0.00     0.031 C 
ATOM     47  C   UNL     1      10.233   7.547   7.498  1.00  0.00     0.029 A 
ATOM     48  C   UNL     1      10.489   6.935   8.798  1.00  0.00     0.049 A 
ATOM     49  H   UNL     1      11.216   5.018   9.172  1.00  0.00     0.167 HD
ATOM     50  C   UNL     1      12.365   0.856   9.847  1.00  0.00     0.034 A 
ATOM     51  C   UNL     1      10.297   7.532   9.991  1.00  0.00     0.034 A 
ATOM     52  C   UNL     1      12.361   1.464  11.150  1.00  0.00     0.049 A 
ATOM     53  C   UNL     1      10.624   6.774  11.250  1.00  0.00     0.074 A 
ATOM     54  C   UNL     1      12.710   0.897  12.363  1.00  0.00     0.029 A 
ATOM     55  N   UNL     1      11.977   2.769  11.415  1.00  0.00    -0.354 N 
ATOM     56  N   UNL     1      11.091   5.557  11.383  1.00  0.00    -0.248 NA
ATOM     57  C   UNL     1      10.431   7.486  12.522  1.00  0.00     0.031 C 
ATOM     58  C   UNL     1      12.499   1.847  13.367  1.00  0.00     0.029 A 
ATOM     59  C   UNL     1      12.060   3.019  12.774  1.00  0.00     0.049 A 
ATOM     60  H   UNL     1      11.686   3.421  10.737  1.00  0.00     0.167 HD
ATOM     61  C   UNL     1      11.286   5.371  12.747  1.00  0.00     0.074 A 
ATOM     62  C   UNL     1      10.906   6.609  13.396  1.00  0.00     0.031 C 
ATOM     63  C   UNL     1      11.730   4.272  13.404  1.00  0.00     0.034 A 
BRANCH  50  64
ATOM     64  C   UNL     1      12.714  -0.606   9.749  1.00  0.00     0.023 A 
ATOM     65  C   UNL     1      13.954  -0.996   9.202  1.00  0.00     0.012 A 
ATOM     66  C   UNL     1      11.846  -1.590  10.263  1.00  0.00     0.148 A 
ATOM     67  C   UNL     1      14.310  -2.343   9.137  1.00  0.00     0.002 A 
ATOM     68  C   UNL     1      12.229  -2.926  10.238  1.00  0.00     0.091 A 
ATOM     69  F   UNL     1      10.664  -1.202  10.761  1.00  0.00    -0.205 F 
ATOM     70  C   UNL     1      13.453  -3.305   9.665  1.00  0.00     0.022 A 
BRANCH  68  71
ATOM     71  S   UNL     1      11.235  -4.232  10.967  1.00  0.00     0.127 S 
ATOM     72  O   UNL     1      10.793  -4.963   9.780  1.00  0.00    -0.237 OA
ATOM     73  O   UNL     1      12.216  -4.941  11.789  1.00  0.00    -0.237 OA
ATOM     74  O   UNL     1      10.180  -3.566  11.717  1.00  0.00    -0.744 OA
ENDBRANCH  68  71
ENDBRANCH  50  64
BRANCH  51  75
ATOM     75  C   UNL     1       9.821   8.944  10.056  1.00  0.00     0.023 A 
ATOM     76  C   UNL     1      10.695   9.948  10.517  1.00  0.00     0.012 A 
ATOM     77  C   UNL     1       8.517   9.297   9.659  1.00  0.00     0.148 A 
ATOM     78  C   UNL     1      10.266  11.272  10.620  1.00  0.00     0.002 A 
ATOM     79  C   UNL     1       8.115  10.627   9.710  1.00  0.00     0.091 A 
ATOM     80  F   UNL     1       7.698   8.326   9.233  1.00  0.00    -0.205 F 
ATOM     81  C   UNL     1       8.980  11.613  10.209  1.00  0.00     0.022 A 
BRANCH  79  82
ATOM     82  S   UNL     1       6.526  11.177   9.078  1.00  0.00     0.127 S 
ATOM     83  O   UNL     1       5.826  11.541  10.307  1.00  0.00    -0.237 OA
ATOM     84  O   UNL     1       6.914  12.305   8.230  1.00  0.00    -0.237 OA
ATOM     85  O   UNL     1       5.978  10.040   8.350  1.00  0.00    -0.744 OA
ENDBRANCH  79  82
ENDBRANCH  51  75
BRANCH  63  86
ATOM     86  C   UNL     1      11.881   4.362  14.901  1.00  0.00     0.023 A 
ATOM     87  C   UNL     1      10.740   4.409  15.726  1.00  0.00     0.012 A 
ATOM     88  C   UNL     1      13.160   4.325  15.492  1.00  0.00     0.148 A 
ATOM     89  C   UNL     1      10.870   4.455  17.113  1.00  0.00     0.002 A 
ATOM     90  C   UNL     1      13.280   4.317  16.876  1.00  0.00     0.091 A 
ATOM     91  F   UNL     1      14.234   4.298  14.690  1.00  0.00    -0.205 F 
ATOM     92  C   UNL     1      12.137   4.396  17.688  1.00  0.00     0.022 A 
BRANCH  90  93
ATOM     93  S   UNL     1      14.864   4.142  17.705  1.00  0.00     0.127 S 
ATOM     94  O   UNL     1      15.052   5.475  18.273  1.00  0.00    -0.237 OA
ATOM     95  O   UNL     1      14.585   3.093  18.687  1.00  0.00    -0.237 OA
ATOM     96  O   UNL     1      15.819   3.764  16.672  1.00  0.00    -0.744 OA
ENDBRANCH  90  93
ENDBRANCH  63  86
ENDBRANCH  37  38
ENDBRANCH  29  32
ENDBRANCH  27  28
ENDBRANCH  26  27
ENDBRANCH   1  26
TORSDOF 17
