REMARK SMILES Cc1sc2[nH]c(SCC(=O)NCCCCNC(=O)c3ccc(-c4c5nc(c(-c6cccc(S(=O)(=O)[O-])c6F)c6ccc([nH]6)c(-c6cccc(S(=O)(=O)[O-])c6F)c6nc(c(-c7cccc(S(=O)(=O)[O-])c7F)c7ccc4[nH]7)C=C6)C=C5)cc3)nc(=O)c2c1C
REMARK SMILES IDX 14 1 13 2 12 3 11 4 9 5 10 6 8 8 7 9 6 10 1 11 2 12 3 13
REMARK SMILES IDX 86 14 4 15 85 16 87 17 5 18 83 19 82 21 84 22 15 23 16 24
REMARK SMILES IDX 17 25 18 27 19 28 20 29 81 30 21 31 80 32 22 33 23 34 24 35
REMARK SMILES IDX 74 36 25 37 79 38 73 39 75 40 26 41 78 42 72 43 71 44 27 46
REMARK SMILES IDX 59 47 39 48 58 49 40 50 43 51 57 52 76 53 41 54 42 55 56 57
REMARK SMILES IDX 77 58 44 59 28 60 29 61 37 62 30 63 32 64 38 65 31 66 33 67
REMARK SMILES IDX 34 68 35 69 36 70 60 71 61 72 69 73 62 74 64 75 70 76 63 77
REMARK SMILES IDX 65 78 66 79 67 80 68 81 45 82 46 83 54 84 47 85 49 86 55 87
REMARK SMILES IDX 48 88 50 89 51 90 52 91 53 92
REMARK H PARENT 11 7 5 20 16 26 75 45 43 56
REMARK Flexibility Score: inf
ROOT
ATOM      1  C   UNL     1      -5.985  -6.319   1.917  1.00  0.00     0.023 C 
ENDROOT
BRANCH   1   2
ATOM      2  C   UNL     1      -5.168  -5.916   3.163  1.00  0.00     0.023 C 
BRANCH   2   3
ATOM      3  C   UNL     1      -4.465  -7.074   3.874  1.00  0.00     0.116 C 
BRANCH   3   4
ATOM      4  N   UNL     1      -3.375  -7.597   3.071  1.00  0.00    -0.355 N 
ATOM      5  C   UNL     1      -2.030  -7.608   3.293  1.00  0.00     0.230 C 
ATOM      6  O   UNL     1      -1.322  -8.173   2.456  1.00  0.00    -0.274 OA
ATOM      7  H   UNL     1      -3.654  -8.013   2.223  1.00  0.00     0.163 HD
BRANCH   5   8
ATOM      8  C   UNL     1      -1.433  -7.053   4.573  1.00  0.00     0.178 C 
BRANCH   8   9
ATOM      9  S   UNL     1      -1.657  -5.273   4.802  1.00  0.00    -0.078 SA
BRANCH   9  10
ATOM     10  C   UNL     1      -0.818  -4.589   3.432  1.00  0.00     0.170 A 
ATOM     11  C   UNL     1       0.969   0.184  -0.047  1.00  0.00     0.057 C 
ATOM     12  C   UNL     1       0.575  -1.053   0.691  1.00  0.00     0.007 A 
ATOM     13  S   UNL     1      -0.476  -0.927   2.039  1.00  0.00    -0.122 S 
ATOM     14  C   UNL     1       0.947  -2.370   0.436  1.00  0.00    -0.022 A 
ATOM     15  C   UNL     1      -0.403  -2.587   2.318  1.00  0.00     0.108 A 
ATOM     16  C   UNL     1       0.389  -3.263   1.426  1.00  0.00     0.080 A 
ATOM     17  C   UNL     1       1.818  -2.818  -0.696  1.00  0.00     0.046 C 
ATOM     18  N   UNL     1      -1.022  -3.245   3.308  1.00  0.00    -0.326 N 
ATOM     19  C   UNL     1       0.565  -4.721   1.580  1.00  0.00     0.282 A 
ATOM     20  H   UNL     1      -1.612  -2.767   3.935  1.00  0.00     0.169 HD
ATOM     21  N   UNL     1      -0.075  -5.311   2.666  1.00  0.00    -0.185 NA
ATOM     22  O   UNL     1       1.264  -5.352   0.808  1.00  0.00    -0.267 OA
ENDBRANCH   9  10
ENDBRANCH   8   9
ENDBRANCH   5   8
ENDBRANCH   3   4
ENDBRANCH   2   3
ENDBRANCH   1   2
BRANCH   1  23
ATOM     23  C   UNL     1      -7.226  -7.193   2.181  1.00  0.00     0.116 C 
BRANCH  23  24
ATOM     24  N   UNL     1      -8.151  -6.504   3.062  1.00  0.00    -0.352 N 
ATOM     25  C   UNL     1      -9.466  -6.160   2.906  1.00  0.00     0.251 C 
ATOM     26  H   UNL     1      -7.763  -6.237   3.926  1.00  0.00     0.163 HD
ATOM     27  O   UNL     1      -9.883  -5.207   3.566  1.00  0.00    -0.269 OA
BRANCH  25  28
ATOM     28  C   UNL     1     -10.402  -6.887   2.015  1.00  0.00     0.039 A 
ATOM     29  C   UNL     1     -11.470  -6.155   1.476  1.00  0.00     0.014 A 
ATOM     30  C   UNL     1     -10.377  -8.274   1.860  1.00  0.00     0.014 A 
ATOM     31  C   UNL     1     -12.498  -6.795   0.781  1.00  0.00     0.010 A 
ATOM     32  C   UNL     1     -11.414  -8.916   1.165  1.00  0.00     0.010 A 
ATOM     33  C   UNL     1     -12.481  -8.184   0.615  1.00  0.00    -0.014 A 
BRANCH  33  34
ATOM     34  C   UNL     1     -13.563  -8.806  -0.192  1.00  0.00     0.031 A 
ATOM     35  C   UNL     1     -13.122  -9.885  -1.122  1.00  0.00     0.074 A 
ATOM     36  C   UNL     1     -14.848  -8.849   0.237  1.00  0.00     0.049 A 
ATOM     37  N   UNL     1     -12.914 -11.082  -0.672  1.00  0.00    -0.248 NA
ATOM     38  C   UNL     1     -12.644  -9.697  -2.487  1.00  0.00     0.031 C 
ATOM     39  C   UNL     1     -15.230  -8.788   1.658  1.00  0.00     0.029 A 
ATOM     40  N   UNL     1     -16.026  -9.166  -0.412  1.00  0.00    -0.354 N 
ATOM     41  C   UNL     1     -12.225 -11.799  -1.632  1.00  0.00     0.074 A 
ATOM     42  C   UNL     1     -12.101 -10.900  -2.758  1.00  0.00     0.031 C 
ATOM     43  C   UNL     1     -16.505  -9.210   1.786  1.00  0.00     0.029 A 
ATOM     44  C   UNL     1     -17.078  -9.431   0.464  1.00  0.00     0.049 A 
ATOM     45  H   UNL     1     -16.114  -9.202  -1.392  1.00  0.00     0.167 HD
ATOM     46  C   UNL     1     -11.848 -13.090  -1.401  1.00  0.00     0.034 A 
ATOM     47  C   UNL     1     -18.156 -10.221   0.209  1.00  0.00     0.034 A 
ATOM     48  C   UNL     1     -12.277 -13.664  -0.137  1.00  0.00     0.049 A 
ATOM     49  C   UNL     1     -17.555 -11.601   0.330  1.00  0.00     0.074 A 
ATOM     50  C   UNL     1     -11.800 -14.501   0.850  1.00  0.00     0.029 A 
ATOM     51  N   UNL     1     -13.521 -13.289   0.285  1.00  0.00    -0.354 N 
ATOM     52  N   UNL     1     -17.232 -12.208   1.446  1.00  0.00    -0.248 NA
ATOM     53  C   UNL     1     -17.022 -12.236  -0.885  1.00  0.00     0.031 C 
ATOM     54  C   UNL     1     -12.836 -14.633   1.841  1.00  0.00     0.029 A 
ATOM     55  C   UNL     1     -13.947 -13.925   1.408  1.00  0.00     0.049 A 
ATOM     56  H   UNL     1     -14.063 -12.614  -0.184  1.00  0.00     0.167 HD
ATOM     57  C   UNL     1     -16.225 -13.095   1.085  1.00  0.00     0.074 A 
ATOM     58  C   UNL     1     -16.258 -13.187  -0.362  1.00  0.00     0.031 C 
ATOM     59  C   UNL     1     -15.240 -13.536   1.921  1.00  0.00     0.034 A 
BRANCH  46  60
ATOM     60  C   UNL     1     -11.311 -14.005  -2.445  1.00  0.00     0.023 A 
ATOM     61  C   UNL     1     -12.258 -14.841  -3.074  1.00  0.00     0.012 A 
ATOM     62  C   UNL     1      -9.943 -14.225  -2.676  1.00  0.00     0.148 A 
ATOM     63  C   UNL     1     -11.861 -15.891  -3.898  1.00  0.00     0.002 A 
ATOM     64  C   UNL     1      -9.550 -15.281  -3.502  1.00  0.00     0.091 A 
ATOM     65  F   UNL     1      -9.053 -13.439  -2.054  1.00  0.00    -0.205 F 
ATOM     66  C   UNL     1     -10.507 -16.116  -4.107  1.00  0.00     0.022 A 
BRANCH  64  67
ATOM     67  S   UNL     1      -7.830 -15.701  -3.825  1.00  0.00     0.127 S 
ATOM     68  O   UNL     1      -7.720 -17.027  -3.218  1.00  0.00    -0.237 OA
ATOM     69  O   UNL     1      -7.787 -15.694  -5.287  1.00  0.00    -0.237 OA
ATOM     70  O   UNL     1      -7.039 -14.657  -3.188  1.00  0.00    -0.744 OA
ENDBRANCH  64  67
ENDBRANCH  46  60
BRANCH  47  71
ATOM     71  C   UNL     1     -19.066  -9.800  -0.914  1.00  0.00     0.023 A 
ATOM     72  C   UNL     1     -19.408  -8.427  -1.000  1.00  0.00     0.012 A 
ATOM     73  C   UNL     1     -19.645 -10.662  -1.865  1.00  0.00     0.148 A 
ATOM     74  C   UNL     1     -20.176  -7.918  -2.051  1.00  0.00     0.002 A 
ATOM     75  C   UNL     1     -20.353 -10.145  -2.951  1.00  0.00     0.091 A 
ATOM     76  F   UNL     1     -19.518 -11.985  -1.705  1.00  0.00    -0.205 F 
ATOM     77  C   UNL     1     -20.616  -8.773  -3.050  1.00  0.00     0.022 A 
BRANCH  75  78
ATOM     78  S   UNL     1     -20.897 -11.167  -4.328  1.00  0.00     0.127 S 
ATOM     79  O   UNL     1     -22.317 -10.833  -4.415  1.00  0.00    -0.237 OA
ATOM     80  O   UNL     1     -20.073 -10.643  -5.416  1.00  0.00    -0.237 OA
ATOM     81  O   UNL     1     -20.606 -12.540  -3.941  1.00  0.00    -0.744 OA
ENDBRANCH  75  78
ENDBRANCH  47  71
BRANCH  59  82
ATOM     82  C   UNL     1     -15.506 -13.526   3.381  1.00  0.00     0.023 A 
ATOM     83  C   UNL     1     -16.506 -14.400   3.848  1.00  0.00     0.012 A 
ATOM     84  C   UNL     1     -14.729 -12.800   4.301  1.00  0.00     0.148 A 
ATOM     85  C   UNL     1     -16.720 -14.575   5.210  1.00  0.00     0.002 A 
ATOM     86  C   UNL     1     -14.942 -12.985   5.664  1.00  0.00     0.091 A 
ATOM     87  F   UNL     1     -13.785 -11.968   3.839  1.00  0.00    -0.205 F 
ATOM     88  C   UNL     1     -15.932 -13.875   6.117  1.00  0.00     0.022 A 
BRANCH  86  89
ATOM     89  S   UNL     1     -13.974 -12.159   6.931  1.00  0.00     0.127 S 
ATOM     90  O   UNL     1     -15.014 -11.583   7.785  1.00  0.00    -0.237 OA
ATOM     91  O   UNL     1     -13.248 -13.278   7.532  1.00  0.00    -0.237 OA
ATOM     92  O   UNL     1     -13.146 -11.180   6.241  1.00  0.00    -0.744 OA
ENDBRANCH  86  89
ENDBRANCH  59  82
ENDBRANCH  33  34
ENDBRANCH  25  28
ENDBRANCH  23  24
ENDBRANCH   1  23
TORSDOF 16
