REMARK SMILES [NH3+][C@@]1(C(=O)NCCCCNC(=O)c2ccc(-c3c4nc(c(-c5cccc(S(=O)(=O)[O-])c5F)c5ccc([nH]5)c(-c5cccc(S(=O)(=O)[O-])c5F)c5nc(c(-c6cccc(S(=O)(=O)[O-])c6F)c6ccc3[nH]6)C=C5)C=C4)cc2)CC[N@H+](Cc2ccc(OCC(=O)N3CCCCC3)cc2)C1
REMARK SMILES IDX 6 1 5 2 3 3 4 4 2 6 76 7 96 8 77 9 78 10 1 12 79 16 80 17
REMARK SMILES IDX 81 18 95 19 82 20 94 21 83 22 84 23 85 24 86 25 87 26 88 27
REMARK SMILES IDX 89 28 93 29 90 30 92 31 91 32 7 33 8 34 9 35 10 36 11 37
REMARK SMILES IDX 12 39 13 40 14 41 75 42 15 43 74 44 16 45 17 46 18 47 68 48
REMARK SMILES IDX 19 49 73 50 67 51 69 52 20 53 72 54 66 55 65 56 21 58 53 59
REMARK SMILES IDX 33 60 52 61 34 62 37 63 51 64 70 65 35 66 36 67 50 69 71 70
REMARK SMILES IDX 38 71 22 72 23 73 31 74 24 75 26 76 32 77 25 78 27 79 28 80
REMARK SMILES IDX 29 81 30 82 54 83 55 84 63 85 56 86 58 87 64 88 57 89 59 90
REMARK SMILES IDX 60 91 61 92 62 93 39 94 40 95 48 96 41 97 43 98 49 99 42 100
REMARK SMILES IDX 44 101 45 102 46 103 47 104
REMARK H PARENT 5 5 78 11 1 13 1 14 1 15 10 38 69 57 37 68
REMARK Flexibility Score: inf
ROOT
ATOM      1  C   UNL     1       0.567  -0.679  -3.796  1.00  0.00     0.116 C 
ENDROOT
BRANCH   1   2
ATOM      2  N   UNL     1       0.982   0.337  -2.673  1.00  0.00    -0.350 N 
ATOM      3  C   UNL     1       1.071   0.220  -1.322  1.00  0.00     0.287 C 
ATOM      4  O   UNL     1       1.906   0.971  -0.786  1.00  0.00    -0.268 OA
ATOM      5  H   UNL     1       1.224   1.229  -3.013  1.00  0.00     0.163 HD
BRANCH   3   6
ATOM      6  C   UNL     1       0.244  -0.777  -0.417  1.00  0.00     0.228 C 
ATOM      7  C   UNL     1       0.646  -2.242  -0.581  1.00  0.00     0.146 C 
ATOM      8  C   UNL     1      -1.277  -0.760  -0.631  1.00  0.00     0.342 C 
ATOM      9  C   UNL     1      -0.580  -2.979  -1.119  1.00  0.00     0.270 C 
ATOM     10  N   UNL     1      -1.688  -2.036  -1.233  1.00  0.00    -0.325 N 
ATOM     11  H   UNL     1      -2.477  -2.403  -0.699  1.00  0.00     0.348 HD
BRANCH   6  12
ATOM     12  N   UNL     1       0.497  -0.328   0.995  1.00  0.00    -0.340 N 
ATOM     13  H   UNL     1       1.501  -0.325   1.176  1.00  0.00     0.345 HD
ATOM     14  H   UNL     1       0.036  -0.966   1.643  1.00  0.00     0.345 HD
ATOM     15  H   UNL     1       0.126   0.614   1.124  1.00  0.00     0.345 HD
ENDBRANCH   6  12
BRANCH  10  16
ATOM     16  C   UNL     1      -2.310  -1.943  -2.553  1.00  0.00     0.299 C 
BRANCH  16  17
ATOM     17  C   UNL     1      -1.412  -1.359  -3.606  1.00  0.00     0.006 A 
ATOM     18  C   UNL     1      -1.222   0.438  -3.663  1.00  0.00     0.013 A 
ATOM     19  C   UNL     1      -0.308  -2.438  -4.573  1.00  0.00     0.013 A 
ATOM     20  C   UNL     1       0.043   1.162  -4.721  1.00  0.00     0.047 A 
ATOM     21  C   UNL     1       0.960  -1.695  -5.612  1.00  0.00     0.047 A 
ATOM     22  C   UNL     1       1.165   0.101  -5.639  1.00  0.00     0.120 A 
BRANCH  22  23
ATOM     23  O   UNL     1       2.119   0.783  -6.330  1.00  0.00    -0.484 OA
BRANCH  23  24
ATOM     24  C   UNL     1       3.358   0.132  -6.505  1.00  0.00     0.329 C 
BRANCH  24  25
ATOM     25  C   UNL     1       4.238  -0.099  -5.263  1.00  0.00     0.260 C 
ATOM     26  O   UNL     1       4.533  -1.257  -4.948  1.00  0.00    -0.271 OA
ATOM     27  N   UNL     1       4.738   1.000  -4.573  1.00  0.00    -0.340 N 
ATOM     28  C   UNL     1       5.824   0.803  -3.619  1.00  0.00     0.119 C 
ATOM     29  C   UNL     1       4.279   2.386  -4.692  1.00  0.00     0.119 C 
ATOM     30  C   UNL     1       5.402   1.249  -2.226  1.00  0.00     0.022 C 
ATOM     31  C   UNL     1       3.882   2.952  -3.322  1.00  0.00     0.022 C 
ATOM     32  C   UNL     1       4.936   2.704  -2.242  1.00  0.00     0.004 C 
ENDBRANCH  24  25
ENDBRANCH  23  24
ENDBRANCH  22  23
ENDBRANCH  16  17
ENDBRANCH  10  16
ENDBRANCH   3   6
ENDBRANCH   1   2
BRANCH   1  33
ATOM     33  C   UNL     1      -0.831  -0.576  -5.480  1.00  0.00     0.023 C 
BRANCH  33  34
ATOM     34  C   UNL     1      -0.806  -0.001  -7.094  1.00  0.00     0.023 C 
BRANCH  34  35
ATOM     35  C   UNL     1      -0.301  -0.939  -8.191  1.00  0.00     0.116 C 
BRANCH  35  36
ATOM     36  N   UNL     1      -0.977  -2.236  -8.257  1.00  0.00    -0.352 N 
ATOM     37  C   UNL     1      -0.853  -3.160  -9.271  1.00  0.00     0.251 C 
ATOM     38  H   UNL     1      -1.574  -2.468  -7.510  1.00  0.00     0.163 HD
ATOM     39  O   UNL     1      -1.486  -4.207  -9.293  1.00  0.00    -0.269 OA
BRANCH  37  40
ATOM     40  C   UNL     1       0.069  -2.799 -10.361  1.00  0.00     0.039 A 
ATOM     41  C   UNL     1      -0.460  -2.314 -11.559  1.00  0.00     0.014 A 
ATOM     42  C   UNL     1       1.429  -2.692 -10.065  1.00  0.00     0.014 A 
ATOM     43  C   UNL     1       0.380  -1.640 -12.444  1.00  0.00     0.010 A 
ATOM     44  C   UNL     1       2.242  -1.955 -10.913  1.00  0.00     0.010 A 
ATOM     45  C   UNL     1       1.725  -1.418 -12.105  1.00  0.00    -0.014 A 
BRANCH  45  46
ATOM     46  C   UNL     1       2.626  -0.636 -12.986  1.00  0.00     0.031 A 
ATOM     47  C   UNL     1       3.819  -1.316 -13.596  1.00  0.00     0.074 A 
ATOM     48  C   UNL     1       2.438   0.689 -13.149  1.00  0.00     0.049 A 
ATOM     49  N   UNL     1       4.784  -0.803 -14.310  1.00  0.00    -0.248 NA
ATOM     50  C   UNL     1       3.969  -2.757 -13.328  1.00  0.00     0.031 C 
ATOM     51  C   UNL     1       1.371   1.481 -12.532  1.00  0.00     0.029 A 
ATOM     52  N   UNL     1       3.160   1.611 -13.866  1.00  0.00    -0.354 N 
ATOM     53  C   UNL     1       5.679  -1.842 -14.530  1.00  0.00     0.074 A 
ATOM     54  C   UNL     1       5.164  -3.003 -13.839  1.00  0.00     0.031 C 
ATOM     55  C   UNL     1       1.504   2.766 -12.905  1.00  0.00     0.029 A 
ATOM     56  C   UNL     1       2.672   2.894 -13.771  1.00  0.00     0.049 A 
ATOM     57  H   UNL     1       3.954   1.376 -14.398  1.00  0.00     0.167 HD
ATOM     58  C   UNL     1       6.807  -1.844 -15.276  1.00  0.00     0.034 A 
ATOM     59  C   UNL     1       3.114   4.039 -14.331  1.00  0.00     0.034 A 
ATOM     60  C   UNL     1       7.265  -0.714 -16.032  1.00  0.00     0.049 A 
ATOM     61  C   UNL     1       4.315   3.988 -15.240  1.00  0.00     0.074 A 
ATOM     62  C   UNL     1       8.336  -0.639 -16.903  1.00  0.00     0.029 A 
ATOM     63  N   UNL     1       6.665   0.535 -16.020  1.00  0.00    -0.354 N 
ATOM     64  N   UNL     1       5.056   2.957 -15.569  1.00  0.00    -0.248 NA
ATOM     65  C   UNL     1       4.717   5.245 -15.889  1.00  0.00     0.031 C 
ATOM     66  C   UNL     1       8.381   0.659 -17.423  1.00  0.00     0.029 A 
ATOM     67  C   UNL     1       7.335   1.387 -16.877  1.00  0.00     0.049 A 
ATOM     68  H   UNL     1       5.878   0.779 -15.481  1.00  0.00     0.167 HD
ATOM     69  C   UNL     1       5.982   3.431 -16.491  1.00  0.00     0.074 A 
ATOM     70  C   UNL     1       5.702   4.839 -16.680  1.00  0.00     0.031 C 
ATOM     71  C   UNL     1       6.987   2.765 -17.111  1.00  0.00     0.034 A 
BRANCH  58  72
ATOM     72  C   UNL     1       7.569  -3.137 -15.370  1.00  0.00     0.023 A 
ATOM     73  C   UNL     1       7.032  -4.200 -16.124  1.00  0.00     0.012 A 
ATOM     74  C   UNL     1       8.817  -3.296 -14.739  1.00  0.00     0.148 A 
ATOM     75  C   UNL     1       7.703  -5.418 -16.213  1.00  0.00     0.002 A 
ATOM     76  C   UNL     1       9.501  -4.499 -14.868  1.00  0.00     0.091 A 
ATOM     77  F   UNL     1       9.299  -2.283 -14.004  1.00  0.00    -0.205 F 
ATOM     78  C   UNL     1       8.940  -5.564 -15.593  1.00  0.00     0.022 A 
BRANCH  76  79
ATOM     79  S   UNL     1      11.135  -4.757 -14.168  1.00  0.00     0.127 S 
ATOM     80  O   UNL     1      10.832  -5.601 -13.014  1.00  0.00    -0.237 OA
ATOM     81  O   UNL     1      11.834  -5.441 -15.257  1.00  0.00    -0.237 OA
ATOM     82  O   UNL     1      11.649  -3.430 -13.861  1.00  0.00    -0.744 OA
ENDBRANCH  76  79
ENDBRANCH  58  72
BRANCH  59  83
ATOM     83  C   UNL     1       2.359   5.310 -14.134  1.00  0.00     0.023 A 
ATOM     84  C   UNL     1       1.623   5.841 -15.213  1.00  0.00     0.012 A 
ATOM     85  C   UNL     1       2.345   5.983 -12.898  1.00  0.00     0.148 A 
ATOM     86  C   UNL     1       0.914   7.035 -15.074  1.00  0.00     0.002 A 
ATOM     87  C   UNL     1       1.598   7.149 -12.753  1.00  0.00     0.091 A 
ATOM     88  F   UNL     1       3.062   5.473 -11.887  1.00  0.00    -0.205 F 
ATOM     89  C   UNL     1       0.894   7.684 -13.843  1.00  0.00     0.022 A 
BRANCH  87  90
ATOM     90  S   UNL     1       1.421   7.983 -11.171  1.00  0.00     0.127 S 
ATOM     91  O   UNL     1       2.299   9.138 -11.342  1.00  0.00    -0.237 OA
ATOM     92  O   UNL     1      -0.009   8.294 -11.147  1.00  0.00    -0.237 OA
ATOM     93  O   UNL     1       1.836   7.008 -10.171  1.00  0.00    -0.744 OA
ENDBRANCH  87  90
ENDBRANCH  59  83
BRANCH  71  94
ATOM     94  C   UNL     1       7.839   3.524 -18.091  1.00  0.00     0.023 A 
ATOM     95  C   UNL     1       8.828   4.405 -17.614  1.00  0.00     0.012 A 
ATOM     96  C   UNL     1       7.744   3.266 -19.473  1.00  0.00     0.148 A 
ATOM     97  C   UNL     1       9.703   5.030 -18.500  1.00  0.00     0.002 A 
ATOM     98  C   UNL     1       8.647   3.860 -20.346  1.00  0.00     0.091 A 
ATOM     99  F   UNL     1       6.782   2.438 -19.905  1.00  0.00    -0.205 F 
ATOM    100  C   UNL     1       9.623   4.747 -19.862  1.00  0.00     0.022 A 
BRANCH  98 101
ATOM    101  S   UNL     1       8.679   3.476 -22.101  1.00  0.00     0.127 S 
ATOM    102  O   UNL     1       8.098   4.685 -22.681  1.00  0.00    -0.237 OA
ATOM    103  O   UNL     1      10.110   3.303 -22.357  1.00  0.00    -0.237 OA
ATOM    104  O   UNL     1       7.889   2.263 -22.259  1.00  0.00    -0.744 OA
ENDBRANCH  98 101
ENDBRANCH  71  94
ENDBRANCH  45  46
ENDBRANCH  37  40
ENDBRANCH  35  36
ENDBRANCH  34  35
ENDBRANCH  33  34
ENDBRANCH   1  33
TORSDOF 20
