REMARK SMILES Cc1cc(C)cc(C(=O)N2CC[C@H](C(=O)NCCCCNC(=O)c3ccc(-c4c5nc(c(-c6cccc(S(=O)(=O)[O-])c6F)c6ccc([nH]6)c(-c6cccc(S(=O)(=O)[O-])c6F)c6nc(c(-c7cccc(S(=O)(=O)[O-])c7F)c7ccc4[nH]7)C=C6)C=C5)cc3)[C@@H]2C)c1
REMARK SMILES IDX 19 1 18 2 17 3 16 4 14 5 15 6 13 8 10 9 11 10 87 11 12 12
REMARK SMILES IDX 88 13 8 14 9 15 7 16 1 17 2 18 3 19 89 20 4 21 5 22 6 23
REMARK SMILES IDX 20 24 21 25 22 26 23 28 24 29 25 30 86 31 26 32 85 33 27 34
REMARK SMILES IDX 28 35 29 36 79 37 30 38 84 39 78 40 80 41 31 42 83 43 77 44
REMARK SMILES IDX 76 45 32 47 64 48 44 49 63 50 45 51 48 52 62 53 81 54 46 55
REMARK SMILES IDX 47 56 61 58 82 59 49 60 33 61 34 62 42 63 35 64 37 65 43 66
REMARK SMILES IDX 36 67 38 68 39 69 40 70 41 71 65 72 66 73 74 74 67 75 69 76
REMARK SMILES IDX 75 77 68 78 70 79 71 80 72 81 73 82 50 83 51 84 59 85 52 86
REMARK SMILES IDX 54 87 60 88 53 89 55 90 56 91 57 92 58 93
REMARK H PARENT 16 7 21 27 80 46 48 57
REMARK Flexibility Score: inf
ROOT
ATOM      1  C   UNL     1       5.952  -5.728   4.799  1.00  0.00     0.023 C 
ENDROOT
BRANCH   1   2
ATOM      2  C   UNL     1       5.655  -4.593   3.817  1.00  0.00     0.023 C 
BRANCH   2   3
ATOM      3  C   UNL     1       5.741  -4.972   2.342  1.00  0.00     0.116 C 
BRANCH   3   4
ATOM      4  N   UNL     1       4.810  -6.026   1.987  1.00  0.00    -0.356 N 
ATOM      5  C   UNL     1       3.792  -6.043   1.083  1.00  0.00     0.225 C 
ATOM      6  O   UNL     1       3.189  -7.102   0.909  1.00  0.00    -0.275 OA
ATOM      7  H   UNL     1       4.934  -6.868   2.482  1.00  0.00     0.163 HD
BRANCH   5   8
ATOM      8  C   UNL     1       3.425  -4.778   0.328  1.00  0.00     0.102 C 
ATOM      9  N   UNL     1       1.223  -3.988  -0.130  1.00  0.00    -0.335 N 
ATOM     10  C   UNL     1       1.456  -5.104  -1.018  1.00  0.00     0.121 C 
ATOM     11  C   UNL     1       2.245  -3.969   0.930  1.00  0.00     0.094 C 
ATOM     12  C   UNL     1       2.967  -5.133  -1.101  1.00  0.00     0.037 C 
ATOM     13  C   UNL     1       1.667  -4.511   2.238  1.00  0.00     0.032 C 
BRANCH   9  14
ATOM     14  C   UNL     1       0.086  -3.220  -0.302  1.00  0.00     0.254 C 
ATOM     15  O   UNL     1      -0.925  -3.682  -0.833  1.00  0.00    -0.269 OA
BRANCH  14  16
ATOM     16  C   UNL     1       0.103  -1.759  -0.006  1.00  0.00     0.040 A 
ATOM     17  C   UNL     1       2.502   1.204  -0.032  1.00  0.00     0.044 C 
ATOM     18  C   UNL     1       1.239   0.397   0.030  1.00  0.00    -0.050 A 
ATOM     19  C   UNL     1       0.000   1.041   0.136  1.00  0.00     0.006 A 
ATOM     20  C   UNL     1       1.277  -0.999  -0.080  1.00  0.00     0.017 A 
ATOM     21  C   UNL     1      -1.191   0.304   0.154  1.00  0.00    -0.050 A 
ATOM     22  C   UNL     1      -2.511   1.017   0.145  1.00  0.00     0.044 C 
ATOM     23  C   UNL     1      -1.128  -1.095   0.106  1.00  0.00     0.017 A 
ENDBRANCH  14  16
ENDBRANCH   9  14
ENDBRANCH   5   8
ENDBRANCH   3   4
ENDBRANCH   2   3
ENDBRANCH   1   2
BRANCH   1  24
ATOM     24  C   UNL     1       7.290  -6.435   4.604  1.00  0.00     0.116 C 
BRANCH  24  25
ATOM     25  N   UNL     1       8.430  -5.540   4.740  1.00  0.00    -0.352 N 
ATOM     26  C   UNL     1       9.562  -5.683   5.507  1.00  0.00     0.251 C 
ATOM     27  H   UNL     1       8.384  -4.715   4.205  1.00  0.00     0.163 HD
ATOM     28  O   UNL     1      10.357  -4.749   5.596  1.00  0.00    -0.269 OA
BRANCH  26  29
ATOM     29  C   UNL     1       9.809  -6.942   6.245  1.00  0.00     0.039 A 
ATOM     30  C   UNL     1      10.226  -6.872   7.577  1.00  0.00     0.014 A 
ATOM     31  C   UNL     1       9.623  -8.185   5.635  1.00  0.00     0.014 A 
ATOM     32  C   UNL     1      10.386  -8.047   8.316  1.00  0.00     0.010 A 
ATOM     33  C   UNL     1       9.708  -9.350   6.395  1.00  0.00     0.010 A 
ATOM     34  C   UNL     1      10.090  -9.296   7.744  1.00  0.00    -0.014 A 
BRANCH  34  35
ATOM     35  C   UNL     1      10.155 -10.548   8.544  1.00  0.00     0.031 A 
ATOM     36  C   UNL     1      11.111 -11.648   8.164  1.00  0.00     0.074 A 
ATOM     37  C   UNL     1       9.294 -10.731   9.567  1.00  0.00     0.049 A 
ATOM     38  N   UNL     1      11.263 -12.831   8.702  1.00  0.00    -0.248 NA
ATOM     39  C   UNL     1      11.998 -11.396   7.016  1.00  0.00     0.031 C 
ATOM     40  C   UNL     1       8.267  -9.776   9.991  1.00  0.00     0.029 A 
ATOM     41  N   UNL     1       9.124 -11.796  10.418  1.00  0.00    -0.354 N 
ATOM     42  C   UNL     1      12.234 -13.474   7.944  1.00  0.00     0.074 A 
ATOM     43  C   UNL     1      12.614 -12.563   6.886  1.00  0.00     0.031 C 
ATOM     44  C   UNL     1       7.579 -10.296  11.020  1.00  0.00     0.029 A 
ATOM     45  C   UNL     1       8.087 -11.633  11.308  1.00  0.00     0.049 A 
ATOM     46  H   UNL     1       9.691 -12.600  10.394  1.00  0.00     0.167 HD
ATOM     47  C   UNL     1      12.784 -14.698   8.127  1.00  0.00     0.034 A 
ATOM     48  C   UNL     1       7.590 -12.470  12.241  1.00  0.00     0.034 A 
ATOM     49  C   UNL     1      12.433 -15.588   9.201  1.00  0.00     0.049 A 
ATOM     50  C   UNL     1       8.236 -13.816  12.435  1.00  0.00     0.074 A 
ATOM     51  C   UNL     1      12.988 -16.817   9.514  1.00  0.00     0.029 A 
ATOM     52  N   UNL     1      11.435 -15.353  10.132  1.00  0.00    -0.354 N 
ATOM     53  N   UNL     1       9.258 -14.341  11.803  1.00  0.00    -0.248 NA
ATOM     54  C   UNL     1       7.685 -14.672  13.496  1.00  0.00     0.031 C 
ATOM     55  C   UNL     1      12.307 -17.337  10.618  1.00  0.00     0.029 A 
ATOM     56  C   UNL     1      11.352 -16.416  11.015  1.00  0.00     0.049 A 
ATOM     57  H   UNL     1      10.868 -14.548  10.162  1.00  0.00     0.167 HD
ATOM     58  C   UNL     1       9.496 -15.566  12.416  1.00  0.00     0.074 A 
ATOM     59  C   UNL     1       8.527 -15.695  13.484  1.00  0.00     0.031 C 
ATOM     60  C   UNL     1      10.424 -16.507  12.112  1.00  0.00     0.034 A 
BRANCH  47  61
ATOM     61  C   UNL     1      13.871 -15.132   7.178  1.00  0.00     0.023 A 
ATOM     62  C   UNL     1      15.140 -14.523   7.251  1.00  0.00     0.012 A 
ATOM     63  C   UNL     1      13.665 -16.195   6.276  1.00  0.00     0.148 A 
ATOM     64  C   UNL     1      16.180 -14.944   6.422  1.00  0.00     0.002 A 
ATOM     65  C   UNL     1      14.719 -16.639   5.486  1.00  0.00     0.091 A 
ATOM     66  F   UNL     1      12.447 -16.751   6.210  1.00  0.00    -0.205 F 
ATOM     67  C   UNL     1      15.973 -16.008   5.550  1.00  0.00     0.022 A 
BRANCH  65  68
ATOM     68  S   UNL     1      14.583 -18.054   4.387  1.00  0.00     0.127 S 
ATOM     69  O   UNL     1      14.713 -17.421   3.075  1.00  0.00    -0.237 OA
ATOM     70  O   UNL     1      15.733 -18.865   4.789  1.00  0.00    -0.237 OA
ATOM     71  O   UNL     1      13.286 -18.655   4.661  1.00  0.00    -0.744 OA
ENDBRANCH  65  68
ENDBRANCH  47  61
BRANCH  48  72
ATOM     72  C   UNL     1       6.446 -12.049  13.100  1.00  0.00     0.023 A 
ATOM     73  C   UNL     1       6.652 -11.837  14.477  1.00  0.00     0.012 A 
ATOM     74  C   UNL     1       5.157 -11.865  12.564  1.00  0.00     0.148 A 
ATOM     75  C   UNL     1       5.588 -11.497  15.313  1.00  0.00     0.002 A 
ATOM     76  C   UNL     1       4.113 -11.467  13.391  1.00  0.00     0.091 A 
ATOM     77  F   UNL     1       4.976 -12.082  11.253  1.00  0.00    -0.205 F 
ATOM     78  C   UNL     1       4.321 -11.304  14.769  1.00  0.00     0.022 A 
BRANCH  76  79
ATOM     79  S   UNL     1       2.482 -11.067  12.754  1.00  0.00     0.127 S 
ATOM     80  O   UNL     1       1.694 -12.207  13.215  1.00  0.00    -0.237 OA
ATOM     81  O   UNL     1       2.194  -9.803  13.431  1.00  0.00    -0.237 OA
ATOM     82  O   UNL     1       2.646 -10.949  11.311  1.00  0.00    -0.744 OA
ENDBRANCH  76  79
ENDBRANCH  48  72
BRANCH  60  83
ATOM     83  C   UNL     1      10.479 -17.741  12.975  1.00  0.00     0.023 A 
ATOM     84  C   UNL     1       9.458 -18.708  12.890  1.00  0.00     0.012 A 
ATOM     85  C   UNL     1      11.584 -17.975  13.818  1.00  0.00     0.148 A 
ATOM     86  C   UNL     1       9.516 -19.870  13.658  1.00  0.00     0.002 A 
ATOM     87  C   UNL     1      11.662 -19.159  14.540  1.00  0.00     0.091 A 
ATOM     88  F   UNL     1      12.538 -17.035  13.898  1.00  0.00    -0.205 F 
ATOM     89  C   UNL     1      10.622 -20.101  14.473  1.00  0.00     0.022 A 
BRANCH  87  90
ATOM     90  S   UNL     1      13.092 -19.588  15.538  1.00  0.00     0.127 S 
ATOM     91  O   UNL     1      12.557 -19.468  16.893  1.00  0.00    -0.237 OA
ATOM     92  O   UNL     1      13.368 -20.960  15.110  1.00  0.00    -0.237 OA
ATOM     93  O   UNL     1      14.129 -18.626  15.190  1.00  0.00    -0.744 OA
ENDBRANCH  87  90
ENDBRANCH  60  83
ENDBRANCH  34  35
ENDBRANCH  26  29
ENDBRANCH  24  25
ENDBRANCH   1  24
TORSDOF 16
