REMARK SMILES O=C(NCCCCNC(=O)[C@@H]1[C@H](C(=O)Nc2ccccc2OC(F)F)[C@@H]2C=C[C@H]1C2)c1ccc(-c2c3nc(c(-c4cccc(S(=O)(=O)[O-])c4F)c4ccc([nH]4)c(-c4cccc(S(=O)(=O)[O-])c4F)c4nc(c(-c5cccc(S(=O)(=O)[O-])c5F)c5ccc2[nH]5)C=C4)C=C3)cc1
REMARK SMILES IDX 6 1 5 2 4 3 3 4 1 5 2 6 31 8 32 9 93 10 33 11 92 12 34 13
REMARK SMILES IDX 35 14 36 15 86 16 37 17 91 18 85 19 87 20 38 21 90 22 84 23
REMARK SMILES IDX 83 24 39 26 71 27 51 28 70 29 52 30 55 31 69 32 88 33 53 34
REMARK SMILES IDX 54 35 68 37 89 38 56 39 40 40 41 41 49 42 42 43 44 44 50 45
REMARK SMILES IDX 43 46 45 47 46 48 47 49 48 50 72 51 73 52 81 53 74 54 76 55
REMARK SMILES IDX 82 56 75 57 77 58 78 59 79 60 80 61 57 62 58 63 66 64 59 65
REMARK SMILES IDX 61 66 67 67 60 68 62 69 63 70 64 71 65 72 7 73 8 74 9 75
REMARK SMILES IDX 10 77 11 78 12 79 29 80 26 81 28 82 30 83 27 84 13 85 14 86
REMARK SMILES IDX 15 87 16 89 17 90 21 91 18 92 20 93 19 94 22 95 23 96 24 97
REMARK SMILES IDX 25 98
REMARK H PARENT 3 7 87 25 55 36 8 76 15 88
REMARK Flexibility Score: inf
ROOT
ATOM      1  C   UNL     1       3.958  -0.989  -3.712  1.00  0.00     0.023 C 
ENDROOT
BRANCH   1   2
ATOM      2  C   UNL     1       4.633  -1.134  -2.344  1.00  0.00     0.023 C 
BRANCH   2   3
ATOM      3  C   UNL     1       4.428   0.039  -1.396  1.00  0.00     0.116 C 
BRANCH   3   4
ATOM      4  N   UNL     1       3.023   0.282  -1.111  1.00  0.00    -0.352 N 
ATOM      5  O   UNL     1       1.099   0.198   0.056  1.00  0.00    -0.269 OA
ATOM      6  C   UNL     1       2.328   0.136   0.065  1.00  0.00     0.251 C 
ATOM      7  H   UNL     1       2.490   0.600  -1.875  1.00  0.00     0.163 HD
BRANCH   6   8
ATOM      8  C   UNL     1       3.056  -0.113   1.326  1.00  0.00     0.039 A 
ATOM      9  C   UNL     1       4.200   0.626   1.635  1.00  0.00     0.014 A 
ATOM     10  C   UNL     1       2.590  -1.086   2.214  1.00  0.00     0.014 A 
ATOM     11  C   UNL     1       4.964   0.285   2.744  1.00  0.00     0.010 A 
ATOM     12  C   UNL     1       3.308  -1.360   3.383  1.00  0.00     0.010 A 
ATOM     13  C   UNL     1       4.518  -0.698   3.643  1.00  0.00    -0.014 A 
BRANCH  13  14
ATOM     14  C   UNL     1       5.295  -0.948   4.884  1.00  0.00     0.031 A 
ATOM     15  C   UNL     1       5.918  -2.287   5.167  1.00  0.00     0.074 A 
ATOM     16  C   UNL     1       5.445   0.068   5.759  1.00  0.00     0.049 A 
ATOM     17  N   UNL     1       6.642  -2.654   6.194  1.00  0.00    -0.248 NA
ATOM     18  C   UNL     1       5.700  -3.355   4.179  1.00  0.00     0.031 C 
ATOM     19  C   UNL     1       4.850   1.400   5.611  1.00  0.00     0.029 A 
ATOM     20  N   UNL     1       6.136   0.145   6.941  1.00  0.00    -0.354 N 
ATOM     21  C   UNL     1       6.942  -3.997   5.994  1.00  0.00     0.074 A 
ATOM     22  C   UNL     1       6.306  -4.386   4.753  1.00  0.00     0.031 C 
ATOM     23  C   UNL     1       5.222   2.167   6.644  1.00  0.00     0.029 A 
ATOM     24  C   UNL     1       6.025   1.368   7.560  1.00  0.00     0.049 A 
ATOM     25  H   UNL     1       6.660  -0.602   7.310  1.00  0.00     0.167 HD
ATOM     26  C   UNL     1       7.691  -4.823   6.765  1.00  0.00     0.034 A 
ATOM     27  C   UNL     1       6.492   1.795   8.748  1.00  0.00     0.034 A 
ATOM     28  C   UNL     1       8.331  -4.422   7.992  1.00  0.00     0.049 A 
ATOM     29  C   UNL     1       7.313   0.855   9.581  1.00  0.00     0.074 A 
ATOM     30  C   UNL     1       9.142  -5.173   8.825  1.00  0.00     0.029 A 
ATOM     31  N   UNL     1       8.225  -3.165   8.569  1.00  0.00    -0.354 N 
ATOM     32  N   UNL     1       7.678  -0.376   9.317  1.00  0.00    -0.248 NA
ATOM     33  C   UNL     1       7.811   1.370  10.863  1.00  0.00     0.031 C 
ATOM     34  C   UNL     1       9.503  -4.379   9.919  1.00  0.00     0.029 A 
ATOM     35  C   UNL     1       8.949  -3.121   9.749  1.00  0.00     0.049 A 
ATOM     36  H   UNL     1       7.711  -2.413   8.194  1.00  0.00     0.167 HD
ATOM     37  C   UNL     1       8.474  -0.772  10.383  1.00  0.00     0.074 A 
ATOM     38  C   UNL     1       8.562   0.362  11.282  1.00  0.00     0.031 C 
ATOM     39  C   UNL     1       9.066  -1.971  10.609  1.00  0.00     0.034 A 
BRANCH  26  40
ATOM     40  C   UNL     1       7.894  -6.241   6.290  1.00  0.00     0.023 A 
ATOM     41  C   UNL     1       8.726  -6.490   5.179  1.00  0.00     0.012 A 
ATOM     42  C   UNL     1       7.328  -7.330   6.984  1.00  0.00     0.148 A 
ATOM     43  C   UNL     1       8.965  -7.794   4.746  1.00  0.00     0.002 A 
ATOM     44  C   UNL     1       7.606  -8.629   6.573  1.00  0.00     0.091 A 
ATOM     45  F   UNL     1       6.529  -7.075   8.029  1.00  0.00    -0.205 F 
ATOM     46  C   UNL     1       8.414  -8.862   5.448  1.00  0.00     0.022 A 
BRANCH  44  47
ATOM     47  S   UNL     1       7.011 -10.077   7.455  1.00  0.00     0.127 S 
ATOM     48  O   UNL     1       6.051 -10.629   6.500  1.00  0.00    -0.237 OA
ATOM     49  O   UNL     1       8.234 -10.864   7.613  1.00  0.00    -0.237 OA
ATOM     50  O   UNL     1       6.439  -9.584   8.699  1.00  0.00    -0.744 OA
ENDBRANCH  44  47
ENDBRANCH  26  40
BRANCH  27  51
ATOM     51  C   UNL     1       6.207   3.184   9.205  1.00  0.00     0.023 A 
ATOM     52  C   UNL     1       7.259   4.113   9.316  1.00  0.00     0.012 A 
ATOM     53  C   UNL     1       4.894   3.594   9.508  1.00  0.00     0.148 A 
ATOM     54  C   UNL     1       7.013   5.413   9.759  1.00  0.00     0.002 A 
ATOM     55  C   UNL     1       4.648   4.907   9.886  1.00  0.00     0.091 A 
ATOM     56  F   UNL     1       3.907   2.692   9.408  1.00  0.00    -0.205 F 
ATOM     57  C   UNL     1       5.708   5.813  10.033  1.00  0.00     0.022 A 
BRANCH  55  58
ATOM     58  S   UNL     1       2.983   5.540  10.117  1.00  0.00     0.127 S 
ATOM     59  O   UNL     1       2.915   5.678  11.569  1.00  0.00    -0.237 OA
ATOM     60  O   UNL     1       3.035   6.803   9.378  1.00  0.00    -0.237 OA
ATOM     61  O   UNL     1       2.100   4.541   9.530  1.00  0.00    -0.744 OA
ENDBRANCH  55  58
ENDBRANCH  27  51
BRANCH  39  62
ATOM     62  C   UNL     1       9.900  -2.104  11.856  1.00  0.00     0.023 A 
ATOM     63  C   UNL     1       9.277  -2.145  13.120  1.00  0.00     0.012 A 
ATOM     64  C   UNL     1      11.299  -2.236  11.770  1.00  0.00     0.148 A 
ATOM     65  C   UNL     1      10.039  -2.271  14.281  1.00  0.00     0.002 A 
ATOM     66  C   UNL     1      12.047  -2.416  12.927  1.00  0.00     0.091 A 
ATOM     67  F   UNL     1      11.874  -2.174  10.560  1.00  0.00    -0.205 F 
ATOM     68  C   UNL     1      11.421  -2.418  14.184  1.00  0.00     0.022 A 
BRANCH  66  69
ATOM     69  S   UNL     1      13.818  -2.709  12.893  1.00  0.00     0.127 S 
ATOM     70  O   UNL     1      14.338  -1.454  13.430  1.00  0.00    -0.237 OA
ATOM     71  O   UNL     1      13.958  -3.860  13.785  1.00  0.00    -0.237 OA
ATOM     72  O   UNL     1      14.155  -2.979  11.501  1.00  0.00    -0.744 OA
ENDBRANCH  66  69
ENDBRANCH  39  62
ENDBRANCH  13  14
ENDBRANCH   6   8
ENDBRANCH   3   4
ENDBRANCH   2   3
ENDBRANCH   1   2
BRANCH   1  73
ATOM     73  C   UNL     1       4.309   0.281  -4.501  1.00  0.00     0.116 C 
BRANCH  73  74
ATOM     74  N   UNL     1       5.720   0.308  -4.823  1.00  0.00    -0.356 N 
ATOM     75  C   UNL     1       6.359   0.522  -5.998  1.00  0.00     0.224 C 
ATOM     76  H   UNL     1       6.317   0.142  -4.058  1.00  0.00     0.163 HD
ATOM     77  O   UNL     1       7.349  -0.188  -6.208  1.00  0.00    -0.275 OA
BRANCH  75  78
ATOM     78  C   UNL     1       5.878   1.460  -7.074  1.00  0.00     0.098 C 
ATOM     79  C   UNL     1       6.889   2.420  -7.808  1.00  0.00     0.099 C 
ATOM     80  C   UNL     1       4.614   2.335  -6.948  1.00  0.00     0.025 C 
ATOM     81  C   UNL     1       5.985   3.652  -8.136  1.00  0.00     0.025 C 
ATOM     82  C   UNL     1       4.864   3.575  -6.132  1.00  0.00    -0.027 C 
ATOM     83  C   UNL     1       4.625   2.986  -8.348  1.00  0.00     0.017 C 
ATOM     84  C   UNL     1       5.641   4.384  -6.865  1.00  0.00    -0.027 C 
BRANCH  79  85
ATOM     85  C   UNL     1       8.326   2.909  -7.524  1.00  0.00     0.229 C 
ATOM     86  O   UNL     1       9.113   2.920  -8.491  1.00  0.00    -0.274 OA
ATOM     87  N   UNL     1       8.788   3.582  -6.434  1.00  0.00    -0.323 N 
ATOM     88  H   UNL     1       9.651   4.032  -6.585  1.00  0.00     0.170 HD
BRANCH  87  89
ATOM     89  C   UNL     1       8.283   3.760  -5.149  1.00  0.00     0.084 A 
ATOM     90  C   UNL     1       8.124   5.085  -4.714  1.00  0.00     0.030 A 
ATOM     91  C   UNL     1       7.961   2.723  -4.282  1.00  0.00     0.149 A 
ATOM     92  C   UNL     1       7.405   5.367  -3.551  1.00  0.00     0.002 A 
ATOM     93  C   UNL     1       7.191   3.008  -3.146  1.00  0.00     0.049 A 
ATOM     94  C   UNL     1       6.884   4.323  -2.797  1.00  0.00     0.004 A 
BRANCH  91  95
ATOM     95  O   UNL     1       8.354   1.422  -4.365  1.00  0.00    -0.433 OA
BRANCH  95  96
ATOM     96  C   UNL     1       9.620   1.089  -4.939  1.00  0.00     0.542 C 
ATOM     97  F   UNL     1       9.556   1.050  -6.287  1.00  0.00    -0.167 F 
ATOM     98  F   UNL     1      10.561   1.997  -4.588  1.00  0.00    -0.167 F 
ENDBRANCH  95  96
ENDBRANCH  91  95
ENDBRANCH  87  89
ENDBRANCH  79  85
ENDBRANCH  75  78
ENDBRANCH  73  74
ENDBRANCH   1  73
TORSDOF 18
