REMARK SMILES Cc1ccc(-c2c(C)sc(NC(=O)[C@H]3CC=CC[C@H]3C(=O)NCCCCNC(=O)c3ccc(-c4c5nc(c(-c6cccc(S(=O)(=O)[O-])c6F)c6ccc([nH]6)c(-c6cccc(S(=O)(=O)[O-])c6F)c6nc(c(-c7cccc(S(=O)(=O)[O-])c7F)c7ccc4[nH]7)C=C6)C=C5)cc3)c2C(N)=O)cc1
REMARK SMILES IDX 24 1 23 2 22 3 20 4 21 5 19 7 14 8 15 9 16 10 18 11 17 12
REMARK SMILES IDX 12 13 11 14 13 16 10 17 6 18 7 19 93 20 8 21 9 22 5 23 1 24
REMARK SMILES IDX 2 25 3 26 98 27 4 28 97 29 94 30 95 31 96 32 25 35 26 36
REMARK SMILES IDX 27 37 28 38 29 40 30 41 31 42 92 43 32 44 91 45 33 46 34 47
REMARK SMILES IDX 35 48 85 49 36 50 90 51 84 52 86 53 37 54 89 55 83 56 82 57
REMARK SMILES IDX 38 59 70 60 50 61 69 62 51 63 54 64 68 65 87 66 52 67 53 68
REMARK SMILES IDX 67 70 88 71 55 72 39 73 40 74 48 75 41 76 43 77 49 78 42 79
REMARK SMILES IDX 44 80 45 81 46 82 47 83 71 84 72 85 80 86 73 87 75 88 81 89
REMARK SMILES IDX 74 90 76 91 77 92 78 93 79 94 56 95 57 96 65 97 58 98 60 99
REMARK SMILES IDX 66 100 59 101 61 102 62 103 63 104 64 105
REMARK H PARENT 22 6 11 15 95 33 95 34 27 39 86 58 54 69
REMARK Flexibility Score: inf
ROOT
ATOM      1  C   UNL     1      -8.787  -2.386   2.520  1.00  0.00     0.023 C 
ENDROOT
BRANCH   1   2
ATOM      2  C   UNL     1      -8.032  -2.953   1.317  1.00  0.00     0.116 C 
BRANCH   2   3
ATOM      3  N   UNL     1      -8.895  -3.051   0.178  1.00  0.00    -0.356 N 
ATOM      4  C   UNL     1      -9.183  -2.132  -0.763  1.00  0.00     0.224 C 
ATOM      5  O   UNL     1     -10.179  -2.354  -1.460  1.00  0.00    -0.275 OA
ATOM      6  H   UNL     1      -9.345  -3.920   0.068  1.00  0.00     0.163 HD
BRANCH   4   7
ATOM      7  C   UNL     1      -8.313  -0.915  -1.049  1.00  0.00     0.095 C 
ATOM      8  C   UNL     1      -8.294   0.334  -0.145  1.00  0.00     0.095 C 
ATOM      9  C   UNL     1      -7.950   1.548  -1.036  1.00  0.00     0.041 C 
ATOM     10  C   UNL     1      -6.952   1.243  -2.137  1.00  0.00    -0.030 C 
ATOM     11  C   UNL     1      -6.969  -1.226  -1.693  1.00  0.00     0.041 C 
ATOM     12  C   UNL     1      -6.471   0.012  -2.393  1.00  0.00    -0.030 C 
BRANCH   8  13
ATOM     13  C   UNL     1      -7.640   0.391   1.269  1.00  0.00     0.229 C 
ATOM     14  N   UNL     1      -6.373   0.060   1.656  1.00  0.00    -0.317 N 
ATOM     15  H   UNL     1      -6.319  -0.387   2.531  1.00  0.00     0.170 HD
ATOM     16  O   UNL     1      -8.375   0.729   2.215  1.00  0.00    -0.274 OA
BRANCH  14  17
ATOM     17  C   UNL     1      -5.155   0.244   1.034  1.00  0.00     0.109 A 
ATOM     18  C   UNL     1      -2.949   0.243   0.273  1.00  0.00     0.010 A 
ATOM     19  C   UNL     1      -3.583   1.116  -0.600  1.00  0.00     0.012 A 
ATOM     20  C   UNL     1      -3.876  -0.255   1.297  1.00  0.00     0.082 A 
ATOM     21  C   UNL     1      -3.172   1.703  -1.907  1.00  0.00     0.057 C 
ATOM     22  S   UNL     1      -4.985   1.693   0.160  1.00  0.00    -0.122 S 
BRANCH  18  23
ATOM     23  C   UNL     1      -1.503   0.065   0.168  1.00  0.00    -0.016 A 
ATOM     24  C   UNL     1       2.793  -0.193  -0.073  1.00  0.00     0.044 C 
ATOM     25  C   UNL     1       1.298  -0.102  -0.020  1.00  0.00    -0.051 A 
ATOM     26  C   UNL     1       0.503  -1.258  -0.094  1.00  0.00     0.004 A 
ATOM     27  C   UNL     1       0.681   1.137   0.150  1.00  0.00     0.004 A 
ATOM     28  C   UNL     1      -0.894  -1.177  -0.009  1.00  0.00     0.009 A 
ATOM     29  C   UNL     1      -0.702   1.215   0.258  1.00  0.00     0.009 A 
ENDBRANCH  18  23
BRANCH  20  30
ATOM     30  C   UNL     1      -3.470  -1.101   2.424  1.00  0.00     0.252 C 
ATOM     31  N   UNL     1      -4.454  -1.695   3.163  1.00  0.00    -0.365 N 
ATOM     32  O   UNL     1      -2.310  -1.276   2.760  1.00  0.00    -0.269 OA
ATOM     33  H   UNL     1      -5.399  -1.570   2.915  1.00  0.00     0.159 HD
ATOM     34  H   UNL     1      -4.218  -2.247   3.943  1.00  0.00     0.159 HD
ENDBRANCH  20  30
ENDBRANCH  14  17
ENDBRANCH   8  13
ENDBRANCH   4   7
ENDBRANCH   2   3
ENDBRANCH   1   2
BRANCH   1  35
ATOM     35  C   UNL     1      -9.966  -3.199   3.071  1.00  0.00     0.023 C 
BRANCH  35  36
ATOM     36  C   UNL     1      -9.607  -4.522   3.717  1.00  0.00     0.116 C 
BRANCH  36  37
ATOM     37  N   UNL     1      -8.706  -4.332   4.855  1.00  0.00    -0.352 N 
ATOM     38  C   UNL     1      -7.904  -5.253   5.500  1.00  0.00     0.251 C 
ATOM     39  H   UNL     1      -8.667  -3.416   5.212  1.00  0.00     0.163 HD
ATOM     40  O   UNL     1      -7.566  -5.044   6.659  1.00  0.00    -0.269 OA
BRANCH  38  41
ATOM     41  C   UNL     1      -7.373  -6.394   4.739  1.00  0.00     0.039 A 
ATOM     42  C   UNL     1      -6.893  -7.566   5.324  1.00  0.00     0.014 A 
ATOM     43  C   UNL     1      -7.194  -6.175   3.381  1.00  0.00     0.014 A 
ATOM     44  C   UNL     1      -6.127  -8.429   4.543  1.00  0.00     0.010 A 
ATOM     45  C   UNL     1      -6.729  -7.146   2.567  1.00  0.00     0.010 A 
ATOM     46  C   UNL     1      -5.993  -8.140   3.189  1.00  0.00    -0.014 A 
BRANCH  46  47
ATOM     47  C   UNL     1      -5.015  -8.688   2.279  1.00  0.00     0.031 A 
ATOM     48  C   UNL     1      -5.204 -10.036   1.782  1.00  0.00     0.074 A 
ATOM     49  C   UNL     1      -4.202  -7.766   1.710  1.00  0.00     0.049 A 
ATOM     50  N   UNL     1      -4.320 -10.664   1.103  1.00  0.00    -0.248 NA
ATOM     51  C   UNL     1      -6.415 -10.802   2.042  1.00  0.00     0.031 C 
ATOM     52  C   UNL     1      -3.562  -7.743   0.406  1.00  0.00     0.029 A 
ATOM     53  N   UNL     1      -3.795  -6.562   2.284  1.00  0.00    -0.354 N 
ATOM     54  C   UNL     1      -4.962 -11.745   0.547  1.00  0.00     0.074 A 
ATOM     55  C   UNL     1      -6.172 -11.894   1.315  1.00  0.00     0.031 C 
ATOM     56  C   UNL     1      -2.664  -6.735   0.381  1.00  0.00     0.029 A 
ATOM     57  C   UNL     1      -2.556  -6.225   1.740  1.00  0.00     0.049 A 
ATOM     58  H   UNL     1      -4.295  -6.042   2.954  1.00  0.00     0.167 HD
ATOM     59  C   UNL     1      -4.479 -12.220  -0.633  1.00  0.00     0.034 A 
ATOM     60  C   UNL     1      -1.460  -6.351   2.555  1.00  0.00     0.034 A 
ATOM     61  C   UNL     1      -3.246 -11.480  -1.003  1.00  0.00     0.049 A 
ATOM     62  C   UNL     1      -0.538  -7.481   2.117  1.00  0.00     0.074 A 
ATOM     63  C   UNL     1      -2.971 -10.457  -1.899  1.00  0.00     0.029 A 
ATOM     64  N   UNL     1      -2.159 -11.516  -0.135  1.00  0.00    -0.354 N 
ATOM     65  N   UNL     1      -0.784  -8.328   1.154  1.00  0.00    -0.248 NA
ATOM     66  C   UNL     1       0.718  -7.770   2.793  1.00  0.00     0.031 C 
ATOM     67  C   UNL     1      -1.719  -9.866  -1.534  1.00  0.00     0.029 A 
ATOM     68  C   UNL     1      -1.213 -10.545  -0.439  1.00  0.00     0.049 A 
ATOM     69  H   UNL     1      -2.070 -12.155   0.609  1.00  0.00     0.167 HD
ATOM     70  C   UNL     1       0.134  -9.347   1.170  1.00  0.00     0.074 A 
ATOM     71  C   UNL     1       1.073  -8.924   2.203  1.00  0.00     0.031 C 
ATOM     72  C   UNL     1       0.004 -10.467   0.378  1.00  0.00     0.034 A 
BRANCH  59  73
ATOM     73  C   UNL     1      -5.232 -13.127  -1.599  1.00  0.00     0.023 A 
ATOM     74  C   UNL     1      -4.683 -13.266  -2.892  1.00  0.00     0.012 A 
ATOM     75  C   UNL     1      -6.447 -13.825  -1.375  1.00  0.00     0.148 A 
ATOM     76  C   UNL     1      -5.318 -13.990  -3.909  1.00  0.00     0.002 A 
ATOM     77  C   UNL     1      -7.095 -14.532  -2.393  1.00  0.00     0.091 A 
ATOM     78  F   UNL     1      -6.992 -13.863  -0.163  1.00  0.00    -0.205 F 
ATOM     79  C   UNL     1      -6.533 -14.612  -3.666  1.00  0.00     0.022 A 
BRANCH  77  80
ATOM     80  S   UNL     1      -8.685 -15.355  -2.153  1.00  0.00     0.127 S 
ATOM     81  O   UNL     1      -9.509 -14.735  -3.193  1.00  0.00    -0.237 OA
ATOM     82  O   UNL     1      -8.353 -16.757  -2.398  1.00  0.00    -0.237 OA
ATOM     83  O   UNL     1      -9.114 -15.050  -0.793  1.00  0.00    -0.744 OA
ENDBRANCH  77  80
ENDBRANCH  59  73
BRANCH  60  84
ATOM     84  C   UNL     1      -1.812  -6.046   4.001  1.00  0.00     0.023 A 
ATOM     85  C   UNL     1      -2.411  -4.787   4.269  1.00  0.00     0.012 A 
ATOM     86  C   UNL     1      -2.017  -7.087   4.926  1.00  0.00     0.148 A 
ATOM     87  C   UNL     1      -3.374  -4.657   5.277  1.00  0.00     0.002 A 
ATOM     88  C   UNL     1      -2.953  -6.933   5.950  1.00  0.00     0.091 A 
ATOM     89  F   UNL     1      -1.347  -8.236   4.774  1.00  0.00    -0.205 F 
ATOM     90  C   UNL     1      -3.684  -5.746   6.082  1.00  0.00     0.022 A 
BRANCH  88  91
ATOM     91  S   UNL     1      -3.299  -8.293   7.071  1.00  0.00     0.127 S 
ATOM     92  O   UNL     1      -2.193  -8.182   8.019  1.00  0.00    -0.237 OA
ATOM     93  O   UNL     1      -4.609  -7.952   7.628  1.00  0.00    -0.237 OA
ATOM     94  O   UNL     1      -3.309  -9.473   6.218  1.00  0.00    -0.744 OA
ENDBRANCH  88  91
ENDBRANCH  60  84
BRANCH  72  95
ATOM     95  C   UNL     1       0.966 -11.659   0.350  1.00  0.00     0.023 A 
ATOM     96  C   UNL     1       2.254 -11.609   0.907  1.00  0.00     0.012 A 
ATOM     97  C   UNL     1       0.628 -12.886  -0.291  1.00  0.00     0.148 A 
ATOM     98  C   UNL     1       3.083 -12.736   0.986  1.00  0.00     0.002 A 
ATOM     99  C   UNL     1       1.443 -14.009  -0.208  1.00  0.00     0.091 A 
ATOM    100  F   UNL     1      -0.453 -12.965  -1.073  1.00  0.00    -0.205 F 
ATOM    101  C   UNL     1       2.663 -13.946   0.458  1.00  0.00     0.022 A 
BRANCH  99 102
ATOM    102  S   UNL     1       0.984 -15.580  -0.954  1.00  0.00     0.127 S 
ATOM    103  O   UNL     1       1.916 -15.652  -2.079  1.00  0.00    -0.237 OA
ATOM    104  O   UNL     1       1.262 -16.522   0.130  1.00  0.00    -0.237 OA
ATOM    105  O   UNL     1      -0.423 -15.467  -1.312  1.00  0.00    -0.744 OA
ENDBRANCH  99 102
ENDBRANCH  72  95
ENDBRANCH  46  47
ENDBRANCH  38  41
ENDBRANCH  36  37
ENDBRANCH  35  36
ENDBRANCH   1  35
TORSDOF 18
