REMARK SMILES Cc1cc(N2CC[C@H](CC(=O)NCCCCNC(=O)c3ccc(-c4c5nc(c(-c6cccc(S(=O)(=O)[O-])c6F)c6ccc([nH]6)c(-c6cccc(S(=O)(=O)[O-])c6F)c6nc(c(-c7cccc(S(=O)(=O)[O-])c7F)c7ccc4[nH]7)C=C6)C=C5)cc3)C2)ncc1[N+](=O)[O-]
REMARK SMILES IDX 14 1 13 2 12 3 10 4 11 5 9 7 8 8 5 9 6 10 83 11 7 12 4 13
REMARK SMILES IDX 1 14 2 15 3 16 86 17 85 18 84 19 87 20 88 21 89 22 15 23
REMARK SMILES IDX 16 24 17 25 18 26 19 28 20 29 21 30 82 31 22 32 81 33 23 34
REMARK SMILES IDX 24 35 25 36 75 37 26 38 80 39 74 40 76 41 27 42 79 43 73 44
REMARK SMILES IDX 72 45 28 47 60 48 40 49 59 50 41 51 44 52 58 53 77 54 42 55
REMARK SMILES IDX 43 56 57 58 78 59 45 60 29 61 30 62 38 63 31 64 33 65 39 66
REMARK SMILES IDX 32 67 34 68 35 69 36 70 37 71 61 72 62 73 70 74 63 75 65 76
REMARK SMILES IDX 71 77 64 78 66 79 67 80 68 81 69 82 46 83 47 84 55 85 48 86
REMARK SMILES IDX 50 87 56 88 49 89 51 90 52 91 53 92 54 93
REMARK H PARENT 12 6 17 27 76 46 44 57
REMARK Flexibility Score: inf
ROOT
ATOM      1  C   UNL     1       6.136   3.955  -1.190  1.00  0.00     0.023 C 
ENDROOT
BRANCH   1   2
ATOM      2  C   UNL     1       6.280   4.107   0.325  1.00  0.00     0.116 C 
BRANCH   2   3
ATOM      3  N   UNL     1       5.736   5.377   0.774  1.00  0.00    -0.356 N 
ATOM      4  C   UNL     1       4.537   5.660   1.356  1.00  0.00     0.220 C 
ATOM      5  O   UNL     1       4.238   6.838   1.559  1.00  0.00    -0.275 OA
ATOM      6  H   UNL     1       6.326   6.153   0.636  1.00  0.00     0.163 HD
BRANCH   4   7
ATOM      7  C   UNL     1       3.590   4.547   1.757  1.00  0.00     0.105 C 
BRANCH   7   8
ATOM      8  C   UNL     1       2.485   4.292   0.731  1.00  0.00     0.019 C 
ATOM      9  N   UNL     1       0.918   2.672   0.015  1.00  0.00    -0.356 N 
ATOM     10  C   UNL     1       1.758   2.950  -1.141  1.00  0.00     0.118 C 
ATOM     11  C   UNL     1       1.464   3.265   1.233  1.00  0.00     0.122 C 
ATOM     12  C   UNL     1       2.971   3.651  -0.562  1.00  0.00     0.027 C 
BRANCH   9  13
ATOM     13  C   UNL     1       0.447   1.376   0.113  1.00  0.00     0.129 A 
ATOM     14  C   UNL     1      -2.966  -0.222   0.059  1.00  0.00     0.052 C 
ATOM     15  C   UNL     1      -1.472  -0.116   0.112  1.00  0.00     0.032 A 
ATOM     16  C   UNL     1      -0.930   1.178   0.122  1.00  0.00     0.057 A 
ATOM     17  C   UNL     1      -0.565  -1.182   0.146  1.00  0.00     0.290 A 
ATOM     18  C   UNL     1       0.798  -0.910   0.147  1.00  0.00     0.199 A 
ATOM     19  N   UNL     1       1.315   0.343   0.129  1.00  0.00    -0.232 NA
BRANCH  17  20
ATOM     20  N   UNL     1      -0.964  -2.579   0.185  1.00  0.00     0.064 N 
ATOM     21  O   UNL     1      -0.241  -3.395  -0.404  1.00  0.00    -0.258 OA
ATOM     22  O   UNL     1      -1.980  -2.876   0.828  1.00  0.00    -0.258 OA
ENDBRANCH  17  20
ENDBRANCH   9  13
ENDBRANCH   7   8
ENDBRANCH   4   7
ENDBRANCH   2   3
ENDBRANCH   1   2
BRANCH   1  23
ATOM     23  C   UNL     1       7.319   4.440  -2.009  1.00  0.00     0.023 C 
BRANCH  23  24
ATOM     24  C   UNL     1       8.587   3.630  -1.822  1.00  0.00     0.116 C 
BRANCH  24  25
ATOM     25  N   UNL     1       8.448   2.223  -2.179  1.00  0.00    -0.352 N 
ATOM     26  C   UNL     1       9.344   1.427  -2.865  1.00  0.00     0.251 C 
ATOM     27  H   UNL     1       7.612   1.786  -1.897  1.00  0.00     0.163 HD
ATOM     28  O   UNL     1       9.065   0.279  -3.163  1.00  0.00    -0.269 OA
BRANCH  26  29
ATOM     29  C   UNL     1      10.636   2.025  -3.267  1.00  0.00     0.039 A 
ATOM     30  C   UNL     1      11.029   1.957  -4.605  1.00  0.00     0.014 A 
ATOM     31  C   UNL     1      11.382   2.754  -2.340  1.00  0.00     0.014 A 
ATOM     32  C   UNL     1      12.132   2.700  -5.031  1.00  0.00     0.010 A 
ATOM     33  C   UNL     1      12.404   3.577  -2.788  1.00  0.00     0.010 A 
ATOM     34  C   UNL     1      12.797   3.552  -4.134  1.00  0.00    -0.014 A 
BRANCH  34  35
ATOM     35  C   UNL     1      13.922   4.420  -4.562  1.00  0.00     0.031 A 
ATOM     36  C   UNL     1      15.269   4.260  -3.909  1.00  0.00     0.074 A 
ATOM     37  C   UNL     1      13.710   5.419  -5.442  1.00  0.00     0.049 A 
ATOM     38  N   UNL     1      16.347   4.984  -4.050  1.00  0.00    -0.248 NA
ATOM     39  C   UNL     1      15.406   3.166  -2.931  1.00  0.00     0.031 C 
ATOM     40  C   UNL     1      12.428   5.736  -6.076  1.00  0.00     0.029 A 
ATOM     41  N   UNL     1      14.566   6.370  -5.937  1.00  0.00    -0.354 N 
ATOM     42  C   UNL     1      17.267   4.469  -3.144  1.00  0.00     0.074 A 
ATOM     43  C   UNL     1      16.604   3.406  -2.423  1.00  0.00     0.031 C 
ATOM     44  C   UNL     1      12.588   6.792  -6.890  1.00  0.00     0.029 A 
ATOM     45  C   UNL     1      13.973   7.246  -6.816  1.00  0.00     0.049 A 
ATOM     46  H   UNL     1      15.517   6.421  -5.686  1.00  0.00     0.167 HD
ATOM     47  C   UNL     1      18.562   4.815  -2.959  1.00  0.00     0.034 A 
ATOM     48  C   UNL     1      14.491   8.292  -7.490  1.00  0.00     0.034 A 
ATOM     49  C   UNL     1      19.238   5.817  -3.734  1.00  0.00     0.049 A 
ATOM     50  C   UNL     1      15.953   8.611  -7.323  1.00  0.00     0.074 A 
ATOM     51  C   UNL     1      20.572   6.178  -3.700  1.00  0.00     0.029 A 
ATOM     52  N   UNL     1      18.630   6.611  -4.695  1.00  0.00    -0.354 N 
ATOM     53  N   UNL     1      16.847   8.014  -6.573  1.00  0.00    -0.248 NA
ATOM     54  C   UNL     1      16.485   9.725  -8.121  1.00  0.00     0.031 C 
ATOM     55  C   UNL     1      20.770   7.194  -4.642  1.00  0.00     0.029 A 
ATOM     56  C   UNL     1      19.561   7.458  -5.266  1.00  0.00     0.049 A 
ATOM     57  H   UNL     1      17.676   6.576  -4.935  1.00  0.00     0.167 HD
ATOM     58  C   UNL     1      18.054   8.651  -6.837  1.00  0.00     0.074 A 
ATOM     59  C   UNL     1      17.778   9.672  -7.828  1.00  0.00     0.031 C 
ATOM     60  C   UNL     1      19.277   8.424  -6.298  1.00  0.00     0.034 A 
BRANCH  47  61
ATOM     61  C   UNL     1      19.341   4.043  -1.927  1.00  0.00     0.023 A 
ATOM     62  C   UNL     1      19.674   2.696  -2.179  1.00  0.00     0.012 A 
ATOM     63  C   UNL     1      19.752   4.642  -0.721  1.00  0.00     0.148 A 
ATOM     64  C   UNL     1      20.360   1.942  -1.228  1.00  0.00     0.002 A 
ATOM     65  C   UNL     1      20.477   3.896   0.203  1.00  0.00     0.091 A 
ATOM     66  F   UNL     1      19.404   5.914  -0.483  1.00  0.00    -0.205 F 
ATOM     67  C   UNL     1      20.769   2.544  -0.042  1.00  0.00     0.022 A 
BRANCH  65  68
ATOM     68  S   UNL     1      21.112   4.611   1.724  1.00  0.00     0.127 S 
ATOM     69  O   UNL     1      20.149   4.117   2.707  1.00  0.00    -0.237 OA
ATOM     70  O   UNL     1      22.443   4.009   1.820  1.00  0.00    -0.237 OA
ATOM     71  O   UNL     1      21.118   6.051   1.510  1.00  0.00    -0.744 OA
ENDBRANCH  65  68
ENDBRANCH  47  61
BRANCH  48  72
ATOM     72  C   UNL     1      13.648   9.039  -8.466  1.00  0.00     0.023 A 
ATOM     73  C   UNL     1      13.883   8.861  -9.844  1.00  0.00     0.012 A 
ATOM     74  C   UNL     1      12.597   9.879  -8.052  1.00  0.00     0.148 A 
ATOM     75  C   UNL     1      13.105   9.526 -10.792  1.00  0.00     0.002 A 
ATOM     76  C   UNL     1      11.794  10.501  -9.003  1.00  0.00     0.091 A 
ATOM     77  F   UNL     1      12.394  10.042  -6.737  1.00  0.00    -0.205 F 
ATOM     78  C   UNL     1      12.056  10.337 -10.373  1.00  0.00     0.022 A 
BRANCH  76  79
ATOM     79  S   UNL     1      10.343  11.465  -8.562  1.00  0.00     0.127 S 
ATOM     80  O   UNL     1      10.771  12.820  -8.899  1.00  0.00    -0.237 OA
ATOM     81  O   UNL     1       9.325  10.901  -9.449  1.00  0.00    -0.237 OA
ATOM     82  O   UNL     1      10.115  11.206  -7.147  1.00  0.00    -0.744 OA
ENDBRANCH  76  79
ENDBRANCH  48  72
BRANCH  60  83
ATOM     83  C   UNL     1      20.425   9.265  -6.787  1.00  0.00     0.023 A 
ATOM     84  C   UNL     1      20.536  10.604  -6.364  1.00  0.00     0.012 A 
ATOM     85  C   UNL     1      21.438   8.702  -7.587  1.00  0.00     0.148 A 
ATOM     86  C   UNL     1      21.630  11.378  -6.751  1.00  0.00     0.002 A 
ATOM     87  C   UNL     1      22.547   9.467  -7.931  1.00  0.00     0.091 A 
ATOM     88  F   UNL     1      21.301   7.432  -7.995  1.00  0.00    -0.205 F 
ATOM     89  C   UNL     1      22.640  10.807  -7.522  1.00  0.00     0.022 A 
BRANCH  87  90
ATOM     90  S   UNL     1      23.937   8.782  -8.839  1.00  0.00     0.127 S 
ATOM     91  O   UNL     1      23.733   9.351 -10.171  1.00  0.00    -0.237 OA
ATOM     92  O   UNL     1      25.085   9.328  -8.113  1.00  0.00    -0.237 OA
ATOM     93  O   UNL     1      23.800   7.335  -8.746  1.00  0.00    -0.744 OA
ENDBRANCH  87  90
ENDBRANCH  60  83
ENDBRANCH  34  35
ENDBRANCH  26  29
ENDBRANCH  24  25
ENDBRANCH  23  24
ENDBRANCH   1  23
TORSDOF 17
