REMARK SMILES C[C@@H]1[C@@H](C(=O)NCCCCNC(=O)c2ccc(-c3c4nc(c(-c5cccc(S(=O)(=O)[O-])c5F)c5ccc([nH]5)c(-c5cccc(S(=O)(=O)[O-])c5F)c5nc(c(-c6cccc(S(=O)(=O)[O-])c6F)c6ccc3[nH]6)C=C5)C=C4)cc2)CCN1C(=O)CN1C(=O)CNC1=O
REMARK SMILES IDX 8 1 7 2 6 3 4 4 5 5 3 7 1 8 2 9 79 10 77 11 78 12 80 13
REMARK SMILES IDX 81 14 82 15 83 16 84 17 88 18 85 19 86 20 87 21 89 22 9 24
REMARK SMILES IDX 10 25 11 26 12 27 13 29 14 30 15 31 76 32 16 33 75 34 17 35
REMARK SMILES IDX 18 36 19 37 69 38 20 39 74 40 68 41 70 42 21 43 73 44 67 45
REMARK SMILES IDX 66 46 22 48 54 49 34 50 53 51 35 52 38 53 52 54 71 55 36 56
REMARK SMILES IDX 37 57 51 59 72 60 39 61 23 62 24 63 32 64 25 65 27 66 33 67
REMARK SMILES IDX 26 68 28 69 29 70 30 71 31 72 55 73 56 74 64 75 57 76 59 77
REMARK SMILES IDX 65 78 58 79 60 80 61 81 62 82 63 83 40 84 41 85 49 86 42 87
REMARK SMILES IDX 44 88 50 89 43 90 45 91 46 92 47 93 48 94
REMARK H PARENT 6 6 87 23 11 28 70 47 38 58
REMARK Flexibility Score: inf
ROOT
ATOM      1  C   UNL     1      -2.856   4.404  -1.080  1.00  0.00     0.023 C 
ENDROOT
BRANCH   1   2
ATOM      2  C   UNL     1      -2.450   2.989  -0.679  1.00  0.00     0.116 C 
BRANCH   2   3
ATOM      3  N   UNL     1      -1.527   2.393  -1.620  1.00  0.00    -0.356 N 
ATOM      4  C   UNL     1      -0.420   1.635  -1.396  1.00  0.00     0.225 C 
ATOM      5  O   UNL     1       0.385   1.547  -2.329  1.00  0.00    -0.275 OA
ATOM      6  H   UNL     1      -1.732   2.561  -2.568  1.00  0.00     0.163 HD
BRANCH   4   7
ATOM      7  C   UNL     1      -0.088   1.088  -0.005  1.00  0.00     0.102 C 
ATOM      8  C   UNL     1       1.940  -0.057   1.000  1.00  0.00     0.032 C 
ATOM      9  C   UNL     1       0.898  -0.104  -0.119  1.00  0.00     0.094 C 
ATOM     10  N   UNL     1       0.050  -1.305  -0.005  1.00  0.00    -0.338 N 
ATOM     11  C   UNL     1      -1.216   0.487   0.841  1.00  0.00     0.037 C 
ATOM     12  C   UNL     1      -1.288  -0.965   0.420  1.00  0.00     0.121 C 
BRANCH  10  13
ATOM     13  C   UNL     1       0.273  -2.575  -0.516  1.00  0.00     0.243 C 
ATOM     14  O   UNL     1      -0.571  -3.471  -0.430  1.00  0.00    -0.273 OA
BRANCH  13  15
ATOM     15  C   UNL     1       1.578  -2.816  -1.262  1.00  0.00     0.230 C 
BRANCH  15  16
ATOM     16  N   UNL     1       1.535  -2.599  -2.694  1.00  0.00    -0.253 N 
ATOM     17  C   UNL     1       2.524  -3.043  -3.527  1.00  0.00     0.250 C 
ATOM     18  C   UNL     1       0.737  -1.711  -3.352  1.00  0.00     0.325 C 
ATOM     19  O   UNL     1       3.423  -3.821  -3.237  1.00  0.00    -0.272 OA
ATOM     20  C   UNL     1       2.370  -2.364  -4.878  1.00  0.00     0.218 C 
ATOM     21  N   UNL     1       1.228  -1.542  -4.625  1.00  0.00    -0.329 N 
ATOM     22  O   UNL     1      -0.259  -1.147  -2.942  1.00  0.00    -0.248 OA
ATOM     23  H   UNL     1       0.839  -0.925  -5.287  1.00  0.00     0.165 HD
ENDBRANCH  15  16
ENDBRANCH  13  15
ENDBRANCH  10  13
ENDBRANCH   4   7
ENDBRANCH   2   3
ENDBRANCH   1   2
BRANCH   1  24
ATOM     24  C   UNL     1      -3.673   4.515  -2.368  1.00  0.00     0.023 C 
BRANCH  24  25
ATOM     25  C   UNL     1      -4.942   3.670  -2.421  1.00  0.00     0.116 C 
BRANCH  25  26
ATOM     26  N   UNL     1      -5.864   3.963  -1.332  1.00  0.00    -0.352 N 
ATOM     27  C   UNL     1      -7.160   4.419  -1.370  1.00  0.00     0.251 C 
ATOM     28  H   UNL     1      -5.504   3.809  -0.429  1.00  0.00     0.163 HD
ATOM     29  O   UNL     1      -7.719   4.745  -0.325  1.00  0.00    -0.269 OA
BRANCH  27  30
ATOM     30  C   UNL     1      -7.872   4.544  -2.661  1.00  0.00     0.039 A 
ATOM     31  C   UNL     1      -8.621   5.697  -2.914  1.00  0.00     0.014 A 
ATOM     32  C   UNL     1      -7.806   3.531  -3.619  1.00  0.00     0.014 A 
ATOM     33  C   UNL     1      -9.240   5.865  -4.156  1.00  0.00     0.010 A 
ATOM     34  C   UNL     1      -8.350   3.737  -4.883  1.00  0.00     0.010 A 
ATOM     35  C   UNL     1      -9.079   4.902  -5.165  1.00  0.00    -0.014 A 
BRANCH  35  36
ATOM     36  C   UNL     1      -9.661   5.089  -6.521  1.00  0.00     0.031 A 
ATOM     37  C   UNL     1     -10.677   4.110  -7.048  1.00  0.00     0.074 A 
ATOM     38  C   UNL     1      -9.207   6.079  -7.315  1.00  0.00     0.049 A 
ATOM     39  N   UNL     1     -11.237   4.058  -8.229  1.00  0.00    -0.248 NA
ATOM     40  C   UNL     1     -11.095   3.029  -6.140  1.00  0.00     0.031 C 
ATOM     41  C   UNL     1      -8.167   7.045  -6.954  1.00  0.00     0.029 A 
ATOM     42  N   UNL     1      -9.541   6.419  -8.602  1.00  0.00    -0.354 N 
ATOM     43  C   UNL     1     -12.036   2.920  -8.221  1.00  0.00     0.074 A 
ATOM     44  C   UNL     1     -11.860   2.291  -6.931  1.00  0.00     0.031 C 
ATOM     45  C   UNL     1      -7.953   7.870  -7.991  1.00  0.00     0.029 A 
ATOM     46  C   UNL     1      -8.815   7.477  -9.101  1.00  0.00     0.049 A 
ATOM     47  H   UNL     1     -10.234   5.951  -9.121  1.00  0.00     0.167 HD
ATOM     48  C   UNL     1     -12.867   2.456  -9.185  1.00  0.00     0.034 A 
ATOM     49  C   UNL     1      -8.838   8.061 -10.315  1.00  0.00     0.034 A 
ATOM     50  C   UNL     1     -13.080   3.111 -10.447  1.00  0.00     0.049 A 
ATOM     51  C   UNL     1      -9.809   7.560 -11.350  1.00  0.00     0.074 A 
ATOM     52  C   UNL     1     -13.964   2.771 -11.455  1.00  0.00     0.029 A 
ATOM     53  N   UNL     1     -12.400   4.241 -10.876  1.00  0.00    -0.354 N 
ATOM     54  N   UNL     1     -10.669   6.574 -11.266  1.00  0.00    -0.248 NA
ATOM     55  C   UNL     1      -9.841   8.275 -12.634  1.00  0.00     0.031 C 
ATOM     56  C   UNL     1     -13.807   3.686 -12.501  1.00  0.00     0.029 A 
ATOM     57  C   UNL     1     -12.843   4.612 -12.133  1.00  0.00     0.049 A 
ATOM     58  H   UNL     1     -11.705   4.711 -10.361  1.00  0.00     0.167 HD
ATOM     59  C   UNL     1     -11.374   6.579 -12.465  1.00  0.00     0.074 A 
ATOM     60  C   UNL     1     -10.849   7.676 -13.252  1.00  0.00     0.031 C 
ATOM     61  C   UNL     1     -12.357   5.743 -12.881  1.00  0.00     0.034 A 
BRANCH  48  62
ATOM     62  C   UNL     1     -13.653   1.205  -8.886  1.00  0.00     0.023 A 
ATOM     63  C   UNL     1     -14.697   1.251  -7.939  1.00  0.00     0.012 A 
ATOM     64  C   UNL     1     -13.395   0.002  -9.571  1.00  0.00     0.148 A 
ATOM     65  C   UNL     1     -15.443   0.110  -7.646  1.00  0.00     0.002 A 
ATOM     66  C   UNL     1     -14.175  -1.119  -9.308  1.00  0.00     0.091 A 
ATOM     67  F   UNL     1     -12.386  -0.030 -10.453  1.00  0.00    -0.205 F 
ATOM     68  C   UNL     1     -15.189  -1.071  -8.337  1.00  0.00     0.022 A 
BRANCH  66  69
ATOM     69  S   UNL     1     -13.982  -2.664 -10.205  1.00  0.00     0.127 S 
ATOM     70  O   UNL     1     -13.366  -3.519  -9.191  1.00  0.00    -0.237 OA
ATOM     71  O   UNL     1     -15.367  -3.007 -10.531  1.00  0.00    -0.237 OA
ATOM     72  O   UNL     1     -13.146  -2.357 -11.357  1.00  0.00    -0.744 OA
ENDBRANCH  66  69
ENDBRANCH  48  62
BRANCH  49  73
ATOM     73  C   UNL     1      -7.969   9.241 -10.590  1.00  0.00     0.023 A 
ATOM     74  C   UNL     1      -8.559  10.514 -10.723  1.00  0.00     0.012 A 
ATOM     75  C   UNL     1      -6.570   9.119 -10.693  1.00  0.00     0.148 A 
ATOM     76  C   UNL     1      -7.776  11.638 -10.985  1.00  0.00     0.002 A 
ATOM     77  C   UNL     1      -5.790  10.251 -10.901  1.00  0.00     0.091 A 
ATOM     78  F   UNL     1      -6.029   7.898 -10.574  1.00  0.00    -0.205 F 
ATOM     79  C   UNL     1      -6.392  11.509 -11.065  1.00  0.00     0.022 A 
BRANCH  77  80
ATOM     80  S   UNL     1      -3.995  10.201 -10.889  1.00  0.00     0.127 S 
ATOM     81  O   UNL     1      -3.679  10.450 -12.293  1.00  0.00    -0.237 OA
ATOM     82  O   UNL     1      -3.668  11.300  -9.980  1.00  0.00    -0.237 OA
ATOM     83  O   UNL     1      -3.641   8.881 -10.385  1.00  0.00    -0.744 OA
ENDBRANCH  77  80
ENDBRANCH  49  73
BRANCH  61  84
ATOM     84  C   UNL     1     -12.975   6.003 -14.229  1.00  0.00     0.023 A 
ATOM     85  C   UNL     1     -12.251   5.717 -15.403  1.00  0.00     0.012 A 
ATOM     86  C   UNL     1     -14.305   6.458 -14.331  1.00  0.00     0.148 A 
ATOM     87  C   UNL     1     -12.829   5.911 -16.657  1.00  0.00     0.002 A 
ATOM     88  C   UNL     1     -14.892   6.601 -15.582  1.00  0.00     0.091 A 
ATOM     89  F   UNL     1     -14.971   6.744 -13.203  1.00  0.00    -0.205 F 
ATOM     90  C   UNL     1     -14.152   6.340 -16.747  1.00  0.00     0.022 A 
BRANCH  88  91
ATOM     91  S   UNL     1     -16.618   7.053 -15.788  1.00  0.00     0.127 S 
ATOM     92  O   UNL     1     -16.511   8.439 -16.241  1.00  0.00    -0.237 OA
ATOM     93  O   UNL     1     -17.068   6.110 -16.812  1.00  0.00    -0.237 OA
ATOM     94  O   UNL     1     -17.238   6.866 -14.483  1.00  0.00    -0.744 OA
ENDBRANCH  88  91
ENDBRANCH  61  84
ENDBRANCH  35  36
ENDBRANCH  27  30
ENDBRANCH  25  26
ENDBRANCH  24  25
ENDBRANCH   1  24
TORSDOF 17
