REMARK SMILES CSc1ccc(/C=C2\C(C)=C(CC(=O)NCCCCNC(=O)c3ccc(-c4c5nc(c(-c6cccc(S(=O)(=O)[O-])c6F)c6ccc([nH]6)c(-c6cccc(S(=O)(=O)[O-])c6F)c6nc(c(-c7cccc(S(=O)(=O)[O-])c7F)c7ccc4[nH]7)C=C6)C=C5)cc3)c3cc(F)ccc32)cc1
REMARK SMILES IDX 17 1 16 2 15 3 13 4 14 5 12 7 11 8 7 9 8 10 9 11 92 12 10 13
REMARK SMILES IDX 86 14 91 15 87 16 90 17 88 18 89 19 6 20 3 21 4 22 94 23
REMARK SMILES IDX 5 24 93 25 2 26 1 27 18 28 19 29 20 30 21 31 22 33 23 34
REMARK SMILES IDX 24 35 85 36 25 37 84 38 26 39 27 40 28 41 78 42 29 43 83 44
REMARK SMILES IDX 77 45 79 46 30 47 82 48 76 49 75 50 31 52 63 53 43 54 62 55
REMARK SMILES IDX 44 56 47 57 61 58 80 59 45 60 46 61 60 63 81 64 48 65 32 66
REMARK SMILES IDX 33 67 41 68 34 69 36 70 42 71 35 72 37 73 38 74 39 75 40 76
REMARK SMILES IDX 64 77 65 78 73 79 66 80 68 81 74 82 67 83 69 84 70 85 71 86
REMARK SMILES IDX 72 87 49 88 50 89 58 90 51 91 53 92 59 93 52 94 54 95 55 96
REMARK SMILES IDX 56 97 57 98
REMARK H PARENT 15 6 20 32 79 51 47 62
REMARK Flexibility Score: inf
ROOT
ATOM      1  C   UNL     1      -1.742  -8.198   4.112  1.00  0.00     0.023 C 
ENDROOT
BRANCH   1   2
ATOM      2  C   UNL     1      -0.535  -9.132   4.162  1.00  0.00     0.116 C 
BRANCH   2   3
ATOM      3  N   UNL     1      -0.783 -10.368   3.451  1.00  0.00    -0.356 N 
ATOM      4  C   UNL     1      -0.601 -10.611   2.118  1.00  0.00     0.224 C 
ATOM      5  O   UNL     1      -0.940 -11.700   1.653  1.00  0.00    -0.275 OA
ATOM      6  H   UNL     1      -1.122 -11.119   3.989  1.00  0.00     0.163 HD
BRANCH   4   7
ATOM      7  C   UNL     1       0.025  -9.538   1.245  1.00  0.00     0.136 C 
BRANCH   7   8
ATOM      8  C   UNL     1      -1.004  -8.493   0.865  1.00  0.00    -0.027 C 
ATOM      9  C   UNL     1       0.936  -5.778  -0.020  1.00  0.00     0.017 C 
ATOM     10  C   UNL     1      -0.070  -6.665  -0.023  1.00  0.00    -0.014 C 
ATOM     11  C   UNL     1      -0.834  -7.166   1.135  1.00  0.00    -0.039 C 
ATOM     12  C   UNL     1      -0.664  -7.378  -1.173  1.00  0.00    -0.010 A 
ATOM     13  C   UNL     1      -2.108  -6.304   1.298  1.00  0.00     0.045 C 
ATOM     14  C   UNL     1      -1.327  -8.473  -0.579  1.00  0.00    -0.011 A 
ATOM     15  C   UNL     1      -1.079  -6.875  -2.394  1.00  0.00     0.012 A 
ATOM     16  C   UNL     1      -2.424  -9.080  -1.164  1.00  0.00     0.048 A 
ATOM     17  C   UNL     1      -2.204  -7.468  -2.984  1.00  0.00     0.040 A 
ATOM     18  C   UNL     1      -2.865  -8.544  -2.365  1.00  0.00     0.123 A 
ATOM     19  F   UNL     1      -4.016  -8.987  -2.891  1.00  0.00    -0.207 F 
BRANCH   9  20
ATOM     20  C   UNL     1       1.368  -4.849   1.058  1.00  0.00    -0.025 A 
ATOM     21  C   UNL     1       1.690  -2.316   2.199  1.00  0.00     0.007 A 
ATOM     22  C   UNL     1       0.622  -3.110   2.591  1.00  0.00     0.015 A 
ATOM     23  C   UNL     1       2.721  -2.876   1.444  1.00  0.00     0.015 A 
ATOM     24  C   UNL     1       0.488  -4.385   2.044  1.00  0.00     0.009 A 
ATOM     25  C   UNL     1       2.559  -4.139   0.870  1.00  0.00     0.009 A 
BRANCH  21  26
ATOM     26  S   UNL     1       1.574  -0.548   2.383  1.00  0.00    -0.130 SA
ATOM     27  C   UNL     1       1.244  -0.172   0.629  1.00  0.00     0.091 C 
ENDBRANCH  21  26
ENDBRANCH   9  20
ENDBRANCH   7   8
ENDBRANCH   4   7
ENDBRANCH   2   3
ENDBRANCH   1   2
BRANCH   1  28
ATOM     28  C   UNL     1      -2.937  -8.577   4.968  1.00  0.00     0.023 C 
BRANCH  28  29
ATOM     29  C   UNL     1      -2.592  -8.889   6.404  1.00  0.00     0.116 C 
BRANCH  29  30
ATOM     30  N   UNL     1      -1.778  -7.864   7.040  1.00  0.00    -0.352 N 
ATOM     31  C   UNL     1      -1.711  -7.567   8.382  1.00  0.00     0.251 C 
ATOM     32  H   UNL     1      -1.212  -7.322   6.443  1.00  0.00     0.163 HD
ATOM     33  O   UNL     1      -1.046  -6.633   8.789  1.00  0.00    -0.269 OA
BRANCH  31  34
ATOM     34  C   UNL     1      -2.518  -8.395   9.300  1.00  0.00     0.039 A 
ATOM     35  C   UNL     1      -3.415  -7.762  10.159  1.00  0.00     0.014 A 
ATOM     36  C   UNL     1      -2.458  -9.788   9.219  1.00  0.00     0.014 A 
ATOM     37  C   UNL     1      -4.293  -8.538  10.913  1.00  0.00     0.010 A 
ATOM     38  C   UNL     1      -3.401 -10.550   9.887  1.00  0.00     0.010 A 
ATOM     39  C   UNL     1      -4.306  -9.935  10.763  1.00  0.00    -0.014 A 
BRANCH  39  40
ATOM     40  C   UNL     1      -5.221 -10.784  11.559  1.00  0.00     0.031 A 
ATOM     41  C   UNL     1      -4.642 -11.780  12.527  1.00  0.00     0.074 A 
ATOM     42  C   UNL     1      -6.550 -10.715  11.356  1.00  0.00     0.049 A 
ATOM     43  N   UNL     1      -5.259 -12.646  13.285  1.00  0.00    -0.248 NA
ATOM     44  C   UNL     1      -3.172 -11.837  12.628  1.00  0.00     0.031 C 
ATOM     45  C   UNL     1      -7.216  -9.853  10.376  1.00  0.00     0.029 A 
ATOM     46  N   UNL     1      -7.578 -11.398  11.952  1.00  0.00    -0.354 N 
ATOM     47  C   UNL     1      -4.258 -13.374  13.917  1.00  0.00     0.074 A 
ATOM     48  C   UNL     1      -2.994 -12.886  13.415  1.00  0.00     0.031 C 
ATOM     49  C   UNL     1      -8.543 -10.048  10.452  1.00  0.00     0.029 A 
ATOM     50  C   UNL     1      -8.820 -11.058  11.468  1.00  0.00     0.049 A 
ATOM     51  H   UNL     1      -7.441 -12.068  12.659  1.00  0.00     0.167 HD
ATOM     52  C   UNL     1      -4.376 -14.331  14.865  1.00  0.00     0.034 A 
ATOM     53  C   UNL     1     -10.041 -11.505  11.819  1.00  0.00     0.034 A 
ATOM     54  C   UNL     1      -5.634 -14.761  15.406  1.00  0.00     0.049 A 
ATOM     55  C   UNL     1     -10.148 -12.510  12.935  1.00  0.00     0.074 A 
ATOM     56  C   UNL     1      -5.871 -15.663  16.427  1.00  0.00     0.029 A 
ATOM     57  N   UNL     1      -6.871 -14.309  14.974  1.00  0.00    -0.354 N 
ATOM     58  N   UNL     1      -9.192 -13.075  13.632  1.00  0.00    -0.248 NA
ATOM     59  C   UNL     1     -11.503 -12.904  13.345  1.00  0.00     0.031 C 
ATOM     60  C   UNL     1      -7.255 -15.758  16.609  1.00  0.00     0.029 A 
ATOM     61  C   UNL     1      -7.877 -14.904  15.713  1.00  0.00     0.049 A 
ATOM     62  H   UNL     1      -7.013 -13.659  14.248  1.00  0.00     0.167 HD
ATOM     63  C   UNL     1      -9.828 -13.854  14.592  1.00  0.00     0.074 A 
ATOM     64  C   UNL     1     -11.252 -13.674  14.395  1.00  0.00     0.031 C 
ATOM     65  C   UNL     1      -9.286 -14.655  15.542  1.00  0.00     0.034 A 
BRANCH  52  66
ATOM     66  C   UNL     1      -3.105 -14.918  15.421  1.00  0.00     0.023 A 
ATOM     67  C   UNL     1      -2.275 -14.124  16.240  1.00  0.00     0.012 A 
ATOM     68  C   UNL     1      -2.741 -16.252  15.158  1.00  0.00     0.148 A 
ATOM     69  C   UNL     1      -1.084 -14.633  16.754  1.00  0.00     0.002 A 
ATOM     70  C   UNL     1      -1.575 -16.768  15.714  1.00  0.00     0.091 A 
ATOM     71  F   UNL     1      -3.526 -16.984  14.355  1.00  0.00    -0.205 F 
ATOM     72  C   UNL     1      -0.740 -15.957  16.500  1.00  0.00     0.022 A 
BRANCH  70  73
ATOM     73  S   UNL     1      -1.087 -18.484  15.511  1.00  0.00     0.127 S 
ATOM     74  O   UNL     1       0.028 -18.365  14.572  1.00  0.00    -0.237 OA
ATOM     75  O   UNL     1      -0.700 -18.858  16.872  1.00  0.00    -0.237 OA
ATOM     76  O   UNL     1      -2.263 -19.177  15.005  1.00  0.00    -0.744 OA
ENDBRANCH  70  73
ENDBRANCH  52  66
BRANCH  53  77
ATOM     77  C   UNL     1     -11.258 -10.924  11.186  1.00  0.00     0.023 A 
ATOM     78  C   UNL     1     -12.084 -10.070  11.943  1.00  0.00     0.012 A 
ATOM     79  C   UNL     1     -11.585 -11.180   9.841  1.00  0.00     0.148 A 
ATOM     80  C   UNL     1     -13.233  -9.510  11.384  1.00  0.00     0.002 A 
ATOM     81  C   UNL     1     -12.704 -10.578   9.275  1.00  0.00     0.091 A 
ATOM     82  F   UNL     1     -10.791 -12.001   9.139  1.00  0.00    -0.205 F 
ATOM     83  C   UNL     1     -13.538  -9.756  10.049  1.00  0.00     0.022 A 
BRANCH  81  84
ATOM     84  S   UNL     1     -13.104 -10.735   7.531  1.00  0.00     0.127 S 
ATOM     85  O   UNL     1     -14.281 -11.598   7.571  1.00  0.00    -0.237 OA
ATOM     86  O   UNL     1     -13.370  -9.346   7.154  1.00  0.00    -0.237 OA
ATOM     87  O   UNL     1     -11.918 -11.307   6.907  1.00  0.00    -0.744 OA
ENDBRANCH  81  84
ENDBRANCH  53  77
BRANCH  65  88
ATOM     88  C   UNL     1     -10.229 -15.361  16.479  1.00  0.00     0.023 A 
ATOM     89  C   UNL     1     -10.991 -16.451  16.017  1.00  0.00     0.012 A 
ATOM     90  C   UNL     1     -10.299 -14.991  17.836  1.00  0.00     0.148 A 
ATOM     91  C   UNL     1     -11.837 -17.140  16.884  1.00  0.00     0.002 A 
ATOM     92  C   UNL     1     -11.107 -15.713  18.705  1.00  0.00     0.091 A 
ATOM     93  F   UNL     1      -9.581 -13.937  18.252  1.00  0.00    -0.205 F 
ATOM     94  C   UNL     1     -11.885 -16.780  18.229  1.00  0.00     0.022 A 
BRANCH  92  95
ATOM     95  S   UNL     1     -11.148 -15.376  20.469  1.00  0.00     0.127 S 
ATOM     96  O   UNL     1     -12.400 -14.634  20.602  1.00  0.00    -0.237 OA
ATOM     97  O   UNL     1     -11.171 -16.721  21.046  1.00  0.00    -0.237 OA
ATOM     98  O   UNL     1      -9.934 -14.623  20.756  1.00  0.00    -0.744 OA
ENDBRANCH  92  95
ENDBRANCH  65  88
ENDBRANCH  39  40
ENDBRANCH  31  34
ENDBRANCH  29  30
ENDBRANCH  28  29
ENDBRANCH   1  28
TORSDOF 17
