REMARK SMILES CC1(C)CCCC[C@@H]1NC(=O)NC1(C(=O)NCCCCNC(=O)c2ccc(-c3c4nc(c(-c5cccc(S(=O)(=O)[O-])c5F)c5ccc([nH]5)c(-c5cccc(S(=O)(=O)[O-])c5F)c5nc(c(-c6cccc(S(=O)(=O)[O-])c6F)c6ccc3[nH]6)C=C5)C=C4)cc2)CCCCC1
REMARK SMILES IDX 19 1 18 2 17 3 16 4 14 5 15 6 13 8 87 9 91 10 88 11 90 12
REMARK SMILES IDX 89 13 12 14 9 15 10 16 11 18 8 20 1 21 2 22 3 23 4 24 5 25
REMARK SMILES IDX 7 26 6 27 20 28 21 29 22 30 23 32 24 33 25 34 86 35 26 36
REMARK SMILES IDX 85 37 27 38 28 39 29 40 79 41 30 42 84 43 78 44 80 45 31 46
REMARK SMILES IDX 83 47 77 48 76 49 32 51 64 52 44 53 63 54 45 55 48 56 62 57
REMARK SMILES IDX 81 58 46 59 47 60 61 62 82 63 49 64 33 65 34 66 42 67 35 68
REMARK SMILES IDX 37 69 43 70 36 71 38 72 39 73 40 74 41 75 65 76 66 77 74 78
REMARK SMILES IDX 67 79 69 80 75 81 68 82 70 83 71 84 72 85 73 86 50 87 51 88
REMARK SMILES IDX 59 89 52 90 54 91 60 92 53 93 55 94 56 95 57 96 58 97
REMARK H PARENT 16 7 9 17 12 19 21 31 80 50 48 61
REMARK Flexibility Score: inf
ROOT
ATOM      1  C   UNL     1       3.970  -0.632   2.378  1.00  0.00     0.023 C 
ENDROOT
BRANCH   1   2
ATOM      2  C   UNL     1       3.815  -2.043   2.960  1.00  0.00     0.023 C 
BRANCH   2   3
ATOM      3  C   UNL     1       2.450  -2.400   3.578  1.00  0.00     0.116 C 
BRANCH   3   4
ATOM      4  N   UNL     1       1.310  -2.223   2.695  1.00  0.00    -0.354 N 
ATOM      5  C   UNL     1       1.341  -2.859   1.478  1.00  0.00     0.245 C 
ATOM      6  O   UNL     1       2.157  -2.427   0.660  1.00  0.00    -0.272 OA
ATOM      7  H   UNL     1       0.542  -1.666   2.960  1.00  0.00     0.163 HD
BRANCH   5   8
ATOM      8  C   UNL     1       0.645  -4.262   1.334  1.00  0.00     0.120 C 
ATOM      9  C   UNL     1      -0.327  -4.551   2.512  1.00  0.00     0.039 C 
ATOM     10  C   UNL     1       1.926  -5.170   1.363  1.00  0.00     0.039 C 
ATOM     11  C   UNL     1      -0.424  -6.027   2.904  1.00  0.00     0.003 C 
ATOM     12  C   UNL     1       1.738  -6.598   1.831  1.00  0.00     0.003 C 
ATOM     13  C   UNL     1       0.954  -6.630   3.127  1.00  0.00     0.000 C 
BRANCH   8  14
ATOM     14  N   UNL     1      -0.054  -4.629   0.043  1.00  0.00    -0.324 N 
ATOM     15  N   UNL     1      -0.857  -2.923  -1.377  1.00  0.00    -0.335 N 
ATOM     16  C   UNL     1      -1.058  -4.065  -0.671  1.00  0.00     0.315 C 
ATOM     17  H   UNL     1      -1.645  -2.533  -1.820  1.00  0.00     0.165 HD
ATOM     18  O   UNL     1      -2.088  -4.714  -0.863  1.00  0.00    -0.249 OA
ATOM     19  H   UNL     1       0.295  -5.454  -0.365  1.00  0.00     0.166 HD
BRANCH  15  20
ATOM     20  C   UNL     1       0.405  -2.213  -1.547  1.00  0.00     0.089 C 
ATOM     21  C   UNL     1       0.618   0.226  -0.852  1.00  0.00     0.013 C 
ATOM     22  C   UNL     1       0.384  -0.732  -2.066  1.00  0.00    -0.015 C 
ATOM     23  C   UNL     1      -0.958  -0.315  -2.684  1.00  0.00     0.013 C 
ATOM     24  C   UNL     1       1.513  -0.464  -3.088  1.00  0.00     0.008 C 
ATOM     25  C   UNL     1       2.832  -1.111  -2.689  1.00  0.00     0.001 C 
ATOM     26  C   UNL     1       1.476  -3.175  -2.114  1.00  0.00     0.025 C 
ATOM     27  C   UNL     1       2.704  -2.611  -2.806  1.00  0.00     0.002 C 
ENDBRANCH  15  20
ENDBRANCH   8  14
ENDBRANCH   5   8
ENDBRANCH   3   4
ENDBRANCH   2   3
ENDBRANCH   1   2
BRANCH   1  28
ATOM     28  C   UNL     1       3.409   0.495   3.226  1.00  0.00     0.116 C 
BRANCH  28  29
ATOM     29  N   UNL     1       3.836   0.412   4.612  1.00  0.00    -0.352 N 
ATOM     30  C   UNL     1       4.274   1.393   5.455  1.00  0.00     0.251 C 
ATOM     31  H   UNL     1       3.805  -0.491   5.005  1.00  0.00     0.163 HD
ATOM     32  O   UNL     1       4.681   1.090   6.577  1.00  0.00    -0.269 OA
BRANCH  30  33
ATOM     33  C   UNL     1       4.303   2.795   5.005  1.00  0.00     0.039 A 
ATOM     34  C   UNL     1       5.453   3.543   5.265  1.00  0.00     0.014 A 
ATOM     35  C   UNL     1       3.224   3.365   4.323  1.00  0.00     0.014 A 
ATOM     36  C   UNL     1       5.540   4.853   4.802  1.00  0.00     0.010 A 
ATOM     37  C   UNL     1       3.346   4.644   3.792  1.00  0.00     0.010 A 
ATOM     38  C   UNL     1       4.499   5.404   4.037  1.00  0.00    -0.014 A 
BRANCH  38  39
ATOM     39  C   UNL     1       4.608   6.777   3.491  1.00  0.00     0.031 A 
ATOM     40  C   UNL     1       3.655   7.848   3.945  1.00  0.00     0.074 A 
ATOM     41  C   UNL     1       5.532   7.042   2.548  1.00  0.00     0.049 A 
ATOM     42  N   UNL     1       3.586   9.099   3.574  1.00  0.00    -0.248 NA
ATOM     43  C   UNL     1       2.631   7.455   4.926  1.00  0.00     0.031 C 
ATOM     44  C   UNL     1       6.470   6.068   1.986  1.00  0.00     0.029 A 
ATOM     45  N   UNL     1       5.826   8.206   1.885  1.00  0.00    -0.354 N 
ATOM     46  C   UNL     1       2.498   9.635   4.252  1.00  0.00     0.074 A 
ATOM     47  C   UNL     1       1.909   8.561   5.021  1.00  0.00     0.031 C 
ATOM     48  C   UNL     1       7.250   6.680   1.081  1.00  0.00     0.029 A 
ATOM     49  C   UNL     1       6.845   8.077   0.971  1.00  0.00     0.049 A 
ATOM     50  H   UNL     1       5.353   9.054   2.049  1.00  0.00     0.167 HD
ATOM     51  C   UNL     1       2.050  10.913   4.262  1.00  0.00     0.034 A 
ATOM     52  C   UNL     1       7.389   8.985   0.138  1.00  0.00     0.034 A 
ATOM     53  C   UNL     1       2.655  11.979   3.509  1.00  0.00     0.049 A 
ATOM     54  C   UNL     1       6.871  10.397   0.164  1.00  0.00     0.074 A 
ATOM     55  C   UNL     1       2.321  13.321   3.495  1.00  0.00     0.029 A 
ATOM     56  N   UNL     1       3.712  11.821   2.625  1.00  0.00    -0.354 N 
ATOM     57  N   UNL     1       5.933  10.919   0.917  1.00  0.00    -0.248 NA
ATOM     58  C   UNL     1       7.510  11.352  -0.751  1.00  0.00     0.031 C 
ATOM     59  C   UNL     1       3.153  13.968   2.575  1.00  0.00     0.029 A 
ATOM     60  C   UNL     1       4.034  13.037   2.047  1.00  0.00     0.049 A 
ATOM     61  H   UNL     1       4.167  10.968   2.436  1.00  0.00     0.167 HD
ATOM     62  C   UNL     1       5.896  12.271   0.597  1.00  0.00     0.074 A 
ATOM     63  C   UNL     1       6.919  12.489  -0.407  1.00  0.00     0.031 C 
ATOM     64  C   UNL     1       5.085  13.244   1.082  1.00  0.00     0.034 A 
BRANCH  51  65
ATOM     65  C   UNL     1       0.867  11.226   5.144  1.00  0.00     0.023 A 
ATOM     66  C   UNL     1       1.008  11.172   6.547  1.00  0.00     0.012 A 
ATOM     67  C   UNL     1      -0.376  11.591   4.592  1.00  0.00     0.148 A 
ATOM     68  C   UNL     1      -0.078  11.423   7.383  1.00  0.00     0.002 A 
ATOM     69  C   UNL     1      -1.441  11.891   5.434  1.00  0.00     0.091 A 
ATOM     70  F   UNL     1      -0.501  11.618   3.257  1.00  0.00    -0.205 F 
ATOM     71  C   UNL     1      -1.299  11.791   6.827  1.00  0.00     0.022 A 
BRANCH  69  72
ATOM     72  S   UNL     1      -3.032  12.454   4.818  1.00  0.00     0.127 S 
ATOM     73  O   UNL     1      -3.876  11.287   5.074  1.00  0.00    -0.237 OA
ATOM     74  O   UNL     1      -3.306  13.604   5.680  1.00  0.00    -0.237 OA
ATOM     75  O   UNL     1      -2.826  12.783   3.415  1.00  0.00    -0.744 OA
ENDBRANCH  69  72
ENDBRANCH  51  65
BRANCH  52  76
ATOM     76  C   UNL     1       8.535   8.603  -0.734  1.00  0.00     0.023 A 
ATOM     77  C   UNL     1       9.813   9.130  -0.460  1.00  0.00     0.012 A 
ATOM     78  C   UNL     1       8.378   7.705  -1.807  1.00  0.00     0.148 A 
ATOM     79  C   UNL     1      10.907   8.795  -1.258  1.00  0.00     0.002 A 
ATOM     80  C   UNL     1       9.482   7.334  -2.566  1.00  0.00     0.091 A 
ATOM     81  F   UNL     1       7.153   7.219  -2.053  1.00  0.00    -0.205 F 
ATOM     82  C   UNL     1      10.744   7.891  -2.304  1.00  0.00     0.022 A 
BRANCH  80  83
ATOM     83  S   UNL     1       9.396   6.086  -3.854  1.00  0.00     0.127 S 
ATOM     84  O   UNL     1       9.673   6.874  -5.053  1.00  0.00    -0.237 OA
ATOM     85  O   UNL     1      10.467   5.171  -3.456  1.00  0.00    -0.237 OA
ATOM     86  O   UNL     1       8.056   5.520  -3.769  1.00  0.00    -0.744 OA
ENDBRANCH  80  83
ENDBRANCH  52  76
BRANCH  64  87
ATOM     87  C   UNL     1       5.294  14.646   0.570  1.00  0.00     0.023 A 
ATOM     88  C   UNL     1       4.931  14.977  -0.751  1.00  0.00     0.012 A 
ATOM     89  C   UNL     1       5.788  15.652   1.424  1.00  0.00     0.148 A 
ATOM     90  C   UNL     1       5.091  16.279  -1.224  1.00  0.00     0.002 A 
ATOM     91  C   UNL     1       5.893  16.958   0.962  1.00  0.00     0.091 A 
ATOM     92  F   UNL     1       6.144  15.313   2.671  1.00  0.00    -0.205 F 
ATOM     93  C   UNL     1       5.559  17.270  -0.365  1.00  0.00     0.022 A 
BRANCH  91  94
ATOM     94  S   UNL     1       6.389  18.319   2.024  1.00  0.00     0.127 S 
ATOM     95  O   UNL     1       7.709  18.648   1.488  1.00  0.00    -0.237 OA
ATOM     96  O   UNL     1       5.354  19.316   1.751  1.00  0.00    -0.237 OA
ATOM     97  O   UNL     1       6.383  17.794   3.382  1.00  0.00    -0.744 OA
ENDBRANCH  91  94
ENDBRANCH  64  87
ENDBRANCH  38  39
ENDBRANCH  30  33
ENDBRANCH  28  29
ENDBRANCH   1  28
TORSDOF 16
