REMARK SMILES CC(C)(C)OC(=O)N1CCC(c2c(C(=O)NCCCCNC(=O)c3ccc(-c4c5nc(c(-c6cccc(S(=O)(=O)[O-])c6F)c6ccc([nH]6)c(-c6cccc(S(=O)(=O)[O-])c6F)c6nc(c(-c7cccc(S(=O)(=O)[O-])c7F)c7ccc4[nH]7)C=C6)C=C5)cc3)cnn2-c2ccccc2)CC1
REMARK SMILES IDX 18 1 17 2 16 3 14 4 15 5 13 7 12 8 89 9 87 10 88 11 11 12
REMARK SMILES IDX 6 13 7 14 8 15 9 16 97 17 10 18 96 19 5 20 2 21 1 22 3 23
REMARK SMILES IDX 4 24 90 25 91 26 95 27 92 28 94 29 93 30 19 31 20 32 21 33
REMARK SMILES IDX 22 34 23 36 24 37 25 38 86 39 26 40 85 41 27 42 28 43 29 44
REMARK SMILES IDX 79 45 30 46 84 47 78 48 80 49 31 50 83 51 77 52 76 53 32 55
REMARK SMILES IDX 64 56 44 57 63 58 45 59 48 60 62 61 81 62 46 63 47 64 61 66
REMARK SMILES IDX 82 67 49 68 33 69 34 70 42 71 35 72 37 73 43 74 36 75 38 76
REMARK SMILES IDX 39 77 40 78 41 79 65 80 66 81 74 82 67 83 69 84 75 85 68 86
REMARK SMILES IDX 70 87 71 88 72 89 73 90 50 91 51 92 59 93 52 94 54 95 60 96
REMARK SMILES IDX 53 97 55 98 56 99 57 100 58 101
REMARK H PARENT 16 6 21 35 80 54 48 65
REMARK Flexibility Score: inf
ROOT
ATOM      1  C   UNL     1       0.381   7.933  10.533  1.00  0.00     0.023 C 
ENDROOT
BRANCH   1   2
ATOM      2  C   UNL     1       1.273   6.745  10.899  1.00  0.00     0.116 C 
BRANCH   2   3
ATOM      3  N   UNL     1       0.877   5.511  10.253  1.00  0.00    -0.352 N 
ATOM      4  C   UNL     1       1.314   4.786   9.174  1.00  0.00     0.254 C 
ATOM      5  O   UNL     1       0.658   3.768   8.946  1.00  0.00    -0.269 OA
ATOM      6  H   UNL     1       0.107   5.090  10.698  1.00  0.00     0.163 HD
BRANCH   4   7
ATOM      7  C   UNL     1       2.436   5.180   8.311  1.00  0.00     0.081 A 
ATOM      8  C   UNL     1       2.810   4.551   7.095  1.00  0.00     0.060 A 
ATOM      9  N   UNL     1       3.964   5.208   6.677  1.00  0.00    -0.237 N 
ATOM     10  C   UNL     1       3.418   6.171   8.482  1.00  0.00     0.149 A 
ATOM     11  N   UNL     1       4.338   6.188   7.527  1.00  0.00    -0.175 NA
BRANCH   8  12
ATOM     12  C   UNL     1       2.152   3.316   6.459  1.00  0.00     0.043 C 
ATOM     13  C   UNL     1       0.378   2.040   3.101  1.00  0.00     0.410 C 
ATOM     14  O   UNL     1      -0.478   2.881   2.812  1.00  0.00    -0.224 OA
ATOM     15  N   UNL     1       0.791   1.819   4.397  1.00  0.00    -0.308 N 
ATOM     16  C   UNL     1       0.032   2.416   5.478  1.00  0.00     0.124 C 
ATOM     17  C   UNL     1       2.120   1.349   4.782  1.00  0.00     0.124 C 
ATOM     18  C   UNL     1       0.745   3.678   5.937  1.00  0.00     0.032 C 
ATOM     19  C   UNL     1       2.921   2.533   5.365  1.00  0.00     0.032 C 
BRANCH  13  20
ATOM     20  O   UNL     1       0.957   1.215   2.191  1.00  0.00    -0.444 OA
BRANCH  20  21
ATOM     21  C   UNL     1       0.479   1.222   0.817  1.00  0.00     0.106 C 
ATOM     22  C   UNL     1       1.112  -0.012   0.156  1.00  0.00     0.056 C 
ATOM     23  C   UNL     1       0.970   2.479   0.090  1.00  0.00     0.056 C 
ATOM     24  C   UNL     1      -1.049   1.067   0.708  1.00  0.00     0.056 C 
ENDBRANCH  20  21
ENDBRANCH  13  20
ENDBRANCH   8  12
BRANCH   9  25
ATOM     25  C   UNL     1       4.795   5.014   5.555  1.00  0.00     0.065 A 
ATOM     26  C   UNL     1       6.145   4.710   5.778  1.00  0.00     0.028 A 
ATOM     27  C   UNL     1       4.311   5.203   4.259  1.00  0.00     0.028 A 
ATOM     28  C   UNL     1       6.992   4.499   4.692  1.00  0.00     0.002 A 
ATOM     29  C   UNL     1       5.168   4.992   3.176  1.00  0.00     0.002 A 
ATOM     30  C   UNL     1       6.500   4.627   3.393  1.00  0.00     0.000 A 
ENDBRANCH   9  25
ENDBRANCH   4   7
ENDBRANCH   2   3
ENDBRANCH   1   2
BRANCH   1  31
ATOM     31  C   UNL     1      -1.022   7.940  11.164  1.00  0.00     0.023 C 
BRANCH  31  32
ATOM     32  C   UNL     1      -1.057   7.954  12.691  1.00  0.00     0.116 C 
BRANCH  32  33
ATOM     33  N   UNL     1      -0.386   9.119  13.275  1.00  0.00    -0.352 N 
ATOM     34  C   UNL     1      -0.044   9.328  14.599  1.00  0.00     0.251 C 
ATOM     35  H   UNL     1      -0.150   9.841  12.648  1.00  0.00     0.163 HD
ATOM     36  O   UNL     1       0.162  10.457  15.028  1.00  0.00    -0.269 OA
BRANCH  34  37
ATOM     37  C   UNL     1       0.079   8.160  15.487  1.00  0.00     0.039 A 
ATOM     38  C   UNL     1      -0.475   8.149  16.770  1.00  0.00     0.014 A 
ATOM     39  C   UNL     1       0.732   7.042  14.981  1.00  0.00     0.014 A 
ATOM     40  C   UNL     1      -0.448   6.966  17.505  1.00  0.00     0.010 A 
ATOM     41  C   UNL     1       0.627   5.844  15.637  1.00  0.00     0.010 A 
ATOM     42  C   UNL     1       0.088   5.810  16.922  1.00  0.00    -0.014 A 
BRANCH  42  43
ATOM     43  C   UNL     1      -0.002   4.516  17.590  1.00  0.00     0.031 A 
ATOM     44  C   UNL     1      -1.385   4.039  17.880  1.00  0.00     0.074 A 
ATOM     45  C   UNL     1       1.069   3.694  17.664  1.00  0.00     0.049 A 
ATOM     46  N   UNL     1      -1.892   3.740  19.031  1.00  0.00    -0.248 NA
ATOM     47  C   UNL     1      -2.358   3.989  16.776  1.00  0.00     0.031 C 
ATOM     48  C   UNL     1       2.408   3.919  17.101  1.00  0.00     0.029 A 
ATOM     49  N   UNL     1       1.126   2.394  18.062  1.00  0.00    -0.354 N 
ATOM     50  C   UNL     1      -3.170   3.247  18.770  1.00  0.00     0.074 A 
ATOM     51  C   UNL     1      -3.470   3.612  17.411  1.00  0.00     0.031 C 
ATOM     52  C   UNL     1       3.010   2.728  16.905  1.00  0.00     0.029 A 
ATOM     53  C   UNL     1       2.176   1.689  17.478  1.00  0.00     0.049 A 
ATOM     54  H   UNL     1       0.491   1.992  18.698  1.00  0.00     0.167 HD
ATOM     55  C   UNL     1      -3.778   2.360  19.610  1.00  0.00     0.034 A 
ATOM     56  C   UNL     1       2.296   0.342  17.381  1.00  0.00     0.034 A 
ATOM     57  C   UNL     1      -3.096   2.284  20.877  1.00  0.00     0.049 A 
ATOM     58  C   UNL     1       1.416  -0.251  18.416  1.00  0.00     0.074 A 
ATOM     59  C   UNL     1      -2.728   3.200  21.844  1.00  0.00     0.029 A 
ATOM     60  N   UNL     1      -2.331   1.165  21.113  1.00  0.00    -0.354 N 
ATOM     61  N   UNL     1       1.609  -0.092  19.697  1.00  0.00    -0.248 NA
ATOM     62  C   UNL     1       0.065  -0.626  18.028  1.00  0.00     0.031 C 
ATOM     63  C   UNL     1      -1.426   2.786  22.252  1.00  0.00     0.029 A 
ATOM     64  C   UNL     1      -1.120   1.604  21.575  1.00  0.00     0.049 A 
ATOM     65  H   UNL     1      -2.603   0.229  20.977  1.00  0.00     0.167 HD
ATOM     66  C   UNL     1       0.336   0.128  20.209  1.00  0.00     0.074 A 
ATOM     67  C   UNL     1      -0.578  -0.327  19.160  1.00  0.00     0.031 C 
ATOM     68  C   UNL     1       0.133   0.940  21.291  1.00  0.00     0.034 A 
BRANCH  55  69
ATOM     69  C   UNL     1      -4.758   1.282  19.197  1.00  0.00     0.023 A 
ATOM     70  C   UNL     1      -5.391   0.555  20.233  1.00  0.00     0.012 A 
ATOM     71  C   UNL     1      -4.873   0.757  17.890  1.00  0.00     0.148 A 
ATOM     72  C   UNL     1      -6.037  -0.663  19.993  1.00  0.00     0.002 A 
ATOM     73  C   UNL     1      -5.588  -0.411  17.645  1.00  0.00     0.091 A 
ATOM     74  F   UNL     1      -4.180   1.298  16.886  1.00  0.00    -0.205 F 
ATOM     75  C   UNL     1      -6.140  -1.145  18.696  1.00  0.00     0.022 A 
BRANCH  73  76
ATOM     76  S   UNL     1      -5.799  -1.047  15.977  1.00  0.00     0.127 S 
ATOM     77  O   UNL     1      -4.855  -2.160  15.967  1.00  0.00    -0.237 OA
ATOM     78  O   UNL     1      -7.211  -1.429  15.977  1.00  0.00    -0.237 OA
ATOM     79  O   UNL     1      -5.485   0.071  15.095  1.00  0.00    -0.744 OA
ENDBRANCH  73  76
ENDBRANCH  55  69
BRANCH  56  80
ATOM     80  C   UNL     1       2.902  -0.445  16.280  1.00  0.00     0.023 A 
ATOM     81  C   UNL     1       3.280  -1.784  16.494  1.00  0.00     0.012 A 
ATOM     82  C   UNL     1       2.902   0.036  14.950  1.00  0.00     0.148 A 
ATOM     83  C   UNL     1       3.633  -2.615  15.421  1.00  0.00     0.002 A 
ATOM     84  C   UNL     1       3.283  -0.782  13.891  1.00  0.00     0.091 A 
ATOM     85  F   UNL     1       2.435   1.268  14.703  1.00  0.00    -0.205 F 
ATOM     86  C   UNL     1       3.638  -2.115  14.120  1.00  0.00     0.022 A 
BRANCH  84  87
ATOM     87  S   UNL     1       3.319  -0.173  12.199  1.00  0.00     0.127 S 
ATOM     88  O   UNL     1       4.549  -0.773  11.680  1.00  0.00    -0.237 OA
ATOM     89  O   UNL     1       2.087  -0.729  11.649  1.00  0.00    -0.237 OA
ATOM     90  O   UNL     1       3.372   1.281  12.312  1.00  0.00    -0.744 OA
ENDBRANCH  84  87
ENDBRANCH  56  80
BRANCH  68  91
ATOM     91  C   UNL     1       1.325   1.423  22.081  1.00  0.00     0.023 A 
ATOM     92  C   UNL     1       2.348   2.204  21.503  1.00  0.00     0.012 A 
ATOM     93  C   UNL     1       1.304   1.269  23.478  1.00  0.00     0.148 A 
ATOM     94  C   UNL     1       3.333   2.801  22.294  1.00  0.00     0.002 A 
ATOM     95  C   UNL     1       2.256   1.903  24.267  1.00  0.00     0.091 A 
ATOM     96  F   UNL     1       0.325   0.528  24.020  1.00  0.00    -0.205 F 
ATOM     97  C   UNL     1       3.278   2.664  23.678  1.00  0.00     0.022 A 
BRANCH  95  98
ATOM     98  S   UNL     1       2.154   1.874  26.058  1.00  0.00     0.127 S 
ATOM     99  O   UNL     1       3.173   0.885  26.405  1.00  0.00    -0.237 OA
ATOM    100  O   UNL     1       2.492   3.252  26.418  1.00  0.00    -0.237 OA
ATOM    101  O   UNL     1       0.780   1.501  26.372  1.00  0.00    -0.744 OA
ENDBRANCH  95  98
ENDBRANCH  68  91
ENDBRANCH  42  43
ENDBRANCH  34  37
ENDBRANCH  32  33
ENDBRANCH  31  32
ENDBRANCH   1  31
TORSDOF 18
