REMARK SMILES O=C(NCCCCNC(=O)c1cccc(NC(=O)c2ccc(N3C(=O)CCC3=O)cc2)c1)c1ccc(-c2c3nc(c(-c4cccc(S(=O)(=O)[O-])c4F)c4ccc([nH]4)c(-c4cccc(S(=O)(=O)[O-])c4F)c4nc(c(-c5cccc(S(=O)(=O)[O-])c5F)c5ccc2[nH]5)C=C4)C=C3)cc1
REMARK SMILES IDX 5 1 4 2 3 3 1 4 2 5 33 7 34 8 95 9 35 10 94 11 36 12 37 13
REMARK SMILES IDX 38 14 88 15 39 16 93 17 87 18 89 19 40 20 92 21 86 22 85 23
REMARK SMILES IDX 41 25 73 26 53 27 72 28 54 29 57 30 71 31 90 32 55 33 56 34
REMARK SMILES IDX 70 36 91 37 58 38 42 39 43 40 51 41 44 42 46 43 52 44 45 45
REMARK SMILES IDX 47 46 48 47 49 48 50 49 74 50 75 51 83 52 76 53 78 54 84 55
REMARK SMILES IDX 77 56 79 57 80 58 81 59 82 60 59 61 60 62 68 63 61 64 63 65
REMARK SMILES IDX 69 66 62 67 64 68 65 69 66 70 67 71 6 72 7 73 8 74 9 75
REMARK SMILES IDX 10 77 11 78 12 79 32 80 13 81 15 82 14 83 16 84 17 85 18 87
REMARK SMILES IDX 19 88 20 89 31 90 21 91 30 92 22 93 23 94 24 95 28 96 25 97
REMARK SMILES IDX 26 98 27 99 29 100
REMARK H PARENT 3 6 89 24 57 35 8 76 16 86
REMARK Flexibility Score: inf
ROOT
ATOM      1  C   UNL     1       4.942  -2.457   0.535  1.00  0.00     0.023 C 
ENDROOT
BRANCH   1   2
ATOM      2  C   UNL     1       4.613  -1.187  -0.237  1.00  0.00     0.116 C 
BRANCH   2   3
ATOM      3  N   UNL     1       3.182  -0.977  -0.407  1.00  0.00    -0.352 N 
ATOM      4  O   UNL     1       1.184   0.025  -0.111  1.00  0.00    -0.269 OA
ATOM      5  C   UNL     1       2.405   0.086  -0.007  1.00  0.00     0.251 C 
ATOM      6  H   UNL     1       2.703  -1.698  -0.875  1.00  0.00     0.163 HD
BRANCH   5   7
ATOM      7  C   UNL     1       3.052   1.277   0.584  1.00  0.00     0.039 A 
ATOM      8  C   UNL     1       4.198   1.818   0.001  1.00  0.00     0.014 A 
ATOM      9  C   UNL     1       2.542   1.821   1.765  1.00  0.00     0.014 A 
ATOM     10  C   UNL     1       4.945   2.758   0.699  1.00  0.00     0.010 A 
ATOM     11  C   UNL     1       3.237   2.849   2.408  1.00  0.00     0.010 A 
ATOM     12  C   UNL     1       4.475   3.288   1.912  1.00  0.00    -0.014 A 
BRANCH  12  13
ATOM     13  C   UNL     1       5.284   4.317   2.617  1.00  0.00     0.031 A 
ATOM     14  C   UNL     1       5.819   4.080   4.005  1.00  0.00     0.074 A 
ATOM     15  C   UNL     1       5.553   5.476   1.982  1.00  0.00     0.049 A 
ATOM     16  N   UNL     1       6.574   4.858   4.738  1.00  0.00    -0.248 NA
ATOM     17  C   UNL     1       5.454   2.814   4.662  1.00  0.00     0.031 C 
ATOM     18  C   UNL     1       5.065   5.837   0.648  1.00  0.00     0.029 A 
ATOM     19  N   UNL     1       6.302   6.558   2.364  1.00  0.00    -0.354 N 
ATOM     20  C   UNL     1       6.732   4.206   5.956  1.00  0.00     0.074 A 
ATOM     21  C   UNL     1       5.989   2.968   5.866  1.00  0.00     0.031 C 
ATOM     22  C   UNL     1       5.559   7.034   0.306  1.00  0.00     0.029 A 
ATOM     23  C   UNL     1       6.344   7.556   1.419  1.00  0.00     0.049 A 
ATOM     24  H   UNL     1       6.766   6.615   3.230  1.00  0.00     0.167 HD
ATOM     25  C   UNL     1       7.438   4.598   7.046  1.00  0.00     0.034 A 
ATOM     26  C   UNL     1       6.934   8.765   1.445  1.00  0.00     0.034 A 
ATOM     27  C   UNL     1       8.201   5.816   7.117  1.00  0.00     0.049 A 
ATOM     28  C   UNL     1       7.721   9.164   2.659  1.00  0.00     0.074 A 
ATOM     29  C   UNL     1       9.009   6.266   8.148  1.00  0.00     0.029 A 
ATOM     30  N   UNL     1       8.242   6.788   6.129  1.00  0.00    -0.354 N 
ATOM     31  N   UNL     1       7.958   8.479   3.751  1.00  0.00    -0.248 NA
ATOM     32  C   UNL     1       8.347  10.492   2.632  1.00  0.00     0.031 C 
ATOM     33  C   UNL     1       9.502   7.528   7.800  1.00  0.00     0.029 A 
ATOM     34  C   UNL     1       9.044   7.843   6.531  1.00  0.00     0.049 A 
ATOM     35  H   UNL     1       7.769   6.736   5.267  1.00  0.00     0.167 HD
ATOM     36  C   UNL     1       8.797   9.273   4.522  1.00  0.00     0.074 A 
ATOM     37  C   UNL     1       9.038  10.484   3.764  1.00  0.00     0.031 C 
ATOM     38  C   UNL     1       9.317   9.022   5.749  1.00  0.00     0.034 A 
BRANCH  25  39
ATOM     39  C   UNL     1       7.425   3.696   8.256  1.00  0.00     0.023 A 
ATOM     40  C   UNL     1       8.103   2.460   8.226  1.00  0.00     0.012 A 
ATOM     41  C   UNL     1       6.787   4.100   9.446  1.00  0.00     0.148 A 
ATOM     42  C   UNL     1       8.110   1.624   9.343  1.00  0.00     0.002 A 
ATOM     43  C   UNL     1       6.839   3.284  10.571  1.00  0.00     0.091 A 
ATOM     44  F   UNL     1       6.132   5.270   9.455  1.00  0.00    -0.205 F 
ATOM     45  C   UNL     1       7.487   2.040  10.517  1.00  0.00     0.022 A 
BRANCH  43  46
ATOM     46  S   UNL     1       6.141   3.771  12.153  1.00  0.00     0.127 S 
ATOM     47  O   UNL     1       4.976   2.893  12.244  1.00  0.00    -0.237 OA
ATOM     48  O   UNL     1       7.224   3.443  13.081  1.00  0.00    -0.237 OA
ATOM     49  O   UNL     1       5.848   5.193  12.042  1.00  0.00    -0.744 OA
ENDBRANCH  43  46
ENDBRANCH  25  39
BRANCH  26  50
ATOM     50  C   UNL     1       6.842   9.661   0.258  1.00  0.00     0.023 A 
ATOM     51  C   UNL     1       7.996   9.915  -0.508  1.00  0.00     0.012 A 
ATOM     52  C   UNL     1       5.615  10.229  -0.135  1.00  0.00     0.148 A 
ATOM     53  C   UNL     1       7.936  10.745  -1.627  1.00  0.00     0.002 A 
ATOM     54  C   UNL     1       5.551  11.007  -1.283  1.00  0.00     0.091 A 
ATOM     55  F   UNL     1       4.531   9.978   0.613  1.00  0.00    -0.205 F 
ATOM     56  C   UNL     1       6.713  11.283  -2.020  1.00  0.00     0.022 A 
BRANCH  54  57
ATOM     57  S   UNL     1       4.000  11.631  -1.940  1.00  0.00     0.127 S 
ATOM     58  O   UNL     1       4.152  13.071  -1.745  1.00  0.00    -0.237 OA
ATOM     59  O   UNL     1       4.065  11.186  -3.333  1.00  0.00    -0.237 OA
ATOM     60  O   UNL     1       2.953  10.995  -1.153  1.00  0.00    -0.744 OA
ENDBRANCH  54  57
ENDBRANCH  26  50
BRANCH  38  61
ATOM     61  C   UNL     1      10.255  10.050   6.329  1.00  0.00     0.023 A 
ATOM     62  C   UNL     1       9.764  11.297   6.763  1.00  0.00     0.012 A 
ATOM     63  C   UNL     1      11.622   9.751   6.490  1.00  0.00     0.148 A 
ATOM     64  C   UNL     1      10.628  12.247   7.308  1.00  0.00     0.002 A 
ATOM     65  C   UNL     1      12.466  10.680   7.085  1.00  0.00     0.091 A 
ATOM     66  F   UNL     1      12.075   8.568   6.051  1.00  0.00    -0.205 F 
ATOM     67  C   UNL     1      11.975  11.935   7.480  1.00  0.00     0.022 A 
BRANCH  65  68
ATOM     68  S   UNL     1      14.190  10.321   7.439  1.00  0.00     0.127 S 
ATOM     69  O   UNL     1      14.876  11.130   6.433  1.00  0.00    -0.237 OA
ATOM     70  O   UNL     1      14.332  10.806   8.813  1.00  0.00    -0.237 OA
ATOM     71  O   UNL     1      14.338   8.880   7.291  1.00  0.00    -0.744 OA
ENDBRANCH  65  68
ENDBRANCH  38  61
ENDBRANCH  12  13
ENDBRANCH   5   7
ENDBRANCH   2   3
ENDBRANCH   1   2
BRANCH   1  72
ATOM     72  C   UNL     1       4.485  -3.752  -0.128  1.00  0.00     0.023 C 
BRANCH  72  73
ATOM     73  C   UNL     1       4.910  -3.916  -1.583  1.00  0.00     0.116 C 
BRANCH  73  74
ATOM     74  N   UNL     1       6.353  -3.867  -1.751  1.00  0.00    -0.352 N 
ATOM     75  C   UNL     1       7.199  -4.791  -2.307  1.00  0.00     0.251 C 
ATOM     76  H   UNL     1       6.787  -3.050  -1.415  1.00  0.00     0.163 HD
ATOM     77  O   UNL     1       8.415  -4.660  -2.205  1.00  0.00    -0.269 OA
BRANCH  75  78
ATOM     78  C   UNL     1       6.654  -5.959  -3.024  1.00  0.00     0.041 A 
ATOM     79  C   UNL     1       7.195  -7.215  -2.750  1.00  0.00     0.014 A 
ATOM     80  C   UNL     1       5.639  -5.814  -3.979  1.00  0.00     0.040 A 
ATOM     81  C   UNL     1       6.714  -8.323  -3.435  1.00  0.00     0.003 A 
ATOM     82  C   UNL     1       5.086  -6.934  -4.603  1.00  0.00     0.042 A 
ATOM     83  C   UNL     1       5.677  -8.177  -4.364  1.00  0.00     0.026 A 
BRANCH  82  84
ATOM     84  N   UNL     1       3.959  -6.700  -5.417  1.00  0.00    -0.322 N 
ATOM     85  C   UNL     1       3.027  -7.530  -5.997  1.00  0.00     0.255 C 
ATOM     86  H   UNL     1       3.808  -5.747  -5.611  1.00  0.00     0.170 HD
ATOM     87  O   UNL     1       2.167  -7.073  -6.748  1.00  0.00    -0.269 OA
BRANCH  85  88
ATOM     88  C   UNL     1       3.025  -8.974  -5.737  1.00  0.00     0.040 A 
ATOM     89  C   UNL     1       3.366  -9.823  -6.786  1.00  0.00     0.016 A 
ATOM     90  C   UNL     1       2.763  -9.483  -4.464  1.00  0.00     0.016 A 
ATOM     91  C   UNL     1       3.566 -11.180  -6.529  1.00  0.00     0.027 A 
ATOM     92  C   UNL     1       2.947 -10.850  -4.221  1.00  0.00     0.027 A 
ATOM     93  C   UNL     1       3.397 -11.711  -5.238  1.00  0.00     0.052 A 
BRANCH  93  94
ATOM     94  N   UNL     1       3.715 -13.072  -4.971  1.00  0.00    -0.251 N 
ATOM     95  C   UNL     1       3.162 -13.822  -3.961  1.00  0.00     0.234 C 
ATOM     96  C   UNL     1       4.665 -13.784  -5.672  1.00  0.00     0.234 C 
ATOM     97  O   UNL     1       2.312 -13.501  -3.139  1.00  0.00    -0.274 OA
ATOM     98  C   UNL     1       3.703 -15.218  -4.036  1.00  0.00     0.111 C 
ATOM     99  C   UNL     1       4.782 -15.157  -5.086  1.00  0.00     0.111 C 
ATOM    100  O   UNL     1       5.396 -13.409  -6.579  1.00  0.00    -0.274 OA
ENDBRANCH  93  94
ENDBRANCH  85  88
ENDBRANCH  82  84
ENDBRANCH  75  78
ENDBRANCH  73  74
ENDBRANCH  72  73
ENDBRANCH   1  72
TORSDOF 17
