REMARK SMILES O=C(Cn1cc(C(=O)C(F)(F)F)c2ccccc21)NCCCCNC(=O)c1ccc(-c2c3nc(c(-c4cccc(S(=O)(=O)[O-])c4F)c4ccc([nH]4)c(-c4cccc(S(=O)(=O)[O-])c4F)c4nc(c(-c5cccc(S(=O)(=O)[O-])c5F)c5ccc2[nH]5)C=C4)C=C3)cc1
REMARK SMILES IDX 21 1 20 2 19 3 1 4 2 5 3 7 4 8 5 9 18 10 6 11 13 12 17 13
REMARK SMILES IDX 14 14 16 15 15 16 7 17 8 18 9 19 10 20 11 21 12 22 22 23
REMARK SMILES IDX 23 24 24 25 25 26 26 28 27 29 28 30 89 31 29 32 88 33 30 34
REMARK SMILES IDX 31 35 32 36 82 37 33 38 87 39 81 40 83 41 34 42 86 43 80 44
REMARK SMILES IDX 79 45 35 47 67 48 47 49 66 50 48 51 51 52 65 53 84 54 49 55
REMARK SMILES IDX 50 56 64 58 85 59 52 60 36 61 37 62 45 63 38 64 40 65 46 66
REMARK SMILES IDX 39 67 41 68 42 69 43 70 44 71 68 72 69 73 77 74 70 75 72 76
REMARK SMILES IDX 78 77 71 78 73 79 74 80 75 81 76 82 53 83 54 84 62 85 55 86
REMARK SMILES IDX 57 87 63 88 56 89 58 90 59 91 60 92 61 93
REMARK H PARENT 19 6 24 27 83 46 51 57
REMARK Flexibility Score: inf
ROOT
ATOM      1  C   UNL     1       2.528  -1.203   3.382  1.00  0.00     0.023 C 
ENDROOT
BRANCH   1   2
ATOM      2  C   UNL     1       2.016  -0.099   2.458  1.00  0.00     0.116 C 
BRANCH   2   3
ATOM      3  N   UNL     1       2.730  -0.069   1.195  1.00  0.00    -0.355 N 
ATOM      4  O   UNL     1       0.855  -0.017  -0.133  1.00  0.00    -0.273 OA
ATOM      5  C   UNL     1       2.078  -0.025  -0.019  1.00  0.00     0.239 C 
ATOM      6  H   UNL     1       3.715  -0.080   1.206  1.00  0.00     0.163 HD
BRANCH   5   7
ATOM      7  C   UNL     1       2.986  -0.030  -1.230  1.00  0.00     0.222 C 
BRANCH   7   8
ATOM      8  N   UNL     1       3.822   1.162  -1.316  1.00  0.00    -0.337 N 
ATOM      9  C   UNL     1       3.336   2.447  -1.295  1.00  0.00     0.099 A 
ATOM     10  C   UNL     1       5.191   1.179  -1.475  1.00  0.00     0.049 A 
ATOM     11  C   UNL     1       4.396   3.329  -1.411  1.00  0.00     0.053 A 
ATOM     12  C   UNL     1       5.578   2.524  -1.533  1.00  0.00     0.011 A 
ATOM     13  C   UNL     1       6.127   0.134  -1.579  1.00  0.00     0.027 A 
ATOM     14  C   UNL     1       6.949   2.823  -1.694  1.00  0.00     0.011 A 
ATOM     15  C   UNL     1       7.476   0.463  -1.742  1.00  0.00     0.002 A 
ATOM     16  C   UNL     1       7.885   1.789  -1.798  1.00  0.00     0.001 A 
BRANCH  11  17
ATOM     17  C   UNL     1       4.310   4.797  -1.419  1.00  0.00     0.268 C 
ATOM     18  O   UNL     1       5.325   5.484  -1.570  1.00  0.00    -0.284 OA
BRANCH  17  19
ATOM     19  C   UNL     1       2.932   5.435  -1.247  1.00  0.00     0.454 C 
ATOM     20  F   UNL     1       2.066   5.084  -2.242  1.00  0.00    -0.163 F 
ATOM     21  F   UNL     1       2.329   5.080  -0.076  1.00  0.00    -0.163 F 
ATOM     22  F   UNL     1       2.968   6.799  -1.250  1.00  0.00    -0.163 F 
ENDBRANCH  17  19
ENDBRANCH  11  17
ENDBRANCH   7   8
ENDBRANCH   5   7
ENDBRANCH   2   3
ENDBRANCH   1   2
BRANCH   1  23
ATOM     23  C   UNL     1       4.011  -1.097   3.762  1.00  0.00     0.023 C 
BRANCH  23  24
ATOM     24  C   UNL     1       4.448   0.288   4.240  1.00  0.00     0.116 C 
BRANCH  24  25
ATOM     25  N   UNL     1       3.777   0.750   5.435  1.00  0.00    -0.352 N 
ATOM     26  C   UNL     1       4.065   0.682   6.772  1.00  0.00     0.251 C 
ATOM     27  H   UNL     1       2.929   1.214   5.247  1.00  0.00     0.163 HD
ATOM     28  O   UNL     1       3.390   1.397   7.515  1.00  0.00    -0.269 OA
BRANCH  26  29
ATOM     29  C   UNL     1       5.024  -0.284   7.365  1.00  0.00     0.039 A 
ATOM     30  C   UNL     1       5.961  -1.025   6.645  1.00  0.00     0.014 A 
ATOM     31  C   UNL     1       4.850  -0.549   8.736  1.00  0.00     0.014 A 
ATOM     32  C   UNL     1       6.535  -2.149   7.208  1.00  0.00     0.010 A 
ATOM     33  C   UNL     1       5.459  -1.646   9.320  1.00  0.00     0.010 A 
ATOM     34  C   UNL     1       6.217  -2.492   8.519  1.00  0.00    -0.014 A 
BRANCH  34  35
ATOM     35  C   UNL     1       6.763  -3.734   9.036  1.00  0.00     0.031 A 
ATOM     36  C   UNL     1       8.251  -3.748   9.127  1.00  0.00     0.074 A 
ATOM     37  C   UNL     1       5.954  -4.724   9.461  1.00  0.00     0.049 A 
ATOM     38  N   UNL     1       9.085  -4.556   8.556  1.00  0.00    -0.248 NA
ATOM     39  C   UNL     1       8.890  -2.618   9.824  1.00  0.00     0.031 C 
ATOM     40  C   UNL     1       4.497  -4.691   9.630  1.00  0.00     0.029 A 
ATOM     41  N   UNL     1       6.287  -5.935   9.979  1.00  0.00    -0.354 N 
ATOM     42  C   UNL     1      10.346  -4.159   9.001  1.00  0.00     0.074 A 
ATOM     43  C   UNL     1      10.182  -2.876   9.632  1.00  0.00     0.031 C 
ATOM     44  C   UNL     1       4.125  -5.692  10.459  1.00  0.00     0.029 A 
ATOM     45  C   UNL     1       5.288  -6.503  10.768  1.00  0.00     0.049 A 
ATOM     46  H   UNL     1       7.154  -6.370   9.813  1.00  0.00     0.167 HD
ATOM     47  C   UNL     1      11.411  -5.005   9.030  1.00  0.00     0.034 A 
ATOM     48  C   UNL     1       5.463  -7.489  11.685  1.00  0.00     0.034 A 
ATOM     49  C   UNL     1      11.220  -6.154   8.194  1.00  0.00     0.049 A 
ATOM     50  C   UNL     1       6.744  -8.157  11.347  1.00  0.00     0.074 A 
ATOM     51  C   UNL     1      11.057  -6.351   6.837  1.00  0.00     0.029 A 
ATOM     52  N   UNL     1      10.774  -7.303   8.798  1.00  0.00    -0.354 N 
ATOM     53  N   UNL     1       6.941  -8.829  10.249  1.00  0.00    -0.248 NA
ATOM     54  C   UNL     1       7.943  -7.699  12.031  1.00  0.00     0.031 C 
ATOM     55  C   UNL     1      10.084  -7.386   6.732  1.00  0.00     0.029 A 
ATOM     56  C   UNL     1       9.757  -7.800   8.025  1.00  0.00     0.049 A 
ATOM     57  H   UNL     1      11.121  -7.697   9.631  1.00  0.00     0.167 HD
ATOM     58  C   UNL     1       8.235  -8.500   9.870  1.00  0.00     0.074 A 
ATOM     59  C   UNL     1       8.832  -7.875  11.050  1.00  0.00     0.031 C 
ATOM     60  C   UNL     1       8.606  -8.492   8.557  1.00  0.00     0.034 A 
BRANCH  47  61
ATOM     61  C   UNL     1      12.488  -4.936  10.078  1.00  0.00     0.023 A 
ATOM     62  C   UNL     1      13.710  -5.596   9.841  1.00  0.00     0.012 A 
ATOM     63  C   UNL     1      12.255  -4.450  11.386  1.00  0.00     0.148 A 
ATOM     64  C   UNL     1      14.656  -5.759  10.861  1.00  0.00     0.002 A 
ATOM     65  C   UNL     1      13.225  -4.548  12.374  1.00  0.00     0.091 A 
ATOM     66  F   UNL     1      11.037  -4.003  11.717  1.00  0.00    -0.205 F 
ATOM     67  C   UNL     1      14.422  -5.221  12.123  1.00  0.00     0.022 A 
BRANCH  65  68
ATOM     68  S   UNL     1      12.983  -3.843  14.008  1.00  0.00     0.127 S 
ATOM     69  O   UNL     1      12.760  -5.036  14.813  1.00  0.00    -0.237 OA
ATOM     70  O   UNL     1      14.258  -3.166  14.235  1.00  0.00    -0.237 OA
ATOM     71  O   UNL     1      11.844  -2.936  13.871  1.00  0.00    -0.744 OA
ENDBRANCH  65  68
ENDBRANCH  47  61
BRANCH  48  72
ATOM     72  C   UNL     1       4.829  -7.675  13.020  1.00  0.00     0.023 A 
ATOM     73  C   UNL     1       5.067  -8.879  13.721  1.00  0.00     0.012 A 
ATOM     74  C   UNL     1       4.274  -6.595  13.742  1.00  0.00     0.148 A 
ATOM     75  C   UNL     1       4.830  -8.980  15.098  1.00  0.00     0.002 A 
ATOM     76  C   UNL     1       4.029  -6.705  15.110  1.00  0.00     0.091 A 
ATOM     77  F   UNL     1       4.079  -5.426  13.121  1.00  0.00    -0.205 F 
ATOM     78  C   UNL     1       4.325  -7.888  15.795  1.00  0.00     0.022 A 
BRANCH  76  79
ATOM     79  S   UNL     1       3.387  -5.327  16.072  1.00  0.00     0.127 S 
ATOM     80  O   UNL     1       2.389  -5.983  16.919  1.00  0.00    -0.237 OA
ATOM     81  O   UNL     1       4.582  -4.869  16.777  1.00  0.00    -0.237 OA
ATOM     82  O   UNL     1       2.825  -4.397  15.102  1.00  0.00    -0.744 OA
ENDBRANCH  76  79
ENDBRANCH  48  72
BRANCH  60  83
ATOM     83  C   UNL     1       7.618  -9.025   7.548  1.00  0.00     0.023 A 
ATOM     84  C   UNL     1       6.411  -8.354   7.250  1.00  0.00     0.012 A 
ATOM     85  C   UNL     1       7.994 -10.125   6.763  1.00  0.00     0.148 A 
ATOM     86  C   UNL     1       5.592  -8.781   6.200  1.00  0.00     0.002 A 
ATOM     87  C   UNL     1       7.195 -10.525   5.699  1.00  0.00     0.091 A 
ATOM     88  F   UNL     1       9.150 -10.739   7.052  1.00  0.00    -0.205 F 
ATOM     89  C   UNL     1       5.991  -9.860   5.416  1.00  0.00     0.022 A 
BRANCH  87  90
ATOM     90  S   UNL     1       7.698 -11.838   4.586  1.00  0.00     0.127 S 
ATOM     91  O   UNL     1       6.758 -12.904   4.926  1.00  0.00    -0.237 OA
ATOM     92  O   UNL     1       7.485 -11.230   3.271  1.00  0.00    -0.237 OA
ATOM     93  O   UNL     1       9.095 -12.116   4.894  1.00  0.00    -0.744 OA
ENDBRANCH  87  90
ENDBRANCH  60  83
ENDBRANCH  34  35
ENDBRANCH  26  29
ENDBRANCH  24  25
ENDBRANCH  23  24
ENDBRANCH   1  23
TORSDOF 17
