REMARK SMILES C[C@H](/C=C/C(=O)NCCCCNC(=O)c1ccc(-c2c3nc(c(-c4cccc(S(=O)(=O)[O-])c4F)c4ccc([nH]4)c(-c4cccc(S(=O)(=O)[O-])c4F)c4nc(c(-c5cccc(S(=O)(=O)[O-])c5F)c5ccc2[nH]5)C=C4)C=C3)cc1)n1cncn1
REMARK SMILES IDX 10 1 9 2 8 3 7 4 5 5 6 6 4 8 3 9 2 10 1 11 78 12 79 13 82 14
REMARK SMILES IDX 80 15 81 16 11 17 12 18 13 19 14 21 15 22 16 23 77 24 17 25
REMARK SMILES IDX 76 26 18 27 19 28 20 29 70 30 21 31 75 32 69 33 71 34 22 35
REMARK SMILES IDX 74 36 68 37 67 38 23 40 55 41 35 42 54 43 36 44 39 45 53 46
REMARK SMILES IDX 72 47 37 48 38 49 52 51 73 52 40 53 24 54 25 55 33 56 26 57
REMARK SMILES IDX 28 58 34 59 27 60 29 61 30 62 31 63 32 64 56 65 57 66 65 67
REMARK SMILES IDX 58 68 60 69 66 70 59 71 61 72 62 73 63 74 64 75 41 76 42 77
REMARK SMILES IDX 50 78 43 79 45 80 51 81 44 82 46 83 47 84 48 85 49 86
REMARK H PARENT 7 7 12 20 71 39 39 50
REMARK Flexibility Score: inf
ROOT
ATOM      1  C   UNL     1      -0.795   3.651   2.766  1.00  0.00     0.023 C 
ENDROOT
BRANCH   1   2
ATOM      2  C   UNL     1      -0.769   2.545   1.710  1.00  0.00     0.023 C 
BRANCH   2   3
ATOM      3  C   UNL     1       0.538   2.423   0.932  1.00  0.00     0.116 C 
BRANCH   3   4
ATOM      4  N   UNL     1       1.609   1.824   1.711  1.00  0.00    -0.353 N 
ATOM      5  C   UNL     1       2.000   0.523   1.811  1.00  0.00     0.243 C 
ATOM      6  O   UNL     1       2.885   0.188   2.592  1.00  0.00    -0.270 OA
ATOM      7  H   UNL     1       2.133   2.457   2.252  1.00  0.00     0.163 HD
BRANCH   5   8
ATOM      8  C   UNL     1       1.313  -0.516   1.013  1.00  0.00     0.069 C 
ATOM      9  C   UNL     1       1.247  -0.466  -0.327  1.00  0.00     0.005 C 
BRANCH   9  10
ATOM     10  C   UNL     1       0.565  -1.473  -1.226  1.00  0.00     0.129 C 
ATOM     11  C   UNL     1       1.082  -2.896  -0.979  1.00  0.00     0.038 C 
BRANCH  10  12
ATOM     12  N   UNL     1      -0.893  -1.337  -1.194  1.00  0.00    -0.246 N 
ATOM     13  C   UNL     1      -1.848  -2.310  -1.156  1.00  0.00     0.220 A 
ATOM     14  N   UNL     1      -1.475  -0.116  -1.268  1.00  0.00    -0.159 NA
ATOM     15  N   UNL     1      -3.043  -1.765  -1.150  1.00  0.00    -0.223 NA
ATOM     16  C   UNL     1      -2.771  -0.430  -1.204  1.00  0.00     0.246 A 
ENDBRANCH  10  12
ENDBRANCH   9  10
ENDBRANCH   5   8
ENDBRANCH   3   4
ENDBRANCH   2   3
ENDBRANCH   1   2
BRANCH   1  17
ATOM     17  C   UNL     1      -0.378   5.042   2.291  1.00  0.00     0.116 C 
BRANCH  17  18
ATOM     18  N   UNL     1      -1.077   5.496   1.097  1.00  0.00    -0.352 N 
ATOM     19  C   UNL     1      -1.470   6.771   0.756  1.00  0.00     0.251 C 
ATOM     20  H   UNL     1      -1.299   4.794   0.442  1.00  0.00     0.163 HD
ATOM     21  O   UNL     1      -2.105   6.967  -0.270  1.00  0.00    -0.269 OA
BRANCH  19  22
ATOM     22  C   UNL     1      -1.159   7.896   1.667  1.00  0.00     0.039 A 
ATOM     23  C   UNL     1      -2.192   8.762   2.038  1.00  0.00     0.014 A 
ATOM     24  C   UNL     1       0.127   8.072   2.185  1.00  0.00     0.014 A 
ATOM     25  C   UNL     1      -1.954   9.752   2.993  1.00  0.00     0.010 A 
ATOM     26  C   UNL     1       0.345   9.016   3.185  1.00  0.00     0.010 A 
ATOM     27  C   UNL     1      -0.695   9.859   3.607  1.00  0.00    -0.014 A 
BRANCH  27  28
ATOM     28  C   UNL     1      -0.463  10.812   4.723  1.00  0.00     0.031 A 
ATOM     29  C   UNL     1       0.527  11.935   4.578  1.00  0.00     0.074 A 
ATOM     30  C   UNL     1      -1.080  10.607   5.905  1.00  0.00     0.049 A 
ATOM     31  N   UNL     1       0.888  12.833   5.458  1.00  0.00    -0.248 NA
ATOM     32  C   UNL     1       1.224  12.049   3.286  1.00  0.00     0.031 C 
ATOM     33  C   UNL     1      -1.990   9.498   6.203  1.00  0.00     0.029 A 
ATOM     34  N   UNL     1      -1.014  11.305   7.085  1.00  0.00    -0.354 N 
ATOM     35  C   UNL     1       1.871  13.597   4.842  1.00  0.00     0.074 A 
ATOM     36  C   UNL     1       2.076  13.037   3.524  1.00  0.00     0.031 C 
ATOM     37  C   UNL     1      -2.399   9.594   7.479  1.00  0.00     0.029 A 
ATOM     38  C   UNL     1      -1.767  10.755   8.097  1.00  0.00     0.049 A 
ATOM     39  H   UNL     1      -0.478  12.124   7.197  1.00  0.00     0.167 HD
ATOM     40  C   UNL     1       2.521  14.687   5.316  1.00  0.00     0.034 A 
ATOM     41  C   UNL     1      -1.930  11.141   9.377  1.00  0.00     0.034 A 
ATOM     42  C   UNL     1       2.280  15.271   6.608  1.00  0.00     0.049 A 
ATOM     43  C   UNL     1      -1.240  12.389   9.857  1.00  0.00     0.074 A 
ATOM     44  C   UNL     1       2.820  16.428   7.143  1.00  0.00     0.029 A 
ATOM     45  N   UNL     1       1.432  14.745   7.569  1.00  0.00    -0.354 N 
ATOM     46  N   UNL     1      -0.448  13.200   9.198  1.00  0.00    -0.248 NA
ATOM     47  C   UNL     1      -1.499  12.800  11.245  1.00  0.00     0.031 C 
ATOM     48  C   UNL     1       2.306  16.595   8.433  1.00  0.00     0.029 A 
ATOM     49  C   UNL     1       1.435  15.551   8.696  1.00  0.00     0.049 A 
ATOM     50  H   UNL     1       0.904  13.921   7.466  1.00  0.00     0.167 HD
ATOM     51  C   UNL     1      -0.141  14.231  10.078  1.00  0.00     0.074 A 
ATOM     52  C   UNL     1      -0.854  13.957  11.309  1.00  0.00     0.031 C 
ATOM     53  C   UNL     1       0.675  15.297   9.893  1.00  0.00     0.034 A 
BRANCH  40  54
ATOM     54  C   UNL     1       3.507  15.366   4.403  1.00  0.00     0.023 A 
ATOM     55  C   UNL     1       3.029  16.112   3.306  1.00  0.00     0.012 A 
ATOM     56  C   UNL     1       4.891  15.329   4.662  1.00  0.00     0.148 A 
ATOM     57  C   UNL     1       3.912  16.786   2.464  1.00  0.00     0.002 A 
ATOM     58  C   UNL     1       5.763  16.038   3.842  1.00  0.00     0.091 A 
ATOM     59  F   UNL     1       5.329  14.599   5.698  1.00  0.00    -0.205 F 
ATOM     60  C   UNL     1       5.276  16.758   2.738  1.00  0.00     0.022 A 
BRANCH  58  61
ATOM     61  S   UNL     1       7.530  16.128   4.152  1.00  0.00     0.127 S 
ATOM     62  O   UNL     1       8.063  15.320   3.055  1.00  0.00    -0.237 OA
ATOM     63  O   UNL     1       7.791  17.563   4.034  1.00  0.00    -0.237 OA
ATOM     64  O   UNL     1       7.733  15.582   5.486  1.00  0.00    -0.744 OA
ENDBRANCH  58  61
ENDBRANCH  40  54
BRANCH  41  65
ATOM     65  C   UNL     1      -2.846  10.382  10.275  1.00  0.00     0.023 A 
ATOM     66  C   UNL     1      -4.066  10.967  10.668  1.00  0.00     0.012 A 
ATOM     67  C   UNL     1      -2.532   9.085  10.725  1.00  0.00     0.148 A 
ATOM     68  C   UNL     1      -4.939  10.291  11.521  1.00  0.00     0.002 A 
ATOM     69  C   UNL     1      -3.431   8.395  11.530  1.00  0.00     0.091 A 
ATOM     70  F   UNL     1      -1.360   8.549  10.355  1.00  0.00    -0.205 F 
ATOM     71  C   UNL     1      -4.627   9.002  11.943  1.00  0.00     0.022 A 
BRANCH  69  72
ATOM     72  S   UNL     1      -3.166   6.683  12.008  1.00  0.00     0.127 S 
ATOM     73  O   UNL     1      -2.742   6.822  13.398  1.00  0.00    -0.237 OA
ATOM     74  O   UNL     1      -4.498   6.103  11.825  1.00  0.00    -0.237 OA
ATOM     75  O   UNL     1      -2.164   6.175  11.081  1.00  0.00    -0.744 OA
ENDBRANCH  69  72
ENDBRANCH  41  65
BRANCH  53  76
ATOM     76  C   UNL     1       0.825  16.267  11.035  1.00  0.00     0.023 A 
ATOM     77  C   UNL     1       1.576  15.898  12.168  1.00  0.00     0.012 A 
ATOM     78  C   UNL     1       0.281  17.564  10.958  1.00  0.00     0.148 A 
ATOM     79  C   UNL     1       1.755  16.793  13.222  1.00  0.00     0.002 A 
ATOM     80  C   UNL     1       0.503  18.466  11.992  1.00  0.00     0.091 A 
ATOM     81  F   UNL     1      -0.448  17.891   9.881  1.00  0.00    -0.205 F 
ATOM     82  C   UNL     1       1.230  18.079  13.129  1.00  0.00     0.022 A 
BRANCH  80  83
ATOM     83  S   UNL     1      -0.059  20.171  11.913  1.00  0.00     0.127 S 
ATOM     84  O   UNL     1      -1.218  20.146  12.803  1.00  0.00    -0.237 OA
ATOM     85  O   UNL     1       1.095  20.906  12.434  1.00  0.00    -0.237 OA
ATOM     86  O   UNL     1      -0.349  20.429  10.509  1.00  0.00    -0.744 OA
ENDBRANCH  80  83
ENDBRANCH  53  76
ENDBRANCH  27  28
ENDBRANCH  19  22
ENDBRANCH  17  18
ENDBRANCH   1  17
TORSDOF 16
