REMARK SMILES COc1ccc(-c2cc(Cl)cc3c2O[C@@H](C(F)(F)F)C(C(=O)NCCCCNC(=O)c2ccc(-c4c5nc(c(-c6cccc(S(=O)(=O)[O-])c6F)c6ccc([nH]6)c(-c6cccc(S(=O)(=O)[O-])c6F)c6nc(c(-c7cccc(S(=O)(=O)[O-])c7F)c7ccc4[nH]7)C=C6)C=C5)cc2)=C3)cc1C
REMARK SMILES IDX 26 1 25 2 24 3 23 4 21 5 22 6 20 8 7 9 8 10 13 11 9 12 12 13
REMARK SMILES IDX 14 14 10 15 11 16 94 17 15 18 6 19 3 20 4 21 96 22 5 23
REMARK SMILES IDX 95 24 97 25 2 26 1 27 16 28 17 29 18 30 19 31 27 32 28 33
REMARK SMILES IDX 29 34 30 36 31 37 32 38 93 39 33 40 92 41 34 42 35 43 36 44
REMARK SMILES IDX 86 45 37 46 91 47 85 48 87 49 38 50 90 51 84 52 83 53 39 55
REMARK SMILES IDX 71 56 51 57 70 58 52 59 55 60 69 61 88 62 53 63 54 64 68 66
REMARK SMILES IDX 89 67 56 68 40 69 41 70 49 71 42 72 44 73 50 74 43 75 45 76
REMARK SMILES IDX 46 77 47 78 48 79 72 80 73 81 81 82 74 83 76 84 82 85 75 86
REMARK SMILES IDX 77 87 78 88 79 89 80 90 57 91 58 92 66 93 59 94 61 95 67 96
REMARK SMILES IDX 60 97 62 98 63 99 64 100 65 101
REMARK H PARENT 23 7 28 35 87 54 55 65
REMARK Flexibility Score: inf
ROOT
ATOM      1  C   UNL     1      -4.389  -0.983   6.646  1.00  0.00     0.023 C 
ENDROOT
BRANCH   1   2
ATOM      2  C   UNL     1      -3.558  -0.634   7.874  1.00  0.00     0.023 C 
BRANCH   2   3
ATOM      3  C   UNL     1      -2.259  -1.413   8.158  1.00  0.00     0.116 C 
BRANCH   3   4
ATOM      4  N   UNL     1      -1.056  -1.200   7.349  1.00  0.00    -0.352 N 
ATOM      5  C   UNL     1       0.286  -1.005   7.643  1.00  0.00     0.251 C 
ATOM      6  O   UNL     1       1.098  -1.292   6.759  1.00  0.00    -0.270 OA
ATOM      7  H   UNL     1      -1.241  -1.193   6.382  1.00  0.00     0.163 HD
BRANCH   5   8
ATOM      8  C   UNL     1       0.819  -0.315   8.925  1.00  0.00     0.067 C 
ATOM      9  C   UNL     1       0.678   2.698   6.440  1.00  0.00     0.026 A 
ATOM     10  C   UNL     1       1.623   3.755   6.489  1.00  0.00     0.033 A 
ATOM     11  C   UNL     1       0.631   1.899   7.585  1.00  0.00     0.135 A 
ATOM     12  C   UNL     1       2.603   3.803   7.486  1.00  0.00     0.042 A 
ATOM     13  C   UNL     1       1.855   1.670   8.254  1.00  0.00     0.019 A 
ATOM     14  O   UNL     1      -0.571   1.428   8.237  1.00  0.00    -0.475 OA
ATOM     15  Cl  UNL     1       3.725   5.107   7.522  1.00  0.00    -0.084 Cl
ATOM     16  C   UNL     1       2.776   2.709   8.327  1.00  0.00     0.032 A 
ATOM     17  C   UNL     1       2.022   0.317   8.896  1.00  0.00     0.025 C 
ATOM     18  C   UNL     1      -0.155   0.691   9.460  1.00  0.00     0.314 C 
BRANCH   9  19
ATOM     19  C   UNL     1       0.511   2.134   5.052  1.00  0.00    -0.014 A 
ATOM     20  C   UNL     1       0.459   1.508   2.267  1.00  0.00     0.121 A 
ATOM     21  C   UNL     1      -0.702   1.885   2.960  1.00  0.00     0.047 A 
ATOM     22  C   UNL     1       1.673   1.423   2.949  1.00  0.00    -0.008 A 
ATOM     23  C   UNL     1      -0.681   2.194   4.335  1.00  0.00     0.013 A 
ATOM     24  C   UNL     1       1.667   1.689   4.338  1.00  0.00     0.016 A 
ATOM     25  C   UNL     1       2.973   1.123   2.251  1.00  0.00     0.048 C 
BRANCH  20  26
ATOM     26  O   UNL     1       0.340   1.404   0.904  1.00  0.00    -0.496 OA
ATOM     27  C   UNL     1       0.676   0.118   0.381  1.00  0.00     0.278 C 
ENDBRANCH  20  26
ENDBRANCH   9  19
BRANCH  18  28
ATOM     28  C   UNL     1      -0.885   0.009  10.646  1.00  0.00     0.429 C 
ATOM     29  F   UNL     1      -0.219   0.309  11.803  1.00  0.00    -0.167 F 
ATOM     30  F   UNL     1      -2.157   0.411  10.817  1.00  0.00    -0.167 F 
ATOM     31  F   UNL     1      -0.856  -1.350  10.614  1.00  0.00    -0.167 F 
ENDBRANCH  18  28
ENDBRANCH   5   8
ENDBRANCH   3   4
ENDBRANCH   2   3
ENDBRANCH   1   2
BRANCH   1  32
ATOM     32  C   UNL     1      -4.527  -2.462   6.380  1.00  0.00     0.116 C 
BRANCH  32  33
ATOM     33  N   UNL     1      -5.538  -3.178   7.120  1.00  0.00    -0.352 N 
ATOM     34  C   UNL     1      -5.964  -4.482   6.923  1.00  0.00     0.251 C 
ATOM     35  H   UNL     1      -5.977  -2.683   7.849  1.00  0.00     0.163 HD
ATOM     36  O   UNL     1      -7.000  -4.828   7.500  1.00  0.00    -0.269 OA
BRANCH  34  37
ATOM     37  C   UNL     1      -5.129  -5.487   6.189  1.00  0.00     0.039 A 
ATOM     38  C   UNL     1      -5.377  -6.845   6.438  1.00  0.00     0.014 A 
ATOM     39  C   UNL     1      -3.951  -5.142   5.534  1.00  0.00     0.014 A 
ATOM     40  C   UNL     1      -4.337  -7.764   6.355  1.00  0.00     0.010 A 
ATOM     41  C   UNL     1      -2.891  -6.000   5.570  1.00  0.00     0.010 A 
ATOM     42  C   UNL     1      -3.072  -7.277   6.087  1.00  0.00    -0.014 A 
BRANCH  42  43
ATOM     43  C   UNL     1      -1.821  -7.967   6.282  1.00  0.00     0.031 A 
ATOM     44  C   UNL     1      -1.243  -8.680   5.146  1.00  0.00     0.074 A 
ATOM     45  C   UNL     1      -1.094  -7.514   7.326  1.00  0.00     0.049 A 
ATOM     46  N   UNL     1      -0.137  -9.325   5.191  1.00  0.00    -0.248 NA
ATOM     47  C   UNL     1      -1.889  -8.707   3.841  1.00  0.00     0.031 C 
ATOM     48  C   UNL     1       0.350  -7.435   7.483  1.00  0.00     0.029 A 
ATOM     49  N   UNL     1      -1.583  -7.074   8.550  1.00  0.00    -0.354 N 
ATOM     50  C   UNL     1       0.230  -9.584   3.888  1.00  0.00     0.074 A 
ATOM     51  C   UNL     1      -0.946  -9.299   3.106  1.00  0.00     0.031 C 
ATOM     52  C   UNL     1       0.635  -7.210   8.780  1.00  0.00     0.029 A 
ATOM     53  C   UNL     1      -0.610  -7.355   9.517  1.00  0.00     0.049 A 
ATOM     54  H   UNL     1      -2.453  -6.643   8.708  1.00  0.00     0.167 HD
ATOM     55  C   UNL     1       1.545  -9.845   3.643  1.00  0.00     0.034 A 
ATOM     56  C   UNL     1      -0.870  -8.363  10.412  1.00  0.00     0.034 A 
ATOM     57  C   UNL     1       2.283  -9.925   4.923  1.00  0.00     0.049 A 
ATOM     58  C   UNL     1       0.021  -9.582  10.212  1.00  0.00     0.074 A 
ATOM     59  C   UNL     1       3.083  -9.029   5.615  1.00  0.00     0.029 A 
ATOM     60  N   UNL     1       1.938 -10.918   5.838  1.00  0.00    -0.354 N 
ATOM     61  N   UNL     1       0.826  -9.769   9.200  1.00  0.00    -0.248 NA
ATOM     62  C   UNL     1       0.082 -10.684  11.165  1.00  0.00     0.031 C 
ATOM     63  C   UNL     1       3.141  -9.451   6.978  1.00  0.00     0.029 A 
ATOM     64  C   UNL     1       2.411 -10.622   7.110  1.00  0.00     0.049 A 
ATOM     65  H   UNL     1       1.425 -11.727   5.612  1.00  0.00     0.167 HD
ATOM     66  C   UNL     1       1.400 -11.012   9.265  1.00  0.00     0.074 A 
ATOM     67  C   UNL     1       0.967 -11.501  10.568  1.00  0.00     0.031 C 
ATOM     68  C   UNL     1       2.131 -11.537   8.224  1.00  0.00     0.034 A 
BRANCH  55  69
ATOM     69  C   UNL     1       2.238  -9.771   2.287  1.00  0.00     0.023 A 
ATOM     70  C   UNL     1       3.651  -9.762   2.296  1.00  0.00     0.012 A 
ATOM     71  C   UNL     1       1.640  -9.655   1.006  1.00  0.00     0.148 A 
ATOM     72  C   UNL     1       4.417  -9.587   1.135  1.00  0.00     0.002 A 
ATOM     73  C   UNL     1       2.399  -9.456  -0.153  1.00  0.00     0.091 A 
ATOM     74  F   UNL     1       0.323  -9.776   0.864  1.00  0.00    -0.205 F 
ATOM     75  C   UNL     1       3.791  -9.417  -0.089  1.00  0.00     0.022 A 
BRANCH  73  76
ATOM     76  S   UNL     1       1.654  -9.206  -1.780  1.00  0.00     0.127 S 
ATOM     77  O   UNL     1       2.223  -7.919  -2.183  1.00  0.00    -0.237 OA
ATOM     78  O   UNL     1       2.155 -10.354  -2.534  1.00  0.00    -0.237 OA
ATOM     79  O   UNL     1       0.210  -9.182  -1.578  1.00  0.00    -0.744 OA
ENDBRANCH  73  76
ENDBRANCH  55  69
BRANCH  56  80
ATOM     80  C   UNL     1      -2.333  -8.398  10.783  1.00  0.00     0.023 A 
ATOM     81  C   UNL     1      -2.877  -7.202  11.322  1.00  0.00     0.012 A 
ATOM     82  C   UNL     1      -3.209  -9.320  10.182  1.00  0.00     0.148 A 
ATOM     83  C   UNL     1      -4.198  -6.833  11.053  1.00  0.00     0.002 A 
ATOM     84  C   UNL     1      -4.538  -8.958   9.949  1.00  0.00     0.091 A 
ATOM     85  F   UNL     1      -2.729 -10.507   9.791  1.00  0.00    -0.205 F 
ATOM     86  C   UNL     1      -5.013  -7.690  10.321  1.00  0.00     0.022 A 
BRANCH  84  87
ATOM     87  S   UNL     1      -5.649 -10.067   9.072  1.00  0.00     0.127 S 
ATOM     88  O   UNL     1      -6.159 -10.897  10.160  1.00  0.00    -0.237 OA
ATOM     89  O   UNL     1      -6.638  -9.159   8.489  1.00  0.00    -0.237 OA
ATOM     90  O   UNL     1      -4.808 -10.736   8.090  1.00  0.00    -0.744 OA
ENDBRANCH  84  87
ENDBRANCH  56  80
BRANCH  68  91
ATOM     91  C   UNL     1       2.647 -12.975   8.113  1.00  0.00     0.023 A 
ATOM     92  C   UNL     1       2.260 -14.001   8.993  1.00  0.00     0.012 A 
ATOM     93  C   UNL     1       3.479 -13.377   7.028  1.00  0.00     0.148 A 
ATOM     94  C   UNL     1       2.696 -15.325   8.846  1.00  0.00     0.002 A 
ATOM     95  C   UNL     1       3.803 -14.714   6.812  1.00  0.00     0.091 A 
ATOM     96  F   UNL     1       4.009 -12.460   6.207  1.00  0.00    -0.205 F 
ATOM     97  C   UNL     1       3.441 -15.688   7.738  1.00  0.00     0.022 A 
BRANCH  95  98
ATOM     98  S   UNL     1       4.570 -15.264   5.280  1.00  0.00     0.127 S 
ATOM     99  O   UNL     1       5.962 -15.443   5.690  1.00  0.00    -0.237 OA
ATOM    100  O   UNL     1       3.851 -16.510   5.007  1.00  0.00    -0.237 OA
ATOM    101  O   UNL     1       4.319 -14.205   4.314  1.00  0.00    -0.744 OA
ENDBRANCH  95  98
ENDBRANCH  68  91
ENDBRANCH  42  43
ENDBRANCH  34  37
ENDBRANCH  32  33
ENDBRANCH   1  32
TORSDOF 17
