REMARK SMILES CC[NH+](CC)[C@@H](C(=O)NCCCCNC(=O)c1ccc(-c2c3nc(c(-c4cccc(S(=O)(=O)[O-])c4F)c4ccc([nH]4)c(-c4cccc(S(=O)(=O)[O-])c4F)c4nc(c(-c5cccc(S(=O)(=O)[O-])c5F)c5ccc2[nH]5)C=C4)C=C3)cc1)c1ccc(C2CC2)cc1
REMARK SMILES IDX 12 1 11 2 10 3 9 4 7 5 8 6 6 8 3 9 2 11 1 12 4 13 5 14 80 15
REMARK SMILES IDX 81 16 88 17 82 18 87 19 83 20 84 21 85 22 86 23 13 24 14 25
REMARK SMILES IDX 15 26 16 28 17 29 18 30 79 31 19 32 78 33 20 34 21 35 22 36
REMARK SMILES IDX 72 37 23 38 77 39 71 40 73 41 24 42 76 43 70 44 69 45 25 47
REMARK SMILES IDX 57 48 37 49 56 50 38 51 41 52 55 53 74 54 39 55 40 56 54 58
REMARK SMILES IDX 75 59 42 60 26 61 27 62 35 63 28 64 30 65 36 66 29 67 31 68
REMARK SMILES IDX 32 69 33 70 34 71 58 72 59 73 67 74 60 75 62 76 68 77 61 78
REMARK SMILES IDX 63 79 64 80 65 81 66 82 43 83 44 84 52 85 45 86 47 87 53 88
REMARK SMILES IDX 46 89 48 90 49 91 50 92 51 93
REMARK H PARENT 9 7 3 10 14 27 73 46 41 57
REMARK Flexibility Score: inf
ROOT
ATOM      1  C   UNL     1       0.849  -3.018   6.038  1.00  0.00     0.023 C 
ENDROOT
BRANCH   1   2
ATOM      2  C   UNL     1       0.857  -1.497   5.885  1.00  0.00     0.023 C 
BRANCH   2   3
ATOM      3  C   UNL     1       2.153  -0.879   5.337  1.00  0.00     0.116 C 
BRANCH   3   4
ATOM      4  N   UNL     1       2.688  -1.546   4.160  1.00  0.00    -0.351 N 
ATOM      5  C   UNL     1       2.736  -1.221   2.827  1.00  0.00     0.283 C 
ATOM      6  O   UNL     1       3.242  -2.085   2.103  1.00  0.00    -0.268 OA
ATOM      7  H   UNL     1       3.103  -2.414   4.363  1.00  0.00     0.163 HD
BRANCH   5   8
ATOM      8  C   UNL     1       2.151   0.118   2.277  1.00  0.00     0.305 C 
BRANCH   8   9
ATOM      9  N   UNL     1       0.746  -0.017   1.742  1.00  0.00    -0.321 N 
ATOM     10  H   UNL     1       0.515   0.967   1.609  1.00  0.00     0.349 HD
BRANCH   9  11
ATOM     11  C   UNL     1       0.578  -0.604   0.406  1.00  0.00     0.259 C 
ATOM     12  C   UNL     1       0.624   0.413  -0.729  1.00  0.00     0.071 C 
ENDBRANCH   9  11
BRANCH   9  13
ATOM     13  C   UNL     1      -0.207  -0.591   2.693  1.00  0.00     0.259 C 
ATOM     14  C   UNL     1      -0.334  -2.120   2.702  1.00  0.00     0.071 C 
ENDBRANCH   9  13
ENDBRANCH   8   9
BRANCH   8  15
ATOM     15  C   UNL     1       3.044   0.872   1.269  1.00  0.00     0.019 A 
ATOM     16  C   UNL     1       3.899   0.230   0.366  1.00  0.00     0.011 A 
ATOM     17  C   UNL     1       2.825   2.248   1.080  1.00  0.00     0.011 A 
ATOM     18  C   UNL     1       4.373   0.897  -0.772  1.00  0.00     0.004 A 
ATOM     19  C   UNL     1       3.300   2.906  -0.065  1.00  0.00     0.004 A 
ATOM     20  C   UNL     1       4.013   2.223  -1.062  1.00  0.00    -0.045 A 
BRANCH  20  21
ATOM     21  C   UNL     1       4.295   2.776  -2.446  1.00  0.00     0.019 C 
ATOM     22  C   UNL     1       3.720   4.083  -2.939  1.00  0.00     0.009 C 
ATOM     23  C   UNL     1       5.188   3.970  -2.643  1.00  0.00     0.009 C 
ENDBRANCH  20  21
ENDBRANCH   8  15
ENDBRANCH   5   8
ENDBRANCH   3   4
ENDBRANCH   2   3
ENDBRANCH   1   2
BRANCH   1  24
ATOM     24  C   UNL     1       1.628  -3.502   7.245  1.00  0.00     0.116 C 
BRANCH  24  25
ATOM     25  N   UNL     1       1.042  -3.003   8.486  1.00  0.00    -0.352 N 
ATOM     26  C   UNL     1       0.635  -3.704   9.589  1.00  0.00     0.251 C 
ATOM     27  H   UNL     1       0.923  -2.027   8.537  1.00  0.00     0.163 HD
ATOM     28  O   UNL     1      -0.078  -3.159  10.435  1.00  0.00    -0.269 OA
BRANCH  26  29
ATOM     29  C   UNL     1       1.060  -5.103   9.755  1.00  0.00     0.039 A 
ATOM     30  C   UNL     1       0.154  -6.045  10.246  1.00  0.00     0.014 A 
ATOM     31  C   UNL     1       2.364  -5.477   9.421  1.00  0.00     0.014 A 
ATOM     32  C   UNL     1       0.552  -7.375  10.367  1.00  0.00     0.010 A 
ATOM     33  C   UNL     1       2.723  -6.814   9.443  1.00  0.00     0.010 A 
ATOM     34  C   UNL     1       1.833  -7.771   9.946  1.00  0.00    -0.014 A 
BRANCH  34  35
ATOM     35  C   UNL     1       2.281  -9.177  10.048  1.00  0.00     0.031 A 
ATOM     36  C   UNL     1       3.464  -9.520  10.911  1.00  0.00     0.074 A 
ATOM     37  C   UNL     1       1.683 -10.116   9.291  1.00  0.00     0.049 A 
ATOM     38  N   UNL     1       4.048 -10.675  11.086  1.00  0.00    -0.248 NA
ATOM     39  C   UNL     1       4.103  -8.411  11.644  1.00  0.00     0.031 C 
ATOM     40  C   UNL     1       0.591  -9.872   8.346  1.00  0.00     0.029 A 
ATOM     41  N   UNL     1       1.928 -11.460   9.177  1.00  0.00    -0.354 N 
ATOM     42  C   UNL     1       5.141 -10.425  11.907  1.00  0.00     0.074 A 
ATOM     43  C   UNL     1       5.169  -9.003  12.159  1.00  0.00     0.031 C 
ATOM     44  C   UNL     1       0.253 -11.030   7.757  1.00  0.00     0.029 A 
ATOM     45  C   UNL     1       1.122 -12.089   8.259  1.00  0.00     0.049 A 
ATOM     46  H   UNL     1       2.616 -11.929   9.702  1.00  0.00     0.167 HD
ATOM     47  C   UNL     1       6.023 -11.307  12.432  1.00  0.00     0.034 A 
ATOM     48  C   UNL     1       1.093 -13.376   7.865  1.00  0.00     0.034 A 
ATOM     49  C   UNL     1       5.951 -12.725  12.212  1.00  0.00     0.049 A 
ATOM     50  C   UNL     1       2.040 -14.348   8.512  1.00  0.00     0.074 A 
ATOM     51  C   UNL     1       6.723 -13.724  12.775  1.00  0.00     0.029 A 
ATOM     52  N   UNL     1       5.056 -13.344  11.352  1.00  0.00    -0.354 N 
ATOM     53  N   UNL     1       2.961 -14.122   9.419  1.00  0.00    -0.248 NA
ATOM     54  C   UNL     1       1.920 -15.757   8.115  1.00  0.00     0.031 C 
ATOM     55  C   UNL     1       6.313 -14.946  12.232  1.00  0.00     0.029 A 
ATOM     56  C   UNL     1       5.263 -14.711  11.358  1.00  0.00     0.049 A 
ATOM     57  H   UNL     1       4.374 -12.878  10.817  1.00  0.00     0.167 HD
ATOM     58  C   UNL     1       3.507 -15.362   9.725  1.00  0.00     0.074 A 
ATOM     59  C   UNL     1       2.798 -16.338   8.922  1.00  0.00     0.031 C 
ATOM     60  C   UNL     1       4.513 -15.667  10.583  1.00  0.00     0.034 A 
BRANCH  47  61
ATOM     61  C   UNL     1       7.106 -10.766  13.330  1.00  0.00     0.023 A 
ATOM     62  C   UNL     1       6.769 -10.242  14.596  1.00  0.00     0.012 A 
ATOM     63  C   UNL     1       8.458 -10.808  12.941  1.00  0.00     0.148 A 
ATOM     64  C   UNL     1       7.753  -9.730  15.440  1.00  0.00     0.002 A 
ATOM     65  C   UNL     1       9.439 -10.342  13.809  1.00  0.00     0.091 A 
ATOM     66  F   UNL     1       8.760 -11.287  11.725  1.00  0.00    -0.205 F 
ATOM     67  C   UNL     1       9.088  -9.789  15.051  1.00  0.00     0.022 A 
BRANCH  65  68
ATOM     68  S   UNL     1      11.193 -10.450  13.436  1.00  0.00     0.127 S 
ATOM     69  O   UNL     1      11.534  -9.045  13.216  1.00  0.00    -0.237 OA
ATOM     70  O   UNL     1      11.733 -11.022  14.670  1.00  0.00    -0.237 OA
ATOM     71  O   UNL     1      11.304 -11.311  12.268  1.00  0.00    -0.744 OA
ENDBRANCH  65  68
ENDBRANCH  47  61
BRANCH  48  72
ATOM     72  C   UNL     1       0.084 -13.822   6.864  1.00  0.00     0.023 A 
ATOM     73  C   UNL     1      -0.990 -14.635   7.278  1.00  0.00     0.012 A 
ATOM     74  C   UNL     1       0.152 -13.406   5.521  1.00  0.00     0.148 A 
ATOM     75  C   UNL     1      -1.960 -15.051   6.366  1.00  0.00     0.002 A 
ATOM     76  C   UNL     1      -0.848 -13.778   4.629  1.00  0.00     0.091 A 
ATOM     77  F   UNL     1       1.184 -12.637   5.147  1.00  0.00    -0.205 F 
ATOM     78  C   UNL     1      -1.895 -14.615   5.045  1.00  0.00     0.022 A 
BRANCH  76  79
ATOM     79  S   UNL     1      -0.920 -13.154   2.946  1.00  0.00     0.127 S 
ATOM     80  O   UNL     1      -0.630 -14.356   2.170  1.00  0.00    -0.237 OA
ATOM     81  O   UNL     1      -2.303 -12.683   2.860  1.00  0.00    -0.237 OA
ATOM     82  O   UNL     1       0.080 -12.098   2.874  1.00  0.00    -0.744 OA
ENDBRANCH  76  79
ENDBRANCH  48  72
BRANCH  60  83
ATOM     83  C   UNL     1       4.887 -17.117  10.727  1.00  0.00     0.023 A 
ATOM     84  C   UNL     1       5.572 -17.773   9.685  1.00  0.00     0.012 A 
ATOM     85  C   UNL     1       4.628 -17.805  11.929  1.00  0.00     0.148 A 
ATOM     86  C   UNL     1       5.964 -19.104   9.826  1.00  0.00     0.002 A 
ATOM     87  C   UNL     1       5.068 -19.113  12.081  1.00  0.00     0.091 A 
ATOM     88  F   UNL     1       3.959 -17.166  12.900  1.00  0.00    -0.205 F 
ATOM     89  C   UNL     1       5.724 -19.768  11.026  1.00  0.00     0.022 A 
BRANCH  87  90
ATOM     90  S   UNL     1       4.896 -20.012  13.626  1.00  0.00     0.127 S 
ATOM     91  O   UNL     1       3.865 -20.991  13.287  1.00  0.00    -0.237 OA
ATOM     92  O   UNL     1       6.234 -20.573  13.809  1.00  0.00    -0.237 OA
ATOM     93  O   UNL     1       4.513 -19.023  14.626  1.00  0.00    -0.744 OA
ENDBRANCH  87  90
ENDBRANCH  60  83
ENDBRANCH  34  35
ENDBRANCH  26  29
ENDBRANCH  24  25
ENDBRANCH   1  24
TORSDOF 19
