REMARK SMILES COc1ccc(-c2cc(C(=O)NCCCCNC(=O)c3ccc(-c4c5nc(c(-c6cccc(S(=O)(=O)[O-])c6F)c6ccc([nH]6)c(-c6cccc(S(=O)(=O)[O-])c6F)c6nc(c(-c7cccc(S(=O)(=O)[O-])c7F)c7ccc4[nH]7)C=C6)C=C5)cc3)nc(=O)n2C)cc1
REMARK SMILES IDX 15 1 14 2 13 3 12 4 10 5 11 6 9 8 7 9 8 10 86 11 84 12 87 13
REMARK SMILES IDX 83 14 85 15 6 16 3 17 4 18 89 19 5 20 88 21 2 22 1 23 16 24
REMARK SMILES IDX 17 25 18 26 19 28 20 29 21 30 82 31 22 32 81 33 23 34 24 35
REMARK SMILES IDX 25 36 75 37 26 38 80 39 74 40 76 41 27 42 79 43 73 44 72 45
REMARK SMILES IDX 28 47 60 48 40 49 59 50 41 51 44 52 58 53 77 54 42 55 43 56
REMARK SMILES IDX 57 58 78 59 45 60 29 61 30 62 38 63 31 64 33 65 39 66 32 67
REMARK SMILES IDX 34 68 35 69 36 70 37 71 61 72 62 73 70 74 63 75 65 76 71 77
REMARK SMILES IDX 64 78 66 79 67 80 68 81 69 82 46 83 47 84 55 85 48 86 50 87
REMARK SMILES IDX 56 88 49 89 51 90 52 91 53 92 54 93
REMARK H PARENT 12 7 17 27 76 46 44 57
REMARK Flexibility Score: inf
ROOT
ATOM      1  C   UNL     1       0.033  -5.426 -12.423  1.00  0.00     0.023 C 
ENDROOT
BRANCH   1   2
ATOM      2  C   UNL     1       0.849  -5.590 -11.138  1.00  0.00     0.023 C 
BRANCH   2   3
ATOM      3  C   UNL     1       1.620  -4.337 -10.731  1.00  0.00     0.116 C 
BRANCH   3   4
ATOM      4  N   UNL     1       0.733  -3.315 -10.203  1.00  0.00    -0.351 N 
ATOM      5  C   UNL     1       0.532  -2.872  -8.920  1.00  0.00     0.270 C 
ATOM      6  O   UNL     1      -0.299  -1.992  -8.708  1.00  0.00    -0.268 OA
ATOM      7  H   UNL     1       0.181  -2.863 -10.882  1.00  0.00     0.163 HD
BRANCH   5   8
ATOM      8  C   UNL     1       1.323  -3.426  -7.730  1.00  0.00     0.136 A 
ATOM      9  C   UNL     1       1.687  -3.311  -5.380  1.00  0.00     0.055 A 
ATOM     10  C   UNL     1       1.015  -2.817  -6.425  1.00  0.00     0.061 A 
ATOM     11  N   UNL     1       2.622  -4.318  -5.559  1.00  0.00    -0.295 N 
ATOM     12  C   UNL     1       2.908  -4.827  -6.832  1.00  0.00     0.348 A 
ATOM     13  C   UNL     1       3.378  -4.907  -4.467  1.00  0.00     0.155 C 
ATOM     14  N   UNL     1       2.197  -4.360  -7.898  1.00  0.00    -0.188 NA
ATOM     15  O   UNL     1       3.783  -5.676  -6.997  1.00  0.00    -0.246 OA
BRANCH   9  16
ATOM     16  C   UNL     1       1.391  -2.736  -4.056  1.00  0.00    -0.001 A 
ATOM     17  C   UNL     1       0.806  -1.628  -1.543  1.00  0.00     0.118 A 
ATOM     18  C   UNL     1      -0.169  -2.341  -2.238  1.00  0.00     0.047 A 
ATOM     19  C   UNL     1       2.081  -1.482  -2.091  1.00  0.00     0.047 A 
ATOM     20  C   UNL     1       0.117  -2.888  -3.490  1.00  0.00     0.014 A 
ATOM     21  C   UNL     1       2.367  -2.020  -3.349  1.00  0.00     0.014 A 
BRANCH  17  22
ATOM     22  O   UNL     1       0.437  -1.158  -0.313  1.00  0.00    -0.497 OA
ATOM     23  C   UNL     1       0.960   0.128   0.003  1.00  0.00     0.278 C 
ENDBRANCH  17  22
ENDBRANCH   9  16
ENDBRANCH   5   8
ENDBRANCH   3   4
ENDBRANCH   2   3
ENDBRANCH   1   2
BRANCH   1  24
ATOM     24  C   UNL     1       0.826  -4.939 -13.633  1.00  0.00     0.116 C 
BRANCH  24  25
ATOM     25  N   UNL     1       1.976  -5.779 -13.941  1.00  0.00    -0.352 N 
ATOM     26  C   UNL     1       2.400  -6.235 -15.167  1.00  0.00     0.251 C 
ATOM     27  H   UNL     1       2.522  -6.057 -13.170  1.00  0.00     0.163 HD
ATOM     28  O   UNL     1       3.320  -7.042 -15.249  1.00  0.00    -0.269 OA
BRANCH  26  29
ATOM     29  C   UNL     1       1.705  -5.766 -16.382  1.00  0.00     0.039 A 
ATOM     30  C   UNL     1       1.233  -6.709 -17.297  1.00  0.00     0.014 A 
ATOM     31  C   UNL     1       1.464  -4.403 -16.577  1.00  0.00     0.014 A 
ATOM     32  C   UNL     1       0.445  -6.289 -18.369  1.00  0.00     0.010 A 
ATOM     33  C   UNL     1       0.614  -3.998 -17.601  1.00  0.00     0.010 A 
ATOM     34  C   UNL     1       0.090  -4.936 -18.503  1.00  0.00    -0.014 A 
BRANCH  34  35
ATOM     35  C   UNL     1      -0.861  -4.490 -19.553  1.00  0.00     0.031 A 
ATOM     36  C   UNL     1      -0.428  -3.502 -20.601  1.00  0.00     0.074 A 
ATOM     37  C   UNL     1      -2.145  -4.900 -19.503  1.00  0.00     0.049 A 
ATOM     38  N   UNL     1      -1.135  -2.946 -21.550  1.00  0.00    -0.248 NA
ATOM     39  C   UNL     1       0.976  -3.059 -20.563  1.00  0.00     0.031 C 
ATOM     40  C   UNL     1      -2.709  -5.793 -18.488  1.00  0.00     0.029 A 
ATOM     41  N   UNL     1      -3.217  -4.594 -20.304  1.00  0.00    -0.354 N 
ATOM     42  C   UNL     1      -0.279  -2.063 -22.195  1.00  0.00     0.074 A 
ATOM     43  C   UNL     1       0.995  -2.136 -21.514  1.00  0.00     0.031 C 
ATOM     44  C   UNL     1      -4.019  -5.961 -18.726  1.00  0.00     0.029 A 
ATOM     45  C   UNL     1      -4.400  -5.158 -19.883  1.00  0.00     0.049 A 
ATOM     46  H   UNL     1      -3.147  -4.025 -21.105  1.00  0.00     0.167 HD
ATOM     47  C   UNL     1      -0.525  -1.278 -23.271  1.00  0.00     0.034 A 
ATOM     48  C   UNL     1      -5.654  -5.028 -20.359  1.00  0.00     0.034 A 
ATOM     49  C   UNL     1      -1.782  -1.235 -23.966  1.00  0.00     0.049 A 
ATOM     50  C   UNL     1      -5.891  -4.169 -21.572  1.00  0.00     0.074 A 
ATOM     51  C   UNL     1      -2.097  -0.550 -25.127  1.00  0.00     0.029 A 
ATOM     52  N   UNL     1      -2.938  -1.882 -23.559  1.00  0.00    -0.354 N 
ATOM     53  N   UNL     1      -5.027  -3.476 -22.273  1.00  0.00    -0.248 NA
ATOM     54  C   UNL     1      -7.270  -4.098 -22.079  1.00  0.00     0.031 C 
ATOM     55  C   UNL     1      -3.454  -0.748 -25.397  1.00  0.00     0.029 A 
ATOM     56  C   UNL     1      -3.974  -1.593 -24.430  1.00  0.00     0.049 A 
ATOM     57  H   UNL     1      -3.011  -2.462 -22.767  1.00  0.00     0.167 HD
ATOM     58  C   UNL     1      -5.749  -2.914 -23.320  1.00  0.00     0.074 A 
ATOM     59  C   UNL     1      -7.117  -3.368 -23.175  1.00  0.00     0.031 C 
ATOM     60  C   UNL     1      -5.321  -2.086 -24.304  1.00  0.00     0.034 A 
BRANCH  47  61
ATOM     61  C   UNL     1       0.599  -0.421 -23.790  1.00  0.00     0.023 A 
ATOM     62  C   UNL     1       1.694  -1.021 -24.445  1.00  0.00     0.012 A 
ATOM     63  C   UNL     1       0.531   0.984 -23.701  1.00  0.00     0.148 A 
ATOM     64  C   UNL     1       2.719  -0.239 -24.977  1.00  0.00     0.002 A 
ATOM     65  C   UNL     1       1.532   1.758 -24.276  1.00  0.00     0.091 A 
ATOM     66  F   UNL     1      -0.508   1.534 -23.058  1.00  0.00    -0.205 F 
ATOM     67  C   UNL     1       2.631   1.149 -24.903  1.00  0.00     0.022 A 
BRANCH  65  68
ATOM     68  S   UNL     1       1.471   3.553 -24.309  1.00  0.00     0.127 S 
ATOM     69  O   UNL     1       2.583   3.901 -23.425  1.00  0.00    -0.237 OA
ATOM     70  O   UNL     1       1.704   3.840 -25.724  1.00  0.00    -0.237 OA
ATOM     71  O   UNL     1       0.150   3.922 -23.821  1.00  0.00    -0.744 OA
ENDBRANCH  65  68
ENDBRANCH  47  61
BRANCH  48  72
ATOM     72  C   UNL     1      -6.782  -5.751 -19.705  1.00  0.00     0.023 A 
ATOM     73  C   UNL     1      -7.425  -6.803 -20.386  1.00  0.00     0.012 A 
ATOM     74  C   UNL     1      -7.212  -5.408 -18.408  1.00  0.00     0.148 A 
ATOM     75  C   UNL     1      -8.502  -7.473 -19.803  1.00  0.00     0.002 A 
ATOM     76  C   UNL     1      -8.245  -6.119 -17.810  1.00  0.00     0.091 A 
ATOM     77  F   UNL     1      -6.594  -4.397 -17.781  1.00  0.00    -0.205 F 
ATOM     78  C   UNL     1      -8.905  -7.139 -18.513  1.00  0.00     0.022 A 
BRANCH  76  79
ATOM     79  S   UNL     1      -8.741  -5.846 -16.106  1.00  0.00     0.127 S 
ATOM     80  O   UNL     1     -10.060  -5.240 -16.272  1.00  0.00    -0.237 OA
ATOM     81  O   UNL     1      -8.750  -7.208 -15.573  1.00  0.00    -0.237 OA
ATOM     82  O   UNL     1      -7.717  -4.984 -15.531  1.00  0.00    -0.744 OA
ENDBRANCH  76  79
ENDBRANCH  48  72
BRANCH  60  83
ATOM     83  C   UNL     1      -6.326  -1.639 -25.333  1.00  0.00     0.023 A 
ATOM     84  C   UNL     1      -7.330  -0.714 -24.982  1.00  0.00     0.012 A 
ATOM     85  C   UNL     1      -6.222  -2.073 -26.670  1.00  0.00     0.148 A 
ATOM     86  C   UNL     1      -8.234  -0.254 -25.939  1.00  0.00     0.002 A 
ATOM     87  C   UNL     1      -7.093  -1.569 -27.628  1.00  0.00     0.091 A 
ATOM     88  F   UNL     1      -5.269  -2.964 -26.980  1.00  0.00    -0.205 F 
ATOM     89  C   UNL     1      -8.108  -0.670 -27.262  1.00  0.00     0.022 A 
BRANCH  87  90
ATOM     90  S   UNL     1      -6.946  -1.970 -29.373  1.00  0.00     0.127 S 
ATOM     91  O   UNL     1      -8.151  -2.768 -29.597  1.00  0.00    -0.237 OA
ATOM     92  O   UNL     1      -6.966  -0.646 -29.995  1.00  0.00    -0.237 OA
ATOM     93  O   UNL     1      -5.689  -2.690 -29.518  1.00  0.00    -0.744 OA
ENDBRANCH  87  90
ENDBRANCH  60  83
ENDBRANCH  34  35
ENDBRANCH  26  29
ENDBRANCH  24  25
ENDBRANCH   1  24
TORSDOF 16
