REMARK SMILES O=C(NCCCCNC(=O)[C@@H](NC(=O)c1ccncc1Cl)C1CC1)c1ccc(-c2c3nc(c(-c4cccc(S(=O)(=O)[O-])c4F)c4ccc([nH]4)c(-c4cccc(S(=O)(=O)[O-])c4F)c4nc(c(-c5cccc(S(=O)(=O)[O-])c5F)c5ccc2[nH]5)C=C4)C=C3)cc1
REMARK SMILES IDX 5 1 4 2 3 3 1 4 2 5 25 7 26 8 87 9 27 10 86 11 28 12 29 13
REMARK SMILES IDX 30 14 80 15 31 16 85 17 79 18 81 19 32 20 84 21 78 22 77 23
REMARK SMILES IDX 33 25 65 26 45 27 64 28 46 29 49 30 63 31 82 32 47 33 48 34
REMARK SMILES IDX 62 36 83 37 50 38 34 39 35 40 43 41 36 42 38 43 44 44 37 45
REMARK SMILES IDX 39 46 40 47 41 48 42 49 66 50 67 51 75 52 68 53 70 54 76 55
REMARK SMILES IDX 69 56 71 57 72 58 73 59 74 60 51 61 52 62 60 63 53 64 55 65
REMARK SMILES IDX 61 66 54 67 56 68 57 69 58 70 59 71 6 72 7 73 8 74 9 75
REMARK SMILES IDX 10 77 11 78 12 79 13 80 14 82 15 83 16 84 20 85 17 86 19 87
REMARK SMILES IDX 21 88 18 89 22 90 23 91 24 92
REMARK H PARENT 3 6 81 24 49 35 8 76 12 81
REMARK Flexibility Score: inf
ROOT
ATOM      1  C   UNL     1       4.912  -2.340   1.234  1.00  0.00     0.023 C 
ENDROOT
BRANCH   1   2
ATOM      2  C   UNL     1       4.615  -1.106   0.390  1.00  0.00     0.116 C 
BRANCH   2   3
ATOM      3  N   UNL     1       3.213  -0.992   0.014  1.00  0.00    -0.352 N 
ATOM      4  O   UNL     1       1.227   0.057  -0.234  1.00  0.00    -0.269 OA
ATOM      5  C   UNL     1       2.429   0.139  -0.001  1.00  0.00     0.251 C 
ATOM      6  H   UNL     1       2.771  -1.826  -0.264  1.00  0.00     0.163 HD
BRANCH   5   7
ATOM      7  C   UNL     1       3.059   1.438   0.307  1.00  0.00     0.039 A 
ATOM      8  C   UNL     1       4.228   1.819  -0.356  1.00  0.00     0.014 A 
ATOM      9  C   UNL     1       2.519   2.236   1.317  1.00  0.00     0.014 A 
ATOM     10  C   UNL     1       4.939   2.924   0.094  1.00  0.00     0.010 A 
ATOM     11  C   UNL     1       3.197   3.391   1.714  1.00  0.00     0.010 A 
ATOM     12  C   UNL     1       4.432   3.720   1.135  1.00  0.00    -0.014 A 
BRANCH  12  13
ATOM     13  C   UNL     1       5.192   4.920   1.567  1.00  0.00     0.031 A 
ATOM     14  C   UNL     1       5.783   5.016   2.945  1.00  0.00     0.074 A 
ATOM     15  C   UNL     1       5.353   5.927   0.687  1.00  0.00     0.049 A 
ATOM     16  N   UNL     1       6.508   5.975   3.461  1.00  0.00    -0.248 NA
ATOM     17  C   UNL     1       5.525   3.900   3.869  1.00  0.00     0.031 C 
ATOM     18  C   UNL     1       4.789   5.958  -0.664  1.00  0.00     0.029 A 
ATOM     19  N   UNL     1       6.038   7.109   0.790  1.00  0.00    -0.354 N 
ATOM     20  C   UNL     1       6.755   5.605   4.777  1.00  0.00     0.074 A 
ATOM     21  C   UNL     1       6.099   4.331   4.984  1.00  0.00     0.031 C 
ATOM     22  C   UNL     1       5.179   7.084  -1.277  1.00  0.00     0.029 A 
ATOM     23  C   UNL     1       5.981   7.875  -0.350  1.00  0.00     0.049 A 
ATOM     24  H   UNL     1       6.524   7.383   1.601  1.00  0.00     0.167 HD
ATOM     25  C   UNL     1       7.476   6.258   5.720  1.00  0.00     0.034 A 
ATOM     26  C   UNL     1       6.512   9.082  -0.621  1.00  0.00     0.034 A 
ATOM     27  C   UNL     1       8.165   7.501   5.492  1.00  0.00     0.049 A 
ATOM     28  C   UNL     1       7.339   9.763   0.429  1.00  0.00     0.074 A 
ATOM     29  C   UNL     1       8.981   8.206   6.361  1.00  0.00     0.029 A 
ATOM     30  N   UNL     1       8.120   8.227   4.311  1.00  0.00    -0.354 N 
ATOM     31  N   UNL     1       7.667   9.335   1.624  1.00  0.00    -0.248 NA
ATOM     32  C   UNL     1       7.890  11.081   0.087  1.00  0.00     0.031 C 
ATOM     33  C   UNL     1       9.420   9.363   5.707  1.00  0.00     0.029 A 
ATOM     34  C   UNL     1       8.886   9.375   4.428  1.00  0.00     0.049 A 
ATOM     35  H   UNL     1       7.617   7.965   3.506  1.00  0.00     0.167 HD
ATOM     36  C   UNL     1       8.481  10.319   2.170  1.00  0.00     0.074 A 
ATOM     37  C   UNL     1       8.616  11.353   1.163  1.00  0.00     0.031 C 
ATOM     38  C   UNL     1       9.050  10.370   3.400  1.00  0.00     0.034 A 
BRANCH  25  39
ATOM     39  C   UNL     1       7.594   5.619   7.079  1.00  0.00     0.023 A 
ATOM     40  C   UNL     1       8.446   4.510   7.252  1.00  0.00     0.012 A 
ATOM     41  C   UNL     1       6.912   6.145   8.193  1.00  0.00     0.148 A 
ATOM     42  C   UNL     1       8.595   3.917   8.506  1.00  0.00     0.002 A 
ATOM     43  C   UNL     1       7.093   5.570   9.447  1.00  0.00     0.091 A 
ATOM     44  F   UNL     1       6.083   7.183   8.008  1.00  0.00    -0.205 F 
ATOM     45  C   UNL     1       7.928   4.452   9.604  1.00  0.00     0.022 A 
BRANCH  43  46
ATOM     46  S   UNL     1       6.322   6.244  10.924  1.00  0.00     0.127 S 
ATOM     47  O   UNL     1       5.155   5.377  11.071  1.00  0.00    -0.237 OA
ATOM     48  O   UNL     1       7.358   6.047  11.940  1.00  0.00    -0.237 OA
ATOM     49  O   UNL     1       6.044   7.640  10.616  1.00  0.00    -0.744 OA
ENDBRANCH  43  46
ENDBRANCH  25  39
BRANCH  26  50
ATOM     50  C   UNL     1       6.331   9.669  -1.977  1.00  0.00     0.023 A 
ATOM     51  C   UNL     1       7.431   9.723  -2.854  1.00  0.00     0.012 A 
ATOM     52  C   UNL     1       5.066  10.091  -2.430  1.00  0.00     0.148 A 
ATOM     53  C   UNL     1       7.276  10.197  -4.157  1.00  0.00     0.002 A 
ATOM     54  C   UNL     1       4.908  10.507  -3.747  1.00  0.00     0.091 A 
ATOM     55  F   UNL     1       4.036  10.045  -1.573  1.00  0.00    -0.205 F 
ATOM     56  C   UNL     1       6.014  10.574  -4.607  1.00  0.00     0.022 A 
BRANCH  54  57
ATOM     57  S   UNL     1       3.293  10.864  -4.450  1.00  0.00     0.127 S 
ATOM     58  O   UNL     1       3.325  12.320  -4.546  1.00  0.00    -0.237 OA
ATOM     59  O   UNL     1       3.357  10.158  -5.731  1.00  0.00    -0.237 OA
ATOM     60  O   UNL     1       2.328  10.309  -3.510  1.00  0.00    -0.744 OA
ENDBRANCH  54  57
ENDBRANCH  26  50
BRANCH  38  61
ATOM     61  C   UNL     1       9.884  11.580   3.723  1.00  0.00     0.023 A 
ATOM     62  C   UNL     1       9.248  12.804   4.007  1.00  0.00     0.012 A 
ATOM     63  C   UNL     1      11.286  11.491   3.808  1.00  0.00     0.148 A 
ATOM     64  C   UNL     1       9.998  13.930   4.344  1.00  0.00     0.002 A 
ATOM     65  C   UNL     1      12.024  12.607   4.184  1.00  0.00     0.091 A 
ATOM     66  F   UNL     1      11.875  10.323   3.508  1.00  0.00    -0.205 F 
ATOM     67  C   UNL     1      11.383  13.829   4.444  1.00  0.00     0.022 A 
BRANCH  65  68
ATOM     68  S   UNL     1      13.804  12.534   4.418  1.00  0.00     0.127 S 
ATOM     69  O   UNL     1      14.294  13.108   3.167  1.00  0.00    -0.237 OA
ATOM     70  O   UNL     1      14.004  13.379   5.596  1.00  0.00    -0.237 OA
ATOM     71  O   UNL     1      14.114  11.126   4.632  1.00  0.00    -0.744 OA
ENDBRANCH  65  68
ENDBRANCH  38  61
ENDBRANCH  12  13
ENDBRANCH   5   7
ENDBRANCH   2   3
ENDBRANCH   1   2
BRANCH   1  72
ATOM     72  C   UNL     1       4.525  -3.669   0.590  1.00  0.00     0.023 C 
BRANCH  72  73
ATOM     73  C   UNL     1       5.158  -3.906  -0.775  1.00  0.00     0.116 C 
BRANCH  73  74
ATOM     74  N   UNL     1       6.569  -4.213  -0.677  1.00  0.00    -0.354 N 
ATOM     75  C   UNL     1       7.251  -5.281  -1.195  1.00  0.00     0.242 C 
ATOM     76  H   UNL     1       7.112  -3.566  -0.171  1.00  0.00     0.163 HD
ATOM     77  O   UNL     1       8.476  -5.318  -1.052  1.00  0.00    -0.273 OA
BRANCH  75  78
ATOM     78  C   UNL     1       6.499  -6.392  -1.976  1.00  0.00     0.174 C 
BRANCH  78  79
ATOM     79  N   UNL     1       5.556  -7.027  -1.035  1.00  0.00    -0.340 N 
ATOM     80  C   UNL     1       4.270  -7.477  -1.067  1.00  0.00     0.253 C 
ATOM     81  H   UNL     1       5.965  -7.162  -0.150  1.00  0.00     0.164 HD
ATOM     82  O   UNL     1       3.760  -7.949  -0.055  1.00  0.00    -0.269 OA
BRANCH  80  83
ATOM     83  C   UNL     1       3.426  -7.319  -2.249  1.00  0.00     0.061 A 
ATOM     84  C   UNL     1       2.427  -6.340  -2.193  1.00  0.00     0.035 A 
ATOM     85  C   UNL     1       3.560  -8.130  -3.369  1.00  0.00     0.072 A 
ATOM     86  C   UNL     1       1.641  -6.154  -3.313  1.00  0.00     0.112 A 
ATOM     87  C   UNL     1       2.720  -7.859  -4.437  1.00  0.00     0.132 A 
ATOM     88  Cl  UNL     1       4.688  -9.423  -3.473  1.00  0.00    -0.082 Cl
ATOM     89  N   UNL     1       1.777  -6.883  -4.441  1.00  0.00    -0.263 NA
ENDBRANCH  80  83
ENDBRANCH  78  79
BRANCH  78  90
ATOM     90  C   UNL     1       5.959  -5.877  -3.289  1.00  0.00     0.021 C 
ATOM     91  C   UNL     1       6.874  -5.133  -4.240  1.00  0.00     0.006 C 
ATOM     92  C   UNL     1       6.391  -6.504  -4.597  1.00  0.00     0.006 C 
ENDBRANCH  78  90
ENDBRANCH  75  78
ENDBRANCH  73  74
ENDBRANCH  72  73
ENDBRANCH   1  72
TORSDOF 17
