REMARK SMILES O=C(NCCCCNC(=O)[C@H]1[C@H]2CC[C@H](C2)[C@@H]1C(=O)N1CC[NH+](C2CCCCC2)CC1)c1ccc(-c2c3nc(c(-c4cccc(S(=O)(=O)[O-])c4F)c4ccc([nH]4)c(-c4cccc(S(=O)(=O)[O-])c4F)c4nc(c(-c5cccc(S(=O)(=O)[O-])c5F)c5ccc2[nH]5)C=C4)C=C3)cc1
REMARK SMILES IDX 5 1 4 2 3 3 1 4 2 5 32 7 33 8 94 9 34 10 93 11 35 12 36 13
REMARK SMILES IDX 37 14 87 15 38 16 92 17 86 18 88 19 39 20 91 21 85 22 84 23
REMARK SMILES IDX 40 25 72 26 52 27 71 28 53 29 56 30 70 31 89 32 54 33 55 34
REMARK SMILES IDX 69 36 90 37 57 38 41 39 42 40 50 41 43 42 45 43 51 44 44 45
REMARK SMILES IDX 46 46 47 47 48 48 49 49 73 50 74 51 82 52 75 53 77 54 83 55
REMARK SMILES IDX 76 56 78 57 79 58 80 59 81 60 58 61 59 62 67 63 60 64 62 65
REMARK SMILES IDX 68 66 61 67 63 68 64 69 65 70 66 71 6 72 7 73 8 74 9 75
REMARK SMILES IDX 10 77 11 78 12 79 17 80 13 81 16 82 15 83 14 84 18 85 19 86
REMARK SMILES IDX 20 87 21 88 31 89 22 90 30 91 23 92 24 94 25 95 29 96 26 97
REMARK SMILES IDX 28 98 27 99
REMARK H PARENT 3 6 88 24 56 35 8 76 23 93
REMARK Flexibility Score: inf
ROOT
ATOM      1  C   UNL     1       1.240   8.625   1.743  1.00  0.00     0.023 C 
ENDROOT
BRANCH   1   2
ATOM      2  C   UNL     1       1.254   9.409   3.039  1.00  0.00     0.116 C 
BRANCH   2   3
ATOM      3  N   UNL     1       1.632  10.810   2.888  1.00  0.00    -0.352 N 
ATOM      4  O   UNL     1       1.408  13.041   3.240  1.00  0.00    -0.269 OA
ATOM      5  C   UNL     1       1.046  11.903   3.493  1.00  0.00     0.251 C 
ATOM      6  H   UNL     1       2.390  10.997   2.288  1.00  0.00     0.163 HD
BRANCH   5   7
ATOM      7  C   UNL     1      -0.069  11.632   4.421  1.00  0.00     0.039 A 
ATOM      8  C   UNL     1       0.119  10.693   5.436  1.00  0.00     0.014 A 
ATOM      9  C   UNL     1      -1.334  12.150   4.140  1.00  0.00     0.014 A 
ATOM     10  C   UNL     1      -0.992  10.119   6.031  1.00  0.00     0.010 A 
ATOM     11  C   UNL     1      -2.439  11.658   4.837  1.00  0.00     0.010 A 
ATOM     12  C   UNL     1      -2.282  10.606   5.753  1.00  0.00    -0.014 A 
BRANCH  12  13
ATOM     13  C   UNL     1      -3.432  10.045   6.504  1.00  0.00     0.031 A 
ATOM     14  C   UNL     1      -4.577   9.359   5.813  1.00  0.00     0.074 A 
ATOM     15  C   UNL     1      -3.410  10.157   7.847  1.00  0.00     0.049 A 
ATOM     16  N   UNL     1      -5.651   8.830   6.342  1.00  0.00    -0.248 NA
ATOM     17  C   UNL     1      -4.528   9.260   4.345  1.00  0.00     0.031 C 
ATOM     18  C   UNL     1      -2.362  10.841   8.612  1.00  0.00     0.029 A 
ATOM     19  N   UNL     1      -4.270   9.696   8.806  1.00  0.00    -0.354 N 
ATOM     20  C   UNL     1      -6.429   8.390   5.279  1.00  0.00     0.074 A 
ATOM     21  C   UNL     1      -5.700   8.701   4.068  1.00  0.00     0.031 C 
ATOM     22  C   UNL     1      -2.610  10.708   9.919  1.00  0.00     0.029 A 
ATOM     23  C   UNL     1      -3.874  10.005  10.086  1.00  0.00     0.049 A 
ATOM     24  H   UNL     1      -5.091   9.193   8.600  1.00  0.00     0.167 HD
ATOM     25  C   UNL     1      -7.637   7.775   5.316  1.00  0.00     0.034 A 
ATOM     26  C   UNL     1      -4.471   9.771  11.269  1.00  0.00     0.034 A 
ATOM     27  C   UNL     1      -8.321   7.420   6.533  1.00  0.00     0.049 A 
ATOM     28  C   UNL     1      -5.778   9.041  11.276  1.00  0.00     0.074 A 
ATOM     29  C   UNL     1      -9.521   6.745   6.679  1.00  0.00     0.029 A 
ATOM     30  N   UNL     1      -7.866   7.705   7.811  1.00  0.00    -0.354 N 
ATOM     31  N   UNL     1      -6.450   8.551  10.263  1.00  0.00    -0.248 NA
ATOM     32  C   UNL     1      -6.403   8.817  12.585  1.00  0.00     0.031 C 
ATOM     33  C   UNL     1      -9.793   6.628   8.047  1.00  0.00     0.029 A 
ATOM     34  C   UNL     1      -8.759   7.223   8.752  1.00  0.00     0.049 A 
ATOM     35  H   UNL     1      -7.029   8.181   8.020  1.00  0.00     0.167 HD
ATOM     36  C   UNL     1      -7.575   7.952  10.810  1.00  0.00     0.074 A 
ATOM     37  C   UNL     1      -7.473   8.109  12.248  1.00  0.00     0.031 C 
ATOM     38  C   UNL     1      -8.613   7.352  10.179  1.00  0.00     0.034 A 
BRANCH  25  39
ATOM     39  C   UNL     1      -8.289   7.404   4.009  1.00  0.00     0.023 A 
ATOM     40  C   UNL     1      -7.827   6.280   3.296  1.00  0.00     0.012 A 
ATOM     41  C   UNL     1      -9.417   8.106   3.536  1.00  0.00     0.148 A 
ATOM     42  C   UNL     1      -8.466   5.870   2.125  1.00  0.00     0.002 A 
ATOM     43  C   UNL     1     -10.069   7.670   2.386  1.00  0.00     0.091 A 
ATOM     44  F   UNL     1      -9.830   9.185   4.215  1.00  0.00    -0.205 F 
ATOM     45  C   UNL     1      -9.591   6.557   1.677  1.00  0.00     0.022 A 
BRANCH  43  46
ATOM     46  S   UNL     1     -11.568   8.448   1.770  1.00  0.00     0.127 S 
ATOM     47  O   UNL     1     -11.065   9.177   0.607  1.00  0.00    -0.237 OA
ATOM     48  O   UNL     1     -12.408   7.294   1.449  1.00  0.00    -0.237 OA
ATOM     49  O   UNL     1     -12.066   9.274   2.862  1.00  0.00    -0.744 OA
ENDBRANCH  43  46
ENDBRANCH  25  39
BRANCH  26  50
ATOM     50  C   UNL     1      -3.799  10.207  12.523  1.00  0.00     0.023 A 
ATOM     51  C   UNL     1      -3.259   9.239  13.391  1.00  0.00     0.012 A 
ATOM     52  C   UNL     1      -3.605  11.572  12.810  1.00  0.00     0.148 A 
ATOM     53  C   UNL     1      -2.548   9.625  14.527  1.00  0.00     0.002 A 
ATOM     54  C   UNL     1      -2.838  11.948  13.907  1.00  0.00     0.091 A 
ATOM     55  F   UNL     1      -4.143  12.482  11.985  1.00  0.00    -0.205 F 
ATOM     56  C   UNL     1      -2.322  10.977  14.776  1.00  0.00     0.022 A 
BRANCH  54  57
ATOM     57  S   UNL     1      -2.366  13.661  14.174  1.00  0.00     0.127 S 
ATOM     58  O   UNL     1      -3.373  14.105  15.133  1.00  0.00    -0.237 OA
ATOM     59  O   UNL     1      -1.012  13.533  14.716  1.00  0.00    -0.237 OA
ATOM     60  O   UNL     1      -2.417  14.275  12.853  1.00  0.00    -0.744 OA
ENDBRANCH  54  57
ENDBRANCH  26  50
BRANCH  38  61
ATOM     61  C   UNL     1      -9.718   6.817  11.046  1.00  0.00     0.023 A 
ATOM     62  C   UNL     1     -10.636   7.715  11.626  1.00  0.00     0.012 A 
ATOM     63  C   UNL     1      -9.877   5.433  11.245  1.00  0.00     0.148 A 
ATOM     64  C   UNL     1     -11.683   7.243  12.416  1.00  0.00     0.002 A 
ATOM     65  C   UNL     1     -10.947   4.968  12.000  1.00  0.00     0.091 A 
ATOM     66  F   UNL     1      -8.976   4.599  10.705  1.00  0.00    -0.205 F 
ATOM     67  C   UNL     1     -11.845   5.871  12.594  1.00  0.00     0.022 A 
BRANCH  65  68
ATOM     68  S   UNL     1     -11.272   3.215  12.209  1.00  0.00     0.127 S 
ATOM     69  O   UNL     1     -10.752   2.973  13.554  1.00  0.00    -0.237 OA
ATOM     70  O   UNL     1     -12.730   3.149  12.098  1.00  0.00    -0.237 OA
ATOM     71  O   UNL     1     -10.559   2.549  11.127  1.00  0.00    -0.744 OA
ENDBRANCH  65  68
ENDBRANCH  38  61
ENDBRANCH  12  13
ENDBRANCH   5   7
ENDBRANCH   2   3
ENDBRANCH   1   2
BRANCH   1  72
ATOM     72  C   UNL     1       2.518   8.711   0.936  1.00  0.00     0.023 C 
BRANCH  72  73
ATOM     73  C   UNL     1       3.789   8.307   1.680  1.00  0.00     0.116 C 
BRANCH  73  74
ATOM     74  N   UNL     1       4.093   6.907   1.499  1.00  0.00    -0.356 N 
ATOM     75  C   UNL     1       5.049   6.251   0.806  1.00  0.00     0.224 C 
ATOM     76  H   UNL     1       3.477   6.308   1.978  1.00  0.00     0.163 HD
ATOM     77  O   UNL     1       4.973   5.014   0.834  1.00  0.00    -0.275 OA
BRANCH  75  78
ATOM     78  C   UNL     1       6.155   6.887  -0.030  1.00  0.00     0.094 C 
ATOM     79  C   UNL     1       5.788   7.315  -1.474  1.00  0.00     0.002 C 
ATOM     80  C   UNL     1       6.995   8.068   0.508  1.00  0.00     0.094 C 
ATOM     81  C   UNL     1       4.900   8.552  -1.566  1.00  0.00     0.005 C 
ATOM     82  C   UNL     1       7.108   7.946  -1.908  1.00  0.00     0.009 C 
ATOM     83  C   UNL     1       7.123   8.958  -0.751  1.00  0.00     0.002 C 
ATOM     84  C   UNL     1       5.787   9.679  -1.026  1.00  0.00     0.005 C 
BRANCH  80  85
ATOM     85  C   UNL     1       8.246   7.515   1.220  1.00  0.00     0.227 C 
ATOM     86  O   UNL     1       8.179   7.342   2.443  1.00  0.00    -0.275 OA
ATOM     87  N   UNL     1       9.316   7.010   0.508  1.00  0.00    -0.331 N 
ATOM     88  C   UNL     1      10.082   5.913   1.111  1.00  0.00     0.181 C 
ATOM     89  C   UNL     1      10.058   7.735  -0.517  1.00  0.00     0.181 C 
ATOM     90  C   UNL     1      10.782   5.019   0.052  1.00  0.00     0.284 C 
ATOM     91  C   UNL     1      10.595   6.776  -1.584  1.00  0.00     0.284 C 
ATOM     92  N   UNL     1      11.470   5.723  -1.054  1.00  0.00    -0.330 N 
ATOM     93  H   UNL     1      11.610   5.059  -1.815  1.00  0.00     0.348 HD
BRANCH  92  94
ATOM     94  C   UNL     1      12.890   6.057  -0.830  1.00  0.00     0.184 C 
ATOM     95  C   UNL     1      13.479   6.890  -1.994  1.00  0.00     0.065 C 
ATOM     96  C   UNL     1      13.245   6.681   0.535  1.00  0.00     0.065 C 
ATOM     97  C   UNL     1      14.963   7.190  -1.819  1.00  0.00     0.006 C 
ATOM     98  C   UNL     1      14.728   7.031   0.665  1.00  0.00     0.006 C 
ATOM     99  C   UNL     1      15.209   7.894  -0.493  1.00  0.00     0.000 C 
ENDBRANCH  92  94
ENDBRANCH  80  85
ENDBRANCH  75  78
ENDBRANCH  73  74
ENDBRANCH  72  73
ENDBRANCH   1  72
TORSDOF 16
