REMARK SMILES CCCC[C@@H](C(=O)NCCCCNC(=O)c1ccc(-c2c3nc(c(-c4cccc(S(=O)(=O)[O-])c4F)c4ccc([nH]4)c(-c4cccc(S(=O)(=O)[O-])c4F)c4nc(c(-c5cccc(S(=O)(=O)[O-])c5F)c5ccc2[nH]5)C=C4)C=C3)cc1)[C@H](O)c1ccc(OC)c(O)c1
REMARK SMILES IDX 10 1 9 2 8 3 6 4 7 5 5 7 4 8 3 9 2 10 1 11 79 12 81 13 82 14
REMARK SMILES IDX 89 15 83 16 87 17 84 18 88 19 85 21 86 22 80 23 11 25 12 26
REMARK SMILES IDX 13 27 14 28 15 30 16 31 17 32 78 33 18 34 77 35 19 36 20 37
REMARK SMILES IDX 21 38 71 39 22 40 76 41 70 42 72 43 23 44 75 45 69 46 68 47
REMARK SMILES IDX 24 49 56 50 36 51 55 52 37 53 40 54 54 55 73 56 38 57 39 58
REMARK SMILES IDX 53 60 74 61 41 62 25 63 26 64 34 65 27 66 29 67 35 68 28 69
REMARK SMILES IDX 30 70 31 71 32 72 33 73 57 74 58 75 66 76 59 77 61 78 67 79
REMARK SMILES IDX 60 80 62 81 63 82 64 83 65 84 42 85 43 86 51 87 44 88 46 89
REMARK SMILES IDX 52 90 45 91 47 92 48 93 49 94 50 95
REMARK H PARENT 8 6 88 20 80 24 13 29 72 48 40 59
REMARK Flexibility Score: inf
ROOT
ATOM      1  C   UNL     1       0.087  -2.738  -5.358  1.00  0.00     0.023 C 
ENDROOT
BRANCH   1   2
ATOM      2  C   UNL     1       0.341  -1.265  -5.671  1.00  0.00     0.116 C 
BRANCH   2   3
ATOM      3  N   UNL     1      -0.906  -0.570  -5.850  1.00  0.00    -0.356 N 
ATOM      4  C   UNL     1      -1.538   0.350  -5.084  1.00  0.00     0.226 C 
ATOM      5  O   UNL     1      -2.571   0.802  -5.586  1.00  0.00    -0.275 OA
ATOM      6  H   UNL     1      -1.385  -0.805  -6.677  1.00  0.00     0.163 HD
BRANCH   4   7
ATOM      7  C   UNL     1      -0.990   0.852  -3.731  1.00  0.00     0.111 C 
BRANCH   7   8
ATOM      8  C   UNL     1      -0.999  -0.121  -2.515  1.00  0.00     0.016 C 
BRANCH   8   9
ATOM      9  C   UNL     1       0.139  -1.127  -2.297  1.00  0.00     0.001 C 
BRANCH   9  10
ATOM     10  C   UNL     1       1.575  -0.610  -2.302  1.00  0.00    -0.003 C 
ATOM     11  C   UNL     1       2.000  -0.031  -0.966  1.00  0.00     0.004 C 
ENDBRANCH   9  10
ENDBRANCH   8   9
ENDBRANCH   7   8
BRANCH   7  12
ATOM     12  C   UNL     1      -1.777   2.171  -3.381  1.00  0.00     0.157 C 
BRANCH  12  13
ATOM     13  C   UNL     1      -3.285   2.146  -3.103  1.00  0.00    -0.015 A 
ATOM     14  C   UNL     1      -3.973   3.362  -2.960  1.00  0.00     0.010 A 
ATOM     15  C   UNL     1      -4.055   0.974  -3.062  1.00  0.00     0.056 A 
ATOM     16  C   UNL     1      -5.364   3.391  -2.784  1.00  0.00     0.051 A 
ATOM     17  C   UNL     1      -5.445   1.000  -2.887  1.00  0.00     0.158 A 
ATOM     18  C   UNL     1      -6.117   2.213  -2.757  1.00  0.00     0.160 A 
BRANCH  17  19
ATOM     19  O   UNL     1      -6.106  -0.198  -2.853  1.00  0.00    -0.504 OA
ATOM     20  H   UNL     1      -7.035  -0.217  -2.738  1.00  0.00     0.293 HD
ENDBRANCH  17  19
BRANCH  18  21
ATOM     21  O   UNL     1      -7.463   2.418  -2.608  1.00  0.00    -0.493 OA
ATOM     22  C   UNL     1      -8.323   1.323  -2.903  1.00  0.00     0.278 C 
ENDBRANCH  18  21
ENDBRANCH  12  13
BRANCH  12  23
ATOM     23  O   UNL     1      -1.098   2.805  -2.279  1.00  0.00    -0.388 OA
ATOM     24  H   UNL     1      -1.171   2.247  -1.490  1.00  0.00     0.211 HD
ENDBRANCH  12  23
ENDBRANCH   7  12
ENDBRANCH   4   7
ENDBRANCH   2   3
ENDBRANCH   1   2
BRANCH   1  25
ATOM     25  C   UNL     1      -0.106  -3.631  -6.579  1.00  0.00     0.023 C 
BRANCH  25  26
ATOM     26  C   UNL     1       1.076  -3.667  -7.536  1.00  0.00     0.116 C 
BRANCH  26  27
ATOM     27  N   UNL     1       2.347  -3.969  -6.892  1.00  0.00    -0.352 N 
ATOM     28  C   UNL     1       3.413  -4.683  -7.396  1.00  0.00     0.251 C 
ATOM     29  H   UNL     1       2.459  -3.618  -5.979  1.00  0.00     0.163 HD
ATOM     30  O   UNL     1       4.384  -4.921  -6.699  1.00  0.00    -0.269 OA
BRANCH  28  31
ATOM     31  C   UNL     1       3.329  -5.191  -8.782  1.00  0.00     0.039 A 
ATOM     32  C   UNL     1       3.591  -6.540  -9.019  1.00  0.00     0.014 A 
ATOM     33  C   UNL     1       2.909  -4.354  -9.819  1.00  0.00     0.014 A 
ATOM     34  C   UNL     1       3.353  -7.069 -10.288  1.00  0.00     0.010 A 
ATOM     35  C   UNL     1       2.584  -4.902 -11.053  1.00  0.00     0.010 A 
ATOM     36  C   UNL     1       2.806  -6.264 -11.302  1.00  0.00    -0.014 A 
BRANCH  36  37
ATOM     37  C   UNL     1       2.433  -6.844 -12.616  1.00  0.00     0.031 A 
ATOM     38  C   UNL     1       3.091  -6.363 -13.879  1.00  0.00     0.074 A 
ATOM     39  C   UNL     1       1.437  -7.750 -12.677  1.00  0.00     0.049 A 
ATOM     40  N   UNL     1       2.910  -6.776 -15.107  1.00  0.00    -0.248 NA
ATOM     41  C   UNL     1       4.047  -5.250 -13.758  1.00  0.00     0.031 C 
ATOM     42  C   UNL     1       0.631  -8.201 -11.538  1.00  0.00     0.029 A 
ATOM     43  N   UNL     1       0.919  -8.443 -13.742  1.00  0.00    -0.354 N 
ATOM     44  C   UNL     1       3.699  -5.955 -15.903  1.00  0.00     0.074 A 
ATOM     45  C   UNL     1       4.324  -4.989 -15.026  1.00  0.00     0.031 C 
ATOM     46  C   UNL     1      -0.263  -9.108 -11.963  1.00  0.00     0.029 A 
ATOM     47  C   UNL     1      -0.103  -9.297 -13.401  1.00  0.00     0.049 A 
ATOM     48  H   UNL     1       1.248  -8.337 -14.663  1.00  0.00     0.167 HD
ATOM     49  C   UNL     1       3.918  -6.022 -17.237  1.00  0.00     0.034 A 
ATOM     50  C   UNL     1      -0.817 -10.152 -14.159  1.00  0.00     0.034 A 
ATOM     51  C   UNL     1       3.340  -7.022 -18.093  1.00  0.00     0.049 A 
ATOM     52  C   UNL     1      -0.473 -10.290 -15.616  1.00  0.00     0.074 A 
ATOM     53  C   UNL     1       3.583  -7.252 -19.436  1.00  0.00     0.029 A 
ATOM     54  N   UNL     1       2.402  -7.960 -17.690  1.00  0.00    -0.354 N 
ATOM     55  N   UNL     1       0.426  -9.642 -16.316  1.00  0.00    -0.248 NA
ATOM     56  C   UNL     1      -1.204 -11.313 -16.378  1.00  0.00     0.031 C 
ATOM     57  C   UNL     1       2.781  -8.324 -19.846  1.00  0.00     0.029 A 
ATOM     58  C   UNL     1       2.053  -8.771 -18.755  1.00  0.00     0.049 A 
ATOM     59  H   UNL     1       2.038  -8.037 -16.779  1.00  0.00     0.167 HD
ATOM     60  C   UNL     1       0.393 -10.197 -17.589  1.00  0.00     0.074 A 
ATOM     61  C   UNL     1      -0.598 -11.254 -17.556  1.00  0.00     0.031 C 
ATOM     62  C   UNL     1       1.103  -9.851 -18.692  1.00  0.00     0.034 A 
BRANCH  49  63
ATOM     63  C   UNL     1       4.880  -5.030 -17.836  1.00  0.00     0.023 A 
ATOM     64  C   UNL     1       6.258  -5.146 -17.557  1.00  0.00     0.012 A 
ATOM     65  C   UNL     1       4.435  -4.013 -18.702  1.00  0.00     0.148 A 
ATOM     66  C   UNL     1       7.172  -4.244 -18.098  1.00  0.00     0.002 A 
ATOM     67  C   UNL     1       5.359  -3.144 -19.274  1.00  0.00     0.091 A 
ATOM     68  F   UNL     1       3.120  -3.900 -18.936  1.00  0.00    -0.205 F 
ATOM     69  C   UNL     1       6.725  -3.251 -18.963  1.00  0.00     0.022 A 
BRANCH  67  70
ATOM     70  S   UNL     1       4.889  -1.882 -20.462  1.00  0.00     0.127 S 
ATOM     71  O   UNL     1       4.989  -0.666 -19.656  1.00  0.00    -0.237 OA
ATOM     72  O   UNL     1       5.925  -2.020 -21.487  1.00  0.00    -0.237 OA
ATOM     73  O   UNL     1       3.548  -2.233 -20.907  1.00  0.00    -0.744 OA
ENDBRANCH  67  70
ENDBRANCH  49  63
BRANCH  50  74
ATOM     74  C   UNL     1      -1.847 -11.021 -13.522  1.00  0.00     0.023 A 
ATOM     75  C   UNL     1      -1.588 -12.397 -13.367  1.00  0.00     0.012 A 
ATOM     76  C   UNL     1      -3.051 -10.489 -13.023  1.00  0.00     0.148 A 
ATOM     77  C   UNL     1      -2.522 -13.233 -12.755  1.00  0.00     0.002 A 
ATOM     78  C   UNL     1      -3.953 -11.318 -12.365  1.00  0.00     0.091 A 
ATOM     79  F   UNL     1      -3.283  -9.179 -13.188  1.00  0.00    -0.205 F 
ATOM     80  C   UNL     1      -3.699 -12.693 -12.245  1.00  0.00     0.022 A 
BRANCH  78  81
ATOM     81  S   UNL     1      -5.424 -10.682 -11.553  1.00  0.00     0.127 S 
ATOM     82  O   UNL     1      -6.482 -11.133 -12.453  1.00  0.00    -0.237 OA
ATOM     83  O   UNL     1      -5.380 -11.367 -10.261  1.00  0.00    -0.237 OA
ATOM     84  O   UNL     1      -5.231  -9.240 -11.470  1.00  0.00    -0.744 OA
ENDBRANCH  78  81
ENDBRANCH  50  74
BRANCH  62  85
ATOM     85  C   UNL     1       0.852 -10.637 -19.952  1.00  0.00     0.023 A 
ATOM     86  C   UNL     1      -0.352 -10.455 -20.660  1.00  0.00     0.012 A 
ATOM     87  C   UNL     1       1.831 -11.511 -20.464  1.00  0.00     0.148 A 
ATOM     88  C   UNL     1      -0.594 -11.158 -21.839  1.00  0.00     0.002 A 
ATOM     89  C   UNL     1       1.602 -12.174 -21.665  1.00  0.00     0.091 A 
ATOM     90  F   UNL     1       2.961 -11.691 -19.766  1.00  0.00    -0.205 F 
ATOM     91  C   UNL     1       0.386 -12.008 -22.347  1.00  0.00     0.022 A 
BRANCH  89  92
ATOM     92  S   UNL     1       2.854 -13.210 -22.429  1.00  0.00     0.127 S 
ATOM     93  O   UNL     1       2.420 -14.547 -22.030  1.00  0.00    -0.237 OA
ATOM     94  O   UNL     1       2.684 -12.914 -23.853  1.00  0.00    -0.237 OA
ATOM     95  O   UNL     1       4.125 -12.764 -21.874  1.00  0.00    -0.744 OA
ENDBRANCH  89  92
ENDBRANCH  62  85
ENDBRANCH  36  37
ENDBRANCH  28  31
ENDBRANCH  26  27
ENDBRANCH  25  26
ENDBRANCH   1  25
TORSDOF 22
