REMARK SMILES COc1ccc(-c2ccc(/C=C3\SC(=S)N([C@H](Cc4ccccc4)C(=O)NCCCCNC(=O)c4ccc(-c5c6nc(c(-c7cccc(S(=O)(=O)[O-])c7F)c7ccc([nH]7)c(-c7cccc(S(=O)(=O)[O-])c7F)c7nc(c(-c8cccc(S(=O)(=O)[O-])c8F)c8ccc5[nH]8)C=C7)C=C6)cc4)C3=O)o2)cc1
REMARK SMILES IDX 29 1 28 2 27 3 25 4 26 5 17 7 16 8 11 9 12 10 13 11 98 12
REMARK SMILES IDX 14 13 99 14 15 15 10 16 7 17 8 18 100 19 9 20 6 21 3 22 4 23
REMARK SMILES IDX 102 24 5 25 101 26 2 27 1 28 18 29 19 30 20 31 24 32 21 33
REMARK SMILES IDX 23 34 22 35 30 36 31 37 32 38 33 39 34 41 35 42 36 43 97 44
REMARK SMILES IDX 37 45 96 46 38 47 39 48 40 49 90 50 41 51 95 52 89 53 91 54
REMARK SMILES IDX 42 55 94 56 88 57 87 58 43 60 75 61 55 62 74 63 56 64 59 65
REMARK SMILES IDX 73 66 92 67 57 68 58 69 72 71 93 72 60 73 44 74 45 75 53 76
REMARK SMILES IDX 46 77 48 78 54 79 47 80 49 81 50 82 51 83 52 84 76 85 77 86
REMARK SMILES IDX 85 87 78 88 80 89 86 90 79 91 81 92 82 93 83 94 84 95 61 96
REMARK SMILES IDX 62 97 70 98 63 99 65 100 71 101 64 102 66 103 67 104 68 105
REMARK SMILES IDX 69 106
REMARK H PARENT 27 6 32 40 91 59 59 70
REMARK Flexibility Score: inf
ROOT
ATOM      1  C   UNL     1       2.702  -5.444  11.349  1.00  0.00     0.023 C 
ENDROOT
BRANCH   1   2
ATOM      2  C   UNL     1       1.767  -5.841  12.488  1.00  0.00     0.116 C 
BRANCH   2   3
ATOM      3  N   UNL     1       2.147  -5.214  13.732  1.00  0.00    -0.354 N 
ATOM      4  C   UNL     1       1.585  -4.172  14.396  1.00  0.00     0.243 C 
ATOM      5  O   UNL     1       2.253  -3.666  15.305  1.00  0.00    -0.273 OA
ATOM      6  H   UNL     1       2.938  -5.604  14.167  1.00  0.00     0.163 HD
BRANCH   4   7
ATOM      7  C   UNL     1       0.209  -3.570  14.034  1.00  0.00     0.185 C 
BRANCH   7   8
ATOM      8  N   UNL     1      -0.928  -4.507  14.231  1.00  0.00    -0.280 N 
ATOM      9  C   UNL     1      -4.043  -5.344  12.798  1.00  0.00     0.068 C 
ATOM     10  C   UNL     1      -3.027  -5.371  13.663  1.00  0.00     0.084 C 
ATOM     11  S   UNL     1      -2.981  -5.637  15.345  1.00  0.00    -0.054 SA
ATOM     12  C   UNL     1      -1.674  -5.006  13.185  1.00  0.00     0.267 C 
ATOM     13  C   UNL     1      -1.392  -4.879  15.484  1.00  0.00     0.149 C 
ATOM     14  O   UNL     1      -1.341  -5.154  12.022  1.00  0.00    -0.268 OA
ATOM     15  S   UNL     1      -0.683  -4.675  16.979  1.00  0.00    -0.052 S 
BRANCH   9  16
ATOM     16  C   UNL     1      -5.413  -5.538  13.101  1.00  0.00     0.128 A 
ATOM     17  C   UNL     1      -7.503  -6.176  12.681  1.00  0.00     0.134 A 
ATOM     18  C   UNL     1      -7.527  -5.600  13.929  1.00  0.00     0.051 A 
ATOM     19  O   UNL     1      -6.246  -6.109  12.173  1.00  0.00    -0.457 OA
ATOM     20  C   UNL     1      -6.193  -5.202  14.202  1.00  0.00     0.051 A 
BRANCH  17  21
ATOM     21  C   UNL     1      -8.475  -6.827  11.823  1.00  0.00     0.017 A 
ATOM     22  C   UNL     1     -10.337  -8.156  10.185  1.00  0.00     0.118 A 
ATOM     23  C   UNL     1      -9.023  -8.614  10.273  1.00  0.00     0.047 A 
ATOM     24  C   UNL     1     -10.721  -7.030  10.915  1.00  0.00     0.047 A 
ATOM     25  C   UNL     1      -8.096  -7.948  11.074  1.00  0.00     0.016 A 
ATOM     26  C   UNL     1      -9.795  -6.372  11.737  1.00  0.00     0.016 A 
BRANCH  22  27
ATOM     27  O   UNL     1     -11.148  -8.910   9.384  1.00  0.00    -0.497 OA
ATOM     28  C   UNL     1     -12.355  -8.301   8.951  1.00  0.00     0.278 C 
ENDBRANCH  22  27
ENDBRANCH  17  21
ENDBRANCH   9  16
ENDBRANCH   7   8
BRANCH   7  29
ATOM     29  C   UNL     1       0.320  -2.794  12.693  1.00  0.00     0.071 C 
BRANCH  29  30
ATOM     30  C   UNL     1      -0.824  -1.867  12.328  1.00  0.00    -0.045 A 
ATOM     31  C   UNL     1      -1.793  -2.258  11.391  1.00  0.00     0.004 A 
ATOM     32  C   UNL     1      -0.894  -0.570  12.848  1.00  0.00     0.004 A 
ATOM     33  C   UNL     1      -2.836  -1.409  11.025  1.00  0.00     0.000 A 
ATOM     34  C   UNL     1      -1.916   0.300  12.448  1.00  0.00     0.000 A 
ATOM     35  C   UNL     1      -2.894  -0.125  11.550  1.00  0.00     0.000 A 
ENDBRANCH  29  30
ENDBRANCH   7  29
ENDBRANCH   4   7
ENDBRANCH   2   3
ENDBRANCH   1   2
BRANCH   1  36
ATOM     36  C   UNL     1       4.054  -6.153  11.379  1.00  0.00     0.023 C 
BRANCH  36  37
ATOM     37  C   UNL     1       3.979  -7.676  11.385  1.00  0.00     0.116 C 
BRANCH  37  38
ATOM     38  N   UNL     1       3.211  -8.217  10.271  1.00  0.00    -0.352 N 
ATOM     39  C   UNL     1       3.498  -9.313   9.492  1.00  0.00     0.251 C 
ATOM     40  H   UNL     1       2.381  -7.737  10.048  1.00  0.00     0.163 HD
ATOM     41  O   UNL     1       2.813  -9.577   8.509  1.00  0.00    -0.269 OA
BRANCH  39  42
ATOM     42  C   UNL     1       4.666 -10.146   9.838  1.00  0.00     0.039 A 
ATOM     43  C   UNL     1       5.620 -10.416   8.856  1.00  0.00     0.014 A 
ATOM     44  C   UNL     1       4.847 -10.593  11.150  1.00  0.00     0.014 A 
ATOM     45  C   UNL     1       6.800 -11.072   9.209  1.00  0.00     0.010 A 
ATOM     46  C   UNL     1       6.054 -11.179  11.513  1.00  0.00     0.010 A 
ATOM     47  C   UNL     1       7.044 -11.420  10.548  1.00  0.00    -0.014 A 
BRANCH  47  48
ATOM     48  C   UNL     1       8.340 -12.008  10.971  1.00  0.00     0.031 A 
ATOM     49  C   UNL     1       8.386 -13.386  11.569  1.00  0.00     0.074 A 
ATOM     50  C   UNL     1       9.458 -11.257  10.913  1.00  0.00     0.049 A 
ATOM     51  N   UNL     1       9.408 -14.037  12.060  1.00  0.00    -0.248 NA
ATOM     52  C   UNL     1       7.112 -14.120  11.653  1.00  0.00     0.031 C 
ATOM     53  C   UNL     1       9.526  -9.874  10.436  1.00  0.00     0.029 A 
ATOM     54  N   UNL     1      10.748 -11.541  11.289  1.00  0.00    -0.354 N 
ATOM     55  C   UNL     1       8.899 -15.235  12.544  1.00  0.00     0.074 A 
ATOM     56  C   UNL     1       7.470 -15.209  12.318  1.00  0.00     0.031 C 
ATOM     57  C   UNL     1      10.789  -9.431  10.546  1.00  0.00     0.029 A 
ATOM     58  C   UNL     1      11.615 -10.485  11.126  1.00  0.00     0.049 A 
ATOM     59  H   UNL     1      11.026 -12.417  11.641  1.00  0.00     0.167 HD
ATOM     60  C   UNL     1       9.563 -16.276  13.097  1.00  0.00     0.034 A 
ATOM     61  C   UNL     1      12.926 -10.376  11.418  1.00  0.00     0.034 A 
ATOM     62  C   UNL     1      10.989 -16.319  13.274  1.00  0.00     0.049 A 
ATOM     63  C   UNL     1      13.648 -11.565  11.991  1.00  0.00     0.074 A 
ATOM     64  C   UNL     1      11.768 -17.367  13.730  1.00  0.00     0.029 A 
ATOM     65  N   UNL     1      11.850 -15.265  13.011  1.00  0.00    -0.354 N 
ATOM     66  N   UNL     1      13.178 -12.755  12.280  1.00  0.00    -0.248 NA
ATOM     67  C   UNL     1      15.088 -11.411  12.245  1.00  0.00     0.031 C 
ATOM     68  C   UNL     1      13.099 -16.940  13.761  1.00  0.00     0.029 A 
ATOM     69  C   UNL     1      13.152 -15.633  13.304  1.00  0.00     0.049 A 
ATOM     70  H   UNL     1      11.576 -14.385  12.665  1.00  0.00     0.167 HD
ATOM     71  C   UNL     1      14.267 -13.499  12.718  1.00  0.00     0.074 A 
ATOM     72  C   UNL     1      15.426 -12.633  12.635  1.00  0.00     0.031 C 
ATOM     73  C   UNL     1      14.303 -14.778  13.166  1.00  0.00     0.034 A 
BRANCH  60  74
ATOM     74  C   UNL     1       8.759 -17.486  13.496  1.00  0.00     0.023 A 
ATOM     75  C   UNL     1       8.225 -18.323  12.495  1.00  0.00     0.012 A 
ATOM     76  C   UNL     1       8.580 -17.828  14.850  1.00  0.00     0.148 A 
ATOM     77  C   UNL     1       7.498 -19.463  12.834  1.00  0.00     0.002 A 
ATOM     78  C   UNL     1       7.891 -18.989  15.180  1.00  0.00     0.091 A 
ATOM     79  F   UNL     1       9.075 -17.008  15.788  1.00  0.00    -0.205 F 
ATOM     80  C   UNL     1       7.341 -19.801  14.175  1.00  0.00     0.022 A 
BRANCH  78  81
ATOM     81  S   UNL     1       7.702 -19.554  16.875  1.00  0.00     0.127 S 
ATOM     82  O   UNL     1       6.283 -19.295  17.115  1.00  0.00    -0.237 OA
ATOM     83  O   UNL     1       8.053 -20.971  16.769  1.00  0.00    -0.237 OA
ATOM     84  O   UNL     1       8.627 -18.758  17.669  1.00  0.00    -0.744 OA
ENDBRANCH  78  81
ENDBRANCH  60  74
BRANCH  61  85
ATOM     85  C   UNL     1      13.655  -9.114  11.106  1.00  0.00     0.023 A 
ATOM     86  C   UNL     1      14.592  -9.102  10.055  1.00  0.00     0.012 A 
ATOM     87  C   UNL     1      13.406  -7.925  11.818  1.00  0.00     0.148 A 
ATOM     88  C   UNL     1      15.290  -7.936   9.737  1.00  0.00     0.002 A 
ATOM     89  C   UNL     1      14.065  -6.753  11.460  1.00  0.00     0.091 A 
ATOM     90  F   UNL     1      12.520  -7.959  12.823  1.00  0.00    -0.205 F 
ATOM     91  C   UNL     1      15.020  -6.761  10.432  1.00  0.00     0.022 A 
BRANCH  89  92
ATOM     92  S   UNL     1      13.681  -5.167  12.211  1.00  0.00     0.127 S 
ATOM     93  O   UNL     1      14.863  -4.932  13.036  1.00  0.00    -0.237 OA
ATOM     94  O   UNL     1      13.564  -4.298  11.039  1.00  0.00    -0.237 OA
ATOM     95  O   UNL     1      12.432  -5.369  12.933  1.00  0.00    -0.744 OA
ENDBRANCH  89  92
ENDBRANCH  61  85
BRANCH  73  96
ATOM     96  C   UNL     1      15.639 -15.338  13.578  1.00  0.00     0.023 A 
ATOM     97  C   UNL     1      16.230 -14.916  14.785  1.00  0.00     0.012 A 
ATOM     98  C   UNL     1      16.267 -16.341  12.813  1.00  0.00     0.148 A 
ATOM     99  C   UNL     1      17.440 -15.462  15.210  1.00  0.00     0.002 A 
ATOM    100  C   UNL     1      17.448 -16.915  13.267  1.00  0.00     0.091 A 
ATOM    101  F   UNL     1      15.697 -16.716  11.658  1.00  0.00    -0.205 F 
ATOM    102  C   UNL     1      18.042 -16.468  14.459  1.00  0.00     0.022 A 
BRANCH 100 103
ATOM    103  S   UNL     1      18.244 -18.282  12.415  1.00  0.00     0.127 S 
ATOM    104  O   UNL     1      19.413 -17.628  11.829  1.00  0.00    -0.237 OA
ATOM    105  O   UNL     1      18.546 -19.200  13.514  1.00  0.00    -0.237 OA
ATOM    106  O   UNL     1      17.265 -18.784  11.461  1.00  0.00    -0.744 OA
ENDBRANCH 100 103
ENDBRANCH  73  96
ENDBRANCH  47  48
ENDBRANCH  39  42
ENDBRANCH  37  38
ENDBRANCH  36  37
ENDBRANCH   1  36
TORSDOF 20
