REMARK SMILES C[C@@H](CCC(=O)NCCCCNC(=O)c1ccc(-c2c3nc(c(-c4cccc(S(=O)(=O)[O-])c4F)c4ccc([nH]4)c(-c4cccc(S(=O)(=O)[O-])c4F)c4nc(c(-c5cccc(S(=O)(=O)[O-])c5F)c5ccc2[nH]5)C=C4)C=C3)cc1)[C@H]1CC[C@H]2[C@@H]3[C@H](O)C[C@H]4C[C@@H](O)CC[C@@]4(C)[C@H]3CC[C@]12C
REMARK SMILES IDX 9 1 8 2 7 3 5 4 6 5 4 7 3 8 2 9 1 10 78 11 79 12 97 13 80 14
REMARK SMILES IDX 81 15 96 16 98 17 82 18 95 19 83 20 94 21 85 22 92 23 86 24
REMARK SMILES IDX 91 25 93 26 87 27 90 28 88 29 84 30 89 32 10 34 11 35 12 36
REMARK SMILES IDX 13 37 14 39 15 40 16 41 77 42 17 43 76 44 18 45 19 46 20 47
REMARK SMILES IDX 70 48 21 49 75 50 69 51 71 52 22 53 74 54 68 55 67 56 23 58
REMARK SMILES IDX 55 59 35 60 54 61 36 62 39 63 53 64 72 65 37 66 38 67 52 69
REMARK SMILES IDX 73 70 40 71 24 72 25 73 33 74 26 75 28 76 34 77 27 78 29 79
REMARK SMILES IDX 30 80 31 81 32 82 56 83 57 84 65 85 58 86 60 87 66 88 59 89
REMARK SMILES IDX 61 90 62 91 63 92 64 93 41 94 42 95 50 96 43 97 45 98 51 99
REMARK SMILES IDX 44 100 46 101 47 102 48 103 49 104
REMARK H PARENT 7 6 84 31 89 33 12 38 71 57 39 68
REMARK Flexibility Score: inf
ROOT
ATOM      1  C   UNL     1       0.651   1.591   0.263  1.00  0.00     0.023 C 
ENDROOT
BRANCH   1   2
ATOM      2  C   UNL     1       1.481   0.121  -0.192  1.00  0.00     0.116 C 
BRANCH   2   3
ATOM      3  N   UNL     1       1.001  -1.239  -0.600  1.00  0.00    -0.356 N 
ATOM      4  C   UNL     1       1.042  -2.105  -1.659  1.00  0.00     0.220 C 
ATOM      5  O   UNL     1       0.690  -3.278  -1.501  1.00  0.00    -0.275 OA
ATOM      6  H   UNL     1       0.486  -1.642   0.136  1.00  0.00     0.163 HD
BRANCH   4   7
ATOM      7  C   UNL     1       1.346  -1.633  -3.028  1.00  0.00     0.100 C 
BRANCH   7   8
ATOM      8  C   UNL     1       0.050  -1.026  -3.539  1.00  0.00     0.013 C 
BRANCH   8   9
ATOM      9  C   UNL     1      -0.543   0.058  -2.589  1.00  0.00    -0.010 C 
ATOM     10  C   UNL     1       0.526   1.225  -2.711  1.00  0.00     0.008 C 
BRANCH   9  11
ATOM     11  C   UNL     1      -1.563  -0.383  -1.191  1.00  0.00    -0.002 C 
ATOM     12  C   UNL     1      -2.840  -1.101  -1.716  1.00  0.00     0.005 C 
ATOM     13  C   UNL     1      -1.573  -1.089   0.420  1.00  0.00    -0.026 C 
ATOM     14  C   UNL     1      -3.771  -1.420  -0.485  1.00  0.00     0.005 C 
ATOM     15  C   UNL     1      -3.092  -0.821   0.773  1.00  0.00     0.001 C 
ATOM     16  C   UNL     1      -0.765  -0.495   1.599  1.00  0.00     0.007 C 
ATOM     17  C   UNL     1      -1.417  -2.648   0.523  1.00  0.00     0.012 C 
ATOM     18  C   UNL     1      -3.510  -1.133   2.329  1.00  0.00     0.025 C 
ATOM     19  C   UNL     1      -1.103  -0.957   3.008  1.00  0.00     0.005 C 
ATOM     20  C   UNL     1      -4.965  -0.792   2.718  1.00  0.00     0.118 C 
ATOM     21  C   UNL     1      -2.486  -0.444   3.313  1.00  0.00     0.001 C 
ATOM     22  C   UNL     1      -5.218  -0.169   4.122  1.00  0.00     0.036 C 
ATOM     23  C   UNL     1      -2.805  -0.240   4.840  1.00  0.00    -0.026 C 
ATOM     24  C   UNL     1      -4.063   0.641   4.777  1.00  0.00     0.000 C 
ATOM     25  C   UNL     1      -3.109  -1.478   5.709  1.00  0.00     0.010 C 
ATOM     26  C   UNL     1      -1.610   0.491   5.542  1.00  0.00     0.012 C 
ATOM     27  C   UNL     1      -4.390   1.220   6.153  1.00  0.00     0.036 C 
ATOM     28  C   UNL     1      -3.963  -1.206   6.989  1.00  0.00     0.032 C 
ATOM     29  C   UNL     1      -4.722   0.133   7.155  1.00  0.00     0.114 C 
BRANCH  20  30
ATOM     30  O   UNL     1      -5.551   0.025   1.721  1.00  0.00    -0.393 OA
ATOM     31  H   UNL     1      -5.097   0.882   1.697  1.00  0.00     0.210 HD
ENDBRANCH  20  30
BRANCH  29  32
ATOM     32  O   UNL     1      -6.127  -0.117   7.075  1.00  0.00    -0.393 OA
ATOM     33  H   UNL     1      -6.346  -0.451   6.191  1.00  0.00     0.210 HD
ENDBRANCH  29  32
ENDBRANCH   9  11
ENDBRANCH   8   9
ENDBRANCH   7   8
ENDBRANCH   4   7
ENDBRANCH   2   3
ENDBRANCH   1   2
BRANCH   1  34
ATOM     34  C   UNL     1      -0.762   2.480   0.029  1.00  0.00     0.023 C 
BRANCH  34  35
ATOM     35  C   UNL     1      -2.119   2.664   0.929  1.00  0.00     0.116 C 
BRANCH  35  36
ATOM     36  N   UNL     1      -2.121   3.625   2.049  1.00  0.00    -0.352 N 
ATOM     37  C   UNL     1      -3.100   4.241   2.846  1.00  0.00     0.251 C 
ATOM     38  H   UNL     1      -1.210   3.903   2.301  1.00  0.00     0.163 HD
ATOM     39  O   UNL     1      -2.659   5.055   3.670  1.00  0.00    -0.269 OA
BRANCH  37  40
ATOM     40  C   UNL     1      -4.607   4.027   2.869  1.00  0.00     0.039 A 
ATOM     41  C   UNL     1      -5.451   4.987   3.482  1.00  0.00     0.014 A 
ATOM     42  C   UNL     1      -5.239   2.868   2.455  1.00  0.00     0.014 A 
ATOM     43  C   UNL     1      -6.850   4.776   3.680  1.00  0.00     0.010 A 
ATOM     44  C   UNL     1      -6.631   2.644   2.672  1.00  0.00     0.010 A 
ATOM     45  C   UNL     1      -7.463   3.576   3.297  1.00  0.00    -0.014 A 
BRANCH  45  46
ATOM     46  C   UNL     1      -8.956   3.376   3.292  1.00  0.00     0.031 A 
ATOM     47  C   UNL     1      -9.719   2.509   4.277  1.00  0.00     0.074 A 
ATOM     48  C   UNL     1      -9.640   3.880   2.245  1.00  0.00     0.049 A 
ATOM     49  N   UNL     1     -11.018   2.372   4.431  1.00  0.00    -0.248 NA
ATOM     50  C   UNL     1      -8.932   1.665   5.183  1.00  0.00     0.031 C 
ATOM     51  C   UNL     1      -9.022   4.574   1.115  1.00  0.00     0.029 A 
ATOM     52  N   UNL     1     -10.977   3.857   1.931  1.00  0.00    -0.354 N 
ATOM     53  C   UNL     1     -11.206   1.442   5.456  1.00  0.00     0.074 A 
ATOM     54  C   UNL     1      -9.879   1.021   5.862  1.00  0.00     0.031 C 
ATOM     55  C   UNL     1      -9.972   4.907   0.231  1.00  0.00     0.029 A 
ATOM     56  C   UNL     1     -11.269   4.466   0.733  1.00  0.00     0.049 A 
ATOM     57  H   UNL     1     -11.660   3.444   2.507  1.00  0.00     0.167 HD
ATOM     58  C   UNL     1     -12.366   0.994   6.013  1.00  0.00     0.034 A 
ATOM     59  C   UNL     1     -12.445   4.672   0.108  1.00  0.00     0.034 A 
ATOM     60  C   UNL     1     -13.685   1.383   5.562  1.00  0.00     0.049 A 
ATOM     61  C   UNL     1     -13.720   4.253   0.782  1.00  0.00     0.074 A 
ATOM     62  C   UNL     1     -14.918   1.091   6.127  1.00  0.00     0.029 A 
ATOM     63  N   UNL     1     -13.946   2.110   4.410  1.00  0.00    -0.354 N 
ATOM     64  N   UNL     1     -13.882   3.616   1.916  1.00  0.00    -0.248 NA
ATOM     65  C   UNL     1     -14.977   4.633   0.121  1.00  0.00     0.031 C 
ATOM     66  C   UNL     1     -15.920   1.605   5.294  1.00  0.00     0.029 A 
ATOM     67  C   UNL     1     -15.313   2.258   4.234  1.00  0.00     0.049 A 
ATOM     68  H   UNL     1     -13.258   2.469   3.804  1.00  0.00     0.167 HD
ATOM     69  C   UNL     1     -15.254   3.547   2.122  1.00  0.00     0.074 A 
ATOM     70  C   UNL     1     -15.878   4.230   1.007  1.00  0.00     0.031 C 
ATOM     71  C   UNL     1     -15.934   2.962   3.139  1.00  0.00     0.034 A 
BRANCH  58  72
ATOM     72  C   UNL     1     -12.287   0.086   7.228  1.00  0.00     0.023 A 
ATOM     73  C   UNL     1     -11.813   0.618   8.446  1.00  0.00     0.012 A 
ATOM     74  C   UNL     1     -12.790  -1.234   7.216  1.00  0.00     0.148 A 
ATOM     75  C   UNL     1     -11.799  -0.150   9.612  1.00  0.00     0.002 A 
ATOM     76  C   UNL     1     -12.809  -1.983   8.393  1.00  0.00     0.091 A 
ATOM     77  F   UNL     1     -13.250  -1.734   6.061  1.00  0.00    -0.205 F 
ATOM     78  C   UNL     1     -12.302  -1.446   9.587  1.00  0.00     0.022 A 
BRANCH  76  79
ATOM     79  S   UNL     1     -13.512  -3.637   8.499  1.00  0.00     0.127 S 
ATOM     80  O   UNL     1     -12.320  -4.454   8.712  1.00  0.00    -0.237 OA
ATOM     81  O   UNL     1     -14.390  -3.527   9.664  1.00  0.00    -0.237 OA
ATOM     82  O   UNL     1     -14.204  -3.862   7.236  1.00  0.00    -0.744 OA
ENDBRANCH  76  79
ENDBRANCH  58  72
BRANCH  59  83
ATOM     83  C   UNL     1     -12.461   5.417  -1.182  1.00  0.00     0.023 A 
ATOM     84  C   UNL     1     -12.938   6.741  -1.213  1.00  0.00     0.012 A 
ATOM     85  C   UNL     1     -11.938   4.845  -2.357  1.00  0.00     0.148 A 
ATOM     86  C   UNL     1     -12.924   7.473  -2.400  1.00  0.00     0.002 A 
ATOM     87  C   UNL     1     -11.872   5.599  -3.522  1.00  0.00     0.091 A 
ATOM     88  F   UNL     1     -11.488   3.583  -2.303  1.00  0.00    -0.205 F 
ATOM     89  C   UNL     1     -12.381   6.907  -3.550  1.00  0.00     0.022 A 
BRANCH  87  90
ATOM     90  S   UNL     1     -11.059   5.005  -5.009  1.00  0.00     0.127 S 
ATOM     91  O   UNL     1     -12.189   4.814  -5.912  1.00  0.00    -0.237 OA
ATOM     92  O   UNL     1     -10.184   6.129  -5.344  1.00  0.00    -0.237 OA
ATOM     93  O   UNL     1     -10.352   3.792  -4.614  1.00  0.00    -0.744 OA
ENDBRANCH  87  90
ENDBRANCH  59  83
BRANCH  71  94
ATOM     94  C   UNL     1     -17.439   3.051   3.113  1.00  0.00     0.023 A 
ATOM     95  C   UNL     1     -18.174   2.327   2.152  1.00  0.00     0.012 A 
ATOM     96  C   UNL     1     -18.130   3.818   4.073  1.00  0.00     0.148 A 
ATOM     97  C   UNL     1     -19.567   2.396   2.122  1.00  0.00     0.002 A 
ATOM     98  C   UNL     1     -19.520   3.839   4.069  1.00  0.00     0.091 A 
ATOM     99  F   UNL     1     -17.416   4.518   4.966  1.00  0.00    -0.205 F 
ATOM    100  C   UNL     1     -20.239   3.142   3.087  1.00  0.00     0.022 A 
BRANCH  98 101
ATOM    101  S   UNL     1     -20.467   4.697   5.334  1.00  0.00     0.127 S 
ATOM    102  O   UNL     1     -21.046   5.808   4.564  1.00  0.00    -0.237 OA
ATOM    103  O   UNL     1     -21.444   3.672   5.730  1.00  0.00    -0.237 OA
ATOM    104  O   UNL     1     -19.531   5.074   6.362  1.00  0.00    -0.744 OA
ENDBRANCH  98 101
ENDBRANCH  71  94
ENDBRANCH  45  46
ENDBRANCH  37  40
ENDBRANCH  35  36
ENDBRANCH  34  35
ENDBRANCH   1  34
TORSDOF 19
