REMARK SMILES Nc1nc2ccccc2nc1N1CCC(C(=O)NCCCCNC(=O)c2ccc(-c3c4nc(c(-c5cccc(S(=O)(=O)[O-])c5F)c5ccc([nH]5)c(-c5cccc(S(=O)(=O)[O-])c5F)c5nc(c(-c6cccc(S(=O)(=O)[O-])c6F)c6ccc3[nH]6)C=C5)C=C4)cc2)CC1
REMARK SMILES IDX 21 1 20 2 19 3 18 4 16 5 17 6 15 8 12 9 13 10 90 11 14 12
REMARK SMILES IDX 89 13 11 14 2 15 3 16 4 17 10 18 5 19 9 20 6 21 8 22 7 23
REMARK SMILES IDX 1 24 22 27 23 28 24 29 25 31 26 32 27 33 88 34 28 35 87 36
REMARK SMILES IDX 29 37 30 38 31 39 81 40 32 41 86 42 80 43 82 44 33 45 85 46
REMARK SMILES IDX 79 47 78 48 34 50 66 51 46 52 65 53 47 54 50 55 64 56 83 57
REMARK SMILES IDX 48 58 49 59 63 61 84 62 51 63 35 64 36 65 44 66 37 67 39 68
REMARK SMILES IDX 45 69 38 70 40 71 41 72 42 73 43 74 67 75 68 76 76 77 69 78
REMARK SMILES IDX 71 79 77 80 70 81 72 82 73 83 74 84 75 85 52 86 53 87 61 88
REMARK SMILES IDX 54 89 56 90 62 91 55 92 57 93 58 94 59 95 60 96
REMARK H PARENT 18 7 1 25 1 26 23 30 82 49 50 60
REMARK Flexibility Score: inf
ROOT
ATOM      1  C   UNL     1       0.689   7.345  -4.681  1.00  0.00     0.023 C 
ENDROOT
BRANCH   1   2
ATOM      2  C   UNL     1       0.839   6.205  -3.678  1.00  0.00     0.023 C 
BRANCH   2   3
ATOM      3  C   UNL     1       0.861   4.807  -4.292  1.00  0.00     0.116 C 
BRANCH   3   4
ATOM      4  N   UNL     1       2.042   4.580  -5.111  1.00  0.00    -0.356 N 
ATOM      5  C   UNL     1       3.099   3.741  -4.933  1.00  0.00     0.223 C 
ATOM      6  O   UNL     1       3.978   3.723  -5.798  1.00  0.00    -0.275 OA
ATOM      7  H   UNL     1       2.083   5.124  -5.931  1.00  0.00     0.163 HD
BRANCH   5   8
ATOM      8  C   UNL     1       3.203   2.828  -3.719  1.00  0.00     0.082 C 
ATOM      9  N   UNL     1       1.994   1.863  -1.330  1.00  0.00    -0.353 N 
ATOM     10  C   UNL     1       3.093   2.792  -1.169  1.00  0.00     0.119 C 
ATOM     11  C   UNL     1       2.019   0.952  -2.462  1.00  0.00     0.119 C 
ATOM     12  C   UNL     1       3.290   3.634  -2.416  1.00  0.00     0.035 C 
ATOM     13  C   UNL     1       2.123   1.736  -3.764  1.00  0.00     0.035 C 
BRANCH   9  14
ATOM     14  C   UNL     1       0.814   2.051  -0.624  1.00  0.00     0.172 A 
ATOM     15  C   UNL     1       0.221   0.973   0.088  1.00  0.00     0.167 A 
ATOM     16  N   UNL     1      -0.907   1.107   0.809  1.00  0.00    -0.226 NA
ATOM     17  C   UNL     1      -1.451   2.332   0.842  1.00  0.00     0.091 A 
ATOM     18  N   UNL     1       0.267   3.288  -0.567  1.00  0.00    -0.225 NA
ATOM     19  C   UNL     1      -2.611   2.525   1.584  1.00  0.00     0.031 A 
ATOM     20  C   UNL     1      -0.872   3.426   0.150  1.00  0.00     0.091 A 
ATOM     21  C   UNL     1      -3.231   3.771   1.653  1.00  0.00     0.002 A 
ATOM     22  C   UNL     1      -1.508   4.662   0.224  1.00  0.00     0.031 A 
ATOM     23  C   UNL     1      -2.680   4.843   0.965  1.00  0.00     0.002 A 
BRANCH  15  24
ATOM     24  N   UNL     1       0.788  -0.299   0.095  1.00  0.00    -0.381 N 
ATOM     25  H   UNL     1       0.356  -1.028   0.597  1.00  0.00     0.158 HD
ATOM     26  H   UNL     1       1.620  -0.470  -0.402  1.00  0.00     0.158 HD
ENDBRANCH  15  24
ENDBRANCH   9  14
ENDBRANCH   5   8
ENDBRANCH   3   4
ENDBRANCH   2   3
ENDBRANCH   1   2
BRANCH   1  27
ATOM     27  C   UNL     1      -0.502   7.230  -5.622  1.00  0.00     0.116 C 
BRANCH  27  28
ATOM     28  N   UNL     1      -1.778   7.114  -4.929  1.00  0.00    -0.352 N 
ATOM     29  C   UNL     1      -2.963   7.756  -5.206  1.00  0.00     0.251 C 
ATOM     30  H   UNL     1      -1.795   6.495  -4.164  1.00  0.00     0.163 HD
ATOM     31  O   UNL     1      -3.930   7.621  -4.463  1.00  0.00    -0.269 OA
BRANCH  29  32
ATOM     32  C   UNL     1      -3.031   8.647  -6.383  1.00  0.00     0.039 A 
ATOM     33  C   UNL     1      -2.588   8.201  -7.631  1.00  0.00     0.014 A 
ATOM     34  C   UNL     1      -3.455   9.966  -6.208  1.00  0.00     0.014 A 
ATOM     35  C   UNL     1      -2.405   9.119  -8.659  1.00  0.00     0.010 A 
ATOM     36  C   UNL     1      -3.337  10.869  -7.267  1.00  0.00     0.010 A 
ATOM     37  C   UNL     1      -2.759  10.467  -8.482  1.00  0.00    -0.014 A 
BRANCH  37  38
ATOM     38  C   UNL     1      -2.493  11.453  -9.559  1.00  0.00     0.031 A 
ATOM     39  C   UNL     1      -1.503  12.568  -9.346  1.00  0.00     0.074 A 
ATOM     40  C   UNL     1      -3.121  11.327 -10.744  1.00  0.00     0.049 A 
ATOM     41  N   UNL     1      -1.193  13.555 -10.147  1.00  0.00    -0.248 NA
ATOM     42  C   UNL     1      -0.762  12.578  -8.073  1.00  0.00     0.031 C 
ATOM     43  C   UNL     1      -4.088  10.281 -11.080  1.00  0.00     0.029 A 
ATOM     44  N   UNL     1      -3.035  12.080 -11.886  1.00  0.00    -0.354 N 
ATOM     45  C   UNL     1      -0.261  14.326  -9.461  1.00  0.00     0.074 A 
ATOM     46  C   UNL     1      -0.048  13.691  -8.179  1.00  0.00     0.031 C 
ATOM     47  C   UNL     1      -4.481  10.438 -12.353  1.00  0.00     0.029 A 
ATOM     48  C   UNL     1      -3.839  11.627 -12.904  1.00  0.00     0.049 A 
ATOM     49  H   UNL     1      -2.453  12.870 -11.970  1.00  0.00     0.167 HD
ATOM     50  C   UNL     1       0.373  15.450  -9.871  1.00  0.00     0.034 A 
ATOM     51  C   UNL     1      -4.052  12.121 -14.139  1.00  0.00     0.034 A 
ATOM     52  C   UNL     1       0.208  16.048 -11.168  1.00  0.00     0.049 A 
ATOM     53  C   UNL     1      -3.348  13.377 -14.559  1.00  0.00     0.074 A 
ATOM     54  C   UNL     1       0.827  17.177 -11.677  1.00  0.00     0.029 A 
ATOM     55  N   UNL     1      -0.620  15.560 -12.165  1.00  0.00    -0.354 N 
ATOM     56  N   UNL     1      -2.450  14.074 -13.906  1.00  0.00    -0.248 NA
ATOM     57  C   UNL     1      -3.685  13.916 -15.884  1.00  0.00     0.031 C 
ATOM     58  C   UNL     1       0.377  17.369 -12.987  1.00  0.00     0.029 A 
ATOM     59  C   UNL     1      -0.525  16.361 -13.289  1.00  0.00     0.049 A 
ATOM     60  H   UNL     1      -1.191  14.762 -12.086  1.00  0.00     0.167 HD
ATOM     61  C   UNL     1      -2.113  15.132 -14.741  1.00  0.00     0.074 A 
ATOM     62  C   UNL     1      -2.880  14.968 -15.959  1.00  0.00     0.031 C 
ATOM     63  C   UNL     1      -1.264  16.161 -14.507  1.00  0.00     0.034 A 
BRANCH  50  64
ATOM     64  C   UNL     1       1.356  16.091  -8.932  1.00  0.00     0.023 A 
ATOM     65  C   UNL     1       2.670  15.588  -8.870  1.00  0.00     0.012 A 
ATOM     66  C   UNL     1       1.016  17.245  -8.200  1.00  0.00     0.148 A 
ATOM     67  C   UNL     1       3.634  16.223  -8.090  1.00  0.00     0.002 A 
ATOM     68  C   UNL     1       1.989  17.887  -7.443  1.00  0.00     0.091 A 
ATOM     69  F   UNL     1      -0.244  17.697  -8.270  1.00  0.00    -0.205 F 
ATOM     70  C   UNL     1       3.297  17.376  -7.385  1.00  0.00     0.022 A 
BRANCH  68  71
ATOM     71  S   UNL     1       1.676  19.404  -6.531  1.00  0.00     0.127 S 
ATOM     72  O   UNL     1       1.905  18.971  -5.153  1.00  0.00    -0.237 OA
ATOM     73  O   UNL     1       2.701  20.299  -7.068  1.00  0.00    -0.237 OA
ATOM     74  O   UNL     1       0.305  19.784  -6.837  1.00  0.00    -0.744 OA
ENDBRANCH  68  71
ENDBRANCH  50  64
BRANCH  51  75
ATOM     75  C   UNL     1      -4.953  11.396 -15.073  1.00  0.00     0.023 A 
ATOM     76  C   UNL     1      -4.390  10.681 -16.147  1.00  0.00     0.012 A 
ATOM     77  C   UNL     1      -6.345  11.360 -14.872  1.00  0.00     0.148 A 
ATOM     78  C   UNL     1      -5.202   9.945 -17.010  1.00  0.00     0.002 A 
ATOM     79  C   UNL     1      -7.143  10.590 -15.709  1.00  0.00     0.091 A 
ATOM     80  F   UNL     1      -6.857  12.064 -13.852  1.00  0.00    -0.205 F 
ATOM     81  C   UNL     1      -6.575   9.890 -16.784  1.00  0.00     0.022 A 
BRANCH  79  82
ATOM     82  S   UNL     1      -8.903  10.368 -15.424  1.00  0.00     0.127 S 
ATOM     83  O   UNL     1      -9.482  11.132 -16.526  1.00  0.00    -0.237 OA
ATOM     84  O   UNL     1      -9.046   8.916 -15.537  1.00  0.00    -0.237 OA
ATOM     85  O   UNL     1      -9.153  10.893 -14.089  1.00  0.00    -0.744 OA
ENDBRANCH  79  82
ENDBRANCH  51  75
BRANCH  63  86
ATOM     86  C   UNL     1      -1.123  17.203 -15.580  1.00  0.00     0.023 A 
ATOM     87  C   UNL     1      -2.107  18.203 -15.692  1.00  0.00     0.012 A 
ATOM     88  C   UNL     1       0.014  17.246 -16.408  1.00  0.00     0.148 A 
ATOM     89  C   UNL     1      -1.968  19.229 -16.625  1.00  0.00     0.002 A 
ATOM     90  C   UNL     1       0.161  18.288 -17.315  1.00  0.00     0.091 A 
ATOM     91  F   UNL     1       0.928  16.271 -16.293  1.00  0.00    -0.205 F 
ATOM     92  C   UNL     1      -0.830  19.278 -17.428  1.00  0.00     0.022 A 
BRANCH  90  93
ATOM     93  S   UNL     1       1.624  18.470 -18.342  1.00  0.00     0.127 S 
ATOM     94  O   UNL     1       1.119  18.067 -19.653  1.00  0.00    -0.237 OA
ATOM     95  O   UNL     1       1.921  19.898 -18.214  1.00  0.00    -0.237 OA
ATOM     96  O   UNL     1       2.631  17.592 -17.761  1.00  0.00    -0.744 OA
ENDBRANCH  90  93
ENDBRANCH  63  86
ENDBRANCH  37  38
ENDBRANCH  29  32
ENDBRANCH  27  28
ENDBRANCH   1  27
TORSDOF 16
