REMARK SMILES COc1cccc(-c2c(C(=O)NCCCCNC(=O)c3ccc(-c4c5nc(c(-c6cccc(S(=O)(=O)[O-])c6F)c6ccc([nH]6)c(-c6cccc(S(=O)(=O)[O-])c6F)c6nc(c(-c7cccc(S(=O)(=O)[O-])c7F)c7ccc4[nH]7)C=C6)C=C5)cc3)nnn2-c2ccc(OC(F)(F)F)cc2)c1
REMARK SMILES IDX 14 1 13 2 12 3 10 4 11 5 9 7 8 8 85 9 83 10 84 11 7 12 3 13
REMARK SMILES IDX 4 14 97 15 5 16 6 17 2 18 1 19 86 20 87 21 96 22 88 23 95 24
REMARK SMILES IDX 89 25 90 26 91 27 92 28 93 29 94 30 15 31 16 32 17 33 18 34
REMARK SMILES IDX 19 36 20 37 21 38 82 39 22 40 81 41 23 42 24 43 25 44 75 45
REMARK SMILES IDX 26 46 80 47 74 48 76 49 27 50 79 51 73 52 72 53 28 55 60 56
REMARK SMILES IDX 40 57 59 58 41 59 44 60 58 61 77 62 42 63 43 64 57 66 78 67
REMARK SMILES IDX 45 68 29 69 30 70 38 71 31 72 33 73 39 74 32 75 34 76 35 77
REMARK SMILES IDX 36 78 37 79 61 80 62 81 70 82 63 83 65 84 71 85 64 86 66 87
REMARK SMILES IDX 67 88 68 89 69 90 46 91 47 92 55 93 48 94 50 95 56 96 49 97
REMARK SMILES IDX 51 98 52 99 53 100 54 101
REMARK H PARENT 12 6 17 35 76 54 44 65
REMARK Flexibility Score: inf
ROOT
ATOM      1  C   UNL     1       1.063   4.115   2.581  1.00  0.00     0.023 C 
ENDROOT
BRANCH   1   2
ATOM      2  C   UNL     1       1.579   5.182   1.622  1.00  0.00     0.116 C 
BRANCH   2   3
ATOM      3  N   UNL     1       2.794   5.851   1.994  1.00  0.00    -0.351 N 
ATOM      4  C   UNL     1       4.069   5.829   1.469  1.00  0.00     0.274 C 
ATOM      5  O   UNL     1       4.886   6.501   2.107  1.00  0.00    -0.267 OA
ATOM      6  H   UNL     1       2.698   6.439   2.777  1.00  0.00     0.163 HD
BRANCH   4   7
ATOM      7  C   UNL     1       4.528   5.046   0.301  1.00  0.00     0.178 A 
ATOM      8  C   UNL     1       3.949   4.407  -0.803  1.00  0.00     0.108 A 
ATOM      9  N   UNL     1       5.044   3.875  -1.490  1.00  0.00    -0.212 N 
ATOM     10  N   UNL     1       5.898   4.801   0.245  1.00  0.00    -0.124 NA
ATOM     11  N   UNL     1       6.167   4.002  -0.768  1.00  0.00    -0.061 NA
BRANCH   8  12
ATOM     12  C   UNL     1       2.583   4.035  -1.183  1.00  0.00     0.006 A 
ATOM     13  C   UNL     1       0.855   2.311  -1.209  1.00  0.00     0.119 A 
ATOM     14  C   UNL     1      -0.054   3.257  -1.683  1.00  0.00     0.046 A 
ATOM     15  C   UNL     1       2.171   2.699  -0.970  1.00  0.00     0.056 A 
ATOM     16  C   UNL     1       0.345   4.578  -1.914  1.00  0.00     0.005 A 
ATOM     17  C   UNL     1       1.666   4.970  -1.677  1.00  0.00     0.011 A 
BRANCH  13  18
ATOM     18  O   UNL     1       0.362   1.046  -1.045  1.00  0.00    -0.497 OA
ATOM     19  C   UNL     1       0.994   0.243  -0.054  1.00  0.00     0.278 C 
ENDBRANCH  13  18
ENDBRANCH   8  12
BRANCH   9  20
ATOM     20  C   UNL     1       5.027   3.116  -2.687  1.00  0.00     0.067 A 
ATOM     21  C   UNL     1       5.790   1.949  -2.773  1.00  0.00     0.032 A 
ATOM     22  C   UNL     1       4.177   3.479  -3.736  1.00  0.00     0.032 A 
ATOM     23  C   UNL     1       5.617   1.103  -3.872  1.00  0.00     0.049 A 
ATOM     24  C   UNL     1       4.030   2.641  -4.842  1.00  0.00     0.049 A 
ATOM     25  C   UNL     1       4.727   1.434  -4.903  1.00  0.00     0.129 A 
BRANCH  25  26
ATOM     26  O   UNL     1       4.628   0.500  -5.894  1.00  0.00    -0.406 OA
BRANCH  26  27
ATOM     27  C   UNL     1       3.710   0.760  -6.943  1.00  0.00     0.573 C 
ATOM     28  F   UNL     1       2.450   0.891  -6.477  1.00  0.00    -0.132 F 
ATOM     29  F   UNL     1       4.059   1.868  -7.632  1.00  0.00    -0.132 F 
ATOM     30  F   UNL     1       3.729  -0.286  -7.801  1.00  0.00    -0.132 F 
ENDBRANCH  26  27
ENDBRANCH  25  26
ENDBRANCH   9  20
ENDBRANCH   4   7
ENDBRANCH   2   3
ENDBRANCH   1   2
BRANCH   1  31
ATOM     31  C   UNL     1       0.054   4.571   3.634  1.00  0.00     0.023 C 
BRANCH  31  32
ATOM     32  C   UNL     1      -1.177   5.285   3.086  1.00  0.00     0.116 C 
BRANCH  32  33
ATOM     33  N   UNL     1      -1.988   4.483   2.161  1.00  0.00    -0.352 N 
ATOM     34  C   UNL     1      -3.134   4.887   1.481  1.00  0.00     0.251 C 
ATOM     35  H   UNL     1      -1.689   3.558   2.005  1.00  0.00     0.163 HD
ATOM     36  O   UNL     1      -3.934   4.087   1.037  1.00  0.00    -0.269 OA
BRANCH  34  37
ATOM     37  C   UNL     1      -3.328   6.338   1.285  1.00  0.00     0.039 A 
ATOM     38  C   UNL     1      -4.548   6.981   1.513  1.00  0.00     0.014 A 
ATOM     39  C   UNL     1      -2.193   7.057   0.938  1.00  0.00     0.014 A 
ATOM     40  C   UNL     1      -4.584   8.375   1.473  1.00  0.00     0.010 A 
ATOM     41  C   UNL     1      -2.184   8.409   1.117  1.00  0.00     0.010 A 
ATOM     42  C   UNL     1      -3.387   9.083   1.290  1.00  0.00    -0.014 A 
BRANCH  42  43
ATOM     43  C   UNL     1      -3.318  10.538   1.372  1.00  0.00     0.031 A 
ATOM     44  C   UNL     1      -3.797  11.110   2.660  1.00  0.00     0.074 A 
ATOM     45  C   UNL     1      -2.611  11.255   0.468  1.00  0.00     0.049 A 
ATOM     46  N   UNL     1      -4.825  11.868   2.858  1.00  0.00    -0.248 NA
ATOM     47  C   UNL     1      -3.148  10.657   3.902  1.00  0.00     0.031 C 
ATOM     48  C   UNL     1      -1.807  10.744  -0.657  1.00  0.00     0.029 A 
ATOM     49  N   UNL     1      -2.304  12.580   0.463  1.00  0.00    -0.354 N 
ATOM     50  C   UNL     1      -4.786  12.200   4.213  1.00  0.00     0.074 A 
ATOM     51  C   UNL     1      -3.912  11.240   4.828  1.00  0.00     0.031 C 
ATOM     52  C   UNL     1      -0.908  11.677  -1.032  1.00  0.00     0.029 A 
ATOM     53  C   UNL     1      -1.197  12.904  -0.320  1.00  0.00     0.049 A 
ATOM     54  H   UNL     1      -2.819  13.251   0.967  1.00  0.00     0.167 HD
ATOM     55  C   UNL     1      -5.230  13.413   4.652  1.00  0.00     0.034 A 
ATOM     56  C   UNL     1      -0.531  14.084  -0.343  1.00  0.00     0.034 A 
ATOM     57  C   UNL     1      -6.022  14.066   3.635  1.00  0.00     0.049 A 
ATOM     58  C   UNL     1      -1.439  15.101   0.229  1.00  0.00     0.074 A 
ATOM     59  C   UNL     1      -7.160  13.751   2.920  1.00  0.00     0.029 A 
ATOM     60  N   UNL     1      -5.411  15.082   2.939  1.00  0.00    -0.354 N 
ATOM     61  N   UNL     1      -2.558  15.461  -0.335  1.00  0.00    -0.248 NA
ATOM     62  C   UNL     1      -1.327  15.389   1.648  1.00  0.00     0.031 C 
ATOM     63  C   UNL     1      -6.917  14.252   1.606  1.00  0.00     0.029 A 
ATOM     64  C   UNL     1      -5.686  14.911   1.611  1.00  0.00     0.049 A 
ATOM     65  H   UNL     1      -4.871  15.807   3.330  1.00  0.00     0.167 HD
ATOM     66  C   UNL     1      -3.450  15.569   0.722  1.00  0.00     0.074 A 
ATOM     67  C   UNL     1      -2.612  15.637   1.919  1.00  0.00     0.031 C 
ATOM     68  C   UNL     1      -4.777  15.288   0.551  1.00  0.00     0.034 A 
BRANCH  55  69
ATOM     69  C   UNL     1      -4.621  14.219   5.792  1.00  0.00     0.023 A 
ATOM     70  C   UNL     1      -5.235  15.460   6.090  1.00  0.00     0.012 A 
ATOM     71  C   UNL     1      -3.350  13.994   6.370  1.00  0.00     0.148 A 
ATOM     72  C   UNL     1      -4.577  16.458   6.818  1.00  0.00     0.002 A 
ATOM     73  C   UNL     1      -2.726  14.964   7.149  1.00  0.00     0.091 A 
ATOM     74  F   UNL     1      -2.660  12.890   6.086  1.00  0.00    -0.205 F 
ATOM     75  C   UNL     1      -3.317  16.212   7.343  1.00  0.00     0.022 A 
BRANCH  73  76
ATOM     76  S   UNL     1      -1.107  14.684   7.883  1.00  0.00     0.127 S 
ATOM     77  O   UNL     1      -0.261  15.524   7.041  1.00  0.00    -0.237 OA
ATOM     78  O   UNL     1      -1.310  15.173   9.247  1.00  0.00    -0.237 OA
ATOM     79  O   UNL     1      -0.877  13.247   7.793  1.00  0.00    -0.744 OA
ENDBRANCH  73  76
ENDBRANCH  55  69
BRANCH  56  80
ATOM     80  C   UNL     1       0.905  14.358  -0.577  1.00  0.00     0.023 A 
ATOM     81  C   UNL     1       1.318  15.647  -0.969  1.00  0.00     0.012 A 
ATOM     82  C   UNL     1       1.891  13.445  -0.143  1.00  0.00     0.148 A 
ATOM     83  C   UNL     1       2.664  16.027  -0.894  1.00  0.00     0.002 A 
ATOM     84  C   UNL     1       3.228  13.825  -0.076  1.00  0.00     0.091 A 
ATOM     85  F   UNL     1       1.503  12.239   0.293  1.00  0.00    -0.205 F 
ATOM     86  C   UNL     1       3.618  15.121  -0.439  1.00  0.00     0.022 A 
BRANCH  84  87
ATOM     87  S   UNL     1       4.508  12.715   0.523  1.00  0.00     0.127 S 
ATOM     88  O   UNL     1       5.524  12.836  -0.523  1.00  0.00    -0.237 OA
ATOM     89  O   UNL     1       4.863  13.329   1.799  1.00  0.00    -0.237 OA
ATOM     90  O   UNL     1       3.880  11.402   0.602  1.00  0.00    -0.744 OA
ENDBRANCH  84  87
ENDBRANCH  56  80
BRANCH  68  91
ATOM     91  C   UNL     1      -5.290  15.114  -0.857  1.00  0.00     0.023 A 
ATOM     92  C   UNL     1      -4.867  14.062  -1.698  1.00  0.00     0.012 A 
ATOM     93  C   UNL     1      -6.354  15.927  -1.276  1.00  0.00     0.148 A 
ATOM     94  C   UNL     1      -5.480  13.840  -2.935  1.00  0.00     0.002 A 
ATOM     95  C   UNL     1      -6.992  15.676  -2.484  1.00  0.00     0.091 A 
ATOM     96  F   UNL     1      -6.748  16.920  -0.464  1.00  0.00    -0.205 F 
ATOM     97  C   UNL     1      -6.553  14.639  -3.322  1.00  0.00     0.022 A 
BRANCH  95  98
ATOM     98  S   UNL     1      -8.457  16.587  -2.974  1.00  0.00     0.127 S 
ATOM     99  O   UNL     1      -7.933  17.471  -4.012  1.00  0.00    -0.237 OA
ATOM    100  O   UNL     1      -9.340  15.526  -3.461  1.00  0.00    -0.237 OA
ATOM    101  O   UNL     1      -8.937  17.251  -1.768  1.00  0.00    -0.744 OA
ENDBRANCH  95  98
ENDBRANCH  68  91
ENDBRANCH  42  43
ENDBRANCH  34  37
ENDBRANCH  32  33
ENDBRANCH  31  32
ENDBRANCH   1  31
TORSDOF 19
