REMARK SMILES Cc1cc(N[C@@H]2C=C[C@@H](C(=O)NCCCCNC(=O)c3ccc(-c4c5nc(c(-c6cccc(S(=O)(=O)[O-])c6F)c6ccc([nH]6)c(-c6cccc(S(=O)(=O)[O-])c6F)c6nc(c(-c7cccc(S(=O)(=O)[O-])c7F)c7ccc4[nH]7)C=C6)C=C5)cc3)C2)nc(C)n1
REMARK SMILES IDX 15 1 14 2 13 3 12 4 10 5 11 6 9 8 6 9 7 10 83 11 8 12 5 13
REMARK SMILES IDX 4 15 1 16 2 17 3 18 87 19 85 20 84 21 86 22 16 23 17 24
REMARK SMILES IDX 18 25 19 27 20 28 21 29 82 30 22 31 81 32 23 33 24 34 25 35
REMARK SMILES IDX 75 36 26 37 80 38 74 39 76 40 27 41 79 42 73 43 72 44 28 46
REMARK SMILES IDX 60 47 40 48 59 49 41 50 44 51 58 52 77 53 42 54 43 55 57 57
REMARK SMILES IDX 78 58 45 59 29 60 30 61 38 62 31 63 33 64 39 65 32 66 34 67
REMARK SMILES IDX 35 68 36 69 37 70 61 71 62 72 70 73 63 74 65 75 71 76 64 77
REMARK SMILES IDX 66 78 67 79 68 80 69 81 46 82 47 83 55 84 48 85 50 86 56 87
REMARK SMILES IDX 49 88 51 89 52 90 53 91 54 92
REMARK H PARENT 12 7 5 14 17 26 76 45 44 56
REMARK Flexibility Score: inf
ROOT
ATOM      1  C   UNL     1      -0.038   1.314   0.869  1.00  0.00     0.023 C 
ENDROOT
BRANCH   1   2
ATOM      2  C   UNL     1      -0.305   1.343  -0.636  1.00  0.00     0.023 C 
BRANCH   2   3
ATOM      3  C   UNL     1      -0.234  -0.019  -1.317  1.00  0.00     0.116 C 
BRANCH   3   4
ATOM      4  N   UNL     1      -1.239  -0.925  -0.803  1.00  0.00    -0.356 N 
ATOM      5  C   UNL     1      -2.204  -1.632  -1.441  1.00  0.00     0.227 C 
ATOM      6  O   UNL     1      -2.911  -2.379  -0.758  1.00  0.00    -0.274 OA
ATOM      7  H   UNL     1      -1.218  -1.048   0.173  1.00  0.00     0.163 HD
BRANCH   5   8
ATOM      8  C   UNL     1      -2.426  -1.549  -2.947  1.00  0.00     0.103 C 
ATOM      9  C   UNL     1      -1.892   0.071  -4.716  1.00  0.00     0.104 C 
ATOM     10  C   UNL     1      -0.959  -1.096  -4.728  1.00  0.00    -0.006 C 
ATOM     11  C   UNL     1      -2.801  -0.164  -3.500  1.00  0.00     0.046 C 
ATOM     12  C   UNL     1      -1.236  -1.974  -3.757  1.00  0.00    -0.016 C 
BRANCH   9  13
ATOM     13  N   UNL     1      -2.585   0.206  -5.977  1.00  0.00    -0.364 N 
ATOM     14  H   UNL     1      -2.564   1.112  -6.362  1.00  0.00     0.162 HD
BRANCH  13  15
ATOM     15  C   UNL     1      -3.266  -0.715  -6.723  1.00  0.00     0.130 A 
ATOM     16  C   UNL     1      -4.928  -4.072  -6.647  1.00  0.00     0.067 C 
ATOM     17  C   UNL     1      -4.380  -2.762  -7.126  1.00  0.00     0.043 A 
ATOM     18  C   UNL     1      -3.761  -1.904  -6.241  1.00  0.00     0.070 A 
ATOM     19  N   UNL     1      -4.542  -2.454  -8.423  1.00  0.00    -0.238 NA
ATOM     20  C   UNL     1      -4.058  -1.262  -8.812  1.00  0.00     0.127 A 
ATOM     21  N   UNL     1      -3.427  -0.380  -8.012  1.00  0.00    -0.216 NA
ATOM     22  C   UNL     1      -4.219  -0.887 -10.250  1.00  0.00     0.090 C 
ENDBRANCH  13  15
ENDBRANCH   9  13
ENDBRANCH   5   8
ENDBRANCH   3   4
ENDBRANCH   2   3
ENDBRANCH   1   2
BRANCH   1  23
ATOM     23  C   UNL     1       1.241   0.593   1.278  1.00  0.00     0.116 C 
BRANCH  23  24
ATOM     24  N   UNL     1       2.425   1.165   0.651  1.00  0.00    -0.352 N 
ATOM     25  C   UNL     1       3.587   1.569   1.258  1.00  0.00     0.251 C 
ATOM     26  H   UNL     1       2.386   1.275  -0.326  1.00  0.00     0.163 HD
ATOM     27  O   UNL     1       4.458   2.159   0.627  1.00  0.00    -0.269 OA
BRANCH  25  28
ATOM     28  C   UNL     1       3.749   1.297   2.695  1.00  0.00     0.039 A 
ATOM     29  C   UNL     1       3.898   2.370   3.575  1.00  0.00     0.014 A 
ATOM     30  C   UNL     1       3.653  -0.017   3.164  1.00  0.00     0.014 A 
ATOM     31  C   UNL     1       3.895   2.127   4.948  1.00  0.00     0.010 A 
ATOM     32  C   UNL     1       3.603  -0.250   4.533  1.00  0.00     0.010 A 
ATOM     33  C   UNL     1       3.724   0.820   5.433  1.00  0.00    -0.014 A 
BRANCH  33  34
ATOM     34  C   UNL     1       3.684   0.550   6.887  1.00  0.00     0.031 A 
ATOM     35  C   UNL     1       4.824  -0.178   7.537  1.00  0.00     0.074 A 
ATOM     36  C   UNL     1       2.600   0.902   7.604  1.00  0.00     0.049 A 
ATOM     37  N   UNL     1       4.969  -0.523   8.788  1.00  0.00    -0.248 NA
ATOM     38  C   UNL     1       5.938  -0.589   6.664  1.00  0.00     0.031 C 
ATOM     39  C   UNL     1       1.403   1.553   7.065  1.00  0.00     0.029 A 
ATOM     40  N   UNL     1       2.322   0.747   8.938  1.00  0.00    -0.354 N 
ATOM     41  C   UNL     1       6.175  -1.208   8.851  1.00  0.00     0.074 A 
ATOM     42  C   UNL     1       6.710  -1.258   7.508  1.00  0.00     0.031 C 
ATOM     43  C   UNL     1       0.524   1.750   8.062  1.00  0.00     0.029 A 
ATOM     44  C   UNL     1       1.089   1.232   9.306  1.00  0.00     0.049 A 
ATOM     45  H   UNL     1       2.947   0.328   9.573  1.00  0.00     0.167 HD
ATOM     46  C   UNL     1       6.799  -1.715   9.937  1.00  0.00     0.034 A 
ATOM     47  C   UNL     1       0.490   1.265  10.512  1.00  0.00     0.034 A 
ATOM     48  C   UNL     1       6.297  -1.610  11.276  1.00  0.00     0.049 A 
ATOM     49  C   UNL     1       1.222   0.727  11.710  1.00  0.00     0.074 A 
ATOM     50  C   UNL     1       6.901  -2.013  12.453  1.00  0.00     0.029 A 
ATOM     51  N   UNL     1       5.073  -1.059  11.617  1.00  0.00    -0.354 N 
ATOM     52  N   UNL     1       2.426   0.211  11.772  1.00  0.00    -0.248 NA
ATOM     53  C   UNL     1       0.532   0.801  13.006  1.00  0.00     0.031 C 
ATOM     54  C   UNL     1       6.041  -1.700  13.510  1.00  0.00     0.029 A 
ATOM     55  C   UNL     1       4.901  -1.109  12.988  1.00  0.00     0.049 A 
ATOM     56  H   UNL     1       4.422  -0.686  10.979  1.00  0.00     0.167 HD
ATOM     57  C   UNL     1       2.647  -0.080  13.113  1.00  0.00     0.074 A 
ATOM     58  C   UNL     1       1.458   0.328  13.832  1.00  0.00     0.031 C 
ATOM     59  C   UNL     1       3.732  -0.649  13.691  1.00  0.00     0.034 A 
BRANCH  46  60
ATOM     60  C   UNL     1       8.143  -2.351   9.730  1.00  0.00     0.023 A 
ATOM     61  C   UNL     1       9.272  -1.520   9.590  1.00  0.00     0.012 A 
ATOM     62  C   UNL     1       8.300  -3.749   9.734  1.00  0.00     0.148 A 
ATOM     63  C   UNL     1      10.542  -2.072   9.443  1.00  0.00     0.002 A 
ATOM     64  C   UNL     1       9.574  -4.292   9.612  1.00  0.00     0.091 A 
ATOM     65  F   UNL     1       7.206  -4.515   9.849  1.00  0.00    -0.205 F 
ATOM     66  C   UNL     1      10.694  -3.456   9.462  1.00  0.00     0.022 A 
BRANCH  64  67
ATOM     67  S   UNL     1       9.888  -6.060   9.664  1.00  0.00     0.127 S 
ATOM     68  O   UNL     1      10.352  -6.316   8.300  1.00  0.00    -0.237 OA
ATOM     69  O   UNL     1      10.926  -6.156  10.690  1.00  0.00    -0.237 OA
ATOM     70  O   UNL     1       8.620  -6.685  10.014  1.00  0.00    -0.744 OA
ENDBRANCH  64  67
ENDBRANCH  46  60
BRANCH  47  71
ATOM     71  C   UNL     1      -0.838   1.921  10.653  1.00  0.00     0.023 A 
ATOM     72  C   UNL     1      -0.901   3.213  11.210  1.00  0.00     0.012 A 
ATOM     73  C   UNL     1      -2.017   1.309  10.190  1.00  0.00     0.148 A 
ATOM     74  C   UNL     1      -2.120   3.882  11.314  1.00  0.00     0.002 A 
ATOM     75  C   UNL     1      -3.224   1.996  10.265  1.00  0.00     0.091 A 
ATOM     76  F   UNL     1      -1.929   0.079   9.666  1.00  0.00    -0.205 F 
ATOM     77  C   UNL     1      -3.279   3.278  10.835  1.00  0.00     0.022 A 
BRANCH  75  78
ATOM     78  S   UNL     1      -4.757   1.345   9.591  1.00  0.00     0.127 S 
ATOM     79  O   UNL     1      -5.567   1.181  10.795  1.00  0.00    -0.237 OA
ATOM     80  O   UNL     1      -5.179   2.432   8.707  1.00  0.00    -0.237 OA
ATOM     81  O   UNL     1      -4.397   0.112   8.905  1.00  0.00    -0.744 OA
ENDBRANCH  75  78
ENDBRANCH  47  71
BRANCH  59  82
ATOM     82  C   UNL     1       3.708  -0.872  15.176  1.00  0.00     0.023 A 
ATOM     83  C   UNL     1       3.048  -2.006  15.685  1.00  0.00     0.012 A 
ATOM     84  C   UNL     1       4.459  -0.052  16.041  1.00  0.00     0.148 A 
ATOM     85  C   UNL     1       3.136  -2.323  17.039  1.00  0.00     0.002 A 
ATOM     86  C   UNL     1       4.567  -0.392  17.383  1.00  0.00     0.091 A 
ATOM     87  F   UNL     1       5.070   1.026  15.527  1.00  0.00    -0.205 F 
ATOM     88  C   UNL     1       3.905  -1.525  17.884  1.00  0.00     0.022 A 
BRANCH  86  89
ATOM     89  S   UNL     1       5.596   0.525  18.535  1.00  0.00     0.127 S 
ATOM     90  O   UNL     1       4.595   1.108  19.429  1.00  0.00    -0.237 OA
ATOM     91  O   UNL     1       6.408  -0.533  19.135  1.00  0.00    -0.237 OA
ATOM     92  O   UNL     1       6.344   1.485  17.734  1.00  0.00    -0.744 OA
ENDBRANCH  86  89
ENDBRANCH  59  82
ENDBRANCH  33  34
ENDBRANCH  25  28
ENDBRANCH  23  24
ENDBRANCH   1  23
TORSDOF 16
