REMARK SMILES CC(C)C(=O)Nc1ccc(NC(=O)[C@@H]2[C@@H](C(=O)NCCCCNC(=O)c3ccc(-c4c5nc(c(-c6cccc(S(=O)(=O)[O-])c6F)c6ccc([nH]6)c(-c6cccc(S(=O)(=O)[O-])c6F)c6nc(c(-c7cccc(S(=O)(=O)[O-])c7F)c7ccc4[nH]7)C=C6)C=C5)cc3)C2(C)C)cc1Cl
REMARK SMILES IDX 20 1 19 2 18 3 16 4 17 5 15 7 14 8 89 9 90 10 91 11 12 12
REMARK SMILES IDX 11 13 13 15 10 16 7 17 8 18 93 19 9 20 92 21 94 22 6 23 4 24
REMARK SMILES IDX 5 25 2 27 1 28 3 29 21 30 22 31 23 32 24 33 25 35 26 36
REMARK SMILES IDX 27 37 88 38 28 39 87 40 29 41 30 42 31 43 81 44 32 45 86 46
REMARK SMILES IDX 80 47 82 48 33 49 85 50 79 51 78 52 34 54 66 55 46 56 65 57
REMARK SMILES IDX 47 58 50 59 64 60 83 61 48 62 49 63 63 65 84 66 51 67 35 68
REMARK SMILES IDX 36 69 44 70 37 71 39 72 45 73 38 74 40 75 41 76 42 77 43 78
REMARK SMILES IDX 67 79 68 80 76 81 69 82 71 83 77 84 70 85 72 86 73 87 74 88
REMARK SMILES IDX 75 89 52 90 53 91 61 92 54 93 56 94 62 95 55 96 57 97 58 98
REMARK SMILES IDX 59 99 60 100
REMARK H PARENT 18 6 11 14 6 26 23 34 82 53 50 64
REMARK Flexibility Score: inf
ROOT
ATOM      1  C   UNL     1       2.947   9.373   3.385  1.00  0.00     0.023 C 
ENDROOT
BRANCH   1   2
ATOM      2  C   UNL     1       2.574   7.959   2.940  1.00  0.00     0.116 C 
BRANCH   2   3
ATOM      3  N   UNL     1       2.132   7.143   4.050  1.00  0.00    -0.356 N 
ATOM      4  C   UNL     1       0.956   6.547   4.409  1.00  0.00     0.224 C 
ATOM      5  O   UNL     1       0.931   5.990   5.502  1.00  0.00    -0.275 OA
ATOM      6  H   UNL     1       2.850   6.977   4.703  1.00  0.00     0.163 HD
BRANCH   4   7
ATOM      7  C   UNL     1      -0.293   6.508   3.605  1.00  0.00     0.098 C 
ATOM      8  C   UNL     1      -0.562   6.925   2.189  1.00  0.00     0.098 C 
ATOM      9  C   UNL     1      -1.128   7.759   3.357  1.00  0.00    -0.011 C 
ATOM     10  C   UNL     1      -0.532   9.127   3.608  1.00  0.00     0.013 C 
ATOM     11  C   UNL     1      -2.589   7.672   3.738  1.00  0.00     0.013 C 
BRANCH   8  12
ATOM     12  C   UNL     1      -1.388   6.057   1.307  1.00  0.00     0.228 C 
ATOM     13  N   UNL     1      -2.190   6.594   0.323  1.00  0.00    -0.326 N 
ATOM     14  H   UNL     1      -2.563   5.931  -0.302  1.00  0.00     0.169 HD
ATOM     15  O   UNL     1      -1.324   4.837   1.425  1.00  0.00    -0.274 OA
BRANCH  13  16
ATOM     16  C   UNL     1      -2.569   7.919   0.053  1.00  0.00     0.042 A 
ATOM     17  C   UNL     1      -3.882  10.380   0.135  1.00  0.00     0.060 A 
ATOM     18  C   UNL     1      -2.596  10.261   0.649  1.00  0.00     0.030 A 
ATOM     19  C   UNL     1      -4.324   9.378  -0.728  1.00  0.00     0.066 A 
ATOM     20  C   UNL     1      -1.927   9.040   0.561  1.00  0.00     0.028 A 
ATOM     21  C   UNL     1      -3.709   8.122  -0.720  1.00  0.00     0.048 A 
ATOM     22  Cl  UNL     1      -5.411   9.728  -2.027  1.00  0.00    -0.082 Cl
BRANCH  17  23
ATOM     23  N   UNL     1      -4.601  11.526   0.495  1.00  0.00    -0.325 N 
ATOM     24  C   UNL     1      -5.867  11.691   0.978  1.00  0.00     0.226 C 
ATOM     25  O   UNL     1      -6.224  12.863   1.168  1.00  0.00    -0.274 OA
ATOM     26  H   UNL     1      -4.102  12.367   0.379  1.00  0.00     0.169 HD
BRANCH  24  27
ATOM     27  C   UNL     1      -6.809  10.561   1.429  1.00  0.00     0.072 C 
ATOM     28  C   UNL     1      -7.491   9.767   0.330  1.00  0.00     0.018 C 
ATOM     29  C   UNL     1      -6.229   9.653   2.510  1.00  0.00     0.018 C 
ENDBRANCH  24  27
ENDBRANCH  17  23
ENDBRANCH  13  16
ENDBRANCH   8  12
ENDBRANCH   4   7
ENDBRANCH   2   3
ENDBRANCH   1   2
BRANCH   1  30
ATOM     30  C   UNL     1       4.240   9.469   4.184  1.00  0.00     0.023 C 
BRANCH  30  31
ATOM     31  C   UNL     1       5.462   8.896   3.482  1.00  0.00     0.116 C 
BRANCH  31  32
ATOM     32  N   UNL     1       5.697   9.493   2.172  1.00  0.00    -0.352 N 
ATOM     33  C   UNL     1       6.875   9.970   1.648  1.00  0.00     0.251 C 
ATOM     34  H   UNL     1       4.909   9.564   1.587  1.00  0.00     0.163 HD
ATOM     35  O   UNL     1       6.878  10.575   0.581  1.00  0.00    -0.269 OA
BRANCH  33  36
ATOM     36  C   UNL     1       8.126   9.770   2.407  1.00  0.00     0.039 A 
ATOM     37  C   UNL     1       8.976  10.857   2.616  1.00  0.00     0.014 A 
ATOM     38  C   UNL     1       8.417   8.523   2.965  1.00  0.00     0.014 A 
ATOM     39  C   UNL     1      10.085  10.707   3.450  1.00  0.00     0.010 A 
ATOM     40  C   UNL     1       9.464   8.404   3.870  1.00  0.00     0.010 A 
ATOM     41  C   UNL     1      10.314   9.492   4.117  1.00  0.00    -0.014 A 
BRANCH  41  42
ATOM     42  C   UNL     1      11.439   9.333   5.073  1.00  0.00     0.031 A 
ATOM     43  C   UNL     1      12.508   8.305   4.809  1.00  0.00     0.074 A 
ATOM     44  C   UNL     1      11.460  10.058   6.210  1.00  0.00     0.049 A 
ATOM     45  N   UNL     1      13.529   7.969   5.552  1.00  0.00    -0.248 NA
ATOM     46  C   UNL     1      12.401   7.533   3.558  1.00  0.00     0.031 C 
ATOM     47  C   UNL     1      10.442  11.032   6.615  1.00  0.00     0.029 A 
ATOM     48  N   UNL     1      12.359  10.072   7.247  1.00  0.00    -0.354 N 
ATOM     49  C   UNL     1      14.171   6.940   4.873  1.00  0.00     0.074 A 
ATOM     50  C   UNL     1      13.395   6.666   3.685  1.00  0.00     0.031 C 
ATOM     51  C   UNL     1      10.781  11.556   7.805  1.00  0.00     0.029 A 
ATOM     52  C   UNL     1      12.016  10.932   8.266  1.00  0.00     0.049 A 
ATOM     53  H   UNL     1      13.174   9.520   7.260  1.00  0.00     0.167 HD
ATOM     54  C   UNL     1      15.325   6.306   5.186  1.00  0.00     0.034 A 
ATOM     55  C   UNL     1      12.626  11.180   9.442  1.00  0.00     0.034 A 
ATOM     56  C   UNL     1      16.114   6.604   6.349  1.00  0.00     0.049 A 
ATOM     57  C   UNL     1      13.912  10.462   9.758  1.00  0.00     0.074 A 
ATOM     58  C   UNL     1      17.325   6.054   6.731  1.00  0.00     0.029 A 
ATOM     59  N   UNL     1      15.774   7.535   7.318  1.00  0.00    -0.354 N 
ATOM     60  N   UNL     1      14.573   9.591   9.035  1.00  0.00    -0.248 NA
ATOM     61  C   UNL     1      14.557  10.790  11.038  1.00  0.00     0.031 C 
ATOM     62  C   UNL     1      17.708   6.640   7.941  1.00  0.00     0.029 A 
ATOM     63  C   UNL     1      16.752   7.577   8.296  1.00  0.00     0.049 A 
ATOM     64  H   UNL     1      14.957   8.084   7.311  1.00  0.00     0.167 HD
ATOM     65  C   UNL     1      15.731   9.305   9.748  1.00  0.00     0.074 A 
ATOM     66  C   UNL     1      15.693  10.113  10.949  1.00  0.00     0.031 C 
ATOM     67  C   UNL     1      16.730   8.439   9.448  1.00  0.00     0.034 A 
BRANCH  54  68
ATOM     68  C   UNL     1      15.846   5.277   4.217  1.00  0.00     0.023 A 
ATOM     69  C   UNL     1      16.364   5.701   2.975  1.00  0.00     0.012 A 
ATOM     70  C   UNL     1      15.895   3.911   4.556  1.00  0.00     0.148 A 
ATOM     71  C   UNL     1      16.897   4.780   2.075  1.00  0.00     0.002 A 
ATOM     72  C   UNL     1      16.470   3.005   3.673  1.00  0.00     0.091 A 
ATOM     73  F   UNL     1      15.382   3.527   5.733  1.00  0.00    -0.205 F 
ATOM     74  C   UNL     1      16.960   3.436   2.429  1.00  0.00     0.022 A 
BRANCH  72  75
ATOM     75  S   UNL     1      16.674   1.263   4.060  1.00  0.00     0.127 S 
ATOM     76  O   UNL     1      15.795   0.637   3.073  1.00  0.00    -0.237 OA
ATOM     77  O   UNL     1      18.103   1.063   3.817  1.00  0.00    -0.237 OA
ATOM     78  O   UNL     1      16.260   1.105   5.446  1.00  0.00    -0.744 OA
ENDBRANCH  72  75
ENDBRANCH  54  68
BRANCH  55  79
ATOM     79  C   UNL     1      12.068  12.184  10.394  1.00  0.00     0.023 A 
ATOM     80  C   UNL     1      12.788  13.367  10.655  1.00  0.00     0.012 A 
ATOM     81  C   UNL     1      10.849  11.964  11.064  1.00  0.00     0.148 A 
ATOM     82  C   UNL     1      12.335  14.283  11.605  1.00  0.00     0.002 A 
ATOM     83  C   UNL     1      10.373  12.910  11.965  1.00  0.00     0.091 A 
ATOM     84  F   UNL     1      10.181  10.829  10.814  1.00  0.00    -0.205 F 
ATOM     85  C   UNL     1      11.126  14.058  12.255  1.00  0.00     0.022 A 
BRANCH  83  86
ATOM     86  S   UNL     1       8.764  12.761  12.748  1.00  0.00     0.127 S 
ATOM     87  O   UNL     1       9.128  12.383  14.111  1.00  0.00    -0.237 OA
ATOM     88  O   UNL     1       8.229  14.116  12.605  1.00  0.00    -0.237 OA
ATOM     89  O   UNL     1       8.049  11.754  11.976  1.00  0.00    -0.744 OA
ENDBRANCH  83  86
ENDBRANCH  55  79
BRANCH  67  90
ATOM     90  C   UNL     1      17.898   8.364  10.396  1.00  0.00     0.023 A 
ATOM     91  C   UNL     1      17.744   7.765  11.661  1.00  0.00     0.012 A 
ATOM     92  C   UNL     1      19.168   8.829  10.000  1.00  0.00     0.148 A 
ATOM     93  C   UNL     1      18.826   7.665  12.534  1.00  0.00     0.002 A 
ATOM     94  C   UNL     1      20.253   8.677  10.853  1.00  0.00     0.091 A 
ATOM     95  F   UNL     1      19.290   9.410   8.798  1.00  0.00    -0.205 F 
ATOM     96  C   UNL     1      20.081   8.110  12.126  1.00  0.00     0.022 A 
BRANCH  94  97
ATOM     97  S   UNL     1      21.925   9.127  10.376  1.00  0.00     0.127 S 
ATOM     98  O   UNL     1      22.169  10.299  11.215  1.00  0.00    -0.237 OA
ATOM     99  O   UNL     1      22.686   7.936  10.755  1.00  0.00    -0.237 OA
ATOM    100  O   UNL     1      21.880   9.386   8.943  1.00  0.00    -0.744 OA
ENDBRANCH  94  97
ENDBRANCH  67  90
ENDBRANCH  41  42
ENDBRANCH  33  36
ENDBRANCH  31  32
ENDBRANCH  30  31
ENDBRANCH   1  30
TORSDOF 18
