REMARK SMILES C[N@@H+]1CCN(C(=O)c2ccc3[nH]c4c(c3c2)CSCC4)C[C@H]1C(=O)NCCCCNC(=O)c1ccc(-c2c3nc(c(-c4cccc(S(=O)(=O)[O-])c4F)c4ccc([nH]4)c(-c4cccc(S(=O)(=O)[O-])c4F)c4nc(c(-c5cccc(S(=O)(=O)[O-])c5F)c5ccc2[nH]5)C=C4)C=C3)cc1
REMARK SMILES IDX 28 1 27 2 26 3 25 4 23 5 24 6 22 8 1 9 2 10 3 11 4 13 21 14
REMARK SMILES IDX 5 15 6 16 7 17 8 18 9 19 16 20 10 21 15 22 11 23 14 24 12 25
REMARK SMILES IDX 13 26 17 27 20 29 18 30 19 31 29 32 30 33 31 34 32 36 33 37
REMARK SMILES IDX 34 38 95 39 35 40 94 41 36 42 37 43 38 44 88 45 39 46 93 47
REMARK SMILES IDX 87 48 89 49 40 50 92 51 86 52 85 53 41 55 73 56 53 57 72 58
REMARK SMILES IDX 54 59 57 60 71 61 90 62 55 63 56 64 70 66 91 67 58 68 42 69
REMARK SMILES IDX 43 70 51 71 44 72 46 73 52 74 45 75 47 76 48 77 49 78 50 79
REMARK SMILES IDX 74 80 75 81 83 82 76 83 78 84 84 85 77 86 79 87 80 88 81 89
REMARK SMILES IDX 82 90 59 91 60 92 68 93 61 94 63 95 69 96 62 97 64 98 65 99
REMARK SMILES IDX 66 100 67 101
REMARK H PARENT 25 7 2 12 12 28 30 35 89 54 57 65
REMARK Flexibility Score: inf
ROOT
ATOM      1  C   UNL     1       2.364  -2.515  -4.526  1.00  0.00     0.023 C 
ENDROOT
BRANCH   1   2
ATOM      2  C   UNL     1       1.766  -1.338  -3.752  1.00  0.00     0.023 C 
BRANCH   2   3
ATOM      3  C   UNL     1       0.642  -1.706  -2.794  1.00  0.00     0.116 C 
BRANCH   3   4
ATOM      4  N   UNL     1       1.083  -2.600  -1.737  1.00  0.00    -0.351 N 
ATOM      5  C   UNL     1       1.011  -2.441  -0.384  1.00  0.00     0.280 C 
ATOM      6  O   UNL     1       1.429  -3.356   0.333  1.00  0.00    -0.268 OA
ATOM      7  H   UNL     1       1.492  -3.443  -2.041  1.00  0.00     0.163 HD
BRANCH   5   8
ATOM      8  C   UNL     1       0.373  -1.193   0.242  1.00  0.00     0.293 C 
ATOM      9  C   UNL     1       2.431   0.127   0.151  1.00  0.00     0.333 C 
ATOM     10  N   UNL     1       1.016   0.072  -0.223  1.00  0.00    -0.324 N 
ATOM     11  C   UNL     1       0.293   1.231   0.344  1.00  0.00     0.284 C 
ATOM     12  H   UNL     1       0.966   0.100  -1.241  1.00  0.00     0.348 HD
ATOM     13  C   UNL     1      -1.216   1.207   0.033  1.00  0.00     0.181 C 
ATOM     14  C   UNL     1      -1.145  -1.252  -0.032  1.00  0.00     0.195 C 
ATOM     15  N   UNL     1      -1.845  -0.051   0.440  1.00  0.00    -0.326 N 
BRANCH  15  16
ATOM     16  C   UNL     1      -3.148  -0.023   0.926  1.00  0.00     0.254 C 
ATOM     17  O   UNL     1      -3.791   1.010   1.096  1.00  0.00    -0.269 OA
BRANCH  16  18
ATOM     18  C   UNL     1      -3.823  -1.305   1.227  1.00  0.00     0.040 A 
ATOM     19  C   UNL     1      -3.286  -2.192   2.163  1.00  0.00     0.016 A 
ATOM     20  C   UNL     1      -5.023  -1.591   0.560  1.00  0.00     0.024 A 
ATOM     21  C   UNL     1      -3.890  -3.429   2.399  1.00  0.00     0.027 A 
ATOM     22  C   UNL     1      -5.663  -2.821   0.807  1.00  0.00     0.004 A 
ATOM     23  C   UNL     1      -5.073  -3.713   1.706  1.00  0.00     0.046 A 
ATOM     24  C   UNL     1      -6.873  -3.421   0.339  1.00  0.00    -0.009 A 
ATOM     25  N   UNL     1      -5.871  -4.834   1.748  1.00  0.00    -0.358 N 
ATOM     26  C   UNL     1      -6.978  -4.647   0.969  1.00  0.00     0.021 A 
ATOM     27  C   UNL     1      -7.873  -2.822  -0.598  1.00  0.00     0.107 C 
ATOM     28  H   UNL     1      -5.673  -5.649   2.264  1.00  0.00     0.166 HD
ATOM     29  C   UNL     1      -8.090  -5.630   0.854  1.00  0.00     0.065 C 
ATOM     30  S   UNL     1      -9.218  -3.970  -1.083  1.00  0.00    -0.157 SA
ATOM     31  C   UNL     1      -9.391  -4.916   0.475  1.00  0.00     0.076 C 
ENDBRANCH  16  18
ENDBRANCH  15  16
ENDBRANCH   5   8
ENDBRANCH   3   4
ENDBRANCH   2   3
ENDBRANCH   1   2
BRANCH   1  32
ATOM     32  C   UNL     1       1.349  -3.418  -5.229  1.00  0.00     0.116 C 
BRANCH  32  33
ATOM     33  N   UNL     1       0.453  -2.735  -6.138  1.00  0.00    -0.352 N 
ATOM     34  C   UNL     1       0.505  -2.418  -7.468  1.00  0.00     0.251 C 
ATOM     35  H   UNL     1      -0.376  -2.430  -5.703  1.00  0.00     0.163 HD
ATOM     36  O   UNL     1      -0.557  -2.046  -7.973  1.00  0.00    -0.269 OA
BRANCH  34  37
ATOM     37  C   UNL     1       1.743  -2.405  -8.292  1.00  0.00     0.039 A 
ATOM     38  C   UNL     1       2.987  -2.884  -7.884  1.00  0.00     0.014 A 
ATOM     39  C   UNL     1       1.641  -1.776  -9.548  1.00  0.00     0.014 A 
ATOM     40  C   UNL     1       4.121  -2.620  -8.640  1.00  0.00     0.010 A 
ATOM     41  C   UNL     1       2.768  -1.532 -10.323  1.00  0.00     0.010 A 
ATOM     42  C   UNL     1       4.014  -1.909  -9.838  1.00  0.00    -0.014 A 
BRANCH  42  43
ATOM     43  C   UNL     1       5.228  -1.735 -10.624  1.00  0.00     0.031 A 
ATOM     44  C   UNL     1       5.838  -3.019 -11.063  1.00  0.00     0.074 A 
ATOM     45  C   UNL     1       5.724  -0.535 -10.987  1.00  0.00     0.049 A 
ATOM     46  N   UNL     1       6.976  -3.513 -10.698  1.00  0.00    -0.248 NA
ATOM     47  C   UNL     1       5.016  -3.937 -11.868  1.00  0.00     0.031 C 
ATOM     48  C   UNL     1       5.105   0.780 -10.825  1.00  0.00     0.029 A 
ATOM     49  N   UNL     1       6.854  -0.255 -11.697  1.00  0.00    -0.354 N 
ATOM     50  C   UNL     1       7.115  -4.699 -11.414  1.00  0.00     0.074 A 
ATOM     51  C   UNL     1       5.821  -4.996 -11.969  1.00  0.00     0.031 C 
ATOM     52  C   UNL     1       5.733   1.668 -11.629  1.00  0.00     0.029 A 
ATOM     53  C   UNL     1       6.864   1.018 -12.266  1.00  0.00     0.049 A 
ATOM     54  H   UNL     1       7.596  -0.894 -11.798  1.00  0.00     0.167 HD
ATOM     55  C   UNL     1       8.341  -5.218 -11.695  1.00  0.00     0.034 A 
ATOM     56  C   UNL     1       7.695   1.457 -13.248  1.00  0.00     0.034 A 
ATOM     57  C   UNL     1       9.361  -4.665 -10.847  1.00  0.00     0.049 A 
ATOM     58  C   UNL     1       8.894   0.585 -13.206  1.00  0.00     0.074 A 
ATOM     59  C   UNL     1       9.567  -4.612  -9.483  1.00  0.00     0.029 A 
ATOM     60  N   UNL     1      10.177  -3.704 -11.393  1.00  0.00    -0.354 N 
ATOM     61  N   UNL     1       9.736   0.567 -12.210  1.00  0.00    -0.248 NA
ATOM     62  C   UNL     1       8.922  -0.578 -14.079  1.00  0.00     0.031 C 
ATOM     63  C   UNL     1      10.104  -3.316  -9.248  1.00  0.00     0.029 A 
ATOM     64  C   UNL     1      10.259  -2.686 -10.484  1.00  0.00     0.049 A 
ATOM     65  H   UNL     1      10.619  -3.742 -12.272  1.00  0.00     0.167 HD
ATOM     66  C   UNL     1      10.056  -0.775 -12.064  1.00  0.00     0.074 A 
ATOM     67  C   UNL     1       9.607  -1.416 -13.298  1.00  0.00     0.031 C 
ATOM     68  C   UNL     1      10.380  -1.292 -10.845  1.00  0.00     0.034 A 
BRANCH  55  69
ATOM     69  C   UNL     1       8.686  -5.940 -12.973  1.00  0.00     0.023 A 
ATOM     70  C   UNL     1       9.945  -6.575 -13.047  1.00  0.00     0.012 A 
ATOM     71  C   UNL     1       7.974  -5.777 -14.184  1.00  0.00     0.148 A 
ATOM     72  C   UNL     1      10.486  -6.987 -14.270  1.00  0.00     0.002 A 
ATOM     73  C   UNL     1       8.483  -6.252 -15.386  1.00  0.00     0.091 A 
ATOM     74  F   UNL     1       6.860  -5.040 -14.209  1.00  0.00    -0.205 F 
ATOM     75  C   UNL     1       9.751  -6.833 -15.439  1.00  0.00     0.022 A 
BRANCH  73  76
ATOM     76  S   UNL     1       7.561  -6.094 -16.920  1.00  0.00     0.127 S 
ATOM     77  O   UNL     1       8.326  -5.053 -17.610  1.00  0.00    -0.237 OA
ATOM     78  O   UNL     1       7.699  -7.438 -17.487  1.00  0.00    -0.237 OA
ATOM     79  O   UNL     1       6.208  -5.743 -16.533  1.00  0.00    -0.744 OA
ENDBRANCH  73  76
ENDBRANCH  55  69
BRANCH  56  80
ATOM     80  C   UNL     1       7.439   2.378 -14.393  1.00  0.00     0.023 A 
ATOM     81  C   UNL     1       8.516   2.753 -15.229  1.00  0.00     0.012 A 
ATOM     82  C   UNL     1       6.134   2.662 -14.851  1.00  0.00     0.148 A 
ATOM     83  C   UNL     1       8.299   3.323 -16.492  1.00  0.00     0.002 A 
ATOM     84  C   UNL     1       5.923   3.244 -16.100  1.00  0.00     0.091 A 
ATOM     85  F   UNL     1       5.085   2.276 -14.116  1.00  0.00    -0.205 F 
ATOM     86  C   UNL     1       7.002   3.559 -16.932  1.00  0.00     0.022 A 
BRANCH  84  87
ATOM     87  S   UNL     1       4.266   3.568 -16.721  1.00  0.00     0.127 S 
ATOM     88  O   UNL     1       4.422   4.883 -17.347  1.00  0.00    -0.237 OA
ATOM     89  O   UNL     1       4.071   2.464 -17.656  1.00  0.00    -0.237 OA
ATOM     90  O   UNL     1       3.401   3.570 -15.547  1.00  0.00    -0.744 OA
ENDBRANCH  84  87
ENDBRANCH  56  80
BRANCH  68  91
ATOM     91  C   UNL     1      10.614  -0.351  -9.693  1.00  0.00     0.023 A 
ATOM     92  C   UNL     1       9.559   0.372  -9.097  1.00  0.00     0.012 A 
ATOM     93  C   UNL     1      11.853  -0.426  -9.037  1.00  0.00     0.148 A 
ATOM     94  C   UNL     1       9.736   0.992  -7.856  1.00  0.00     0.002 A 
ATOM     95  C   UNL     1      12.010   0.151  -7.785  1.00  0.00     0.091 A 
ATOM     96  F   UNL     1      12.832  -1.132  -9.622  1.00  0.00    -0.205 F 
ATOM     97  C   UNL     1      10.954   0.863  -7.191  1.00  0.00     0.022 A 
BRANCH  95  98
ATOM     98  S   UNL     1      13.498  -0.089  -6.814  1.00  0.00     0.127 S 
ATOM     99  O   UNL     1      14.008   1.276  -6.694  1.00  0.00    -0.237 OA
ATOM    100  O   UNL     1      12.967  -0.656  -5.574  1.00  0.00    -0.237 OA
ATOM    101  O   UNL     1      14.344  -0.998  -7.578  1.00  0.00    -0.744 OA
ENDBRANCH  95  98
ENDBRANCH  68  91
ENDBRANCH  42  43
ENDBRANCH  34  37
ENDBRANCH  32  33
ENDBRANCH   1  32
TORSDOF 16
