REMARK SMILES CC1(C)[C@@]2(CC[C@@H]2C(=O)NCc2ccco2)[C@]1(C)C(=O)NCCCCNC(=O)c1ccc(-c2c3nc(c(-c4cccc(S(=O)(=O)[O-])c4F)c4ccc([nH]4)c(-c4cccc(S(=O)(=O)[O-])c4F)c4nc(c(-c5cccc(S(=O)(=O)[O-])c5F)c5ccc2[nH]5)C=C4)C=C3)cc1
REMARK SMILES IDX 23 1 22 2 21 3 19 4 20 5 17 7 1 8 2 9 3 10 4 11 18 12 5 13
REMARK SMILES IDX 7 14 6 15 8 16 9 17 10 18 11 20 12 21 13 22 16 23 14 24
REMARK SMILES IDX 15 25 24 26 25 27 26 28 27 29 28 31 29 32 30 33 91 34 31 35
REMARK SMILES IDX 90 36 32 37 33 38 34 39 84 40 35 41 89 42 83 43 85 44 36 45
REMARK SMILES IDX 88 46 82 47 81 48 37 50 69 51 49 52 68 53 50 54 53 55 67 56
REMARK SMILES IDX 86 57 51 58 52 59 66 61 87 62 54 63 38 64 39 65 47 66 40 67
REMARK SMILES IDX 42 68 48 69 41 70 43 71 44 72 45 73 46 74 70 75 71 76 79 77
REMARK SMILES IDX 72 78 74 79 80 80 73 81 75 82 76 83 77 84 78 85 55 86 56 87
REMARK SMILES IDX 64 88 57 89 59 90 65 91 58 92 60 93 61 94 62 95 63 96
REMARK H PARENT 21 6 10 19 26 30 85 49 53 60
REMARK Flexibility Score: inf
ROOT
ATOM      1  C   UNL     1      -2.326   1.939   2.206  1.00  0.00     0.023 C 
ENDROOT
BRANCH   1   2
ATOM      2  C   UNL     1      -1.553   0.861   1.452  1.00  0.00     0.116 C 
BRANCH   2   3
ATOM      3  N   UNL     1      -2.304   0.287   0.361  1.00  0.00    -0.356 N 
ATOM      4  C   UNL     1      -2.095   0.020  -0.959  1.00  0.00     0.227 C 
ATOM      5  O   UNL     1      -2.991  -0.674  -1.453  1.00  0.00    -0.274 OA
ATOM      6  H   UNL     1      -3.207   0.018   0.646  1.00  0.00     0.163 HD
BRANCH   4   7
ATOM      7  C   UNL     1      -0.964   0.457  -1.897  1.00  0.00     0.059 C 
ATOM      8  C   UNL     1       0.985  -0.076  -0.215  1.00  0.00     0.013 C 
ATOM      9  C   UNL     1       0.549   0.472  -1.557  1.00  0.00    -0.013 C 
ATOM     10  C   UNL     1       1.584   0.112  -2.614  1.00  0.00     0.013 C 
ATOM     11  C   UNL     1      -0.207   1.788  -1.762  1.00  0.00     0.003 C 
ATOM     12  C   UNL     1      -1.287  -0.015  -3.337  1.00  0.00     0.023 C 
ATOM     13  C   UNL     1      -0.158   2.715  -2.948  1.00  0.00     0.010 C 
ATOM     14  C   UNL     1      -0.423   2.930  -0.813  1.00  0.00     0.086 C 
ATOM     15  C   UNL     1      -0.624   3.831  -2.029  1.00  0.00     0.015 C 
BRANCH  14  16
ATOM     16  C   UNL     1       0.625   3.325   0.261  1.00  0.00     0.224 C 
ATOM     17  O   UNL     1       0.305   3.507   1.448  1.00  0.00    -0.275 OA
ATOM     18  N   UNL     1       1.958   3.531   0.021  1.00  0.00    -0.349 N 
ATOM     19  H   UNL     1       2.494   3.662   0.836  1.00  0.00     0.163 HD
BRANCH  18  20
ATOM     20  C   UNL     1       2.724   3.592  -1.198  1.00  0.00     0.191 C 
BRANCH  20  21
ATOM     21  C   UNL     1       2.876   5.006  -1.628  1.00  0.00     0.122 A 
ATOM     22  C   UNL     1       2.308   6.205  -1.237  1.00  0.00     0.047 A 
ATOM     23  O   UNL     1       3.773   5.231  -2.632  1.00  0.00    -0.467 OA
ATOM     24  C   UNL     1       2.884   7.210  -2.048  1.00  0.00     0.042 A 
ATOM     25  C   UNL     1       3.772   6.567  -2.877  1.00  0.00     0.195 A 
ENDBRANCH  20  21
ENDBRANCH  18  20
ENDBRANCH  14  16
ENDBRANCH   4   7
ENDBRANCH   2   3
ENDBRANCH   1   2
BRANCH   1  26
ATOM     26  C   UNL     1      -3.569   1.453   2.946  1.00  0.00     0.023 C 
BRANCH  26  27
ATOM     27  C   UNL     1      -3.345   0.270   3.877  1.00  0.00     0.116 C 
BRANCH  27  28
ATOM     28  N   UNL     1      -2.305   0.508   4.871  1.00  0.00    -0.352 N 
ATOM     29  C   UNL     1      -2.366   0.388   6.242  1.00  0.00     0.251 C 
ATOM     30  H   UNL     1      -1.435   0.796   4.511  1.00  0.00     0.163 HD
ATOM     31  O   UNL     1      -1.426   0.731   6.941  1.00  0.00    -0.269 OA
BRANCH  29  32
ATOM     32  C   UNL     1      -3.606  -0.130   6.856  1.00  0.00     0.039 A 
ATOM     33  C   UNL     1      -4.216   0.607   7.875  1.00  0.00     0.014 A 
ATOM     34  C   UNL     1      -4.195  -1.300   6.374  1.00  0.00     0.014 A 
ATOM     35  C   UNL     1      -5.469   0.213   8.351  1.00  0.00     0.010 A 
ATOM     36  C   UNL     1      -5.476  -1.640   6.789  1.00  0.00     0.010 A 
ATOM     37  C   UNL     1      -6.128  -0.886   7.777  1.00  0.00    -0.014 A 
BRANCH  37  38
ATOM     38  C   UNL     1      -7.509  -1.265   8.169  1.00  0.00     0.031 A 
ATOM     39  C   UNL     1      -7.772  -2.627   8.749  1.00  0.00     0.074 A 
ATOM     40  C   UNL     1      -8.537  -0.446   7.870  1.00  0.00     0.049 A 
ATOM     41  N   UNL     1      -8.914  -3.202   9.018  1.00  0.00    -0.248 NA
ATOM     42  C   UNL     1      -6.595  -3.469   9.025  1.00  0.00     0.031 C 
ATOM     43  C   UNL     1      -8.418   0.860   7.218  1.00  0.00     0.029 A 
ATOM     44  N   UNL     1      -9.891  -0.613   8.033  1.00  0.00    -0.354 N 
ATOM     45  C   UNL     1      -8.599  -4.489   9.435  1.00  0.00     0.074 A 
ATOM     46  C   UNL     1      -7.160  -4.619   9.362  1.00  0.00     0.031 C 
ATOM     47  C   UNL     1      -9.646   1.368   7.023  1.00  0.00     0.029 A 
ATOM     48  C   UNL     1     -10.639   0.415   7.508  1.00  0.00     0.049 A 
ATOM     49  H   UNL     1     -10.287  -1.394   8.482  1.00  0.00     0.167 HD
ATOM     50  C   UNL     1      -9.430  -5.467   9.867  1.00  0.00     0.034 A 
ATOM     51  C   UNL     1     -11.976   0.567   7.411  1.00  0.00     0.034 A 
ATOM     52  C   UNL     1     -10.850  -5.306  10.008  1.00  0.00     0.049 A 
ATOM     53  C   UNL     1     -12.875  -0.499   7.976  1.00  0.00     0.074 A 
ATOM     54  C   UNL     1     -11.764  -6.185  10.561  1.00  0.00     0.029 A 
ATOM     55  N   UNL     1     -11.565  -4.194   9.590  1.00  0.00    -0.354 N 
ATOM     56  N   UNL     1     -12.548  -1.637   8.540  1.00  0.00    -0.248 NA
ATOM     57  C   UNL     1     -14.323  -0.248   7.927  1.00  0.00     0.031 C 
ATOM     58  C   UNL     1     -13.035  -5.610  10.464  1.00  0.00     0.029 A 
ATOM     59  C   UNL     1     -12.909  -4.367   9.865  1.00  0.00     0.049 A 
ATOM     60  H   UNL     1     -11.173  -3.400   9.161  1.00  0.00     0.167 HD
ATOM     61  C   UNL     1     -13.744  -2.222   8.941  1.00  0.00     0.074 A 
ATOM     62  C   UNL     1     -14.802  -1.305   8.571  1.00  0.00     0.031 C 
ATOM     63  C   UNL     1     -13.946  -3.418   9.547  1.00  0.00     0.034 A 
BRANCH  50  64
ATOM     64  C   UNL     1      -8.813  -6.777  10.279  1.00  0.00     0.023 A 
ATOM     65  C   UNL     1      -8.066  -6.848  11.472  1.00  0.00     0.012 A 
ATOM     66  C   UNL     1      -9.009  -7.943   9.514  1.00  0.00     0.148 A 
ATOM     67  C   UNL     1      -7.491  -8.051  11.879  1.00  0.00     0.002 A 
ATOM     68  C   UNL     1      -8.469  -9.148   9.950  1.00  0.00     0.091 A 
ATOM     69  F   UNL     1      -9.700  -7.852   8.369  1.00  0.00    -0.205 F 
ATOM     70  C   UNL     1      -7.701  -9.202  11.124  1.00  0.00     0.022 A 
BRANCH  68  71
ATOM     71  S   UNL     1      -8.752 -10.697   9.085  1.00  0.00     0.127 S 
ATOM     72  O   UNL     1      -7.473 -10.896   8.406  1.00  0.00    -0.237 OA
ATOM     73  O   UNL     1      -9.007 -11.627  10.187  1.00  0.00    -0.237 OA
ATOM     74  O   UNL     1      -9.898 -10.463   8.217  1.00  0.00    -0.744 OA
ENDBRANCH  68  71
ENDBRANCH  50  64
BRANCH  51  75
ATOM     75  C   UNL     1     -12.535   1.812   6.813  1.00  0.00     0.023 A 
ATOM     76  C   UNL     1     -13.141   2.767   7.652  1.00  0.00     0.012 A 
ATOM     77  C   UNL     1     -12.422   2.080   5.435  1.00  0.00     0.148 A 
ATOM     78  C   UNL     1     -13.645   3.957   7.127  1.00  0.00     0.002 A 
ATOM     79  C   UNL     1     -12.879   3.291   4.926  1.00  0.00     0.091 A 
ATOM     80  F   UNL     1     -11.852   1.154   4.652  1.00  0.00    -0.205 F 
ATOM     81  C   UNL     1     -13.504   4.224   5.768  1.00  0.00     0.022 A 
BRANCH  79  82
ATOM     82  S   UNL     1     -12.620   3.778   3.216  1.00  0.00     0.127 S 
ATOM     83  O   UNL     1     -13.970   3.680   2.669  1.00  0.00    -0.237 OA
ATOM     84  O   UNL     1     -12.111   5.143   3.363  1.00  0.00    -0.237 OA
ATOM     85  O   UNL     1     -11.648   2.832   2.683  1.00  0.00    -0.744 OA
ENDBRANCH  79  82
ENDBRANCH  51  75
BRANCH  63  86
ATOM     86  C   UNL     1     -15.360  -3.808   9.884  1.00  0.00     0.023 A 
ATOM     87  C   UNL     1     -16.224  -4.245   8.863  1.00  0.00     0.012 A 
ATOM     88  C   UNL     1     -15.793  -3.848  11.225  1.00  0.00     0.148 A 
ATOM     89  C   UNL     1     -17.505  -4.702   9.168  1.00  0.00     0.002 A 
ATOM     90  C   UNL     1     -17.054  -4.347  11.526  1.00  0.00     0.091 A 
ATOM     91  F   UNL     1     -14.959  -3.410  12.179  1.00  0.00    -0.205 F 
ATOM     92  C   UNL     1     -17.915  -4.766  10.498  1.00  0.00     0.022 A 
BRANCH  90  93
ATOM     93  S   UNL     1     -17.630  -4.557  13.215  1.00  0.00     0.127 S 
ATOM     94  O   UNL     1     -18.635  -3.500  13.320  1.00  0.00    -0.237 OA
ATOM     95  O   UNL     1     -18.172  -5.915  13.192  1.00  0.00    -0.237 OA
ATOM     96  O   UNL     1     -16.457  -4.389  14.063  1.00  0.00    -0.744 OA
ENDBRANCH  90  93
ENDBRANCH  63  86
ENDBRANCH  37  38
ENDBRANCH  29  32
ENDBRANCH  27  28
ENDBRANCH  26  27
ENDBRANCH   1  26
TORSDOF 17
