REMARK SMILES CCc1nn(C)c(N[C@@](C)(CC)C(=O)NCCCCNC(=O)c2ccc(-c3c4nc(c(-c5cccc(S(=O)(=O)[O-])c5F)c5ccc([nH]5)c(-c5cccc(S(=O)(=O)[O-])c5F)c5nc(c(-c6cccc(S(=O)(=O)[O-])c6F)c6ccc3[nH]6)C=C5)C=C4)cc2)c1[N+](=O)[O-]
REMARK SMILES IDX 17 1 16 2 15 3 13 4 14 5 9 7 10 8 8 9 7 11 3 12 4 13 86 14
REMARK SMILES IDX 5 15 6 16 2 17 1 18 87 19 88 20 89 21 11 22 12 23 18 24
REMARK SMILES IDX 19 25 20 26 21 27 22 29 23 30 24 31 85 32 25 33 84 34 26 35
REMARK SMILES IDX 27 36 28 37 78 38 29 39 83 40 77 41 79 42 30 43 82 44 76 45
REMARK SMILES IDX 75 46 31 48 63 49 43 50 62 51 44 52 47 53 61 54 80 55 45 56
REMARK SMILES IDX 46 57 60 59 81 60 48 61 32 62 33 63 41 64 34 65 36 66 42 67
REMARK SMILES IDX 35 68 37 69 38 70 39 71 40 72 64 73 65 74 73 75 66 76 68 77
REMARK SMILES IDX 74 78 67 79 69 80 70 81 71 82 72 83 49 84 50 85 58 86 51 87
REMARK SMILES IDX 53 88 59 89 52 90 54 91 55 92 56 93 57 94
REMARK H PARENT 15 6 8 10 20 28 79 47 47 58
REMARK Flexibility Score: inf
ROOT
ATOM      1  C   UNL     1       2.387   2.468  -8.876  1.00  0.00     0.023 C 
ENDROOT
BRANCH   1   2
ATOM      2  C   UNL     1       3.505   1.676  -8.206  1.00  0.00     0.116 C 
BRANCH   2   3
ATOM      3  N   UNL     1       3.332   1.536  -6.778  1.00  0.00    -0.354 N 
ATOM      4  C   UNL     1       3.256   0.428  -5.996  1.00  0.00     0.245 C 
ATOM      5  O   UNL     1       3.752   0.555  -4.867  1.00  0.00    -0.272 OA
ATOM      6  H   UNL     1       3.256   2.387  -6.290  1.00  0.00     0.163 HD
BRANCH   4   7
ATOM      7  C   UNL     1       2.704  -0.947  -6.463  1.00  0.00     0.115 C 
ATOM      8  C   UNL     1       3.995  -1.688  -6.922  1.00  0.00     0.045 C 
BRANCH   7   9
ATOM      9  N   UNL     1       2.142  -1.779  -5.357  1.00  0.00    -0.351 N 
ATOM     10  H   UNL     1       2.260  -2.749  -5.477  1.00  0.00     0.163 HD
BRANCH   9  11
ATOM     11  C   UNL     1       1.487  -1.424  -4.197  1.00  0.00     0.205 A 
ATOM     12  C   UNL     1       0.567  -0.686  -2.263  1.00  0.00     0.142 A 
ATOM     13  N   UNL     1       0.471  -2.016  -2.207  1.00  0.00    -0.169 NA
ATOM     14  C   UNL     1       1.131  -0.265  -3.498  1.00  0.00     0.334 A 
ATOM     15  N   UNL     1       1.000  -2.436  -3.371  1.00  0.00    -0.246 N 
ATOM     16  C   UNL     1       0.948  -3.861  -3.605  1.00  0.00     0.176 C 
BRANCH  12  17
ATOM     17  C   UNL     1       0.062   0.134  -1.116  1.00  0.00     0.062 C 
ATOM     18  C   UNL     1       0.860  -0.090   0.161  1.00  0.00     0.011 C 
ENDBRANCH  12  17
BRANCH  14  19
ATOM     19  N   UNL     1       1.254   1.111  -3.860  1.00  0.00     0.068 N 
ATOM     20  O   UNL     1       1.810   1.863  -3.049  1.00  0.00    -0.258 OA
ATOM     21  O   UNL     1       0.698   1.464  -4.907  1.00  0.00    -0.258 OA
ENDBRANCH  14  19
ENDBRANCH   9  11
ENDBRANCH   7   9
BRANCH   7  22
ATOM     22  C   UNL     1       1.699  -1.022  -7.642  1.00  0.00     0.035 C 
ATOM     23  C   UNL     1       0.276  -0.565  -7.367  1.00  0.00     0.007 C 
ENDBRANCH   7  22
ENDBRANCH   4   7
ENDBRANCH   2   3
ENDBRANCH   1   2
BRANCH   1  24
ATOM     24  C   UNL     1       2.199   3.898  -8.361  1.00  0.00     0.023 C 
BRANCH  24  25
ATOM     25  C   UNL     1       3.469   4.735  -8.248  1.00  0.00     0.116 C 
BRANCH  25  26
ATOM     26  N   UNL     1       4.225   4.793  -9.490  1.00  0.00    -0.352 N 
ATOM     27  C   UNL     1       4.830   5.870 -10.089  1.00  0.00     0.251 C 
ATOM     28  H   UNL     1       4.316   3.938  -9.970  1.00  0.00     0.163 HD
ATOM     29  O   UNL     1       5.328   5.744 -11.206  1.00  0.00    -0.269 OA
BRANCH  27  30
ATOM     30  C   UNL     1       4.855   7.181  -9.407  1.00  0.00     0.039 A 
ATOM     31  C   UNL     1       4.541   8.326 -10.143  1.00  0.00     0.014 A 
ATOM     32  C   UNL     1       5.178   7.284  -8.051  1.00  0.00     0.014 A 
ATOM     33  C   UNL     1       4.501   9.568  -9.506  1.00  0.00     0.010 A 
ATOM     34  C   UNL     1       5.059   8.510  -7.402  1.00  0.00     0.010 A 
ATOM     35  C   UNL     1       4.731   9.667  -8.124  1.00  0.00    -0.014 A 
BRANCH  35  36
ATOM     36  C   UNL     1       4.631  10.973  -7.422  1.00  0.00     0.031 A 
ATOM     37  C   UNL     1       5.836  11.561  -6.737  1.00  0.00     0.074 A 
ATOM     38  C   UNL     1       3.438  11.596  -7.341  1.00  0.00     0.049 A 
ATOM     39  N   UNL     1       5.935  12.672  -6.053  1.00  0.00    -0.248 NA
ATOM     40  C   UNL     1       7.088  10.789  -6.805  1.00  0.00     0.031 C 
ATOM     41  C   UNL     1       2.180  11.089  -7.894  1.00  0.00     0.029 A 
ATOM     42  N   UNL     1       3.084  12.780  -6.744  1.00  0.00    -0.354 N 
ATOM     43  C   UNL     1       7.242  12.714  -5.582  1.00  0.00     0.074 A 
ATOM     44  C   UNL     1       7.889  11.500  -6.026  1.00  0.00     0.031 C 
ATOM     45  C   UNL     1       1.196  11.959  -7.618  1.00  0.00     0.029 A 
ATOM     46  C   UNL     1       1.742  13.068  -6.844  1.00  0.00     0.049 A 
ATOM     47  H   UNL     1       3.728  13.367  -6.287  1.00  0.00     0.167 HD
ATOM     48  C   UNL     1       7.857  13.688  -4.871  1.00  0.00     0.034 A 
ATOM     49  C   UNL     1       1.031  14.105  -6.360  1.00  0.00     0.034 A 
ATOM     50  C   UNL     1       7.218  14.911  -4.463  1.00  0.00     0.049 A 
ATOM     51  C   UNL     1       1.746  15.192  -5.603  1.00  0.00     0.074 A 
ATOM     52  C   UNL     1       7.777  15.998  -3.815  1.00  0.00     0.029 A 
ATOM     53  N   UNL     1       5.877  15.204  -4.652  1.00  0.00    -0.354 N 
ATOM     54  N   UNL     1       3.020  15.290  -5.306  1.00  0.00    -0.248 NA
ATOM     55  C   UNL     1       0.935  16.331  -5.149  1.00  0.00     0.031 C 
ATOM     56  C   UNL     1       6.766  16.935  -3.582  1.00  0.00     0.029 A 
ATOM     57  C   UNL     1       5.586  16.450  -4.123  1.00  0.00     0.049 A 
ATOM     58  H   UNL     1       5.227  14.613  -5.096  1.00  0.00     0.167 HD
ATOM     59  C   UNL     1       3.170  16.516  -4.669  1.00  0.00     0.074 A 
ATOM     60  C   UNL     1       1.860  17.133  -4.639  1.00  0.00     0.031 C 
ATOM     61  C   UNL     1       4.289  17.076  -4.148  1.00  0.00     0.034 A 
BRANCH  48  62
ATOM     62  C   UNL     1       9.312  13.493  -4.525  1.00  0.00     0.023 A 
ATOM     63  C   UNL     1      10.285  13.547  -5.544  1.00  0.00     0.012 A 
ATOM     64  C   UNL     1       9.721  13.317  -3.188  1.00  0.00     0.148 A 
ATOM     65  C   UNL     1      11.638  13.388  -5.245  1.00  0.00     0.002 A 
ATOM     66  C   UNL     1      11.075  13.210  -2.892  1.00  0.00     0.091 A 
ATOM     67  F   UNL     1       8.782  13.250  -2.235  1.00  0.00    -0.205 F 
ATOM     68  C   UNL     1      12.033  13.231  -3.920  1.00  0.00     0.022 A 
BRANCH  66  69
ATOM     69  S   UNL     1      11.695  13.091  -1.211  1.00  0.00     0.127 S 
ATOM     70  O   UNL     1      12.194  11.716  -1.177  1.00  0.00    -0.237 OA
ATOM     71  O   UNL     1      12.738  14.117  -1.195  1.00  0.00    -0.237 OA
ATOM     72  O   UNL     1      10.559  13.364  -0.342  1.00  0.00    -0.744 OA
ENDBRANCH  66  69
ENDBRANCH  48  62
BRANCH  49  73
ATOM     73  C   UNL     1      -0.432  14.198  -6.631  1.00  0.00     0.023 A 
ATOM     74  C   UNL     1      -0.914  15.197  -7.500  1.00  0.00     0.012 A 
ATOM     75  C   UNL     1      -1.343  13.294  -6.052  1.00  0.00     0.148 A 
ATOM     76  C   UNL     1      -2.280  15.316  -7.759  1.00  0.00     0.002 A 
ATOM     77  C   UNL     1      -2.696  13.383  -6.358  1.00  0.00     0.091 A 
ATOM     78  F   UNL     1      -0.865  12.357  -5.221  1.00  0.00    -0.205 F 
ATOM     79  C   UNL     1      -3.169  14.405  -7.196  1.00  0.00     0.022 A 
BRANCH  77  80
ATOM     80  S   UNL     1      -3.897  12.177  -5.784  1.00  0.00     0.127 S 
ATOM     81  O   UNL     1      -4.687  12.966  -4.843  1.00  0.00    -0.237 OA
ATOM     82  O   UNL     1      -4.587  11.826  -7.026  1.00  0.00    -0.237 OA
ATOM     83  O   UNL     1      -3.118  11.092  -5.203  1.00  0.00    -0.744 OA
ENDBRANCH  77  80
ENDBRANCH  49  73
BRANCH  61  84
ATOM     84  C   UNL     1       4.169  18.451  -3.544  1.00  0.00     0.023 A 
ATOM     85  C   UNL     1       3.499  18.630  -2.317  1.00  0.00     0.012 A 
ATOM     86  C   UNL     1       4.790  19.556  -4.160  1.00  0.00     0.148 A 
ATOM     87  C   UNL     1       3.419  19.893  -1.732  1.00  0.00     0.002 A 
ATOM     88  C   UNL     1       4.752  20.801  -3.545  1.00  0.00     0.091 A 
ATOM     89  F   UNL     1       5.407  19.369  -5.336  1.00  0.00    -0.205 F 
ATOM     90  C   UNL     1       4.055  20.974  -2.338  1.00  0.00     0.022 A 
BRANCH  88  91
ATOM     91  S   UNL     1       5.627  22.226  -4.199  1.00  0.00     0.127 S 
ATOM     92  O   UNL     1       4.524  23.061  -4.672  1.00  0.00    -0.237 OA
ATOM     93  O   UNL     1       6.315  22.738  -3.014  1.00  0.00    -0.237 OA
ATOM     94  O   UNL     1       6.511  21.715  -5.238  1.00  0.00    -0.744 OA
ENDBRANCH  88  91
ENDBRANCH  61  84
ENDBRANCH  35  36
ENDBRANCH  27  30
ENDBRANCH  25  26
ENDBRANCH  24  25
ENDBRANCH   1  24
TORSDOF 19
