REMARK SMILES O=C(NCCCCNC(=O)c1ccc2nc(-n3cccc3)sc2c1)c1ccc(-c2c3nc(c(-c4cccc(S(=O)(=O)[O-])c4F)c4ccc([nH]4)c(-c4cccc(S(=O)(=O)[O-])c4F)c4nc(c(-c5cccc(S(=O)(=O)[O-])c5F)c5ccc2[nH]5)C=C4)C=C3)cc1
REMARK SMILES IDX 4 1 3 2 1 3 2 4 25 6 26 7 87 8 27 9 86 10 28 11 29 12 30 13
REMARK SMILES IDX 80 14 31 15 85 16 79 17 81 18 32 19 84 20 78 21 77 22 33 24
REMARK SMILES IDX 65 25 45 26 64 27 46 28 49 29 63 30 82 31 47 32 48 33 62 35
REMARK SMILES IDX 83 36 50 37 34 38 35 39 43 40 36 41 38 42 44 43 37 44 39 45
REMARK SMILES IDX 40 46 41 47 42 48 66 49 67 50 75 51 68 52 70 53 76 54 69 55
REMARK SMILES IDX 71 56 72 57 73 58 74 59 51 60 52 61 60 62 53 63 55 64 61 65
REMARK SMILES IDX 54 66 56 67 57 68 58 69 59 70 5 71 6 72 7 73 8 74 9 75 10 77
REMARK SMILES IDX 11 78 12 79 24 80 13 81 23 82 14 83 22 84 15 85 16 86 17 87
REMARK SMILES IDX 18 88 21 89 19 90 20 91
REMARK H PARENT 3 5 81 23 49 34 8 76
REMARK Flexibility Score: inf
ROOT
ATOM      1  C   UNL     1       4.658  -1.127   0.014  1.00  0.00     0.116 C 
ENDROOT
BRANCH   1   2
ATOM      2  N   UNL     1       3.269  -0.806  -0.249  1.00  0.00    -0.352 N 
ATOM      3  O   UNL     1       1.270   0.173  -0.133  1.00  0.00    -0.269 OA
ATOM      4  C   UNL     1       2.394   0.066   0.354  1.00  0.00     0.251 C 
ATOM      5  H   UNL     1       2.879  -1.308  -1.001  1.00  0.00     0.163 HD
BRANCH   4   6
ATOM      6  C   UNL     1       2.745   0.807   1.590  1.00  0.00     0.039 A 
ATOM      7  C   UNL     1       4.015   1.348   1.809  1.00  0.00     0.014 A 
ATOM      8  C   UNL     1       1.740   0.992   2.551  1.00  0.00     0.014 A 
ATOM      9  C   UNL     1       4.309   1.986   3.007  1.00  0.00     0.010 A 
ATOM     10  C   UNL     1       2.016   1.674   3.738  1.00  0.00     0.010 A 
ATOM     11  C   UNL     1       3.301   2.181   3.959  1.00  0.00    -0.014 A 
BRANCH  11  12
ATOM     12  C   UNL     1       3.571   3.206   4.998  1.00  0.00     0.031 A 
ATOM     13  C   UNL     1       3.473   4.625   4.394  1.00  0.00     0.074 A 
ATOM     14  C   UNL     1       3.945   2.785   6.244  1.00  0.00     0.049 A 
ATOM     15  N   UNL     1       4.192   5.688   4.620  1.00  0.00    -0.248 NA
ATOM     16  C   UNL     1       2.541   4.849   3.254  1.00  0.00     0.031 C 
ATOM     17  C   UNL     1       3.965   1.375   6.684  1.00  0.00     0.029 A 
ATOM     18  N   UNL     1       4.383   3.434   7.385  1.00  0.00    -0.354 N 
ATOM     19  C   UNL     1       3.627   6.734   3.846  1.00  0.00     0.074 A 
ATOM     20  C   UNL     1       2.757   6.116   2.900  1.00  0.00     0.031 C 
ATOM     21  C   UNL     1       4.450   1.270   7.941  1.00  0.00     0.029 A 
ATOM     22  C   UNL     1       4.768   2.591   8.457  1.00  0.00     0.049 A 
ATOM     23  H   UNL     1       4.424   4.415   7.448  1.00  0.00     0.167 HD
ATOM     24  C   UNL     1       3.761   8.057   4.161  1.00  0.00     0.034 A 
ATOM     25  C   UNL     1       5.332   2.918   9.664  1.00  0.00     0.034 A 
ATOM     26  C   UNL     1       4.539   8.179   5.348  1.00  0.00     0.049 A 
ATOM     27  C   UNL     1       5.327   4.385   9.736  1.00  0.00     0.074 A 
ATOM     28  C   UNL     1       5.871   8.076   5.639  1.00  0.00     0.029 A 
ATOM     29  N   UNL     1       3.810   8.175   6.511  1.00  0.00    -0.354 N 
ATOM     30  N   UNL     1       4.273   5.111   9.967  1.00  0.00    -0.248 NA
ATOM     31  C   UNL     1       6.572   5.114   9.458  1.00  0.00     0.031 C 
ATOM     32  C   UNL     1       5.892   7.645   6.982  1.00  0.00     0.029 A 
ATOM     33  C   UNL     1       4.585   7.610   7.485  1.00  0.00     0.049 A 
ATOM     34  H   UNL     1       2.893   8.517   6.624  1.00  0.00     0.167 HD
ATOM     35  C   UNL     1       4.670   6.339   9.501  1.00  0.00     0.074 A 
ATOM     36  C   UNL     1       6.112   6.356   9.567  1.00  0.00     0.031 C 
ATOM     37  C   UNL     1       3.899   6.986   8.591  1.00  0.00     0.034 A 
BRANCH  24  38
ATOM     38  C   UNL     1       3.032   9.318   3.727  1.00  0.00     0.023 A 
ATOM     39  C   UNL     1       3.618  10.539   4.180  1.00  0.00     0.012 A 
ATOM     40  C   UNL     1       1.726   9.395   3.215  1.00  0.00     0.148 A 
ATOM     41  C   UNL     1       2.901  11.729   4.275  1.00  0.00     0.002 A 
ATOM     42  C   UNL     1       1.031  10.610   3.252  1.00  0.00     0.091 A 
ATOM     43  F   UNL     1       1.118   8.293   2.770  1.00  0.00    -0.205 F 
ATOM     44  C   UNL     1       1.596  11.759   3.826  1.00  0.00     0.022 A 
BRANCH  42  45
ATOM     45  S   UNL     1      -0.625  10.800   2.579  1.00  0.00     0.127 S 
ATOM     46  O   UNL     1      -1.448  10.794   3.784  1.00  0.00    -0.237 OA
ATOM     47  O   UNL     1      -0.534  12.103   1.914  1.00  0.00    -0.237 OA
ATOM     48  O   UNL     1      -0.801   9.683   1.660  1.00  0.00    -0.744 OA
ENDBRANCH  42  45
ENDBRANCH  24  38
BRANCH  25  49
ATOM     49  C   UNL     1       5.988   2.186  10.818  1.00  0.00     0.023 A 
ATOM     50  C   UNL     1       5.814   0.822  11.087  1.00  0.00     0.012 A 
ATOM     51  C   UNL     1       6.891   2.872  11.691  1.00  0.00     0.148 A 
ATOM     52  C   UNL     1       6.567   0.167  12.086  1.00  0.00     0.002 A 
ATOM     53  C   UNL     1       7.719   2.209  12.589  1.00  0.00     0.091 A 
ATOM     54  F   UNL     1       6.928   4.207  11.700  1.00  0.00    -0.205 F 
ATOM     55  C   UNL     1       7.552   0.847  12.803  1.00  0.00     0.022 A 
BRANCH  53  56
ATOM     56  S   UNL     1       9.110   3.039  13.389  1.00  0.00     0.127 S 
ATOM     57  O   UNL     1       8.860   2.775  14.805  1.00  0.00    -0.237 OA
ATOM     58  O   UNL     1      10.246   2.315  12.820  1.00  0.00    -0.237 OA
ATOM     59  O   UNL     1       9.035   4.441  12.999  1.00  0.00    -0.744 OA
ENDBRANCH  53  56
ENDBRANCH  25  49
BRANCH  37  60
ATOM     60  C   UNL     1       2.415   6.641   8.666  1.00  0.00     0.023 A 
ATOM     61  C   UNL     1       1.724   7.016   9.834  1.00  0.00     0.012 A 
ATOM     62  C   UNL     1       1.710   5.870   7.712  1.00  0.00     0.148 A 
ATOM     63  C   UNL     1       0.397   6.637  10.051  1.00  0.00     0.002 A 
ATOM     64  C   UNL     1       0.388   5.475   7.934  1.00  0.00     0.091 A 
ATOM     65  F   UNL     1       2.339   5.519   6.594  1.00  0.00    -0.205 F 
ATOM     66  C   UNL     1      -0.271   5.866   9.106  1.00  0.00     0.022 A 
BRANCH  64  67
ATOM     67  S   UNL     1      -0.545   4.406   6.817  1.00  0.00     0.127 S 
ATOM     68  O   UNL     1      -0.982   3.327   7.706  1.00  0.00    -0.237 OA
ATOM     69  O   UNL     1      -1.622   5.287   6.375  1.00  0.00    -0.237 OA
ATOM     70  O   UNL     1       0.382   3.981   5.775  1.00  0.00    -0.744 OA
ENDBRANCH  64  67
ENDBRANCH  37  60
ENDBRANCH  11  12
ENDBRANCH   4   6
ENDBRANCH   1   2
BRANCH   1  71
ATOM     71  C   UNL     1       4.941  -1.764   1.375  1.00  0.00     0.023 C 
BRANCH  71  72
ATOM     72  C   UNL     1       4.356  -3.163   1.567  1.00  0.00     0.023 C 
BRANCH  72  73
ATOM     73  C   UNL     1       4.777  -4.185   0.517  1.00  0.00     0.116 C 
BRANCH  73  74
ATOM     74  N   UNL     1       6.223  -4.310   0.417  1.00  0.00    -0.352 N 
ATOM     75  C   UNL     1       6.996  -5.443   0.459  1.00  0.00     0.251 C 
ATOM     76  H   UNL     1       6.715  -3.465   0.304  1.00  0.00     0.163 HD
ATOM     77  O   UNL     1       8.210  -5.388   0.466  1.00  0.00    -0.269 OA
BRANCH  75  78
ATOM     78  C   UNL     1       6.324  -6.754   0.501  1.00  0.00     0.041 A 
ATOM     79  C   UNL     1       5.530  -7.165  -0.570  1.00  0.00     0.016 A 
ATOM     80  C   UNL     1       6.519  -7.556   1.630  1.00  0.00     0.035 A 
ATOM     81  C   UNL     1       4.901  -8.412  -0.529  1.00  0.00     0.031 A 
ATOM     82  C   UNL     1       5.847  -8.785   1.668  1.00  0.00     0.057 A 
ATOM     83  C   UNL     1       5.067  -9.241   0.599  1.00  0.00     0.084 A 
ATOM     84  S   UNL     1       5.783  -9.946   2.941  1.00  0.00    -0.096 S 
ATOM     85  N   UNL     1       4.522 -10.502   0.760  1.00  0.00    -0.219 NA
ATOM     86  C   UNL     1       4.802 -10.935   1.968  1.00  0.00     0.194 A 
BRANCH  86  87
ATOM     87  N   UNL     1       4.348 -12.168   2.453  1.00  0.00    -0.300 N 
ATOM     88  C   UNL     1       4.312 -12.628   3.761  1.00  0.00     0.093 A 
ATOM     89  C   UNL     1       3.814 -13.176   1.663  1.00  0.00     0.093 A 
ATOM     90  C   UNL     1       3.761 -13.891   3.786  1.00  0.00     0.020 A 
ATOM     91  C   UNL     1       3.469 -14.248   2.454  1.00  0.00     0.020 A 
ENDBRANCH  86  87
ENDBRANCH  75  78
ENDBRANCH  73  74
ENDBRANCH  72  73
ENDBRANCH  71  72
ENDBRANCH   1  71
TORSDOF 15
