REMARK SMILES O=C(CCc1nc(-c2ccccc2)c(-c2ccccc2)o1)NCCCCNC(=O)c1ccc(-c2c3nc(c(-c4cccc(S(=O)(=O)[O-])c4F)c4ccc([nH]4)c(-c4cccc(S(=O)(=O)[O-])c4F)c4nc(c(-c5cccc(S(=O)(=O)[O-])c5F)c5ccc2[nH]5)C=C4)C=C3)cc1
REMARK SMILES IDX 24 1 23 2 22 3 1 4 2 5 3 7 4 8 5 9 6 10 21 11 7 12 14 13
REMARK SMILES IDX 8 14 9 15 13 16 10 17 12 18 11 19 15 20 16 21 20 22 17 23
REMARK SMILES IDX 19 24 18 25 25 26 26 27 27 28 28 29 29 31 30 32 31 33 92 34
REMARK SMILES IDX 32 35 91 36 33 37 34 38 35 39 85 40 36 41 90 42 84 43 86 44
REMARK SMILES IDX 37 45 89 46 83 47 82 48 38 50 70 51 50 52 69 53 51 54 54 55
REMARK SMILES IDX 68 56 87 57 52 58 53 59 67 61 88 62 55 63 39 64 40 65 48 66
REMARK SMILES IDX 41 67 43 68 49 69 42 70 44 71 45 72 46 73 47 74 71 75 72 76
REMARK SMILES IDX 80 77 73 78 75 79 81 80 74 81 76 82 77 83 78 84 79 85 56 86
REMARK SMILES IDX 57 87 65 88 58 89 60 90 66 91 59 92 61 93 62 94 63 95 64 96
REMARK H PARENT 22 6 27 30 86 49 54 60
REMARK Flexibility Score: inf
ROOT
ATOM      1  C   UNL     1       2.311  -1.080  -3.410  1.00  0.00     0.023 C 
ENDROOT
BRANCH   1   2
ATOM      2  C   UNL     1       2.087  -1.415  -1.934  1.00  0.00     0.116 C 
BRANCH   2   3
ATOM      3  N   UNL     1       2.845  -0.554  -1.048  1.00  0.00    -0.356 N 
ATOM      4  O   UNL     1       1.109  -0.025   0.366  1.00  0.00    -0.275 OA
ATOM      5  C   UNL     1       2.293   0.059   0.055  1.00  0.00     0.220 C 
ATOM      6  H   UNL     1       3.798  -0.400  -1.243  1.00  0.00     0.163 HD
BRANCH   5   7
ATOM      7  C   UNL     1       3.274   0.878   0.872  1.00  0.00     0.110 C 
BRANCH   7   8
ATOM      8  C   UNL     1       4.078   0.024   1.846  1.00  0.00     0.107 C 
BRANCH   8   9
ATOM      9  C   UNL     1       5.039  -0.875   1.158  1.00  0.00     0.196 A 
ATOM     10  N   UNL     1       4.972  -2.182   1.021  1.00  0.00    -0.213 NA
ATOM     11  O   UNL     1       6.077  -0.284   0.489  1.00  0.00    -0.440 OA
ATOM     12  C   UNL     1       6.067  -2.491   0.245  1.00  0.00     0.117 A 
ATOM     13  C   UNL     1       6.728  -1.330  -0.116  1.00  0.00     0.162 A 
BRANCH  12  14
ATOM     14  C   UNL     1       6.378  -3.842  -0.176  1.00  0.00     0.004 A 
ATOM     15  C   UNL     1       7.698  -4.307  -0.219  1.00  0.00     0.010 A 
ATOM     16  C   UNL     1       5.339  -4.709  -0.543  1.00  0.00     0.010 A 
ATOM     17  C   UNL     1       7.977  -5.607  -0.645  1.00  0.00     0.001 A 
ATOM     18  C   UNL     1       5.620  -6.005  -0.985  1.00  0.00     0.001 A 
ATOM     19  C   UNL     1       6.940  -6.451  -1.039  1.00  0.00     0.000 A 
ENDBRANCH  12  14
BRANCH  13  20
ATOM     20  C   UNL     1       7.787  -0.982  -1.049  1.00  0.00     0.020 A 
ATOM     21  C   UNL     1       8.922  -0.267  -0.664  1.00  0.00     0.012 A 
ATOM     22  C   UNL     1       7.672  -1.385  -2.384  1.00  0.00     0.012 A 
ATOM     23  C   UNL     1       9.922   0.021  -1.603  1.00  0.00     0.001 A 
ATOM     24  C   UNL     1       8.652  -1.080  -3.326  1.00  0.00     0.001 A 
ATOM     25  C   UNL     1       9.785  -0.381  -2.932  1.00  0.00     0.000 A 
ENDBRANCH  13  20
ENDBRANCH   8   9
ENDBRANCH   7   8
ENDBRANCH   5   7
ENDBRANCH   2   3
ENDBRANCH   1   2
BRANCH   1  26
ATOM     26  C   UNL     1       3.751  -1.211  -3.910  1.00  0.00     0.023 C 
BRANCH  26  27
ATOM     27  C   UNL     1       4.373  -2.600  -3.817  1.00  0.00     0.116 C 
BRANCH  27  28
ATOM     28  N   UNL     1       3.824  -3.582  -4.730  1.00  0.00    -0.352 N 
ATOM     29  C   UNL     1       4.497  -4.474  -5.542  1.00  0.00     0.251 C 
ATOM     30  H   UNL     1       2.841  -3.618  -4.778  1.00  0.00     0.163 HD
ATOM     31  O   UNL     1       3.855  -5.165  -6.332  1.00  0.00    -0.269 OA
BRANCH  29  32
ATOM     32  C   UNL     1       5.982  -4.597  -5.502  1.00  0.00     0.039 A 
ATOM     33  C   UNL     1       6.686  -4.736  -6.703  1.00  0.00     0.014 A 
ATOM     34  C   UNL     1       6.693  -4.603  -4.301  1.00  0.00     0.014 A 
ATOM     35  C   UNL     1       8.088  -4.818  -6.698  1.00  0.00     0.010 A 
ATOM     36  C   UNL     1       8.091  -4.622  -4.300  1.00  0.00     0.010 A 
ATOM     37  C   UNL     1       8.809  -4.732  -5.496  1.00  0.00    -0.014 A 
BRANCH  37  38
ATOM     38  C   UNL     1      10.300  -4.701  -5.475  1.00  0.00     0.031 A 
ATOM     39  C   UNL     1      11.096  -5.786  -4.793  1.00  0.00     0.074 A 
ATOM     40  C   UNL     1      10.948  -3.636  -5.991  1.00  0.00     0.049 A 
ATOM     41  N   UNL     1      12.395  -5.910  -4.683  1.00  0.00    -0.248 NA
ATOM     42  C   UNL     1      10.338  -6.862  -4.134  1.00  0.00     0.031 C 
ATOM     43  C   UNL     1      10.306  -2.472  -6.603  1.00  0.00     0.029 A 
ATOM     44  N   UNL     1      12.289  -3.344  -6.054  1.00  0.00    -0.354 N 
ATOM     45  C   UNL     1      12.612  -7.060  -3.932  1.00  0.00     0.074 A 
ATOM     46  C   UNL     1      11.307  -7.580  -3.582  1.00  0.00     0.031 C 
ATOM     47  C   UNL     1      11.248  -1.590  -6.971  1.00  0.00     0.029 A 
ATOM     48  C   UNL     1      12.562  -2.115  -6.610  1.00  0.00     0.049 A 
ATOM     49  H   UNL     1      12.990  -3.956  -5.732  1.00  0.00     0.167 HD
ATOM     50  C   UNL     1      13.786  -7.647  -3.588  1.00  0.00     0.034 A 
ATOM     51  C   UNL     1      13.733  -1.477  -6.809  1.00  0.00     0.034 A 
ATOM     52  C   UNL     1      15.085  -7.143  -3.953  1.00  0.00     0.049 A 
ATOM     53  C   UNL     1      15.021  -2.159  -6.437  1.00  0.00     0.074 A 
ATOM     54  C   UNL     1      16.323  -7.725  -3.740  1.00  0.00     0.029 A 
ATOM     55  N   UNL     1      15.319  -5.931  -4.582  1.00  0.00    -0.354 N 
ATOM     56  N   UNL     1      15.205  -3.340  -5.900  1.00  0.00    -0.248 NA
ATOM     57  C   UNL     1      16.267  -1.438  -6.739  1.00  0.00     0.031 C 
ATOM     58  C   UNL     1      17.308  -6.846  -4.203  1.00  0.00     0.029 A 
ATOM     59  C   UNL     1      16.682  -5.735  -4.743  1.00  0.00     0.049 A 
ATOM     60  H   UNL     1      14.620  -5.301  -4.871  1.00  0.00     0.167 HD
ATOM     61  C   UNL     1      16.582  -3.522  -5.841  1.00  0.00     0.074 A 
ATOM     62  C   UNL     1      17.186  -2.336  -6.412  1.00  0.00     0.031 C 
ATOM     63  C   UNL     1      17.281  -4.575  -5.352  1.00  0.00     0.034 A 
BRANCH  50  64
ATOM     64  C   UNL     1      13.729  -8.939  -2.810  1.00  0.00     0.023 A 
ATOM     65  C   UNL     1      13.281 -10.116  -3.445  1.00  0.00     0.012 A 
ATOM     66  C   UNL     1      14.198  -9.009  -1.482  1.00  0.00     0.148 A 
ATOM     67  C   UNL     1      13.267 -11.332  -2.763  1.00  0.00     0.002 A 
ATOM     68  C   UNL     1      14.225 -10.234  -0.825  1.00  0.00     0.091 A 
ATOM     69  F   UNL     1      14.607  -7.879  -0.888  1.00  0.00    -0.205 F 
ATOM     70  C   UNL     1      13.749 -11.393  -1.458  1.00  0.00     0.022 A 
BRANCH  68  71
ATOM     71  S   UNL     1      14.903 -10.433   0.827  1.00  0.00     0.127 S 
ATOM     72  O   UNL     1      13.697 -10.703   1.609  1.00  0.00    -0.237 OA
ATOM     73  O   UNL     1      15.789 -11.587   0.658  1.00  0.00    -0.237 OA
ATOM     74  O   UNL     1      15.582  -9.185   1.137  1.00  0.00    -0.744 OA
ENDBRANCH  68  71
ENDBRANCH  50  64
BRANCH  51  75
ATOM     75  C   UNL     1      13.744  -0.136  -7.457  1.00  0.00     0.023 A 
ATOM     76  C   UNL     1      14.250  -0.001  -8.765  1.00  0.00     0.012 A 
ATOM     77  C   UNL     1      13.239   0.998  -6.794  1.00  0.00     0.148 A 
ATOM     78  C   UNL     1      14.286   1.247  -9.388  1.00  0.00     0.002 A 
ATOM     79  C   UNL     1      13.227   2.228  -7.441  1.00  0.00     0.091 A 
ATOM     80  F   UNL     1      12.766   0.846  -5.549  1.00  0.00    -0.205 F 
ATOM     81  C   UNL     1      13.766   2.358  -8.730  1.00  0.00     0.022 A 
BRANCH  79  82
ATOM     82  S   UNL     1      12.463   3.685  -6.722  1.00  0.00     0.127 S 
ATOM     83  O   UNL     1      13.623   4.538  -6.473  1.00  0.00    -0.237 OA
ATOM     84  O   UNL     1      11.589   4.132  -7.807  1.00  0.00    -0.237 OA
ATOM     85  O   UNL     1      11.761   3.216  -5.537  1.00  0.00    -0.744 OA
ENDBRANCH  79  82
ENDBRANCH  51  75
BRANCH  63  86
ATOM     86  C   UNL     1      18.786  -4.526  -5.446  1.00  0.00     0.023 A 
ATOM     87  C   UNL     1      19.517  -3.637  -4.633  1.00  0.00     0.012 A 
ATOM     88  C   UNL     1      19.479  -5.409  -6.298  1.00  0.00     0.148 A 
ATOM     89  C   UNL     1      20.910  -3.603  -4.693  1.00  0.00     0.002 A 
ATOM     90  C   UNL     1      20.869  -5.406  -6.314  1.00  0.00     0.091 A 
ATOM     91  F   UNL     1      18.767  -6.235  -7.079  1.00  0.00    -0.205 F 
ATOM     92  C   UNL     1      21.586  -4.494  -5.524  1.00  0.00     0.022 A 
BRANCH  90  93
ATOM     93  S   UNL     1      21.826  -6.582  -7.278  1.00  0.00     0.127 S 
ATOM     94  O   UNL     1      22.390  -5.724  -8.319  1.00  0.00    -0.237 OA
ATOM     95  O   UNL     1      22.797  -7.068  -6.297  1.00  0.00    -0.237 OA
ATOM     96  O   UNL     1      20.880  -7.587  -7.743  1.00  0.00    -0.744 OA
ENDBRANCH  90  93
ENDBRANCH  63  86
ENDBRANCH  37  38
ENDBRANCH  29  32
ENDBRANCH  27  28
ENDBRANCH  26  27
ENDBRANCH   1  26
TORSDOF 18
