REMARK SMILES C[C@@H](CC(=O)NCCCCNC(=O)c1ccc(-c2c3nc(c(-c4cccc(S(=O)(=O)[O-])c4F)c4ccc([nH]4)c(-c4cccc(S(=O)(=O)[O-])c4F)c4nc(c(-c5cccc(S(=O)(=O)[O-])c5F)c5ccc2[nH]5)C=C4)C=C3)cc1)NC(=O)N[C@H]1CCOC1
REMARK SMILES IDX 8 1 7 2 6 3 4 4 5 5 3 7 2 8 1 9 77 10 78 11 79 13 80 14
REMARK SMILES IDX 81 16 82 17 85 18 83 19 84 20 9 21 10 22 11 23 12 24 13 26
REMARK SMILES IDX 14 27 15 28 76 29 16 30 75 31 17 32 18 33 19 34 69 35 20 36
REMARK SMILES IDX 74 37 68 38 70 39 21 40 73 41 67 42 66 43 22 45 54 46 34 47
REMARK SMILES IDX 53 48 35 49 38 50 52 51 71 52 36 53 37 54 51 56 72 57 39 58
REMARK SMILES IDX 23 59 24 60 32 61 25 62 27 63 33 64 26 65 28 66 29 67 30 68
REMARK SMILES IDX 31 69 55 70 56 71 64 72 57 73 59 74 65 75 58 76 60 77 61 78
REMARK SMILES IDX 62 79 63 80 40 81 41 82 49 83 42 84 44 85 50 86 43 87 45 88
REMARK SMILES IDX 46 89 47 90 48 91
REMARK H PARENT 6 6 77 12 80 15 11 25 70 44 38 55
REMARK Flexibility Score: inf
ROOT
ATOM      1  C   UNL     1       5.912  -5.393  -3.434  1.00  0.00     0.023 C 
ENDROOT
BRANCH   1   2
ATOM      2  C   UNL     1       5.948  -4.793  -2.028  1.00  0.00     0.116 C 
BRANCH   2   3
ATOM      3  N   UNL     1       6.323  -3.391  -2.062  1.00  0.00    -0.356 N 
ATOM      4  C   UNL     1       5.558  -2.280  -1.857  1.00  0.00     0.222 C 
ATOM      5  O   UNL     1       6.045  -1.170  -2.067  1.00  0.00    -0.275 OA
ATOM      6  H   UNL     1       7.271  -3.216  -2.264  1.00  0.00     0.163 HD
BRANCH   4   7
ATOM      7  C   UNL     1       4.139  -2.422  -1.361  1.00  0.00     0.124 C 
BRANCH   7   8
ATOM      8  C   UNL     1       3.061  -2.477  -2.446  1.00  0.00     0.090 C 
ATOM      9  C   UNL     1       3.330  -3.405  -3.618  1.00  0.00     0.031 C 
BRANCH   8  10
ATOM     10  N   UNL     1       2.703  -1.169  -2.962  1.00  0.00    -0.335 N 
ATOM     11  C   UNL     1       1.600  -0.801  -3.631  1.00  0.00     0.315 C 
ATOM     12  H   UNL     1       3.359  -0.453  -2.799  1.00  0.00     0.165 HD
ATOM     13  O   UNL     1       1.683   0.114  -4.452  1.00  0.00    -0.249 OA
ATOM     14  N   UNL     1       0.397  -1.373  -3.462  1.00  0.00    -0.333 N 
ATOM     15  H   UNL     1      -0.205  -1.180  -4.217  1.00  0.00     0.165 HD
BRANCH  14  16
ATOM     16  C   UNL     1      -0.255  -2.207  -2.452  1.00  0.00     0.112 C 
ATOM     17  C   UNL     1      -0.129  -3.700  -2.652  1.00  0.00     0.056 C 
ATOM     18  C   UNL     1       0.090  -1.938  -0.993  1.00  0.00     0.185 C 
ATOM     19  C   UNL     1       0.117  -4.267  -1.269  1.00  0.00     0.162 C 
ATOM     20  O   UNL     1       0.350  -3.195  -0.354  1.00  0.00    -0.379 OA
ENDBRANCH  14  16
ENDBRANCH   8  10
ENDBRANCH   7   8
ENDBRANCH   4   7
ENDBRANCH   2   3
ENDBRANCH   1   2
BRANCH   1  21
ATOM     21  C   UNL     1       7.273  -5.646  -4.057  1.00  0.00     0.023 C 
BRANCH  21  22
ATOM     22  C   UNL     1       8.094  -6.680  -3.320  1.00  0.00     0.116 C 
BRANCH  22  23
ATOM     23  N   UNL     1       7.408  -7.961  -3.193  1.00  0.00    -0.352 N 
ATOM     24  C   UNL     1       7.913  -9.219  -3.414  1.00  0.00     0.251 C 
ATOM     25  H   UNL     1       6.465  -7.919  -2.914  1.00  0.00     0.163 HD
ATOM     26  O   UNL     1       7.174 -10.198  -3.416  1.00  0.00    -0.269 OA
BRANCH  24  27
ATOM     27  C   UNL     1       9.357  -9.354  -3.676  1.00  0.00     0.039 A 
ATOM     28  C   UNL     1       9.787 -10.115  -4.762  1.00  0.00     0.014 A 
ATOM     29  C   UNL     1      10.271  -8.644  -2.892  1.00  0.00     0.014 A 
ATOM     30  C   UNL     1      11.142 -10.119  -5.091  1.00  0.00     0.010 A 
ATOM     31  C   UNL     1      11.590  -8.549  -3.298  1.00  0.00     0.010 A 
ATOM     32  C   UNL     1      12.047  -9.312  -4.379  1.00  0.00    -0.014 A 
BRANCH  32  33
ATOM     33  C   UNL     1      13.486  -9.283  -4.729  1.00  0.00     0.031 A 
ATOM     34  C   UNL     1      14.511  -9.716  -3.715  1.00  0.00     0.074 A 
ATOM     35  C   UNL     1      13.869  -8.806  -5.929  1.00  0.00     0.049 A 
ATOM     36  N   UNL     1      15.810  -9.780  -3.834  1.00  0.00    -0.248 NA
ATOM     37  C   UNL     1      14.018 -10.088  -2.376  1.00  0.00     0.031 C 
ATOM     38  C   UNL     1      12.974  -8.247  -6.947  1.00  0.00     0.029 A 
ATOM     39  N   UNL     1      15.114  -8.707  -6.494  1.00  0.00    -0.354 N 
ATOM     40  C   UNL     1      16.286 -10.160  -2.585  1.00  0.00     0.074 A 
ATOM     41  C   UNL     1      15.146 -10.253  -1.704  1.00  0.00     0.031 C 
ATOM     42  C   UNL     1      13.697  -7.894  -8.022  1.00  0.00     0.029 A 
ATOM     43  C   UNL     1      15.103  -8.187  -7.766  1.00  0.00     0.049 A 
ATOM     44  H   UNL     1      15.939  -8.982  -6.031  1.00  0.00     0.167 HD
ATOM     45  C   UNL     1      17.553 -10.457  -2.215  1.00  0.00     0.034 A 
ATOM     46  C   UNL     1      16.114  -7.992  -8.635  1.00  0.00     0.034 A 
ATOM     47  C   UNL     1      18.670 -10.425  -3.116  1.00  0.00     0.049 A 
ATOM     48  C   UNL     1      17.498  -8.425  -8.234  1.00  0.00     0.074 A 
ATOM     49  C   UNL     1      19.981 -10.795  -2.880  1.00  0.00     0.029 A 
ATOM     50  N   UNL     1      18.603 -10.002  -4.435  1.00  0.00    -0.354 N 
ATOM     51  N   UNL     1      17.904  -8.952  -7.104  1.00  0.00    -0.248 NA
ATOM     52  C   UNL     1      18.554  -8.286  -9.246  1.00  0.00     0.031 C 
ATOM     53  C   UNL     1      20.710 -10.585  -4.056  1.00  0.00     0.029 A 
ATOM     54  C   UNL     1      19.848 -10.104  -5.029  1.00  0.00     0.049 A 
ATOM     55  H   UNL     1      17.789  -9.677  -4.883  1.00  0.00     0.167 HD
ATOM     56  C   UNL     1      19.252  -9.241  -7.279  1.00  0.00     0.074 A 
ATOM     57  C   UNL     1      19.585  -8.855  -8.636  1.00  0.00     0.031 C 
ATOM     58  C   UNL     1      20.140  -9.762  -6.397  1.00  0.00     0.034 A 
BRANCH  45  59
ATOM     59  C   UNL     1      17.775 -10.911  -0.795  1.00  0.00     0.023 A 
ATOM     60  C   UNL     1      17.288 -12.170  -0.385  1.00  0.00     0.012 A 
ATOM     61  C   UNL     1      18.484 -10.114   0.123  1.00  0.00     0.148 A 
ATOM     62  C   UNL     1      17.465 -12.611   0.926  1.00  0.00     0.002 A 
ATOM     63  C   UNL     1      18.699 -10.581   1.415  1.00  0.00     0.091 A 
ATOM     64  F   UNL     1      18.916  -8.909  -0.274  1.00  0.00    -0.205 F 
ATOM     65  C   UNL     1      18.179 -11.821   1.822  1.00  0.00     0.022 A 
BRANCH  63  66
ATOM     66  S   UNL     1      19.674  -9.676   2.622  1.00  0.00     0.127 S 
ATOM     67  O   UNL     1      18.643  -9.218   3.552  1.00  0.00    -0.237 OA
ATOM     68  O   UNL     1      20.553 -10.719   3.151  1.00  0.00    -0.237 OA
ATOM     69  O   UNL     1      20.358  -8.627   1.879  1.00  0.00    -0.744 OA
ENDBRANCH  63  66
ENDBRANCH  45  59
BRANCH  46  70
ATOM     70  C   UNL     1      15.833  -7.469 -10.001  1.00  0.00     0.023 A 
ATOM     71  C   UNL     1      15.941  -8.334 -11.107  1.00  0.00     0.012 A 
ATOM     72  C   UNL     1      15.424  -6.138 -10.210  1.00  0.00     0.148 A 
ATOM     73  C   UNL     1      15.682  -7.876 -12.400  1.00  0.00     0.002 A 
ATOM     74  C   UNL     1      15.114  -5.702 -11.493  1.00  0.00     0.091 A 
ATOM     75  F   UNL     1      15.334  -5.327  -9.146  1.00  0.00    -0.205 F 
ATOM     76  C   UNL     1      15.260  -6.564 -12.592  1.00  0.00     0.022 A 
BRANCH  74  77
ATOM     77  S   UNL     1      14.435  -4.071 -11.817  1.00  0.00     0.127 S 
ATOM     78  O   UNL     1      15.567  -3.395 -12.445  1.00  0.00    -0.237 OA
ATOM     79  O   UNL     1      13.323  -4.379 -12.717  1.00  0.00    -0.237 OA
ATOM     80  O   UNL     1      14.027  -3.554 -10.518  1.00  0.00    -0.744 OA
ENDBRANCH  74  77
ENDBRANCH  46  70
BRANCH  58  81
ATOM     81  C   UNL     1      21.549  -9.976  -6.881  1.00  0.00     0.023 A 
ATOM     82  C   UNL     1      22.391  -8.868  -7.098  1.00  0.00     0.012 A 
ATOM     83  C   UNL     1      22.055 -11.278  -7.065  1.00  0.00     0.148 A 
ATOM     84  C   UNL     1      23.702  -9.050  -7.534  1.00  0.00     0.002 A 
ATOM     85  C   UNL     1      23.378 -11.453  -7.450  1.00  0.00     0.091 A 
ATOM     86  F   UNL     1      21.233 -12.320  -6.872  1.00  0.00    -0.205 F 
ATOM     87  C   UNL     1      24.199 -10.341  -7.699  1.00  0.00     0.022 A 
BRANCH  85  88
ATOM     88  S   UNL     1      24.120 -13.083  -7.586  1.00  0.00     0.127 S 
ATOM     89  O   UNL     1      24.086 -13.308  -9.029  1.00  0.00    -0.237 OA
ATOM     90  O   UNL     1      25.458 -12.867  -7.033  1.00  0.00    -0.237 OA
ATOM     91  O   UNL     1      23.279 -13.966  -6.788  1.00  0.00    -0.744 OA
ENDBRANCH  85  88
ENDBRANCH  58  81
ENDBRANCH  32  33
ENDBRANCH  24  27
ENDBRANCH  22  23
ENDBRANCH  21  22
ENDBRANCH   1  21
TORSDOF 17
