REMARK SMILES NS(=O)(=O)c1ccc(-n2nc(C(F)F)cc2-c2ccc(C(=O)NCCCCNC(=O)c3ccc(-c4c5nc(c(-c6cccc(S(=O)(=O)[O-])c6F)c6ccc([nH]6)c(-c6cccc(S(=O)(=O)[O-])c6F)c6nc(c(-c7cccc(S(=O)(=O)[O-])c7F)c7ccc4[nH]7)C=C6)C=C5)cc3)cc2)cc1
REMARK SMILES IDX 25 1 24 2 23 3 21 4 22 5 20 7 17 8 18 9 95 10 19 11 94 12
REMARK SMILES IDX 16 13 9 14 10 15 11 16 15 17 8 18 5 19 6 20 97 21 7 22 96 23
REMARK SMILES IDX 2 24 3 25 4 26 1 27 12 30 13 31 14 32 26 33 27 34 28 35
REMARK SMILES IDX 29 36 30 38 31 39 32 40 93 41 33 42 92 43 34 44 35 45 36 46
REMARK SMILES IDX 86 47 37 48 91 49 85 50 87 51 38 52 90 53 84 54 83 55 39 57
REMARK SMILES IDX 71 58 51 59 70 60 52 61 55 62 69 63 88 64 53 65 54 66 68 68
REMARK SMILES IDX 89 69 56 70 40 71 41 72 49 73 42 74 44 75 50 76 43 77 45 78
REMARK SMILES IDX 46 79 47 80 48 81 72 82 73 83 81 84 74 85 76 86 82 87 75 88
REMARK SMILES IDX 77 89 78 90 79 91 80 92 57 93 58 94 66 95 59 96 61 97 67 98
REMARK SMILES IDX 60 99 62 100 63 101 64 102 65 103
REMARK H PARENT 23 6 1 28 1 29 28 37 87 56 55 67
REMARK Flexibility Score: inf
ROOT
ATOM      1  C   UNL     1       6.288  -0.199   6.917  1.00  0.00     0.023 C 
ENDROOT
BRANCH   1   2
ATOM      2  C   UNL     1       7.175   1.018   6.618  1.00  0.00     0.116 C 
BRANCH   2   3
ATOM      3  N   UNL     1       7.473   1.099   5.202  1.00  0.00    -0.352 N 
ATOM      4  C   UNL     1       6.883   1.781   4.169  1.00  0.00     0.251 C 
ATOM      5  O   UNL     1       7.310   1.595   3.030  1.00  0.00    -0.269 OA
ATOM      6  H   UNL     1       8.250   0.559   4.928  1.00  0.00     0.163 HD
BRANCH   4   7
ATOM      7  C   UNL     1       5.768   2.749   4.362  1.00  0.00     0.039 A 
ATOM      8  C   UNL     1       3.719   4.660   4.598  1.00  0.00     0.000 A 
ATOM      9  C   UNL     1       4.624   4.734   3.535  1.00  0.00     0.011 A 
ATOM     10  C   UNL     1       3.837   3.634   5.534  1.00  0.00     0.011 A 
ATOM     11  C   UNL     1       5.649   3.788   3.426  1.00  0.00     0.014 A 
ATOM     12  C   UNL     1       4.822   2.661   5.384  1.00  0.00     0.014 A 
BRANCH   8  13
ATOM     13  C   UNL     1       2.596   5.576   4.703  1.00  0.00     0.075 A 
ATOM     14  N   UNL     1       1.509   5.599   3.841  1.00  0.00    -0.233 N 
ATOM     15  N   UNL     1       0.688   6.652   4.095  1.00  0.00    -0.166 NA
ATOM     16  C   UNL     1       1.142   7.166   5.254  1.00  0.00     0.129 A 
ATOM     17  C   UNL     1       2.362   6.562   5.636  1.00  0.00     0.060 A 
BRANCH  14  18
ATOM     18  C   UNL     1       1.180   4.652   2.834  1.00  0.00     0.065 A 
ATOM     19  C   UNL     1       0.668   2.803   0.813  1.00  0.00     0.082 A 
ATOM     20  C   UNL     1       1.106   2.353   2.058  1.00  0.00     0.024 A 
ATOM     21  C   UNL     1       0.462   4.169   0.579  1.00  0.00     0.024 A 
ATOM     22  C   UNL     1       1.367   3.280   3.065  1.00  0.00     0.030 A 
ATOM     23  C   UNL     1       0.689   5.096   1.602  1.00  0.00     0.030 A 
BRANCH  19  24
ATOM     24  S   UNL     1       0.399   1.667  -0.515  1.00  0.00     0.238 S 
ATOM     25  O   UNL     1       1.116   2.128  -1.673  1.00  0.00    -0.207 OA
ATOM     26  O   UNL     1      -1.013   1.341  -0.547  1.00  0.00    -0.207 OA
BRANCH  24  27
ATOM     27  N   UNL     1       1.177   0.257  -0.034  1.00  0.00    -0.225 NA
ATOM     28  H   UNL     1       1.066  -0.455  -0.756  1.00  0.00     0.137 HD
ATOM     29  H   UNL     1       0.767  -0.077   0.838  1.00  0.00     0.137 HD
ENDBRANCH  24  27
ENDBRANCH  19  24
ENDBRANCH  14  18
BRANCH  16  30
ATOM     30  C   UNL     1       0.411   8.228   6.019  1.00  0.00     0.393 C 
ATOM     31  F   UNL     1       0.085   9.302   5.251  1.00  0.00    -0.203 F 
ATOM     32  F   UNL     1      -0.757   7.753   6.539  1.00  0.00    -0.203 F 
ENDBRANCH  16  30
ENDBRANCH   8  13
ENDBRANCH   4   7
ENDBRANCH   2   3
ENDBRANCH   1   2
BRANCH   1  33
ATOM     33  C   UNL     1       7.020  -1.548   6.893  1.00  0.00     0.023 C 
BRANCH  33  34
ATOM     34  C   UNL     1       8.039  -1.731   8.011  1.00  0.00     0.116 C 
BRANCH  34  35
ATOM     35  N   UNL     1       7.425  -1.691   9.340  1.00  0.00    -0.352 N 
ATOM     36  C   UNL     1       8.057  -1.571  10.561  1.00  0.00     0.251 C 
ATOM     37  H   UNL     1       6.443  -1.758   9.365  1.00  0.00     0.163 HD
ATOM     38  O   UNL     1       7.513  -1.952  11.591  1.00  0.00    -0.269 OA
BRANCH  36  39
ATOM     39  C   UNL     1       9.391  -0.949  10.604  1.00  0.00     0.039 A 
ATOM     40  C   UNL     1      10.421  -1.480  11.382  1.00  0.00     0.014 A 
ATOM     41  C   UNL     1       9.600   0.176   9.808  1.00  0.00     0.014 A 
ATOM     42  C   UNL     1      11.690  -0.914  11.286  1.00  0.00     0.010 A 
ATOM     43  C   UNL     1      10.874   0.639   9.604  1.00  0.00     0.010 A 
ATOM     44  C   UNL     1      11.913   0.134  10.377  1.00  0.00    -0.014 A 
BRANCH  44  45
ATOM     45  C   UNL     1      13.265   0.607  10.100  1.00  0.00     0.031 A 
ATOM     46  C   UNL     1      14.193  -0.473   9.663  1.00  0.00     0.074 A 
ATOM     47  C   UNL     1      13.586   1.918  10.026  1.00  0.00     0.049 A 
ATOM     48  N   UNL     1      15.179  -0.973  10.332  1.00  0.00    -0.248 NA
ATOM     49  C   UNL     1      13.882  -1.211   8.428  1.00  0.00     0.031 C 
ATOM     50  C   UNL     1      12.684   3.073  10.121  1.00  0.00     0.029 A 
ATOM     51  N   UNL     1      14.774   2.501   9.703  1.00  0.00    -0.354 N 
ATOM     52  C   UNL     1      15.779  -1.894   9.475  1.00  0.00     0.074 A 
ATOM     53  C   UNL     1      14.809  -2.171   8.452  1.00  0.00     0.031 C 
ATOM     54  C   UNL     1      13.291   4.166   9.609  1.00  0.00     0.029 A 
ATOM     55  C   UNL     1      14.671   3.835   9.310  1.00  0.00     0.049 A 
ATOM     56  H   UNL     1      15.633   2.021   9.743  1.00  0.00     0.167 HD
ATOM     57  C   UNL     1      17.125  -2.107   9.518  1.00  0.00     0.034 A 
ATOM     58  C   UNL     1      15.639   4.596   8.738  1.00  0.00     0.034 A 
ATOM     59  C   UNL     1      17.691  -1.561  10.730  1.00  0.00     0.049 A 
ATOM     60  C   UNL     1      16.933   3.951   9.051  1.00  0.00     0.074 A 
ATOM     61  C   UNL     1      17.469  -1.733  12.082  1.00  0.00     0.029 A 
ATOM     62  N   UNL     1      18.369  -0.372  10.607  1.00  0.00    -0.354 N 
ATOM     63  N   UNL     1      17.418   3.870  10.257  1.00  0.00    -0.248 NA
ATOM     64  C   UNL     1      17.466   3.001   8.091  1.00  0.00     0.031 C 
ATOM     65  C   UNL     1      17.590  -0.426  12.641  1.00  0.00     0.029 A 
ATOM     66  C   UNL     1      17.966   0.451  11.621  1.00  0.00     0.049 A 
ATOM     67  H   UNL     1      19.029  -0.151   9.911  1.00  0.00     0.167 HD
ATOM     68  C   UNL     1      17.924   2.580  10.329  1.00  0.00     0.074 A 
ATOM     69  C   UNL     1      18.031   2.137   8.938  1.00  0.00     0.031 C 
ATOM     70  C   UNL     1      17.917   1.891  11.507  1.00  0.00     0.034 A 
BRANCH  57  71
ATOM     71  C   UNL     1      18.008  -2.403   8.318  1.00  0.00     0.023 A 
ATOM     72  C   UNL     1      19.381  -2.627   8.580  1.00  0.00     0.012 A 
ATOM     73  C   UNL     1      17.651  -2.185   6.967  1.00  0.00     0.148 A 
ATOM     74  C   UNL     1      20.351  -2.540   7.575  1.00  0.00     0.002 A 
ATOM     75  C   UNL     1      18.610  -2.173   5.959  1.00  0.00     0.091 A 
ATOM     76  F   UNL     1      16.399  -1.863   6.642  1.00  0.00    -0.205 F 
ATOM     77  C   UNL     1      19.965  -2.311   6.262  1.00  0.00     0.022 A 
BRANCH  75  78
ATOM     78  S   UNL     1      18.164  -1.923   4.234  1.00  0.00     0.127 S 
ATOM     79  O   UNL     1      18.704  -0.589   3.986  1.00  0.00    -0.237 OA
ATOM     80  O   UNL     1      18.884  -3.017   3.582  1.00  0.00    -0.237 OA
ATOM     81  O   UNL     1      16.713  -2.045   4.178  1.00  0.00    -0.744 OA
ENDBRANCH  75  78
ENDBRANCH  57  71
BRANCH  58  82
ATOM     82  C   UNL     1      15.551   5.695   7.746  1.00  0.00     0.023 A 
ATOM     83  C   UNL     1      16.655   6.553   7.556  1.00  0.00     0.012 A 
ATOM     84  C   UNL     1      14.525   5.712   6.776  1.00  0.00     0.148 A 
ATOM     85  C   UNL     1      16.759   7.362   6.417  1.00  0.00     0.002 A 
ATOM     86  C   UNL     1      14.632   6.518   5.645  1.00  0.00     0.091 A 
ATOM     87  F   UNL     1      13.495   4.867   6.914  1.00  0.00    -0.205 F 
ATOM     88  C   UNL     1      15.754   7.334   5.455  1.00  0.00     0.022 A 
BRANCH  86  89
ATOM     89  S   UNL     1      13.393   6.506   4.342  1.00  0.00     0.127 S 
ATOM     90  O   UNL     1      13.150   7.935   4.142  1.00  0.00    -0.237 OA
ATOM     91  O   UNL     1      14.108   5.847   3.253  1.00  0.00    -0.237 OA
ATOM     92  O   UNL     1      12.254   5.776   4.885  1.00  0.00    -0.744 OA
ENDBRANCH  86  89
ENDBRANCH  58  82
BRANCH  70  93
ATOM     93  C   UNL     1      17.609   2.650  12.774  1.00  0.00     0.023 A 
ATOM     94  C   UNL     1      16.366   3.273  13.015  1.00  0.00     0.012 A 
ATOM     95  C   UNL     1      18.548   2.584  13.816  1.00  0.00     0.148 A 
ATOM     96  C   UNL     1      16.077   3.834  14.264  1.00  0.00     0.002 A 
ATOM     97  C   UNL     1      18.239   3.098  15.068  1.00  0.00     0.091 A 
ATOM     98  F   UNL     1      19.724   1.988  13.569  1.00  0.00    -0.205 F 
ATOM     99  C   UNL     1      17.009   3.733  15.295  1.00  0.00     0.022 A 
BRANCH  97 100
ATOM    100  S   UNL     1      19.348   2.884  16.461  1.00  0.00     0.127 S 
ATOM    101  O   UNL     1      19.907   4.225  16.613  1.00  0.00    -0.237 OA
ATOM    102  O   UNL     1      18.434   2.475  17.529  1.00  0.00    -0.237 OA
ATOM    103  O   UNL     1      20.296   1.850  16.064  1.00  0.00    -0.744 OA
ENDBRANCH  97 100
ENDBRANCH  70  93
ENDBRANCH  44  45
ENDBRANCH  36  39
ENDBRANCH  34  35
ENDBRANCH  33  34
ENDBRANCH   1  33
TORSDOF 19
