REMARK SMILES COc1ccc(-n2c(SCC(=O)NCCCCNC(=O)c3ccc(-c4c5nc(c(-c6cccc(S(=O)(=O)[O-])c6F)c6ccc([nH]6)c(-c6cccc(S(=O)(=O)[O-])c6F)c6nc(c(-c7cccc(S(=O)(=O)[O-])c7F)c7ccc4[nH]7)C=C6)C=C5)cc3)nc3sc4c(c3c2=O)CC[N@H+](C)C4)cc1
REMARK SMILES IDX 15 1 14 2 13 3 11 4 12 5 10 7 9 8 8 9 7 10 90 11 84 12 89 13
REMARK SMILES IDX 91 14 85 15 88 16 86 17 87 18 92 19 96 20 93 21 94 22 95 23
REMARK SMILES IDX 6 25 3 26 4 27 98 28 5 29 97 30 2 31 1 32 16 33 17 34 18 35
REMARK SMILES IDX 19 36 20 38 21 39 22 40 83 41 23 42 82 43 24 44 25 45 26 46
REMARK SMILES IDX 76 47 27 48 81 49 75 50 77 51 28 52 80 53 74 54 73 55 29 57
REMARK SMILES IDX 61 58 41 59 60 60 42 61 45 62 59 63 78 64 43 65 44 66 58 68
REMARK SMILES IDX 79 69 46 70 30 71 31 72 39 73 32 74 34 75 40 76 33 77 35 78
REMARK SMILES IDX 36 79 37 80 38 81 62 82 63 83 71 84 64 85 66 86 72 87 65 88
REMARK SMILES IDX 67 89 68 90 69 91 70 92 47 93 48 94 56 95 49 96 51 97 57 98
REMARK SMILES IDX 50 99 52 100 53 101 54 102 55 103
REMARK H PARENT 13 6 94 24 18 37 77 56 45 67
REMARK Flexibility Score: inf
ROOT
ATOM      1  C   UNL     1       7.279  -1.157  -4.719  1.00  0.00     0.023 C 
ENDROOT
BRANCH   1   2
ATOM      2  C   UNL     1       6.608  -2.078  -3.700  1.00  0.00     0.116 C 
BRANCH   2   3
ATOM      3  N   UNL     1       5.402  -1.515  -3.123  1.00  0.00    -0.355 N 
ATOM      4  C   UNL     1       4.236  -2.141  -2.812  1.00  0.00     0.230 C 
ATOM      5  O   UNL     1       3.700  -1.786  -1.755  1.00  0.00    -0.274 OA
ATOM      6  H   UNL     1       5.431  -0.550  -2.932  1.00  0.00     0.163 HD
BRANCH   4   7
ATOM      7  C   UNL     1       3.612  -3.268  -3.616  1.00  0.00     0.178 C 
BRANCH   7   8
ATOM      8  S   UNL     1       3.892  -3.314  -5.369  1.00  0.00    -0.077 SA
BRANCH   8   9
ATOM      9  C   UNL     1       2.910  -2.256  -6.361  1.00  0.00     0.177 A 
ATOM     10  N   UNL     1       1.825  -1.461  -5.962  1.00  0.00    -0.255 N 
ATOM     11  C   UNL     1       1.109  -0.678  -6.894  1.00  0.00     0.267 A 
ATOM     12  N   UNL     1       3.304  -2.348  -7.601  1.00  0.00    -0.212 NA
ATOM     13  C   UNL     1       1.601  -0.751  -8.250  1.00  0.00     0.081 A 
ATOM     14  O   UNL     1       0.130   0.021  -6.629  1.00  0.00    -0.268 OA
ATOM     15  C   UNL     1       2.643  -1.602  -8.509  1.00  0.00     0.132 A 
ATOM     16  C   UNL     1       1.173  -0.046  -9.412  1.00  0.00    -0.008 A 
ATOM     17  S   UNL     1       3.033  -1.645 -10.173  1.00  0.00    -0.114 S 
ATOM     18  C   UNL     1       1.833  -0.495 -10.540  1.00  0.00     0.065 A 
ATOM     19  C   UNL     1       0.113   1.010  -9.508  1.00  0.00     0.099 C 
ATOM     20  C   UNL     1       1.560  -0.013 -11.936  1.00  0.00     0.310 C 
ATOM     21  C   UNL     1       0.089   1.643 -10.920  1.00  0.00     0.267 C 
ATOM     22  N   UNL     1       0.253   0.686 -12.042  1.00  0.00    -0.333 N 
ATOM     23  C   UNL     1      -0.859  -0.264 -12.102  1.00  0.00     0.333 C 
ATOM     24  H   UNL     1       0.243   1.213 -12.916  1.00  0.00     0.348 HD
BRANCH  10  25
ATOM     25  C   UNL     1       1.385  -1.297  -4.634  1.00  0.00     0.052 A 
ATOM     26  C   UNL     1       0.381  -0.745  -2.080  1.00  0.00     0.119 A 
ATOM     27  C   UNL     1      -0.271  -1.661  -2.910  1.00  0.00     0.048 A 
ATOM     28  C   UNL     1       1.486  -0.046  -2.568  1.00  0.00     0.048 A 
ATOM     29  C   UNL     1       0.220  -1.933  -4.189  1.00  0.00     0.030 A 
ATOM     30  C   UNL     1       1.983  -0.314  -3.845  1.00  0.00     0.030 A 
BRANCH  26  31
ATOM     31  O   UNL     1      -0.152  -0.608  -0.828  1.00  0.00    -0.497 OA
ATOM     32  C   UNL     1       0.682   0.049   0.127  1.00  0.00     0.278 C 
ENDBRANCH  26  31
ENDBRANCH  10  25
ENDBRANCH   8   9
ENDBRANCH   7   8
ENDBRANCH   4   7
ENDBRANCH   2   3
ENDBRANCH   1   2
BRANCH   1  33
ATOM     33  C   UNL     1       7.650   0.267  -4.241  1.00  0.00     0.023 C 
BRANCH  33  34
ATOM     34  C   UNL     1       8.642   0.397  -3.061  1.00  0.00     0.116 C 
BRANCH  34  35
ATOM     35  N   UNL     1       9.924  -0.204  -3.386  1.00  0.00    -0.352 N 
ATOM     36  C   UNL     1      11.228   0.207  -3.268  1.00  0.00     0.251 C 
ATOM     37  H   UNL     1       9.838  -1.103  -3.777  1.00  0.00     0.163 HD
ATOM     38  O   UNL     1      12.043  -0.390  -3.979  1.00  0.00    -0.269 OA
BRANCH  36  39
ATOM     39  C   UNL     1      11.736   1.279  -2.361  1.00  0.00     0.039 A 
ATOM     40  C   UNL     1      12.926   1.929  -2.747  1.00  0.00     0.014 A 
ATOM     41  C   UNL     1      11.232   1.539  -1.089  1.00  0.00     0.014 A 
ATOM     42  C   UNL     1      13.587   2.836  -1.899  1.00  0.00     0.010 A 
ATOM     43  C   UNL     1      11.903   2.446  -0.235  1.00  0.00     0.010 A 
ATOM     44  C   UNL     1      13.078   3.122  -0.629  1.00  0.00    -0.014 A 
BRANCH  44  45
ATOM     45  C   UNL     1      13.651   4.276   0.139  1.00  0.00     0.031 A 
ATOM     46  C   UNL     1      12.606   5.189   0.699  1.00  0.00     0.074 A 
ATOM     47  C   UNL     1      14.893   4.359   0.682  1.00  0.00     0.049 A 
ATOM     48  N   UNL     1      11.972   4.899   1.795  1.00  0.00    -0.248 NA
ATOM     49  C   UNL     1      12.017   6.302  -0.042  1.00  0.00     0.031 C 
ATOM     50  C   UNL     1      15.657   3.193   1.141  1.00  0.00     0.029 A 
ATOM     51  N   UNL     1      15.619   5.441   1.170  1.00  0.00    -0.354 N 
ATOM     52  C   UNL     1      10.864   5.719   1.871  1.00  0.00     0.074 A 
ATOM     53  C   UNL     1      10.949   6.597   0.723  1.00  0.00     0.031 C 
ATOM     54  C   UNL     1      16.631   3.612   1.980  1.00  0.00     0.029 A 
ATOM     55  C   UNL     1      16.678   5.081   2.019  1.00  0.00     0.049 A 
ATOM     56  H   UNL     1      15.409   6.375   0.942  1.00  0.00     0.167 HD
ATOM     57  C   UNL     1       9.953   5.601   2.876  1.00  0.00     0.034 A 
ATOM     58  C   UNL     1      17.082   5.776   3.130  1.00  0.00     0.034 A 
ATOM     59  C   UNL     1      10.230   4.552   3.824  1.00  0.00     0.049 A 
ATOM     60  C   UNL     1      15.872   5.664   4.012  1.00  0.00     0.074 A 
ATOM     61  C   UNL     1       9.856   3.240   4.025  1.00  0.00     0.029 A 
ATOM     62  N   UNL     1      11.183   4.778   4.790  1.00  0.00    -0.354 N 
ATOM     63  N   UNL     1      15.519   4.613   4.693  1.00  0.00    -0.248 NA
ATOM     64  C   UNL     1      14.830   6.674   3.840  1.00  0.00     0.031 C 
ATOM     65  C   UNL     1      10.935   2.639   4.757  1.00  0.00     0.029 A 
ATOM     66  C   UNL     1      11.909   3.619   4.925  1.00  0.00     0.049 A 
ATOM     67  H   UNL     1      11.319   5.614   5.291  1.00  0.00     0.167 HD
ATOM     68  C   UNL     1      14.131   4.687   4.785  1.00  0.00     0.074 A 
ATOM     69  C   UNL     1      13.775   5.993   4.260  1.00  0.00     0.031 C 
ATOM     70  C   UNL     1      13.342   3.624   5.123  1.00  0.00     0.034 A 
BRANCH  57  71
ATOM     71  C   UNL     1       8.851   6.552   3.156  1.00  0.00     0.023 A 
ATOM     72  C   UNL     1       9.076   7.447   4.223  1.00  0.00     0.012 A 
ATOM     73  C   UNL     1       7.566   6.458   2.596  1.00  0.00     0.148 A 
ATOM     74  C   UNL     1       8.037   8.184   4.777  1.00  0.00     0.002 A 
ATOM     75  C   UNL     1       6.528   7.212   3.147  1.00  0.00     0.091 A 
ATOM     76  F   UNL     1       7.366   5.603   1.583  1.00  0.00    -0.205 F 
ATOM     77  C   UNL     1       6.760   8.058   4.247  1.00  0.00     0.022 A 
BRANCH  75  78
ATOM     78  S   UNL     1       4.833   7.146   2.552  1.00  0.00     0.127 S 
ATOM     79  O   UNL     1       4.141   6.507   3.670  1.00  0.00    -0.237 OA
ATOM     80  O   UNL     1       4.520   8.564   2.371  1.00  0.00    -0.237 OA
ATOM     81  O   UNL     1       4.873   6.374   1.317  1.00  0.00    -0.744 OA
ENDBRANCH  75  78
ENDBRANCH  57  71
BRANCH  58  82
ATOM     82  C   UNL     1      17.811   7.090   3.000  1.00  0.00     0.023 A 
ATOM     83  C   UNL     1      18.832   7.197   2.033  1.00  0.00     0.012 A 
ATOM     84  C   UNL     1      17.584   8.221   3.822  1.00  0.00     0.148 A 
ATOM     85  C   UNL     1      19.515   8.400   1.815  1.00  0.00     0.002 A 
ATOM     86  C   UNL     1      18.205   9.440   3.549  1.00  0.00     0.091 A 
ATOM     87  F   UNL     1      16.772   8.105   4.880  1.00  0.00    -0.205 F 
ATOM     88  C   UNL     1      19.174   9.532   2.545  1.00  0.00     0.022 A 
BRANCH  86  89
ATOM     89  S   UNL     1      17.742  10.973   4.372  1.00  0.00     0.127 S 
ATOM     90  O   UNL     1      19.033  11.471   4.845  1.00  0.00    -0.237 OA
ATOM     91  O   UNL     1      17.160  11.730   3.264  1.00  0.00    -0.237 OA
ATOM     92  O   UNL     1      16.803  10.597   5.419  1.00  0.00    -0.744 OA
ENDBRANCH  86  89
ENDBRANCH  58  82
BRANCH  70  93
ATOM     93  C   UNL     1      14.083   2.369   5.498  1.00  0.00     0.023 A 
ATOM     94  C   UNL     1      14.920   2.388   6.633  1.00  0.00     0.012 A 
ATOM     95  C   UNL     1      13.992   1.180   4.744  1.00  0.00     0.148 A 
ATOM     96  C   UNL     1      15.654   1.264   7.008  1.00  0.00     0.002 A 
ATOM     97  C   UNL     1      14.690   0.045   5.151  1.00  0.00     0.091 A 
ATOM     98  F   UNL     1      13.247   1.172   3.630  1.00  0.00    -0.205 F 
ATOM     99  C   UNL     1      15.529   0.089   6.276  1.00  0.00     0.022 A 
BRANCH  97 100
ATOM    100  S   UNL     1      14.549  -1.543   4.320  1.00  0.00     0.127 S 
ATOM    101  O   UNL     1      15.919  -1.774   3.863  1.00  0.00    -0.237 OA
ATOM    102  O   UNL     1      14.119  -2.418   5.413  1.00  0.00    -0.237 OA
ATOM    103  O   UNL     1      13.564  -1.368   3.262  1.00  0.00    -0.744 OA
ENDBRANCH  97 100
ENDBRANCH  70  93
ENDBRANCH  44  45
ENDBRANCH  36  39
ENDBRANCH  34  35
ENDBRANCH  33  34
ENDBRANCH   1  33
TORSDOF 18
