REMARK SMILES Cc1cc2c(c(C)c1Cl)C=C(C(=O)NCCCCNC(=O)c1ccc(-c3c4nc(c(-c5cccc(S(=O)(=O)[O-])c5F)c5ccc([nH]5)c(-c5cccc(S(=O)(=O)[O-])c5F)c5nc(c(-c6cccc(S(=O)(=O)[O-])c6F)c6ccc3[nH]6)C=C5)C=C4)cc1)[C@@H](C(F)(F)F)O2
REMARK SMILES IDX 17 1 16 2 15 3 14 4 12 5 13 6 11 8 1 9 2 10 3 11 8 12 4 13
REMARK SMILES IDX 6 14 9 15 5 16 90 17 7 18 10 19 85 20 86 21 87 22 88 23
REMARK SMILES IDX 89 24 18 25 19 26 20 27 21 29 22 30 23 31 84 32 24 33 83 34
REMARK SMILES IDX 25 35 26 36 27 37 77 38 28 39 82 40 76 41 78 42 29 43 81 44
REMARK SMILES IDX 75 45 74 46 30 48 62 49 42 50 61 51 43 52 46 53 60 54 79 55
REMARK SMILES IDX 44 56 45 57 59 59 80 60 47 61 31 62 32 63 40 64 33 65 35 66
REMARK SMILES IDX 41 67 34 68 36 69 37 70 38 71 39 72 63 73 64 74 72 75 65 76
REMARK SMILES IDX 67 77 73 78 66 79 68 80 69 81 70 82 71 83 48 84 49 85 57 86
REMARK SMILES IDX 50 87 52 88 58 89 51 90 53 91 54 92 55 93 56 94
REMARK H PARENT 14 7 19 28 78 47 46 58
REMARK Flexibility Score: inf
ROOT
ATOM      1  C   UNL     1      -5.601   6.751  -5.732  1.00  0.00     0.023 C 
ENDROOT
BRANCH   1   2
ATOM      2  C   UNL     1      -4.809   5.588  -5.126  1.00  0.00     0.023 C 
BRANCH   2   3
ATOM      3  C   UNL     1      -3.332   5.569  -5.509  1.00  0.00     0.116 C 
BRANCH   3   4
ATOM      4  N   UNL     1      -2.529   6.396  -4.625  1.00  0.00    -0.352 N 
ATOM      5  C   UNL     1      -1.651   6.203  -3.614  1.00  0.00     0.251 C 
ATOM      6  O   UNL     1      -1.178   7.232  -3.121  1.00  0.00    -0.270 OA
ATOM      7  H   UNL     1      -2.659   7.354  -4.810  1.00  0.00     0.163 HD
BRANCH   5   8
ATOM      8  C   UNL     1      -1.226   4.875  -3.075  1.00  0.00     0.067 C 
ATOM      9  C   UNL     1       1.236  -0.160   0.249  1.00  0.00     0.046 C 
ATOM     10  C   UNL     1       0.849   1.188  -0.297  1.00  0.00    -0.028 A 
ATOM     11  C   UNL     1      -0.104   1.248  -1.317  1.00  0.00     0.052 A 
ATOM     12  C   UNL     1       1.397   2.391   0.195  1.00  0.00     0.047 A 
ATOM     13  C   UNL     1      -0.492   2.472  -1.851  1.00  0.00     0.128 A 
ATOM     14  C   UNL     1       1.007   3.645  -0.337  1.00  0.00    -0.021 A 
ATOM     15  Cl  UNL     1       2.556   2.298   1.488  1.00  0.00    -0.084 Cl
ATOM     16  C   UNL     1       0.042   3.672  -1.374  1.00  0.00     0.022 A 
ATOM     17  O   UNL     1      -1.450   2.411  -2.822  1.00  0.00    -0.475 OA
ATOM     18  C   UNL     1       1.583   4.944   0.177  1.00  0.00     0.047 C 
ATOM     19  C   UNL     1      -0.469   4.915  -1.961  1.00  0.00     0.026 C 
ATOM     20  C   UNL     1      -1.550   3.557  -3.711  1.00  0.00     0.314 C 
BRANCH  20  21
ATOM     21  C   UNL     1      -0.724   3.285  -4.981  1.00  0.00     0.429 C 
ATOM     22  F   UNL     1      -1.257   2.250  -5.678  1.00  0.00    -0.167 F 
ATOM     23  F   UNL     1      -0.697   4.342  -5.824  1.00  0.00    -0.167 F 
ATOM     24  F   UNL     1       0.562   2.965  -4.707  1.00  0.00    -0.167 F 
ENDBRANCH  20  21
ENDBRANCH   5   8
ENDBRANCH   3   4
ENDBRANCH   2   3
ENDBRANCH   1   2
BRANCH   1  25
ATOM     25  C   UNL     1      -5.540   6.867  -7.255  1.00  0.00     0.116 C 
BRANCH  25  26
ATOM     26  N   UNL     1      -5.862   5.630  -7.954  1.00  0.00    -0.352 N 
ATOM     27  C   UNL     1      -6.427   5.486  -9.200  1.00  0.00     0.251 C 
ATOM     28  H   UNL     1      -5.651   4.795  -7.476  1.00  0.00     0.163 HD
ATOM     29  O   UNL     1      -6.717   4.375  -9.631  1.00  0.00    -0.269 OA
BRANCH  27  30
ATOM     30  C   UNL     1      -6.718   6.698  -9.990  1.00  0.00     0.039 A 
ATOM     31  C   UNL     1      -8.026   6.921 -10.425  1.00  0.00     0.014 A 
ATOM     32  C   UNL     1      -5.713   7.639 -10.228  1.00  0.00     0.014 A 
ATOM     33  C   UNL     1      -8.346   8.135 -11.036  1.00  0.00     0.010 A 
ATOM     34  C   UNL     1      -6.047   8.868 -10.785  1.00  0.00     0.010 A 
ATOM     35  C   UNL     1      -7.367   9.131 -11.183  1.00  0.00    -0.014 A 
BRANCH  35  36
ATOM     36  C   UNL     1      -7.700  10.472 -11.721  1.00  0.00     0.031 A 
ATOM     37  C   UNL     1      -7.108  10.925 -13.024  1.00  0.00     0.074 A 
ATOM     38  C   UNL     1      -8.448  11.314 -10.982  1.00  0.00     0.049 A 
ATOM     39  N   UNL     1      -7.191  12.094 -13.602  1.00  0.00    -0.248 NA
ATOM     40  C   UNL     1      -6.295   9.943 -13.760  1.00  0.00     0.031 C 
ATOM     41  C   UNL     1      -9.024  11.005  -9.672  1.00  0.00     0.029 A 
ATOM     42  N   UNL     1      -8.828  12.612 -11.214  1.00  0.00    -0.354 N 
ATOM     43  C   UNL     1      -6.419  12.000 -14.753  1.00  0.00     0.074 A 
ATOM     44  C   UNL     1      -5.850  10.670 -14.775  1.00  0.00     0.031 C 
ATOM     45  C   UNL     1      -9.687  12.080  -9.218  1.00  0.00     0.029 A 
ATOM     46  C   UNL     1      -9.560  13.164 -10.188  1.00  0.00     0.049 A 
ATOM     47  H   UNL     1      -8.599  13.102 -12.036  1.00  0.00     0.167 HD
ATOM     48  C   UNL     1      -6.229  12.927 -15.721  1.00  0.00     0.034 A 
ATOM     49  C   UNL     1     -10.069  14.404 -10.045  1.00  0.00     0.034 A 
ATOM     50  C   UNL     1      -6.833  14.232 -15.714  1.00  0.00     0.049 A 
ATOM     51  C   UNL     1      -9.873  15.404 -11.152  1.00  0.00     0.074 A 
ATOM     52  C   UNL     1      -6.747  15.223 -16.675  1.00  0.00     0.029 A 
ATOM     53  N   UNL     1      -7.641  14.725 -14.701  1.00  0.00    -0.354 N 
ATOM     54  N   UNL     1      -9.242  15.258 -12.292  1.00  0.00    -0.248 NA
ATOM     55  C   UNL     1     -10.485  16.729 -10.970  1.00  0.00     0.031 C 
ATOM     56  C   UNL     1      -7.501  16.318 -16.241  1.00  0.00     0.029 A 
ATOM     57  C   UNL     1      -8.066  16.004 -15.015  1.00  0.00     0.049 A 
ATOM     58  H   UNL     1      -7.877  14.237 -13.879  1.00  0.00     0.167 HD
ATOM     59  C   UNL     1      -9.407  16.456 -12.977  1.00  0.00     0.074 A 
ATOM     60  C   UNL     1     -10.214  17.311 -12.132  1.00  0.00     0.031 C 
ATOM     61  C   UNL     1      -8.917  16.821 -14.188  1.00  0.00     0.034 A 
BRANCH  48  62
ATOM     62  C   UNL     1      -5.389  12.534 -16.907  1.00  0.00     0.023 A 
ATOM     63  C   UNL     1      -5.919  11.635 -17.854  1.00  0.00     0.012 A 
ATOM     64  C   UNL     1      -4.114  13.093 -17.121  1.00  0.00     0.148 A 
ATOM     65  C   UNL     1      -5.183  11.274 -18.982  1.00  0.00     0.002 A 
ATOM     66  C   UNL     1      -3.403  12.760 -18.269  1.00  0.00     0.091 A 
ATOM     67  F   UNL     1      -3.616  13.926 -16.196  1.00  0.00    -0.205 F 
ATOM     68  C   UNL     1      -3.932  11.845 -19.194  1.00  0.00     0.022 A 
BRANCH  66  69
ATOM     69  S   UNL     1      -1.816  13.500 -18.672  1.00  0.00     0.127 S 
ATOM     70  O   UNL     1      -0.900  12.390 -18.414  1.00  0.00    -0.237 OA
ATOM     71  O   UNL     1      -1.982  13.836 -20.087  1.00  0.00    -0.237 OA
ATOM     72  O   UNL     1      -1.675  14.649 -17.789  1.00  0.00    -0.744 OA
ENDBRANCH  66  69
ENDBRANCH  48  62
BRANCH  49  73
ATOM     73  C   UNL     1     -10.895  14.726  -8.847  1.00  0.00     0.023 A 
ATOM     74  C   UNL     1     -12.287  14.877  -8.999  1.00  0.00     0.012 A 
ATOM     75  C   UNL     1     -10.332  14.811  -7.558  1.00  0.00     0.148 A 
ATOM     76  C   UNL     1     -13.102  15.125  -7.894  1.00  0.00     0.002 A 
ATOM     77  C   UNL     1     -11.157  15.003  -6.455  1.00  0.00     0.091 A 
ATOM     78  F   UNL     1      -9.004  14.676  -7.435  1.00  0.00    -0.205 F 
ATOM     79  C   UNL     1     -12.540  15.174  -6.622  1.00  0.00     0.022 A 
BRANCH  77  80
ATOM     80  S   UNL     1     -10.542  14.936  -4.767  1.00  0.00     0.127 S 
ATOM     81  O   UNL     1     -10.657  16.331  -4.351  1.00  0.00    -0.237 OA
ATOM     82  O   UNL     1     -11.494  14.023  -4.134  1.00  0.00    -0.237 OA
ATOM     83  O   UNL     1      -9.186  14.413  -4.864  1.00  0.00    -0.744 OA
ENDBRANCH  77  80
ENDBRANCH  49  73
BRANCH  61  84
ATOM     84  C   UNL     1      -9.250  18.200 -14.694  1.00  0.00     0.023 A 
ATOM     85  C   UNL     1      -8.599  19.318 -14.137  1.00  0.00     0.012 A 
ATOM     86  C   UNL     1     -10.122  18.378 -15.786  1.00  0.00     0.148 A 
ATOM     87  C   UNL     1      -8.827  20.596 -14.646  1.00  0.00     0.002 A 
ATOM     88  C   UNL     1     -10.310  19.649 -16.317  1.00  0.00     0.091 A 
ATOM     89  F   UNL     1     -10.749  17.304 -16.288  1.00  0.00    -0.205 F 
ATOM     90  C   UNL     1      -9.670  20.759 -15.743  1.00  0.00     0.022 A 
BRANCH  88  91
ATOM     91  S   UNL     1     -11.300  19.931 -17.789  1.00  0.00     0.127 S 
ATOM     92  O   UNL     1     -12.545  20.442 -17.219  1.00  0.00    -0.237 OA
ATOM     93  O   UNL     1     -10.509  20.924 -18.516  1.00  0.00    -0.237 OA
ATOM     94  O   UNL     1     -11.396  18.638 -18.454  1.00  0.00    -0.744 OA
ENDBRANCH  88  91
ENDBRANCH  61  84
ENDBRANCH  35  36
ENDBRANCH  27  30
ENDBRANCH  25  26
ENDBRANCH   1  25
TORSDOF 15
