REMARK SMILES O=C(CCCC[C@@H]1CCSS1)NCCCCNC(=O)c1ccc(-c2c3nc(c(-c4cccc(S(=O)(=O)[O-])c4F)c4ccc([nH]4)c(-c4cccc(S(=O)(=O)[O-])c4F)c4nc(c(-c5cccc(S(=O)(=O)[O-])c5F)c5ccc2[nH]5)C=C4)C=C3)cc1
REMARK SMILES IDX 14 1 13 2 12 3 1 4 2 5 3 7 4 8 5 9 6 10 7 11 8 12 11 13 9 14
REMARK SMILES IDX 10 15 15 16 16 17 17 18 18 19 19 21 20 22 21 23 82 24 22 25
REMARK SMILES IDX 81 26 23 27 24 28 25 29 75 30 26 31 80 32 74 33 76 34 27 35
REMARK SMILES IDX 79 36 73 37 72 38 28 40 60 41 40 42 59 43 41 44 44 45 58 46
REMARK SMILES IDX 77 47 42 48 43 49 57 51 78 52 45 53 29 54 30 55 38 56 31 57
REMARK SMILES IDX 33 58 39 59 32 60 34 61 35 62 36 63 37 64 61 65 62 66 70 67
REMARK SMILES IDX 63 68 65 69 71 70 64 71 66 72 67 73 68 74 69 75 46 76 47 77
REMARK SMILES IDX 55 78 48 79 50 80 56 81 49 82 51 83 52 84 53 85 54 86
REMARK H PARENT 12 6 17 20 76 39 44 50
REMARK Flexibility Score: inf
ROOT
ATOM      1  C   UNL     1       2.379   3.678   0.323  1.00  0.00     0.023 C 
ENDROOT
BRANCH   1   2
ATOM      2  C   UNL     1       1.921   2.481  -0.504  1.00  0.00     0.116 C 
BRANCH   2   3
ATOM      3  N   UNL     1       2.547   1.254  -0.067  1.00  0.00    -0.356 N 
ATOM      4  O   UNL     1       0.654  -0.047  -0.133  1.00  0.00    -0.275 OA
ATOM      5  C   UNL     1       1.860   0.071   0.059  1.00  0.00     0.219 C 
ATOM      6  H   UNL     1       3.508   1.266   0.151  1.00  0.00     0.163 HD
BRANCH   5   7
ATOM      7  C   UNL     1       2.735  -1.101   0.445  1.00  0.00     0.100 C 
BRANCH   7   8
ATOM      8  C   UNL     1       3.544  -1.633  -0.735  1.00  0.00     0.010 C 
BRANCH   8   9
ATOM      9  C   UNL     1       4.830  -0.878  -1.098  1.00  0.00     0.002 C 
BRANCH   9  10
ATOM     10  C   UNL     1       5.849  -0.589   0.013  1.00  0.00     0.015 C 
BRANCH  10  11
ATOM     11  C   UNL     1       6.611  -1.761   0.658  1.00  0.00     0.059 C 
ATOM     12  C   UNL     1       6.662  -3.080  -0.117  1.00  0.00     0.027 C 
ATOM     13  S   UNL     1       5.930  -2.188   2.295  1.00  0.00    -0.091 SA
ATOM     14  C   UNL     1       7.373  -4.143   0.715  1.00  0.00     0.083 C 
ATOM     15  S   UNL     1       6.636  -4.110   2.370  1.00  0.00    -0.094 SA
ENDBRANCH  10  11
ENDBRANCH   9  10
ENDBRANCH   8   9
ENDBRANCH   7   8
ENDBRANCH   5   7
ENDBRANCH   2   3
ENDBRANCH   1   2
BRANCH   1  16
ATOM     16  C   UNL     1       3.883   3.970   0.268  1.00  0.00     0.023 C 
BRANCH  16  17
ATOM     17  C   UNL     1       4.453   4.215  -1.127  1.00  0.00     0.116 C 
BRANCH  17  18
ATOM     18  N   UNL     1       3.867   5.378  -1.773  1.00  0.00    -0.352 N 
ATOM     19  C   UNL     1       4.475   6.500  -2.283  1.00  0.00     0.251 C 
ATOM     20  H   UNL     1       2.886   5.359  -1.857  1.00  0.00     0.163 HD
ATOM     21  O   UNL     1       3.789   7.455  -2.635  1.00  0.00    -0.269 OA
BRANCH  19  22
ATOM     22  C   UNL     1       5.951   6.571  -2.392  1.00  0.00     0.039 A 
ATOM     23  C   UNL     1       6.598   7.751  -2.013  1.00  0.00     0.014 A 
ATOM     24  C   UNL     1       6.696   5.494  -2.878  1.00  0.00     0.014 A 
ATOM     25  C   UNL     1       7.993   7.826  -2.061  1.00  0.00     0.010 A 
ATOM     26  C   UNL     1       8.089   5.544  -2.853  1.00  0.00     0.010 A 
ATOM     27  C   UNL     1       8.755   6.711  -2.446  1.00  0.00    -0.014 A 
BRANCH  27  28
ATOM     28  C   UNL     1      10.242   6.741  -2.408  1.00  0.00     0.031 A 
ATOM     29  C   UNL     1      11.045   6.553  -3.668  1.00  0.00     0.074 A 
ATOM     30  C   UNL     1      10.875   6.856  -1.223  1.00  0.00     0.049 A 
ATOM     31  N   UNL     1      12.343   6.489  -3.816  1.00  0.00    -0.248 NA
ATOM     32  C   UNL     1      10.292   6.391  -4.923  1.00  0.00     0.031 C 
ATOM     33  C   UNL     1      10.216   6.971   0.080  1.00  0.00     0.029 A 
ATOM     34  N   UNL     1      12.214   6.867  -0.917  1.00  0.00    -0.354 N 
ATOM     35  C   UNL     1      12.562   6.248  -5.167  1.00  0.00     0.074 A 
ATOM     36  C   UNL     1      11.261   6.143  -5.792  1.00  0.00     0.031 C 
ATOM     37  C   UNL     1      11.150   7.042   1.042  1.00  0.00     0.029 A 
ATOM     38  C   UNL     1      12.472   6.943   0.432  1.00  0.00     0.049 A 
ATOM     39  H   UNL     1      12.922   6.825  -1.600  1.00  0.00     0.167 HD
ATOM     40  C   UNL     1      13.737   6.151  -5.835  1.00  0.00     0.034 A 
ATOM     41  C   UNL     1      13.639   6.920   1.107  1.00  0.00     0.034 A 
ATOM     42  C   UNL     1      15.031   6.290  -5.220  1.00  0.00     0.049 A 
ATOM     43  C   UNL     1      14.930   6.834   0.338  1.00  0.00     0.074 A 
ATOM     44  C   UNL     1      16.275   6.287  -5.826  1.00  0.00     0.029 A 
ATOM     45  N   UNL     1      15.250   6.444  -3.860  1.00  0.00    -0.354 N 
ATOM     46  N   UNL     1      15.116   6.757  -0.957  1.00  0.00    -0.248 NA
ATOM     47  C   UNL     1      16.174   6.867   1.122  1.00  0.00     0.031 C 
ATOM     48  C   UNL     1      17.248   6.407  -4.829  1.00  0.00     0.029 A 
ATOM     49  C   UNL     1      16.609   6.524  -3.606  1.00  0.00     0.049 A 
ATOM     50  H   UNL     1      14.544   6.490  -3.176  1.00  0.00     0.167 HD
ATOM     51  C   UNL     1      16.493   6.772  -1.145  1.00  0.00     0.074 A 
ATOM     52  C   UNL     1      17.094   6.886   0.167  1.00  0.00     0.031 C 
ATOM     53  C   UNL     1      17.197   6.688  -2.301  1.00  0.00     0.034 A 
BRANCH  40  54
ATOM     54  C   UNL     1      13.682   5.923  -7.324  1.00  0.00     0.023 A 
ATOM     55  C   UNL     1      13.240   6.959  -8.172  1.00  0.00     0.012 A 
ATOM     56  C   UNL     1      14.130   4.713  -7.889  1.00  0.00     0.148 A 
ATOM     57  C   UNL     1      13.210   6.782  -9.555  1.00  0.00     0.002 A 
ATOM     58  C   UNL     1      14.142   4.561  -9.271  1.00  0.00     0.091 A 
ATOM     59  F   UNL     1      14.530   3.732  -7.067  1.00  0.00    -0.205 F 
ATOM     60  C   UNL     1      13.671   5.589 -10.104  1.00  0.00     0.022 A 
BRANCH  58  61
ATOM     61  S   UNL     1      14.791   3.095 -10.081  1.00  0.00     0.127 S 
ATOM     62  O   UNL     1      13.574   2.500 -10.632  1.00  0.00    -0.237 OA
ATOM     63  O   UNL     1      15.695   3.670 -11.078  1.00  0.00    -0.237 OA
ATOM     64  O   UNL     1      15.448   2.317  -9.040  1.00  0.00    -0.744 OA
ENDBRANCH  58  61
ENDBRANCH  40  54
BRANCH  41  65
ATOM     65  C   UNL     1      13.643   7.025   2.594  1.00  0.00     0.023 A 
ATOM     66  C   UNL     1      14.146   8.189   3.208  1.00  0.00     0.012 A 
ATOM     67  C   UNL     1      13.140   5.986   3.400  1.00  0.00     0.148 A 
ATOM     68  C   UNL     1      14.183   8.300   4.598  1.00  0.00     0.002 A 
ATOM     69  C   UNL     1      13.125   6.128   4.782  1.00  0.00     0.091 A 
ATOM     70  F   UNL     1      12.676   4.883   2.796  1.00  0.00    -0.205 F 
ATOM     71  C   UNL     1      13.664   7.275   5.385  1.00  0.00     0.022 A 
BRANCH  69  72
ATOM     72  S   UNL     1      12.357   4.918   5.864  1.00  0.00     0.127 S 
ATOM     73  O   UNL     1      13.517   4.340   6.537  1.00  0.00    -0.237 OA
ATOM     74  O   UNL     1      11.511   5.763   6.707  1.00  0.00    -0.237 OA
ATOM     75  O   UNL     1      11.620   4.018   4.987  1.00  0.00    -0.744 OA
ENDBRANCH  69  72
ENDBRANCH  41  65
BRANCH  53  76
ATOM     76  C   UNL     1      18.700   6.760  -2.214  1.00  0.00     0.023 A 
ATOM     77  C   UNL     1      19.430   5.682  -1.677  1.00  0.00     0.012 A 
ATOM     78  C   UNL     1      19.392   7.873  -2.732  1.00  0.00     0.148 A 
ATOM     79  C   UNL     1      20.823   5.725  -1.624  1.00  0.00     0.002 A 
ATOM     80  C   UNL     1      20.782   7.886  -2.724  1.00  0.00     0.091 A 
ATOM     81  F   UNL     1      18.680   8.898  -3.223  1.00  0.00    -0.205 F 
ATOM     82  C   UNL     1      21.498   6.820  -2.158  1.00  0.00     0.022 A 
BRANCH  80  83
ATOM     83  S   UNL     1      21.738   9.207  -3.478  1.00  0.00     0.127 S 
ATOM     84  O   UNL     1      22.304   9.871  -2.305  1.00  0.00    -0.237 OA
ATOM     85  O   UNL     1      22.707   8.464  -4.285  1.00  0.00    -0.237 OA
ATOM     86  O   UNL     1      20.791  10.001  -4.249  1.00  0.00    -0.744 OA
ENDBRANCH  80  83
ENDBRANCH  53  76
ENDBRANCH  27  28
ENDBRANCH  19  22
ENDBRANCH  17  18
ENDBRANCH  16  17
ENDBRANCH   1  16
TORSDOF 18
