REMARK SMILES Cn1c(C[NH+](C)C)nnc1[C@@H]1CCC[N@@H+](Cc2ccccc2C(=O)NCCCCNC(=O)c2ccc(-c3c4nc(c(-c5cccc(S(=O)(=O)[O-])c5F)c5ccc([nH]5)c(-c5cccc(S(=O)(=O)[O-])c5F)c5nc(c(-c6cccc(S(=O)(=O)[O-])c6F)c6ccc3[nH]6)C=C5)C=C4)cc2)C1
REMARK SMILES IDX 26 1 25 2 23 3 24 4 22 6 17 7 18 8 19 9 21 10 20 11 16 12
REMARK SMILES IDX 15 13 11 14 12 15 96 16 13 17 14 18 10 20 3 21 8 22 2 23
REMARK SMILES IDX 9 24 1 25 4 26 5 27 6 28 7 29 27 31 28 32 29 33 30 34 31 35
REMARK SMILES IDX 32 37 33 38 34 39 95 40 35 41 94 42 36 43 37 44 38 45 88 46
REMARK SMILES IDX 39 47 93 48 87 49 89 50 40 51 92 52 86 53 85 54 41 56 73 57
REMARK SMILES IDX 53 58 72 59 54 60 57 61 71 62 90 63 55 64 56 65 70 67 91 68
REMARK SMILES IDX 58 69 42 70 43 71 51 72 44 73 46 74 52 75 45 76 47 77 48 78
REMARK SMILES IDX 49 79 50 80 74 81 75 82 83 83 76 84 78 85 84 86 77 87 79 88
REMARK SMILES IDX 80 89 81 90 82 91 59 92 60 93 68 94 61 95 63 96 69 97 62 98
REMARK SMILES IDX 64 99 65 100 66 101 67 102
REMARK H PARENT 25 5 15 19 5 30 30 36 89 55 57 66
REMARK Flexibility Score: inf
ROOT
ATOM      1  C   UNL     1      -4.123   3.608  -0.291  1.00  0.00     0.116 C 
ENDROOT
BRANCH   1   2
ATOM      2  N   UNL     1      -4.151   4.853   0.450  1.00  0.00    -0.352 N 
ATOM      3  C   UNL     1      -4.520   5.152   1.745  1.00  0.00     0.251 C 
ATOM      4  O   UNL     1      -4.282   6.296   2.139  1.00  0.00    -0.269 OA
ATOM      5  H   UNL     1      -3.849   5.633  -0.069  1.00  0.00     0.163 HD
BRANCH   3   6
ATOM      6  C   UNL     1      -5.252   4.235   2.682  1.00  0.00     0.048 A 
ATOM      7  C   UNL     1      -4.994   2.884   2.986  1.00  0.00     0.019 A 
ATOM      8  C   UNL     1      -5.897   2.192   3.832  1.00  0.00     0.010 A 
ATOM      9  C   UNL     1      -6.936   2.842   4.489  1.00  0.00     0.001 A 
ATOM     10  C   UNL     1      -6.265   4.888   3.422  1.00  0.00     0.014 A 
ATOM     11  C   UNL     1      -7.085   4.207   4.326  1.00  0.00     0.001 A 
BRANCH   7  12
ATOM     12  C   UNL     1      -3.788   2.095   2.566  1.00  0.00     0.299 C 
BRANCH  12  13
ATOM     13  N   UNL     1      -2.503   2.470   3.130  1.00  0.00    -0.331 N 
ATOM     14  C   UNL     1      -0.413   3.809   2.958  1.00  0.00     0.113 C 
ATOM     15  C   UNL     1      -0.013   3.330   4.356  1.00  0.00     0.023 C 
ATOM     16  C   UNL     1      -1.931   3.758   2.766  1.00  0.00     0.274 C 
ATOM     17  C   UNL     1      -0.705   2.034   4.768  1.00  0.00     0.062 C 
ATOM     18  C   UNL     1      -2.220   2.046   4.494  1.00  0.00     0.262 C 
ATOM     19  H   UNL     1      -1.941   1.834   2.565  1.00  0.00     0.348 HD
BRANCH  14  20
ATOM     20  C   UNL     1       0.400   3.189   1.843  1.00  0.00     0.141 A 
ATOM     21  C   UNL     1       1.273   1.889   0.282  1.00  0.00     0.187 A 
ATOM     22  N   UNL     1       1.962   3.010   0.323  1.00  0.00    -0.129 NA
ATOM     23  N   UNL     1       0.254   1.970   1.210  1.00  0.00    -0.313 N 
ATOM     24  N   UNL     1       1.420   3.814   1.283  1.00  0.00    -0.135 NA
ATOM     25  C   UNL     1      -0.783   0.998   1.379  1.00  0.00     0.153 C 
BRANCH  21  26
ATOM     26  C   UNL     1       1.504   0.780  -0.701  1.00  0.00     0.340 C 
BRANCH  26  27
ATOM     27  N   UNL     1       0.987  -0.502  -0.263  1.00  0.00    -0.333 N 
ATOM     28  C   UNL     1       1.901  -1.319   0.494  1.00  0.00     0.332 C 
ATOM     29  C   UNL     1       0.034  -1.141  -1.142  1.00  0.00     0.332 C 
ATOM     30  H   UNL     1       0.341  -0.258   0.487  1.00  0.00     0.348 HD
ENDBRANCH  26  27
ENDBRANCH  21  26
ENDBRANCH  14  20
ENDBRANCH  12  13
ENDBRANCH   7  12
ENDBRANCH   3   6
ENDBRANCH   1   2
BRANCH   1  31
ATOM     31  C   UNL     1      -4.112   3.737  -1.814  1.00  0.00     0.023 C 
BRANCH  31  32
ATOM     32  C   UNL     1      -2.845   4.341  -2.434  1.00  0.00     0.023 C 
BRANCH  32  33
ATOM     33  C   UNL     1      -1.535   3.557  -2.295  1.00  0.00     0.116 C 
BRANCH  33  34
ATOM     34  N   UNL     1      -1.523   2.275  -2.990  1.00  0.00    -0.352 N 
ATOM     35  C   UNL     1      -0.556   1.647  -3.747  1.00  0.00     0.251 C 
ATOM     36  H   UNL     1      -2.359   1.764  -2.903  1.00  0.00     0.163 HD
ATOM     37  O   UNL     1      -0.845   0.551  -4.236  1.00  0.00    -0.269 OA
BRANCH  35  38
ATOM     38  C   UNL     1       0.810   2.204  -3.988  1.00  0.00     0.039 A 
ATOM     39  C   UNL     1       1.521   1.765  -5.119  1.00  0.00     0.014 A 
ATOM     40  C   UNL     1       1.445   3.082  -3.107  1.00  0.00     0.014 A 
ATOM     41  C   UNL     1       2.788   2.287  -5.413  1.00  0.00     0.010 A 
ATOM     42  C   UNL     1       2.694   3.616  -3.397  1.00  0.00     0.010 A 
ATOM     43  C   UNL     1       3.347   3.266  -4.579  1.00  0.00    -0.014 A 
BRANCH  43  44
ATOM     44  C   UNL     1       4.433   4.158  -5.038  1.00  0.00     0.031 A 
ATOM     45  C   UNL     1       5.789   4.153  -4.404  1.00  0.00     0.074 A 
ATOM     46  C   UNL     1       4.061   5.140  -5.885  1.00  0.00     0.049 A 
ATOM     47  N   UNL     1       6.824   4.902  -4.680  1.00  0.00    -0.248 NA
ATOM     48  C   UNL     1       6.006   3.209  -3.297  1.00  0.00     0.031 C 
ATOM     49  C   UNL     1       2.699   5.321  -6.406  1.00  0.00     0.029 A 
ATOM     50  N   UNL     1       4.754   6.198  -6.406  1.00  0.00    -0.354 N 
ATOM     51  C   UNL     1       7.815   4.531  -3.780  1.00  0.00     0.074 A 
ATOM     52  C   UNL     1       7.244   3.511  -2.925  1.00  0.00     0.031 C 
ATOM     53  C   UNL     1       2.655   6.427  -7.158  1.00  0.00     0.029 A 
ATOM     54  C   UNL     1       3.977   7.034  -7.173  1.00  0.00     0.049 A 
ATOM     55  H   UNL     1       5.714   6.346  -6.247  1.00  0.00     0.167 HD
ATOM     56  C   UNL     1       9.087   4.996  -3.695  1.00  0.00     0.034 A 
ATOM     57  C   UNL     1       4.300   8.162  -7.829  1.00  0.00     0.034 A 
ATOM     58  C   UNL     1       9.597   6.042  -4.546  1.00  0.00     0.049 A 
ATOM     59  C   UNL     1       5.732   8.602  -7.791  1.00  0.00     0.074 A 
ATOM     60  C   UNL     1      10.887   6.531  -4.642  1.00  0.00     0.029 A 
ATOM     61  N   UNL     1       8.823   6.784  -5.430  1.00  0.00    -0.354 N 
ATOM     62  N   UNL     1       6.729   8.089  -7.110  1.00  0.00    -0.248 NA
ATOM     63  C   UNL     1       6.102   9.731  -8.651  1.00  0.00     0.031 C 
ATOM     64  C   UNL     1      10.884   7.590  -5.559  1.00  0.00     0.029 A 
ATOM     65  C   UNL     1       9.602   7.733  -6.068  1.00  0.00     0.049 A 
ATOM     66  H   UNL     1       7.859   6.653  -5.580  1.00  0.00     0.167 HD
ATOM     67  C   UNL     1       7.856   8.802  -7.490  1.00  0.00     0.074 A 
ATOM     68  C   UNL     1       7.416   9.776  -8.472  1.00  0.00     0.031 C 
ATOM     69  C   UNL     1       9.137   8.667  -7.066  1.00  0.00     0.034 A 
BRANCH  56  70
ATOM     70  C   UNL     1      10.018   4.342  -2.698  1.00  0.00     0.023 A 
ATOM     71  C   UNL     1      10.387   2.992  -2.885  1.00  0.00     0.012 A 
ATOM     72  C   UNL     1      10.575   5.057  -1.619  1.00  0.00     0.148 A 
ATOM     73  C   UNL     1      11.249   2.352  -1.993  1.00  0.00     0.002 A 
ATOM     74  C   UNL     1      11.471   4.425  -0.758  1.00  0.00     0.091 A 
ATOM     75  F   UNL     1      10.217   6.337  -1.444  1.00  0.00    -0.205 F 
ATOM     76  C   UNL     1      11.796   3.071  -0.936  1.00  0.00     0.022 A 
BRANCH  74  77
ATOM     77  S   UNL     1      12.300   5.279   0.589  1.00  0.00     0.127 S 
ATOM     78  O   UNL     1      11.679   4.657   1.760  1.00  0.00    -0.237 OA
ATOM     79  O   UNL     1      13.700   4.902   0.376  1.00  0.00    -0.237 OA
ATOM     80  O   UNL     1      12.018   6.692   0.409  1.00  0.00    -0.744 OA
ENDBRANCH  74  77
ENDBRANCH  56  70
BRANCH  57  81
ATOM     81  C   UNL     1       3.279   8.833  -8.680  1.00  0.00     0.023 A 
ATOM     82  C   UNL     1       3.364   8.696 -10.079  1.00  0.00     0.012 A 
ATOM     83  C   UNL     1       2.177   9.512  -8.122  1.00  0.00     0.148 A 
ATOM     84  C   UNL     1       2.389   9.247 -10.910  1.00  0.00     0.002 A 
ATOM     85  C   UNL     1       1.183  10.017  -8.954  1.00  0.00     0.091 A 
ATOM     86  F   UNL     1       2.107   9.619  -6.788  1.00  0.00    -0.205 F 
ATOM     87  C   UNL     1       1.295   9.899 -10.348  1.00  0.00     0.022 A 
BRANCH  85  88
ATOM     88  S   UNL     1      -0.330  10.752  -8.320  1.00  0.00     0.127 S 
ATOM     89  O   UNL     1      -0.158  12.155  -8.693  1.00  0.00    -0.237 OA
ATOM     90  O   UNL     1      -1.356  10.036  -9.080  1.00  0.00    -0.237 OA
ATOM     91  O   UNL     1      -0.337  10.474  -6.892  1.00  0.00    -0.744 OA
ENDBRANCH  85  88
ENDBRANCH  57  81
BRANCH  69  92
ATOM     92  C   UNL     1      10.161   9.573  -7.691  1.00  0.00     0.023 A 
ATOM     93  C   UNL     1      10.186  10.943  -7.364  1.00  0.00     0.012 A 
ATOM     94  C   UNL     1      11.142   9.045  -8.553  1.00  0.00     0.148 A 
ATOM     95  C   UNL     1      11.154  11.781  -7.912  1.00  0.00     0.002 A 
ATOM     96  C   UNL     1      12.136   9.875  -9.051  1.00  0.00     0.091 A 
ATOM     97  F   UNL     1      11.082   7.743  -8.868  1.00  0.00    -0.205 F 
ATOM     98  C   UNL     1      12.136  11.246  -8.744  1.00  0.00     0.022 A 
BRANCH  96  99
ATOM     99  S   UNL     1      13.498   9.256 -10.043  1.00  0.00     0.127 S 
ATOM    100  O   UNL     1      13.195   9.828 -11.354  1.00  0.00    -0.237 OA
ATOM    101  O   UNL     1      14.658   9.844  -9.374  1.00  0.00    -0.237 OA
ATOM    102  O   UNL     1      13.426   7.803  -9.967  1.00  0.00    -0.744 OA
ENDBRANCH  96  99
ENDBRANCH  69  92
ENDBRANCH  43  44
ENDBRANCH  35  38
ENDBRANCH  33  34
ENDBRANCH  32  33
ENDBRANCH  31  32
ENDBRANCH   1  31
TORSDOF 19
