REMARK SMILES Cc1n[nH]c2c1[C@@]1(C(=O)N([C@@H](C)C(=O)NCCCCNC(=O)c3ccc(-c4c5nc(c(-c6cccc(S(=O)(=O)[O-])c6F)c6ccc([nH]6)c(-c6cccc(S(=O)(=O)[O-])c6F)c6nc(c(-c7cccc(S(=O)(=O)[O-])c7F)c7ccc4[nH]7)C=C6)C=C5)cc3)c3ccccc31)C(C#N)=C(N)O2
REMARK SMILES IDX 18 1 17 2 16 3 15 4 13 5 14 6 11 8 12 9 10 10 1 11 2 12 3 13
REMARK SMILES IDX 6 14 4 15 5 16 7 17 97 19 8 20 91 21 92 22 95 23 9 24 86 25
REMARK SMILES IDX 90 26 87 27 89 28 88 29 93 30 94 31 96 32 19 35 20 36 21 37
REMARK SMILES IDX 22 39 23 40 24 41 85 42 25 43 84 44 26 45 27 46 28 47 78 48
REMARK SMILES IDX 29 49 83 50 77 51 79 52 30 53 82 54 76 55 75 56 31 58 63 59
REMARK SMILES IDX 43 60 62 61 44 62 47 63 61 64 80 65 45 66 46 67 60 69 81 70
REMARK SMILES IDX 48 71 32 72 33 73 41 74 34 75 36 76 42 77 35 78 37 79 38 80
REMARK SMILES IDX 39 81 40 82 64 83 65 84 73 85 66 86 68 87 74 88 67 89 69 90
REMARK SMILES IDX 70 91 71 92 72 93 49 94 50 95 58 96 51 97 53 98 59 99 52 100
REMARK SMILES IDX 54 101 55 102 56 103 57 104
REMARK H PARENT 15 7 4 18 96 33 96 34 20 38 79 57 47 68
REMARK Flexibility Score: inf
ROOT
ATOM      1  C   UNL     1      -6.243  -0.131   0.347  1.00  0.00     0.023 C 
ENDROOT
BRANCH   1   2
ATOM      2  C   UNL     1      -4.752   0.075   0.089  1.00  0.00     0.023 C 
BRANCH   2   3
ATOM      3  C   UNL     1      -4.371   0.412  -1.357  1.00  0.00     0.116 C 
BRANCH   3   4
ATOM      4  N   UNL     1      -4.407   1.839  -1.619  1.00  0.00    -0.354 N 
ATOM      5  C   UNL     1      -3.434   2.774  -1.788  1.00  0.00     0.242 C 
ATOM      6  O   UNL     1      -3.822   3.908  -2.104  1.00  0.00    -0.273 OA
ATOM      7  H   UNL     1      -5.319   2.204  -1.687  1.00  0.00     0.163 HD
BRANCH   5   8
ATOM      8  C   UNL     1      -1.914   2.529  -1.610  1.00  0.00     0.176 C 
ATOM      9  C   UNL     1      -1.298   1.515  -2.567  1.00  0.00     0.042 C 
BRANCH   8  10
ATOM     10  N   UNL     1      -1.522   2.368  -0.213  1.00  0.00    -0.298 N 
ATOM     11  C   UNL     1       1.327  -0.069   0.413  1.00  0.00     0.069 C 
ATOM     12  C   UNL     1       0.773  -0.238   1.781  1.00  0.00     0.068 A 
ATOM     13  N   UNL     1       1.246  -1.222   2.566  1.00  0.00    -0.177 NA
ATOM     14  C   UNL     1      -0.308   0.444   2.402  1.00  0.00     0.063 A 
ATOM     15  N   UNL     1       0.407  -1.235   3.622  1.00  0.00    -0.246 N 
ATOM     16  C   UNL     1      -0.529  -0.255   3.559  1.00  0.00     0.222 A 
ATOM     17  C   UNL     1      -1.286   1.490   1.979  1.00  0.00     0.149 C 
ATOM     18  H   UNL     1       0.468  -1.885   4.359  1.00  0.00     0.193 HD
ATOM     19  O   UNL     1      -1.529  -0.115   4.418  1.00  0.00    -0.422 OA
ATOM     20  C   UNL     1      -1.700   1.198   0.528  1.00  0.00     0.248 C 
ATOM     21  C   UNL     1      -0.551   2.796   1.830  1.00  0.00     0.002 A 
ATOM     22  C   UNL     1      -2.485   1.553   2.932  1.00  0.00     0.114 C 
ATOM     23  C   UNL     1      -2.539   0.799   4.069  1.00  0.00     0.208 C 
ATOM     24  O   UNL     1      -1.996   0.099   0.094  1.00  0.00    -0.273 OA
ATOM     25  C   UNL     1      -0.769   3.297   0.536  1.00  0.00     0.050 A 
ATOM     26  C   UNL     1       0.230   3.485   2.749  1.00  0.00     0.008 A 
ATOM     27  C   UNL     1      -0.206   4.496   0.138  1.00  0.00     0.027 A 
ATOM     28  C   UNL     1       0.818   4.683   2.346  1.00  0.00     0.001 A 
ATOM     29  C   UNL     1       0.601   5.184   1.052  1.00  0.00     0.002 A 
BRANCH  22  30
ATOM     30  C   UNL     1      -3.637   2.514   2.685  1.00  0.00     0.102 C 
ATOM     31  N   UNL     1      -4.592   3.310   2.480  1.00  0.00    -0.193 NA
ENDBRANCH  22  30
BRANCH  23  32
ATOM     32  N   UNL     1      -3.539   0.837   4.995  1.00  0.00    -0.369 N 
ATOM     33  H   UNL     1      -4.307   1.439   4.865  1.00  0.00     0.159 HD
ATOM     34  H   UNL     1      -3.494   0.263   5.793  1.00  0.00     0.159 HD
ENDBRANCH  23  32
ENDBRANCH   8  10
ENDBRANCH   5   8
ENDBRANCH   3   4
ENDBRANCH   2   3
ENDBRANCH   1   2
BRANCH   1  35
ATOM     35  C   UNL     1      -6.839  -1.294  -0.445  1.00  0.00     0.116 C 
BRANCH  35  36
ATOM     36  N   UNL     1      -6.153  -2.550  -0.216  1.00  0.00    -0.352 N 
ATOM     37  C   UNL     1      -6.368  -3.627   0.597  1.00  0.00     0.251 C 
ATOM     38  H   UNL     1      -5.348  -2.651  -0.774  1.00  0.00     0.163 HD
ATOM     39  O   UNL     1      -5.665  -4.617   0.374  1.00  0.00    -0.269 OA
BRANCH  37  40
ATOM     40  C   UNL     1      -7.314  -3.660   1.743  1.00  0.00     0.039 A 
ATOM     41  C   UNL     1      -8.099  -2.590   2.169  1.00  0.00     0.014 A 
ATOM     42  C   UNL     1      -7.329  -4.851   2.497  1.00  0.00     0.014 A 
ATOM     43  C   UNL     1      -8.806  -2.674   3.359  1.00  0.00     0.010 A 
ATOM     44  C   UNL     1      -8.045  -4.946   3.684  1.00  0.00     0.010 A 
ATOM     45  C   UNL     1      -8.748  -3.838   4.133  1.00  0.00    -0.014 A 
BRANCH  45  46
ATOM     46  C   UNL     1      -9.600  -3.892   5.315  1.00  0.00     0.031 A 
ATOM     47  C   UNL     1     -11.041  -3.750   4.970  1.00  0.00     0.074 A 
ATOM     48  C   UNL     1      -9.149  -4.102   6.570  1.00  0.00     0.049 A 
ATOM     49  N   UNL     1     -11.806  -2.735   5.203  1.00  0.00    -0.248 NA
ATOM     50  C   UNL     1     -11.646  -4.761   4.085  1.00  0.00     0.031 C 
ATOM     51  C   UNL     1      -7.806  -4.533   6.969  1.00  0.00     0.029 A 
ATOM     52  N   UNL     1      -9.825  -4.088   7.758  1.00  0.00    -0.354 N 
ATOM     53  C   UNL     1     -13.063  -3.109   4.733  1.00  0.00     0.074 A 
ATOM     54  C   UNL     1     -12.864  -4.252   3.885  1.00  0.00     0.031 C 
ATOM     55  C   UNL     1      -7.841  -4.986   8.244  1.00  0.00     0.029 A 
ATOM     56  C   UNL     1      -9.158  -4.732   8.801  1.00  0.00     0.049 A 
ATOM     57  H   UNL     1     -10.706  -3.661   7.868  1.00  0.00     0.167 HD
ATOM     58  C   UNL     1     -14.193  -2.647   5.335  1.00  0.00     0.034 A 
ATOM     59  C   UNL     1      -9.684  -5.074  10.005  1.00  0.00     0.034 A 
ATOM     60  C   UNL     1     -13.907  -1.536   6.197  1.00  0.00     0.049 A 
ATOM     61  C   UNL     1     -10.840  -4.181  10.229  1.00  0.00     0.074 A 
ATOM     62  C   UNL     1     -13.650  -0.191   6.061  1.00  0.00     0.029 A 
ATOM     63  N   UNL     1     -13.457  -1.924   7.429  1.00  0.00    -0.354 N 
ATOM     64  N   UNL     1     -10.731  -2.894  10.398  1.00  0.00    -0.248 NA
ATOM     65  C   UNL     1     -12.188  -4.677   9.968  1.00  0.00     0.031 C 
ATOM     66  C   UNL     1     -12.889   0.184   7.207  1.00  0.00     0.029 A 
ATOM     67  C   UNL     1     -12.745  -0.928   8.033  1.00  0.00     0.049 A 
ATOM     68  H   UNL     1     -13.625  -2.808   7.829  1.00  0.00     0.167 HD
ATOM     69  C   UNL     1     -11.885  -2.396   9.829  1.00  0.00     0.074 A 
ATOM     70  C   UNL     1     -12.812  -3.517   9.763  1.00  0.00     0.031 C 
ATOM     71  C   UNL     1     -11.871  -1.222   9.142  1.00  0.00     0.034 A 
BRANCH  58  72
ATOM     72  C   UNL     1     -15.437  -3.479   5.550  1.00  0.00     0.023 A 
ATOM     73  C   UNL     1     -16.610  -2.822   5.981  1.00  0.00     0.012 A 
ATOM     74  C   UNL     1     -15.426  -4.891   5.634  1.00  0.00     0.148 A 
ATOM     75  C   UNL     1     -17.716  -3.536   6.458  1.00  0.00     0.002 A 
ATOM     76  C   UNL     1     -16.550  -5.600   6.039  1.00  0.00     0.091 A 
ATOM     77  F   UNL     1     -14.279  -5.554   5.459  1.00  0.00    -0.205 F 
ATOM     78  C   UNL     1     -17.694  -4.926   6.471  1.00  0.00     0.022 A 
BRANCH  76  79
ATOM     79  S   UNL     1     -16.578  -7.397   6.061  1.00  0.00     0.127 S 
ATOM     80  O   UNL     1     -16.615  -7.672   7.494  1.00  0.00    -0.237 OA
ATOM     81  O   UNL     1     -17.820  -7.681   5.341  1.00  0.00    -0.237 OA
ATOM     82  O   UNL     1     -15.372  -7.815   5.359  1.00  0.00    -0.744 OA
ENDBRANCH  76  79
ENDBRANCH  58  72
BRANCH  59  83
ATOM     83  C   UNL     1      -9.457  -6.239  10.903  1.00  0.00     0.023 A 
ATOM     84  C   UNL     1     -10.040  -6.225  12.193  1.00  0.00     0.012 A 
ATOM     85  C   UNL     1      -8.997  -7.475  10.404  1.00  0.00     0.148 A 
ATOM     86  C   UNL     1     -10.258  -7.408  12.909  1.00  0.00     0.002 A 
ATOM     87  C   UNL     1      -9.209  -8.650  11.126  1.00  0.00     0.091 A 
ATOM     88  F   UNL     1      -8.444  -7.516   9.186  1.00  0.00    -0.205 F 
ATOM     89  C   UNL     1      -9.863  -8.623  12.364  1.00  0.00     0.022 A 
BRANCH  87  90
ATOM     90  S   UNL     1      -8.735 -10.262  10.485  1.00  0.00     0.127 S 
ATOM     91  O   UNL     1      -8.134 -10.894  11.660  1.00  0.00    -0.237 OA
ATOM     92  O   UNL     1     -10.023 -10.818  10.082  1.00  0.00    -0.237 OA
ATOM     93  O   UNL     1      -7.792  -9.992   9.406  1.00  0.00    -0.744 OA
ENDBRANCH  87  90
ENDBRANCH  59  83
BRANCH  71  94
ATOM     94  C   UNL     1     -10.791  -0.237   9.449  1.00  0.00     0.023 A 
ATOM     95  C   UNL     1      -9.470  -0.366   8.981  1.00  0.00     0.012 A 
ATOM     96  C   UNL     1     -11.187   0.939  10.101  1.00  0.00     0.148 A 
ATOM     97  C   UNL     1      -8.563   0.686   9.147  1.00  0.00     0.002 A 
ATOM     98  C   UNL     1     -10.299   1.993  10.228  1.00  0.00     0.091 A 
ATOM     99  F   UNL     1     -12.453   1.018  10.539  1.00  0.00    -0.205 F 
ATOM    100  C   UNL     1      -8.983   1.871   9.754  1.00  0.00     0.022 A 
BRANCH  98 101
ATOM    101  S   UNL     1     -10.811   3.574  10.899  1.00  0.00     0.127 S 
ATOM    102  O   UNL     1      -9.986   3.677  12.101  1.00  0.00    -0.237 OA
ATOM    103  O   UNL     1     -10.445   4.494   9.822  1.00  0.00    -0.237 OA
ATOM    104  O   UNL     1     -12.245   3.470  11.141  1.00  0.00    -0.744 OA
ENDBRANCH  98 101
ENDBRANCH  71  94
ENDBRANCH  45  46
ENDBRANCH  37  40
ENDBRANCH  35  36
ENDBRANCH   1  35
TORSDOF 17
