REMARK SMILES COCCCC(=O)N1CCCC[C@@H]1CCC(=O)NCCCCNC(=O)c1ccc(-c2c3nc(c(-c4cccc(S(=O)(=O)[O-])c4F)c4ccc([nH]4)c(-c4cccc(S(=O)(=O)[O-])c4F)c4nc(c(-c5cccc(S(=O)(=O)[O-])c5F)c5ccc2[nH]5)C=C4)C=C3)cc1
REMARK SMILES IDX 16 1 17 2 18 3 15 5 14 6 13 7 8 8 9 9 10 10 12 11 11 12 6 13
REMARK SMILES IDX 7 14 5 15 4 16 3 17 2 18 1 19 19 20 20 21 21 22 22 23 23 24
REMARK SMILES IDX 24 25 25 27 26 28 27 29 88 30 28 31 87 32 29 33 30 34 31 35
REMARK SMILES IDX 81 36 32 37 86 38 80 39 82 40 33 41 85 42 79 43 78 44 34 46
REMARK SMILES IDX 66 47 46 48 65 49 47 50 50 51 64 52 83 53 48 54 49 55 63 57
REMARK SMILES IDX 84 58 51 59 35 60 36 61 44 62 37 63 39 64 45 65 38 66 40 67
REMARK SMILES IDX 41 68 42 69 43 70 67 71 68 72 76 73 69 74 71 75 77 76 70 77
REMARK SMILES IDX 72 78 73 79 74 80 75 81 52 82 53 83 61 84 54 85 56 86 62 87
REMARK SMILES IDX 55 88 57 89 58 90 59 91 60 92
REMARK H PARENT 18 4 23 26 82 45 50 56
REMARK Flexibility Score: inf
ROOT
ATOM      1  C   UNL     1       1.407   3.580   1.618  1.00  0.00     0.220 C 
ATOM      2  O   UNL     1       0.186   3.619   1.782  1.00  0.00    -0.275 OA
ATOM      3  N   UNL     1       1.886   3.667   0.347  1.00  0.00    -0.356 N 
ATOM      4  H   UNL     1       1.196   3.841  -0.333  1.00  0.00     0.163 HD
ENDROOT
BRANCH   1   5
ATOM      5  C   UNL     1       2.335   3.416   2.811  1.00  0.00     0.102 C 
BRANCH   5   6
ATOM      6  C   UNL     1       2.454   1.953   3.258  1.00  0.00     0.035 C 
BRANCH   6   7
ATOM      7  C   UNL     1       3.508   1.186   2.446  1.00  0.00     0.085 C 
ATOM      8  N   UNL     1       3.240  -0.227   2.187  1.00  0.00    -0.340 N 
ATOM      9  C   UNL     1       4.176  -0.893   1.281  1.00  0.00     0.120 C 
ATOM     10  C   UNL     1       5.635  -0.656   1.704  1.00  0.00     0.022 C 
ATOM     11  C   UNL     1       4.928   1.403   2.970  1.00  0.00     0.025 C 
ATOM     12  C   UNL     1       5.939   0.816   1.987  1.00  0.00     0.004 C 
BRANCH   8  13
ATOM     13  C   UNL     1       2.501  -0.991   3.070  1.00  0.00     0.222 C 
ATOM     14  O   UNL     1       2.693  -0.982   4.283  1.00  0.00    -0.275 OA
BRANCH  13  15
ATOM     15  C   UNL     1       1.302  -1.685   2.441  1.00  0.00     0.102 C 
BRANCH  15  16
ATOM     16  C   UNL     1       0.049  -0.802   2.571  1.00  0.00     0.038 C 
BRANCH  16  17
ATOM     17  C   UNL     1      -0.173   0.117   1.368  1.00  0.00     0.160 C 
BRANCH  17  18
ATOM     18  O   UNL     1      -0.599  -0.696   0.277  1.00  0.00    -0.385 OA
ATOM     19  C   UNL     1       0.205  -0.540  -0.883  1.00  0.00     0.194 C 
ENDBRANCH  17  18
ENDBRANCH  16  17
ENDBRANCH  15  16
ENDBRANCH  13  15
ENDBRANCH   8  13
ENDBRANCH   6   7
ENDBRANCH   5   6
ENDBRANCH   1   5
BRANCH   3  20
ATOM     20  C   UNL     1       3.234   3.548  -0.188  1.00  0.00     0.116 C 
BRANCH  20  21
ATOM     21  C   UNL     1       3.417   2.200  -0.899  1.00  0.00     0.023 C 
BRANCH  21  22
ATOM     22  C   UNL     1       3.588   2.271  -2.408  1.00  0.00     0.023 C 
BRANCH  22  23
ATOM     23  C   UNL     1       4.847   2.994  -2.865  1.00  0.00     0.116 C 
BRANCH  23  24
ATOM     24  N   UNL     1       6.095   2.407  -2.381  1.00  0.00    -0.352 N 
ATOM     25  C   UNL     1       7.301   2.310  -3.047  1.00  0.00     0.251 C 
ATOM     26  H   UNL     1       6.073   2.036  -1.469  1.00  0.00     0.163 HD
ATOM     27  O   UNL     1       8.259   1.752  -2.536  1.00  0.00    -0.269 OA
BRANCH  25  28
ATOM     28  C   UNL     1       7.379   2.849  -4.423  1.00  0.00     0.039 A 
ATOM     29  C   UNL     1       7.750   1.996  -5.464  1.00  0.00     0.014 A 
ATOM     30  C   UNL     1       6.924   4.142  -4.686  1.00  0.00     0.014 A 
ATOM     31  C   UNL     1       7.547   2.402  -6.784  1.00  0.00     0.010 A 
ATOM     32  C   UNL     1       6.632   4.503  -5.994  1.00  0.00     0.010 A 
ATOM     33  C   UNL     1       6.921   3.630  -7.056  1.00  0.00    -0.014 A 
BRANCH  33  34
ATOM     34  C   UNL     1       6.508   4.018  -8.429  1.00  0.00     0.031 A 
ATOM     35  C   UNL     1       7.036   5.287  -9.039  1.00  0.00     0.074 A 
ATOM     36  C   UNL     1       5.553   3.308  -9.066  1.00  0.00     0.049 A 
ATOM     37  N   UNL     1       6.687   5.873 -10.153  1.00  0.00    -0.248 NA
ATOM     38  C   UNL     1       8.059   6.017  -8.271  1.00  0.00     0.031 C 
ATOM     39  C   UNL     1       4.891   2.111  -8.541  1.00  0.00     0.029 A 
ATOM     40  N   UNL     1       4.946   3.512 -10.281  1.00  0.00    -0.354 N 
ATOM     41  C   UNL     1       7.406   7.061 -10.196  1.00  0.00     0.074 A 
ATOM     42  C   UNL     1       8.184   7.130  -8.978  1.00  0.00     0.031 C 
ATOM     43  C   UNL     1       3.977   1.686  -9.428  1.00  0.00     0.029 A 
ATOM     44  C   UNL     1       3.961   2.595 -10.569  1.00  0.00     0.049 A 
ATOM     45  H   UNL     1       5.192   4.246 -10.889  1.00  0.00     0.167 HD
ATOM     46  C   UNL     1       7.445   7.994 -11.175  1.00  0.00     0.034 A 
ATOM     47  C   UNL     1       3.132   2.501 -11.629  1.00  0.00     0.034 A 
ATOM     48  C   UNL     1       6.732   7.883 -12.417  1.00  0.00     0.049 A 
ATOM     49  C   UNL     1       3.243   3.516 -12.734  1.00  0.00     0.074 A 
ATOM     50  C   UNL     1       6.798   8.712 -13.523  1.00  0.00     0.029 A 
ATOM     51  N   UNL     1       5.825   6.880 -12.720  1.00  0.00    -0.354 N 
ATOM     52  N   UNL     1       4.055   4.541 -12.832  1.00  0.00    -0.248 NA
ATOM     53  C   UNL     1       2.347   3.347 -13.888  1.00  0.00     0.031 C 
ATOM     54  C   UNL     1       5.924   8.213 -14.493  1.00  0.00     0.029 A 
ATOM     55  C   UNL     1       5.319   7.070 -13.994  1.00  0.00     0.049 A 
ATOM     56  H   UNL     1       5.578   6.141 -12.118  1.00  0.00     0.167 HD
ATOM     57  C   UNL     1       3.788   5.121 -14.067  1.00  0.00     0.074 A 
ATOM     58  C   UNL     1       2.755   4.321 -14.691  1.00  0.00     0.031 C 
ATOM     59  C   UNL     1       4.335   6.229 -14.624  1.00  0.00     0.034 A 
BRANCH  46  60
ATOM     60  C   UNL     1       8.351   9.178 -10.972  1.00  0.00     0.023 A 
ATOM     61  C   UNL     1       9.747   9.001 -11.057  1.00  0.00     0.012 A 
ATOM     62  C   UNL     1       7.828  10.465 -10.743  1.00  0.00     0.148 A 
ATOM     63  C   UNL     1      10.611  10.080 -10.881  1.00  0.00     0.002 A 
ATOM     64  C   UNL     1       8.696  11.543 -10.610  1.00  0.00     0.091 A 
ATOM     65  F   UNL     1       6.499  10.608 -10.640  1.00  0.00    -0.205 F 
ATOM     66  C   UNL     1      10.086  11.351 -10.669  1.00  0.00     0.022 A 
BRANCH  64  67
ATOM     67  S   UNL     1       8.114  13.230 -10.404  1.00  0.00     0.127 S 
ATOM     68  O   UNL     1       8.400  13.469  -8.990  1.00  0.00    -0.237 OA
ATOM     69  O   UNL     1       8.971  13.969 -11.333  1.00  0.00    -0.237 OA
ATOM     70  O   UNL     1       6.704  13.213 -10.766  1.00  0.00    -0.744 OA
ENDBRANCH  64  67
ENDBRANCH  46  60
BRANCH  47  71
ATOM     71  C   UNL     1       2.177   1.361 -11.730  1.00  0.00     0.023 A 
ATOM     72  C   UNL     1       2.417   0.349 -12.680  1.00  0.00     0.012 A 
ATOM     73  C   UNL     1       1.061   1.251 -10.879  1.00  0.00     0.148 A 
ATOM     74  C   UNL     1       1.549  -0.738 -12.799  1.00  0.00     0.002 A 
ATOM     75  C   UNL     1       0.229   0.140 -10.967  1.00  0.00     0.091 A 
ATOM     76  F   UNL     1       0.839   2.231  -9.991  1.00  0.00    -0.205 F 
ATOM     77  C   UNL     1       0.462  -0.848 -11.936  1.00  0.00     0.022 A 
BRANCH  75  78
ATOM     78  S   UNL     1      -1.112  -0.147  -9.806  1.00  0.00     0.127 S 
ATOM     79  O   UNL     1      -2.283   0.179 -10.614  1.00  0.00    -0.237 OA
ATOM     80  O   UNL     1      -0.950  -1.569  -9.497  1.00  0.00    -0.237 OA
ATOM     81  O   UNL     1      -0.845   0.740  -8.681  1.00  0.00    -0.744 OA
ENDBRANCH  75  78
ENDBRANCH  47  71
BRANCH  59  82
ATOM     82  C   UNL     1       3.849   6.641 -15.988  1.00  0.00     0.023 A 
ATOM     83  C   UNL     1       2.592   7.262 -16.117  1.00  0.00     0.012 A 
ATOM     84  C   UNL     1       4.678   6.506 -17.119  1.00  0.00     0.148 A 
ATOM     85  C   UNL     1       2.158   7.727 -17.357  1.00  0.00     0.002 A 
ATOM     86  C   UNL     1       4.256   7.012 -18.343  1.00  0.00     0.091 A 
ATOM     87  F   UNL     1       5.863   5.896 -16.975  1.00  0.00    -0.205 F 
ATOM     88  C   UNL     1       2.994   7.615 -18.465  1.00  0.00     0.022 A 
BRANCH  86  89
ATOM     89  S   UNL     1       5.303   6.995 -19.803  1.00  0.00     0.127 S 
ATOM     90  O   UNL     1       4.652   5.975 -20.624  1.00  0.00    -0.237 OA
ATOM     91  O   UNL     1       5.160   8.363 -20.303  1.00  0.00    -0.237 OA
ATOM     92  O   UNL     1       6.641   6.661 -19.335  1.00  0.00    -0.744 OA
ENDBRANCH  86  89
ENDBRANCH  59  82
ENDBRANCH  33  34
ENDBRANCH  25  28
ENDBRANCH  23  24
ENDBRANCH  22  23
ENDBRANCH  21  22
ENDBRANCH  20  21
ENDBRANCH   3  20
TORSDOF 21
