REMARK SMILES CO[C@H]1C[C@H](C(=O)NCCCCNC(=O)c2ccc(-c3c4nc(c(-c5cccc(S(=O)(=O)[O-])c5F)c5ccc([nH]5)c(-c5cccc(S(=O)(=O)[O-])c5F)c5nc(c(-c6cccc(S(=O)(=O)[O-])c6F)c6ccc3[nH]6)C=C5)C=C4)cc2)N(S(=O)(=O)c2ccc(F)cc2Cl)C1
REMARK SMILES IDX 11 1 10 2 9 3 8 4 6 5 7 6 5 8 3 9 4 10 91 11 79 12 2 13 1 14
REMARK SMILES IDX 80 15 81 16 82 17 83 18 84 19 89 20 85 21 88 22 90 23 86 24
REMARK SMILES IDX 87 25 12 26 13 27 14 28 15 30 16 31 17 32 78 33 18 34 77 35
REMARK SMILES IDX 19 36 20 37 21 38 71 39 22 40 76 41 70 42 72 43 23 44 75 45
REMARK SMILES IDX 69 46 68 47 24 49 56 50 36 51 55 52 37 53 40 54 54 55 73 56
REMARK SMILES IDX 38 57 39 58 53 60 74 61 41 62 25 63 26 64 34 65 27 66 29 67
REMARK SMILES IDX 35 68 28 69 30 70 31 71 32 72 33 73 57 74 58 75 66 76 59 77
REMARK SMILES IDX 61 78 67 79 60 80 62 81 63 82 64 83 65 84 42 85 43 86 51 87
REMARK SMILES IDX 44 88 46 89 52 90 45 91 47 92 48 93 49 94 50 95
REMARK H PARENT 8 7 13 29 72 48 40 59
REMARK Flexibility Score: inf
ROOT
ATOM      1  C   UNL     1      -1.542   1.675  -0.025  1.00  0.00     0.023 C 
ENDROOT
BRANCH   1   2
ATOM      2  C   UNL     1      -0.658   0.562   0.533  1.00  0.00     0.023 C 
BRANCH   2   3
ATOM      3  C   UNL     1      -0.268  -0.540  -0.458  1.00  0.00     0.116 C 
BRANCH   3   4
ATOM      4  N   UNL     1       1.074  -0.393  -0.988  1.00  0.00    -0.355 N 
ATOM      5  C   UNL     1       2.279  -0.929  -0.657  1.00  0.00     0.238 C 
ATOM      6  O   UNL     1       3.163  -0.812  -1.519  1.00  0.00    -0.273 OA
ATOM      7  H   UNL     1       1.123   0.228  -1.750  1.00  0.00     0.163 HD
BRANCH   5   8
ATOM      8  C   UNL     1       2.630  -1.651   0.651  1.00  0.00     0.165 C 
ATOM      9  C   UNL     1       0.958  -1.837   2.371  1.00  0.00     0.135 C 
ATOM     10  C   UNL     1       2.179  -1.041   1.963  1.00  0.00     0.064 C 
ATOM     11  C   UNL     1       1.097  -3.194   1.675  1.00  0.00     0.135 C 
ATOM     12  N   UNL     1       2.257  -3.100   0.717  1.00  0.00    -0.183 NA
BRANCH   9  13
ATOM     13  O   UNL     1       0.894  -1.934   3.792  1.00  0.00    -0.380 OA
ATOM     14  C   UNL     1      -0.434  -2.168   4.250  1.00  0.00     0.195 C 
ENDBRANCH   9  13
BRANCH  12  15
ATOM     15  S   UNL     1       3.509  -4.183   1.199  1.00  0.00     0.245 S 
ATOM     16  O   UNL     1       4.108  -3.663   2.412  1.00  0.00    -0.207 OA
ATOM     17  O   UNL     1       2.905  -5.500   1.230  1.00  0.00    -0.207 OA
BRANCH  15  18
ATOM     18  C   UNL     1       4.725  -4.223  -0.100  1.00  0.00     0.101 A 
ATOM     19  C   UNL     1       4.606  -5.274  -1.035  1.00  0.00     0.026 A 
ATOM     20  C   UNL     1       5.882  -3.432  -0.110  1.00  0.00     0.064 A 
ATOM     21  C   UNL     1       5.614  -5.518  -1.969  1.00  0.00     0.041 A 
ATOM     22  C   UNL     1       6.870  -3.662  -1.078  1.00  0.00     0.061 A 
ATOM     23  Cl  UNL     1       6.252  -2.179   1.020  1.00  0.00    -0.083 Cl
ATOM     24  C   UNL     1       6.734  -4.703  -1.986  1.00  0.00     0.124 A 
ATOM     25  F   UNL     1       7.714  -4.943  -2.866  1.00  0.00    -0.207 F 
ENDBRANCH  15  18
ENDBRANCH  12  15
ENDBRANCH   5   8
ENDBRANCH   3   4
ENDBRANCH   2   3
ENDBRANCH   1   2
BRANCH   1  26
ATOM     26  C   UNL     1      -2.910   1.232  -0.537  1.00  0.00     0.116 C 
BRANCH  26  27
ATOM     27  N   UNL     1      -3.715   0.494   0.433  1.00  0.00    -0.352 N 
ATOM     28  C   UNL     1      -5.090   0.475   0.544  1.00  0.00     0.251 C 
ATOM     29  H   UNL     1      -3.219  -0.055   1.082  1.00  0.00     0.163 HD
ATOM     30  O   UNL     1      -5.642  -0.164   1.433  1.00  0.00    -0.269 OA
BRANCH  28  31
ATOM     31  C   UNL     1      -5.876   1.291  -0.402  1.00  0.00     0.039 A 
ATOM     32  C   UNL     1      -6.679   2.318   0.100  1.00  0.00     0.014 A 
ATOM     33  C   UNL     1      -5.683   1.137  -1.776  1.00  0.00     0.014 A 
ATOM     34  C   UNL     1      -7.197   3.271  -0.780  1.00  0.00     0.010 A 
ATOM     35  C   UNL     1      -6.141   2.125  -2.639  1.00  0.00     0.010 A 
ATOM     36  C   UNL     1      -6.875   3.216  -2.147  1.00  0.00    -0.014 A 
BRANCH  36  37
ATOM     37  C   UNL     1      -7.213   4.328  -3.072  1.00  0.00     0.031 A 
ATOM     38  C   UNL     1      -8.101   4.080  -4.257  1.00  0.00     0.074 A 
ATOM     39  C   UNL     1      -6.592   5.518  -2.928  1.00  0.00     0.049 A 
ATOM     40  N   UNL     1      -8.402   4.886  -5.241  1.00  0.00    -0.248 NA
ATOM     41  C   UNL     1      -8.704   2.741  -4.370  1.00  0.00     0.031 C 
ATOM     42  C   UNL     1      -5.627   5.848  -1.875  1.00  0.00     0.029 A 
ATOM     43  N   UNL     1      -6.643   6.655  -3.696  1.00  0.00    -0.354 N 
ATOM     44  C   UNL     1      -9.187   4.142  -6.113  1.00  0.00     0.074 A 
ATOM     45  C   UNL     1      -9.301   2.814  -5.552  1.00  0.00     0.031 C 
ATOM     46  C   UNL     1      -5.168   7.094  -2.072  1.00  0.00     0.029 A 
ATOM     47  C   UNL     1      -5.778   7.642  -3.279  1.00  0.00     0.049 A 
ATOM     48  H   UNL     1      -7.241   6.756  -4.471  1.00  0.00     0.167 HD
ATOM     49  C   UNL     1      -9.780   4.539  -7.262  1.00  0.00     0.034 A 
ATOM     50  C   UNL     1      -5.492   8.845  -3.817  1.00  0.00     0.034 A 
ATOM     51  C   UNL     1      -9.718   5.878  -7.781  1.00  0.00     0.049 A 
ATOM     52  C   UNL     1      -6.211   9.277  -5.066  1.00  0.00     0.074 A 
ATOM     53  C   UNL     1     -10.405   6.413  -8.856  1.00  0.00     0.029 A 
ATOM     54  N   UNL     1      -8.917   6.887  -7.272  1.00  0.00    -0.354 N 
ATOM     55  N   UNL     1      -7.113   8.629  -5.762  1.00  0.00    -0.248 NA
ATOM     56  C   UNL     1      -5.896  10.615  -5.588  1.00  0.00     0.031 C 
ATOM     57  C   UNL     1     -10.002   7.744  -9.011  1.00  0.00     0.029 A 
ATOM     58  C   UNL     1      -9.073   8.037  -8.025  1.00  0.00     0.049 A 
ATOM     59  H   UNL     1      -8.324   6.798  -6.491  1.00  0.00     0.167 HD
ATOM     60  C   UNL     1      -7.488   9.485  -6.790  1.00  0.00     0.074 A 
ATOM     61  C   UNL     1      -6.738  10.711  -6.609  1.00  0.00     0.031 C 
ATOM     62  C   UNL     1      -8.357   9.267  -7.807  1.00  0.00     0.034 A 
BRANCH  49  63
ATOM     63  C   UNL     1     -10.608   3.530  -8.010  1.00  0.00     0.023 A 
ATOM     64  C   UNL     1     -11.872   3.163  -7.507  1.00  0.00     0.012 A 
ATOM     65  C   UNL     1     -10.173   3.009  -9.244  1.00  0.00     0.148 A 
ATOM     66  C   UNL     1     -12.682   2.273  -8.209  1.00  0.00     0.002 A 
ATOM     67  C   UNL     1     -11.003   2.151  -9.956  1.00  0.00     0.091 A 
ATOM     68  F   UNL     1      -8.957   3.354  -9.692  1.00  0.00    -0.205 F 
ATOM     69  C   UNL     1     -12.254   1.777  -9.437  1.00  0.00     0.022 A 
BRANCH  67  70
ATOM     70  S   UNL     1     -10.574   1.512 -11.579  1.00  0.00     0.127 S 
ATOM     71  O   UNL     1     -10.326   0.102 -11.284  1.00  0.00    -0.237 OA
ATOM     72  O   UNL     1     -11.794   1.770 -12.344  1.00  0.00    -0.237 OA
ATOM     73  O   UNL     1      -9.411   2.272 -12.016  1.00  0.00    -0.744 OA
ENDBRANCH  67  70
ENDBRANCH  49  63
BRANCH  50  74
ATOM     74  C   UNL     1      -4.508   9.745  -3.150  1.00  0.00     0.023 A 
ATOM     75  C   UNL     1      -4.964  10.915  -2.514  1.00  0.00     0.012 A 
ATOM     76  C   UNL     1      -3.135   9.438  -3.119  1.00  0.00     0.148 A 
ATOM     77  C   UNL     1      -4.066  11.779  -1.884  1.00  0.00     0.002 A 
ATOM     78  C   UNL     1      -2.253  10.273  -2.442  1.00  0.00     0.091 A 
ATOM     79  F   UNL     1      -2.714   8.330  -3.747  1.00  0.00    -0.205 F 
ATOM     80  C   UNL     1      -2.713  11.453  -1.838  1.00  0.00     0.022 A 
BRANCH  78  81
ATOM     81  S   UNL     1      -0.522   9.846  -2.219  1.00  0.00     0.127 S 
ATOM     82  O   UNL     1       0.127  10.682  -3.223  1.00  0.00    -0.237 OA
ATOM     83  O   UNL     1      -0.281  10.247  -0.832  1.00  0.00    -0.237 OA
ATOM     84  O   UNL     1      -0.452   8.407  -2.439  1.00  0.00    -0.744 OA
ENDBRANCH  78  81
ENDBRANCH  50  74
BRANCH  62  85
ATOM     85  C   UNL     1      -8.557  10.373  -8.807  1.00  0.00     0.023 A 
ATOM     86  C   UNL     1      -7.556  10.626  -9.766  1.00  0.00     0.012 A 
ATOM     87  C   UNL     1      -9.765  11.095  -8.859  1.00  0.00     0.148 A 
ATOM     88  C   UNL     1      -7.746  11.595 -10.749  1.00  0.00     0.002 A 
ATOM     89  C   UNL     1      -9.966  12.028  -9.870  1.00  0.00     0.091 A 
ATOM     90  F   UNL     1     -10.697  10.850  -7.927  1.00  0.00    -0.205 F 
ATOM     91  C   UNL     1      -8.954  12.286 -10.809  1.00  0.00     0.022 A 
BRANCH  89  92
ATOM     92  S   UNL     1     -11.522  12.900 -10.082  1.00  0.00     0.127 S 
ATOM     93  O   UNL     1     -11.163  14.255  -9.670  1.00  0.00    -0.237 OA
ATOM     94  O   UNL     1     -11.772  12.744 -11.515  1.00  0.00    -0.237 OA
ATOM     95  O   UNL     1     -12.483  12.220  -9.224  1.00  0.00    -0.744 OA
ENDBRANCH  89  92
ENDBRANCH  62  85
ENDBRANCH  36  37
ENDBRANCH  28  31
ENDBRANCH  26  27
ENDBRANCH   1  26
TORSDOF 17
