REMARK SMILES CC[C@@H](C(=O)NCCCCNC(=O)c1ccc(-c2c3nc(c(-c4cccc(S(=O)(=O)[O-])c4F)c4ccc([nH]4)c(-c4cccc(S(=O)(=O)[O-])c4F)c4nc(c(-c5cccc(S(=O)(=O)[O-])c5F)c5ccc2[nH]5)C=C4)C=C3)cc1)[N@@H+](C)Cc1cccc(C)n1
REMARK SMILES IDX 8 1 7 2 6 3 4 4 5 5 3 7 2 8 1 9 77 10 78 11 79 13 80 14
REMARK SMILES IDX 81 15 86 16 82 17 84 18 83 19 85 20 9 21 10 22 11 23 12 24
REMARK SMILES IDX 13 26 14 27 15 28 76 29 16 30 75 31 17 32 18 33 19 34 69 35
REMARK SMILES IDX 20 36 74 37 68 38 70 39 21 40 73 41 67 42 66 43 22 45 54 46
REMARK SMILES IDX 34 47 53 48 35 49 38 50 52 51 71 52 36 53 37 54 51 56 72 57
REMARK SMILES IDX 39 58 23 59 24 60 32 61 25 62 27 63 33 64 26 65 28 66 29 67
REMARK SMILES IDX 30 68 31 69 55 70 56 71 64 72 57 73 59 74 65 75 58 76 60 77
REMARK SMILES IDX 61 78 62 79 63 80 40 81 41 82 49 83 42 84 44 85 50 86 43 87
REMARK SMILES IDX 45 88 46 89 47 90 48 91
REMARK H PARENT 6 6 77 12 11 25 70 44 38 55
REMARK Flexibility Score: inf
ROOT
ATOM      1  C   UNL     1       1.081   2.218   0.582  1.00  0.00     0.023 C 
ENDROOT
BRANCH   1   2
ATOM      2  C   UNL     1       1.835   1.308   1.555  1.00  0.00     0.116 C 
BRANCH   2   3
ATOM      3  N   UNL     1       0.908   0.750   2.510  1.00  0.00    -0.351 N 
ATOM      4  C   UNL     1       0.269  -0.453   2.506  1.00  0.00     0.278 C 
ATOM      5  O   UNL     1      -0.730  -0.519   3.228  1.00  0.00    -0.268 OA
ATOM      6  H   UNL     1       0.707   1.326   3.282  1.00  0.00     0.163 HD
BRANCH   4   7
ATOM      7  C   UNL     1       0.845  -1.678   1.719  1.00  0.00     0.273 C 
BRANCH   7   8
ATOM      8  C   UNL     1       0.343  -1.849   0.264  1.00  0.00     0.072 C 
ATOM      9  C   UNL     1       0.974  -0.961  -0.795  1.00  0.00     0.011 C 
ENDBRANCH   7   8
BRANCH   7  10
ATOM     10  N   UNL     1       0.556  -2.972   2.440  1.00  0.00    -0.322 N 
ATOM     11  C   UNL     1       1.275  -3.051   3.715  1.00  0.00     0.333 C 
ATOM     12  H   UNL     1       0.894  -3.713   1.826  1.00  0.00     0.348 HD
BRANCH  10  13
ATOM     13  C   UNL     1      -0.899  -3.203   2.657  1.00  0.00     0.320 C 
BRANCH  13  14
ATOM     14  C   UNL     1      -1.393  -4.629   2.479  1.00  0.00     0.095 A 
ATOM     15  C   UNL     1      -0.543  -5.718   2.321  1.00  0.00     0.030 A 
ATOM     16  N   UNL     1      -2.745  -4.777   2.501  1.00  0.00    -0.252 NA
ATOM     17  C   UNL     1      -1.095  -6.990   2.201  1.00  0.00     0.004 A 
ATOM     18  C   UNL     1      -3.270  -6.016   2.376  1.00  0.00     0.038 A 
ATOM     19  C   UNL     1      -2.477  -7.145   2.228  1.00  0.00     0.023 A 
ATOM     20  C   UNL     1      -4.765  -6.105   2.377  1.00  0.00     0.067 C 
ENDBRANCH  13  14
ENDBRANCH  10  13
ENDBRANCH   7  10
ENDBRANCH   4   7
ENDBRANCH   2   3
ENDBRANCH   1   2
BRANCH   1  21
ATOM     21  C   UNL     1       0.624   3.550   1.171  1.00  0.00     0.023 C 
BRANCH  21  22
ATOM     22  C   UNL     1       1.743   4.432   1.696  1.00  0.00     0.116 C 
BRANCH  22  23
ATOM     23  N   UNL     1       2.764   4.706   0.696  1.00  0.00    -0.352 N 
ATOM     24  C   UNL     1       3.370   5.899   0.390  1.00  0.00     0.251 C 
ATOM     25  H   UNL     1       3.060   3.930   0.167  1.00  0.00     0.163 HD
ATOM     26  O   UNL     1       4.107   5.977  -0.590  1.00  0.00    -0.269 OA
BRANCH  24  27
ATOM     27  C   UNL     1       3.106   7.086   1.228  1.00  0.00     0.039 A 
ATOM     28  C   UNL     1       2.867   8.312   0.606  1.00  0.00     0.014 A 
ATOM     29  C   UNL     1       3.064   6.982   2.621  1.00  0.00     0.014 A 
ATOM     30  C   UNL     1       2.537   9.421   1.383  1.00  0.00     0.010 A 
ATOM     31  C   UNL     1       2.629   8.060   3.382  1.00  0.00     0.010 A 
ATOM     32  C   UNL     1       2.385   9.298   2.776  1.00  0.00    -0.014 A 
BRANCH  32  33
ATOM     33  C   UNL     1       1.978  10.464   3.599  1.00  0.00     0.031 A 
ATOM     34  C   UNL     1       2.886  10.992   4.677  1.00  0.00     0.074 A 
ATOM     35  C   UNL     1       0.767  11.022   3.399  1.00  0.00     0.049 A 
ATOM     36  N   UNL     1       2.725  12.034   5.449  1.00  0.00    -0.248 NA
ATOM     37  C   UNL     1       4.123  10.238   4.947  1.00  0.00     0.031 C 
ATOM     38  C   UNL     1      -0.246  10.533   2.460  1.00  0.00     0.029 A 
ATOM     39  N   UNL     1       0.180  12.118   3.977  1.00  0.00    -0.354 N 
ATOM     40  C   UNL     1       3.818  12.046   6.308  1.00  0.00     0.074 A 
ATOM     41  C   UNL     1       4.610  10.877   6.000  1.00  0.00     0.031 C 
ATOM     42  C   UNL     1      -1.313  11.345   2.502  1.00  0.00     0.029 A 
ATOM     43  C   UNL     1      -1.073  12.396   3.485  1.00  0.00     0.049 A 
ATOM     44  H   UNL     1       0.615  12.656   4.678  1.00  0.00     0.167 HD
ATOM     45  C   UNL     1       4.154  12.965   7.243  1.00  0.00     0.034 A 
ATOM     46  C   UNL     1      -1.927  13.395   3.783  1.00  0.00     0.034 A 
ATOM     47  C   UNL     1       3.380  14.145   7.519  1.00  0.00     0.049 A 
ATOM     48  C   UNL     1      -1.499  14.441   4.776  1.00  0.00     0.074 A 
ATOM     49  C   UNL     1       3.673  15.185   8.383  1.00  0.00     0.029 A 
ATOM     50  N   UNL     1       2.155  14.438   6.940  1.00  0.00    -0.354 N 
ATOM     51  N   UNL     1      -0.380  14.527   5.454  1.00  0.00    -0.248 NA
ATOM     52  C   UNL     1      -2.431  15.552   5.009  1.00  0.00     0.031 C 
ATOM     53  C   UNL     1       2.608  16.092   8.348  1.00  0.00     0.029 A 
ATOM     54  C   UNL     1       1.673  15.638   7.433  1.00  0.00     0.049 A 
ATOM     55  H   UNL     1       1.695  13.874   6.277  1.00  0.00     0.167 HD
ATOM     56  C   UNL     1      -0.456  15.720   6.164  1.00  0.00     0.074 A 
ATOM     57  C   UNL     1      -1.721  16.332   5.811  1.00  0.00     0.031 C 
ATOM     58  C   UNL     1       0.432  16.254   7.038  1.00  0.00     0.034 A 
BRANCH  45  59
ATOM     59  C   UNL     1       5.442  12.756   7.999  1.00  0.00     0.023 A 
ATOM     60  C   UNL     1       6.676  12.890   7.327  1.00  0.00     0.012 A 
ATOM     61  C   UNL     1       5.437  12.478   9.379  1.00  0.00     0.148 A 
ATOM     62  C   UNL     1       7.880  12.712   8.007  1.00  0.00     0.002 A 
ATOM     63  C   UNL     1       6.642  12.351  10.060  1.00  0.00     0.091 A 
ATOM     64  F   UNL     1       4.256  12.331   9.997  1.00  0.00    -0.205 F 
ATOM     65  C   UNL     1       7.863  12.454   9.374  1.00  0.00     0.022 A 
BRANCH  63  66
ATOM     66  S   UNL     1       6.731  12.101  11.837  1.00  0.00     0.127 S 
ATOM     67  O   UNL     1       7.232  10.730  11.916  1.00  0.00    -0.237 OA
ATOM     68  O   UNL     1       7.693  13.126  12.243  1.00  0.00    -0.237 OA
ATOM     69  O   UNL     1       5.379  12.301  12.340  1.00  0.00    -0.744 OA
ENDBRANCH  63  66
ENDBRANCH  45  59
BRANCH  46  70
ATOM     70  C   UNL     1      -3.232  13.498   3.071  1.00  0.00     0.023 A 
ATOM     71  C   UNL     1      -3.445  14.544   2.152  1.00  0.00     0.012 A 
ATOM     72  C   UNL     1      -4.253  12.551   3.280  1.00  0.00     0.148 A 
ATOM     73  C   UNL     1      -4.663  14.668   1.483  1.00  0.00     0.002 A 
ATOM     74  C   UNL     1      -5.442  12.646   2.567  1.00  0.00     0.091 A 
ATOM     75  F   UNL     1      -4.034  11.567   4.164  1.00  0.00    -0.205 F 
ATOM     76  C   UNL     1      -5.657  13.715   1.683  1.00  0.00     0.022 A 
BRANCH  74  77
ATOM     77  S   UNL     1      -6.722  11.390   2.660  1.00  0.00     0.127 S 
ATOM     78  O   UNL     1      -7.783  12.097   3.373  1.00  0.00    -0.237 OA
ATOM     79  O   UNL     1      -6.994  11.133   1.245  1.00  0.00    -0.237 OA
ATOM     80  O   UNL     1      -6.121  10.268   3.368  1.00  0.00    -0.744 OA
ENDBRANCH  74  77
ENDBRANCH  46  70
BRANCH  58  81
ATOM     81  C   UNL     1       0.089  17.590   7.643  1.00  0.00     0.023 A 
ATOM     82  C   UNL     1      -0.961  17.695   8.578  1.00  0.00     0.012 A 
ATOM     83  C   UNL     1       0.839  18.737   7.315  1.00  0.00     0.148 A 
ATOM     84  C   UNL     1      -1.290  18.929   9.138  1.00  0.00     0.002 A 
ATOM     85  C   UNL     1       0.541  19.952   7.919  1.00  0.00     0.091 A 
ATOM     86  F   UNL     1       1.822  18.622   6.410  1.00  0.00    -0.205 F 
ATOM     87  C   UNL     1      -0.534  20.054   8.817  1.00  0.00     0.022 A 
BRANCH  85  88
ATOM     88  S   UNL     1       1.528  21.426   7.641  1.00  0.00     0.127 S 
ATOM     89  O   UNL     1       0.659  22.204   6.759  1.00  0.00    -0.237 OA
ATOM     90  O   UNL     1       1.666  21.968   8.994  1.00  0.00    -0.237 OA
ATOM     91  O   UNL     1       2.775  20.965   7.047  1.00  0.00    -0.744 OA
ENDBRANCH  85  88
ENDBRANCH  58  81
ENDBRANCH  32  33
ENDBRANCH  24  27
ENDBRANCH  22  23
ENDBRANCH  21  22
ENDBRANCH   1  21
TORSDOF 18
