REMARK SMILES C[C@@H]1OCC[C@@H]1C(=O)Nc1ccc(C(=O)NCCCCNC(=O)c2ccc(-c3c4nc(c(-c5cccc(S(=O)(=O)[O-])c5F)c5ccc([nH]5)c(-c5cccc(S(=O)(=O)[O-])c5F)c5nc(c(-c6cccc(S(=O)(=O)[O-])c6F)c6ccc3[nH]6)C=C5)C=C4)cc2)cc1F
REMARK SMILES IDX 19 1 18 2 17 3 16 4 14 5 15 6 13 8 10 9 11 10 88 11 12 12
REMARK SMILES IDX 87 13 89 14 9 15 7 16 8 17 6 19 1 20 2 21 3 22 4 23 5 24
REMARK SMILES IDX 20 25 21 26 22 27 23 29 24 30 25 31 86 32 26 33 85 34 27 35
REMARK SMILES IDX 28 36 29 37 79 38 30 39 84 40 78 41 80 42 31 43 83 44 77 45
REMARK SMILES IDX 76 46 32 48 64 49 44 50 63 51 45 52 48 53 62 54 81 55 46 56
REMARK SMILES IDX 47 57 61 59 82 60 49 61 33 62 34 63 42 64 35 65 37 66 43 67
REMARK SMILES IDX 36 68 38 69 39 70 40 71 41 72 65 73 66 74 74 75 67 76 69 77
REMARK SMILES IDX 75 78 68 79 70 80 71 81 72 82 73 83 50 84 51 85 59 86 52 87
REMARK SMILES IDX 54 88 60 89 53 90 55 91 56 92 57 93 58 94
REMARK H PARENT 16 7 9 18 21 28 80 47 48 58
REMARK Flexibility Score: inf
ROOT
ATOM      1  C   UNL     1       2.832  -4.487   5.324  1.00  0.00     0.023 C 
ENDROOT
BRANCH   1   2
ATOM      2  C   UNL     1       2.281  -3.184   4.748  1.00  0.00     0.023 C 
BRANCH   2   3
ATOM      3  C   UNL     1       1.699  -2.235   5.810  1.00  0.00     0.116 C 
BRANCH   3   4
ATOM      4  N   UNL     1       2.701  -1.302   6.313  1.00  0.00    -0.352 N 
ATOM      5  C   UNL     1       3.147  -0.068   5.891  1.00  0.00     0.251 C 
ATOM      6  O   UNL     1       3.983   0.514   6.582  1.00  0.00    -0.269 OA
ATOM      7  H   UNL     1       3.156  -1.621   7.126  1.00  0.00     0.163 HD
BRANCH   5   8
ATOM      8  C   UNL     1       2.655   0.615   4.660  1.00  0.00     0.042 A 
ATOM      9  C   UNL     1       1.662   1.981   2.347  1.00  0.00     0.077 A 
ATOM     10  C   UNL     1       2.485   2.633   3.280  1.00  0.00     0.030 A 
ATOM     11  C   UNL     1       1.331   0.669   2.646  1.00  0.00     0.147 A 
ATOM     12  C   UNL     1       2.952   1.967   4.436  1.00  0.00     0.016 A 
ATOM     13  C   UNL     1       1.888  -0.018   3.708  1.00  0.00     0.055 A 
ATOM     14  F   UNL     1       0.407  -0.034   2.000  1.00  0.00    -0.205 F 
BRANCH   9  15
ATOM     15  N   UNL     1       1.291   2.702   1.190  1.00  0.00    -0.323 N 
ATOM     16  C   UNL     1       0.578   2.423   0.055  1.00  0.00     0.230 C 
ATOM     17  O   UNL     1       0.522   3.321  -0.793  1.00  0.00    -0.274 OA
ATOM     18  H   UNL     1       1.625   3.628   1.203  1.00  0.00     0.170 HD
BRANCH  16  19
ATOM     19  C   UNL     1      -0.144   1.113  -0.172  1.00  0.00     0.110 C 
ATOM     20  C   UNL     1       1.857   0.243  -1.575  1.00  0.00     0.039 C 
ATOM     21  C   UNL     1       0.711  -0.080  -0.626  1.00  0.00     0.127 C 
ATOM     22  O   UNL     1      -0.186  -0.980  -1.322  1.00  0.00    -0.378 OA
ATOM     23  C   UNL     1      -1.475  -0.357  -1.386  1.00  0.00     0.161 C 
ATOM     24  C   UNL     1      -1.210   1.127  -1.255  1.00  0.00     0.044 C 
ENDBRANCH  16  19
ENDBRANCH   9  15
ENDBRANCH   5   8
ENDBRANCH   3   4
ENDBRANCH   2   3
ENDBRANCH   1   2
BRANCH   1  25
ATOM     25  C   UNL     1       1.745  -5.444   5.798  1.00  0.00     0.116 C 
BRANCH  25  26
ATOM     26  N   UNL     1       0.956  -6.010   4.712  1.00  0.00    -0.352 N 
ATOM     27  C   UNL     1       0.250  -7.197   4.727  1.00  0.00     0.251 C 
ATOM     28  H   UNL     1       0.923  -5.490   3.876  1.00  0.00     0.163 HD
ATOM     29  O   UNL     1      -0.290  -7.623   3.724  1.00  0.00    -0.269 OA
BRANCH  27  30
ATOM     30  C   UNL     1       0.211  -7.963   5.994  1.00  0.00     0.039 A 
ATOM     31  C   UNL     1       0.655  -9.288   5.999  1.00  0.00     0.014 A 
ATOM     32  C   UNL     1      -0.177  -7.338   7.181  1.00  0.00     0.014 A 
ATOM     33  C   UNL     1       0.780  -9.965   7.214  1.00  0.00     0.010 A 
ATOM     34  C   UNL     1       0.016  -7.989   8.393  1.00  0.00     0.010 A 
ATOM     35  C   UNL     1       0.499  -9.307   8.423  1.00  0.00    -0.014 A 
BRANCH  35  36
ATOM     36  C   UNL     1       0.706  -9.962   9.738  1.00  0.00     0.031 A 
ATOM     37  C   UNL     1      -0.467 -10.194  10.650  1.00  0.00     0.074 A 
ATOM     38  C   UNL     1       1.955 -10.238  10.161  1.00  0.00     0.049 A 
ATOM     39  N   UNL     1      -0.479 -10.626  11.883  1.00  0.00    -0.248 NA
ATOM     40  C   UNL     1      -1.798  -9.862  10.115  1.00  0.00     0.031 C 
ATOM     41  C   UNL     1       3.180  -9.991   9.399  1.00  0.00     0.029 A 
ATOM     42  N   UNL     1       2.403 -10.758  11.350  1.00  0.00    -0.354 N 
ATOM     43  C   UNL     1      -1.807 -10.577  12.287  1.00  0.00     0.074 A 
ATOM     44  C   UNL     1      -2.568 -10.045  11.178  1.00  0.00     0.031 C 
ATOM     45  C   UNL     1       4.239 -10.361  10.137  1.00  0.00     0.029 A 
ATOM     46  C   UNL     1       3.773 -10.843  11.435  1.00  0.00     0.049 A 
ATOM     47  H   UNL     1       1.800 -11.044  12.074  1.00  0.00     0.167 HD
ATOM     48  C   UNL     1      -2.350 -10.970  13.463  1.00  0.00     0.034 A 
ATOM     49  C   UNL     1       4.565 -11.254  12.444  1.00  0.00     0.034 A 
ATOM     50  C   UNL     1      -1.601 -11.561  14.537  1.00  0.00     0.049 A 
ATOM     51  C   UNL     1       3.934 -11.738  13.722  1.00  0.00     0.074 A 
ATOM     52  C   UNL     1      -2.074 -12.081  15.728  1.00  0.00     0.029 A 
ATOM     53  N   UNL     1      -0.223 -11.716  14.551  1.00  0.00    -0.354 N 
ATOM     54  N   UNL     1       2.663 -11.818  14.034  1.00  0.00    -0.248 NA
ATOM     55  C   UNL     1       4.841 -12.216  14.775  1.00  0.00     0.031 C 
ATOM     56  C   UNL     1      -0.980 -12.545  16.467  1.00  0.00     0.029 A 
ATOM     57  C   UNL     1       0.173 -12.321  15.731  1.00  0.00     0.049 A 
ATOM     58  H   UNL     1       0.384 -11.437  13.828  1.00  0.00     0.167 HD
ATOM     59  C   UNL     1       2.615 -12.371  15.308  1.00  0.00     0.074 A 
ATOM     60  C   UNL     1       3.985 -12.633  15.700  1.00  0.00     0.031 C 
ATOM     61  C   UNL     1       1.536 -12.619  16.090  1.00  0.00     0.034 A 
BRANCH  48  62
ATOM     62  C   UNL     1      -3.841 -10.841  13.620  1.00  0.00     0.023 A 
ATOM     63  C   UNL     1      -4.687 -11.727  12.923  1.00  0.00     0.012 A 
ATOM     64  C   UNL     1      -4.403  -9.890  14.494  1.00  0.00     0.148 A 
ATOM     65  C   UNL     1      -6.071 -11.651  13.069  1.00  0.00     0.002 A 
ATOM     66  C   UNL     1      -5.782  -9.848  14.666  1.00  0.00     0.091 A 
ATOM     67  F   UNL     1      -3.584  -9.039  15.128  1.00  0.00    -0.205 F 
ATOM     68  C   UNL     1      -6.617 -10.720  13.948  1.00  0.00     0.022 A 
BRANCH  66  69
ATOM     69  S   UNL     1      -6.578  -8.735  15.830  1.00  0.00     0.127 S 
ATOM     70  O   UNL     1      -7.180  -7.750  14.933  1.00  0.00    -0.237 OA
ATOM     71  O   UNL     1      -7.535  -9.617  16.498  1.00  0.00    -0.237 OA
ATOM     72  O   UNL     1      -5.516  -8.232  16.691  1.00  0.00    -0.744 OA
ENDBRANCH  66  69
ENDBRANCH  48  62
BRANCH  49  73
ATOM     73  C   UNL     1       6.041 -11.302  12.246  1.00  0.00     0.023 A 
ATOM     74  C   UNL     1       6.669 -12.553  12.091  1.00  0.00     0.012 A 
ATOM     75  C   UNL     1       6.811 -10.127  12.140  1.00  0.00     0.148 A 
ATOM     76  C   UNL     1       8.040 -12.635  11.848  1.00  0.00     0.002 A 
ATOM     77  C   UNL     1       8.167 -10.214  11.845  1.00  0.00     0.091 A 
ATOM     78  F   UNL     1       6.194  -8.948  12.300  1.00  0.00    -0.205 F 
ATOM     79  C   UNL     1       8.786 -11.467  11.712  1.00  0.00     0.022 A 
BRANCH  77  80
ATOM     80  S   UNL     1       9.182  -8.768  11.519  1.00  0.00     0.127 S 
ATOM     81  O   UNL     1      10.094  -8.778  12.660  1.00  0.00    -0.237 OA
ATOM     82  O   UNL     1       9.796  -9.117  10.236  1.00  0.00    -0.237 OA
ATOM     83  O   UNL     1       8.259  -7.643  11.458  1.00  0.00    -0.744 OA
ENDBRANCH  77  80
ENDBRANCH  49  73
BRANCH  61  84
ATOM     84  C   UNL     1       1.777 -13.205  17.457  1.00  0.00     0.023 A 
ATOM     85  C   UNL     1       2.284 -12.381  18.481  1.00  0.00     0.012 A 
ATOM     86  C   UNL     1       1.403 -14.530  17.756  1.00  0.00     0.148 A 
ATOM     87  C   UNL     1       2.434 -12.872  19.777  1.00  0.00     0.002 A 
ATOM     88  C   UNL     1       1.513 -14.999  19.060  1.00  0.00     0.091 A 
ATOM     89  F   UNL     1       0.941 -15.305  16.763  1.00  0.00    -0.205 F 
ATOM     90  C   UNL     1       2.036 -14.175  20.069  1.00  0.00     0.022 A 
BRANCH  88  91
ATOM     91  S   UNL     1       0.931 -16.629  19.543  1.00  0.00     0.127 S 
ATOM     92  O   UNL     1       2.184 -17.374  19.650  1.00  0.00    -0.237 OA
ATOM     93  O   UNL     1       0.270 -16.361  20.821  1.00  0.00    -0.237 OA
ATOM     94  O   UNL     1       0.031 -17.059  18.481  1.00  0.00    -0.744 OA
ENDBRANCH  88  91
ENDBRANCH  61  84
ENDBRANCH  35  36
ENDBRANCH  27  30
ENDBRANCH  25  26
ENDBRANCH   1  25
TORSDOF 16
