REMARK SMILES COc1cccc([C@@H]2CC(c3cccc(C)c3)=NN2C(=O)CCC(=O)NCCCCNC(=O)c2ccc(-c3c4nc(c(-c5cccc(S(=O)(=O)[O-])c5F)c5ccc([nH]5)c(-c5cccc(S(=O)(=O)[O-])c5F)c5nc(c(-c6cccc(S(=O)(=O)[O-])c6F)c6ccc3[nH]6)C=C5)C=C4)cc2)c1
REMARK SMILES IDX 27 1 26 2 24 3 25 4 23 6 22 7 20 8 21 9 19 10 8 11 9 12
REMARK SMILES IDX 10 13 18 14 7 15 3 16 4 17 97 18 5 19 6 20 2 21 1 22 11 23
REMARK SMILES IDX 12 24 17 25 13 26 15 27 14 28 16 29 28 30 29 31 30 32 31 33
REMARK SMILES IDX 32 34 33 36 34 37 35 38 96 39 36 40 95 41 37 42 38 43 39 44
REMARK SMILES IDX 89 45 40 46 94 47 88 48 90 49 41 50 93 51 87 52 86 53 42 55
REMARK SMILES IDX 74 56 54 57 73 58 55 59 58 60 72 61 91 62 56 63 57 64 71 66
REMARK SMILES IDX 92 67 59 68 43 69 44 70 52 71 45 72 47 73 53 74 46 75 48 76
REMARK SMILES IDX 49 77 50 78 51 79 75 80 76 81 84 82 77 83 79 84 85 85 78 86
REMARK SMILES IDX 80 87 81 88 82 89 83 90 60 91 61 92 69 93 62 94 64 95 70 96
REMARK SMILES IDX 63 97 65 98 66 99 67 100 68 101
REMARK H PARENT 26 5 31 35 90 54 58 65
REMARK Flexibility Score: inf
ROOT
ATOM      1  C   UNL     1       4.810  -0.544   2.853  1.00  0.00     0.116 C 
ENDROOT
BRANCH   1   2
ATOM      2  N   UNL     1       3.459   0.273   3.121  1.00  0.00    -0.356 N 
ATOM      3  C   UNL     1       3.008   1.073   4.119  1.00  0.00     0.220 C 
ATOM      4  O   UNL     1       1.842   1.467   4.025  1.00  0.00    -0.275 OA
ATOM      5  H   UNL     1       2.804   0.171   2.392  1.00  0.00     0.163 HD
BRANCH   3   6
ATOM      6  C   UNL     1       3.882   1.476   5.282  1.00  0.00     0.110 C 
BRANCH   6   7
ATOM      7  C   UNL     1       4.614   0.404   6.093  1.00  0.00     0.112 C 
BRANCH   7   8
ATOM      8  C   UNL     1       5.875  -0.139   5.410  1.00  0.00     0.243 C 
ATOM      9  O   UNL     1       6.951   0.444   5.526  1.00  0.00    -0.273 OA
BRANCH   8  10
ATOM     10  N   UNL     1       5.622  -1.212   4.522  1.00  0.00    -0.225 N 
ATOM     11  C   UNL     1       3.870  -1.800   4.235  1.00  0.00     0.147 C 
ATOM     12  C   UNL     1       3.827  -1.963   2.191  1.00  0.00     0.091 C 
ATOM     13  C   UNL     1       5.904  -1.746   1.733  1.00  0.00     0.071 C 
ATOM     14  N   UNL     1       6.671  -1.292   3.017  1.00  0.00    -0.174 NA
BRANCH  11  15
ATOM     15  C   UNL     1       3.730  -2.881   5.428  1.00  0.00    -0.019 A 
ATOM     16  C   UNL     1       2.454  -3.864   7.251  1.00  0.00     0.119 A 
ATOM     17  C   UNL     1       3.622  -4.380   7.823  1.00  0.00     0.046 A 
ATOM     18  C   UNL     1       2.498  -3.134   6.047  1.00  0.00     0.052 A 
ATOM     19  C   UNL     1       4.844  -4.184   7.208  1.00  0.00     0.004 A 
ATOM     20  C   UNL     1       4.894  -3.438   6.037  1.00  0.00     0.006 A 
BRANCH  16  21
ATOM     21  O   UNL     1       1.343  -4.101   8.015  1.00  0.00    -0.497 OA
ATOM     22  C   UNL     1       0.090  -3.785   7.434  1.00  0.00     0.278 C 
ENDBRANCH  16  21
ENDBRANCH  11  15
BRANCH  13  23
ATOM     23  C   UNL     1       6.994  -2.559   0.630  1.00  0.00    -0.002 A 
ATOM     24  C   UNL     1       8.332  -2.580   0.959  1.00  0.00     0.010 A 
ATOM     25  C   UNL     1       6.696  -3.418  -0.537  1.00  0.00     0.013 A 
ATOM     26  C   UNL     1       9.182  -3.401   0.199  1.00  0.00     0.001 A 
ATOM     27  C   UNL     1       7.470  -3.732  -1.746  1.00  0.00    -0.050 A 
ATOM     28  C   UNL     1       8.775  -3.980  -1.060  1.00  0.00     0.003 A 
ATOM     29  C   UNL     1       7.016  -3.148  -3.755  1.00  0.00     0.044 C 
ENDBRANCH  13  23
ENDBRANCH   8  10
ENDBRANCH   7   8
ENDBRANCH   6   7
ENDBRANCH   3   6
ENDBRANCH   1   2
BRANCH   1  30
ATOM     30  C   UNL     1       5.197  -2.725   3.095  1.00  0.00     0.023 C 
BRANCH  30  31
ATOM     31  C   UNL     1       4.842  -3.772   1.530  1.00  0.00     0.023 C 
BRANCH  31  32
ATOM     32  C   UNL     1       4.170  -2.960   0.034  1.00  0.00     0.116 C 
BRANCH  32  33
ATOM     33  N   UNL     1       4.692  -1.497  -0.524  1.00  0.00    -0.352 N 
ATOM     34  C   UNL     1       5.733  -0.945  -1.361  1.00  0.00     0.251 C 
ATOM     35  H   UNL     1       4.117  -0.776  -0.179  1.00  0.00     0.163 HD
ATOM     36  O   UNL     1       5.993   0.252  -1.333  1.00  0.00    -0.269 OA
BRANCH  34  37
ATOM     37  C   UNL     1       6.494  -1.852  -2.267  1.00  0.00     0.039 A 
ATOM     38  C   UNL     1       8.299  -2.035  -2.683  1.00  0.00     0.014 A 
ATOM     39  C   UNL     1       5.378  -3.243  -2.536  1.00  0.00     0.014 A 
ATOM     40  C   UNL     1       8.905  -3.672  -3.364  1.00  0.00     0.010 A 
ATOM     41  C   UNL     1       5.991  -4.837  -3.016  1.00  0.00     0.010 A 
ATOM     42  C   UNL     1       7.705  -5.082  -3.490  1.00  0.00    -0.014 A 
BRANCH  42  43
ATOM     43  C   UNL     1       7.645  -6.390  -4.295  1.00  0.00     0.031 A 
ATOM     44  C   UNL     1       6.809  -6.433  -5.611  1.00  0.00     0.074 A 
ATOM     45  C   UNL     1       7.675  -7.555  -3.599  1.00  0.00     0.049 A 
ATOM     46  N   UNL     1       6.176  -7.437  -6.187  1.00  0.00    -0.248 NA
ATOM     47  C   UNL     1       6.570  -5.161  -6.308  1.00  0.00     0.031 C 
ATOM     48  C   UNL     1       8.124  -7.702  -2.214  1.00  0.00     0.029 A 
ATOM     49  N   UNL     1       7.210  -8.820  -3.922  1.00  0.00    -0.354 N 
ATOM     50  C   UNL     1       5.459  -6.896  -7.264  1.00  0.00     0.074 A 
ATOM     51  C   UNL     1       5.645  -5.471  -7.202  1.00  0.00     0.031 C 
ATOM     52  C   UNL     1       7.902  -8.965  -1.804  1.00  0.00     0.029 A 
ATOM     53  C   UNL     1       7.279  -9.730  -2.884  1.00  0.00     0.049 A 
ATOM     54  H   UNL     1       6.861  -9.050  -4.813  1.00  0.00     0.167 HD
ATOM     55  C   UNL     1       4.765  -7.488  -8.273  1.00  0.00     0.034 A 
ATOM     56  C   UNL     1       6.893 -11.025  -2.796  1.00  0.00     0.034 A 
ATOM     57  C   UNL     1       4.587  -8.903  -8.409  1.00  0.00     0.049 A 
ATOM     58  C   UNL     1       6.254 -11.721  -3.979  1.00  0.00     0.074 A 
ATOM     59  C   UNL     1       4.030  -9.611  -9.462  1.00  0.00     0.029 A 
ATOM     60  N   UNL     1       4.961  -9.827  -7.456  1.00  0.00    -0.354 N 
ATOM     61  N   UNL     1       5.862 -11.217  -5.122  1.00  0.00    -0.248 NA
ATOM     62  C   UNL     1       6.049 -13.180  -3.878  1.00  0.00     0.031 C 
ATOM     63  C   UNL     1       4.065 -10.970  -9.140  1.00  0.00     0.029 A 
ATOM     64  C   UNL     1       4.663 -11.101  -7.898  1.00  0.00     0.049 A 
ATOM     65  H   UNL     1       5.379  -9.611  -6.591  1.00  0.00     0.167 HD
ATOM     66  C   UNL     1       5.437 -12.299  -5.894  1.00  0.00     0.074 A 
ATOM     67  C   UNL     1       5.611 -13.487  -5.092  1.00  0.00     0.031 C 
ATOM     68  C   UNL     1       4.939 -12.297  -7.153  1.00  0.00     0.034 A 
BRANCH  55  69
ATOM     69  C   UNL     1       4.271  -6.616  -9.415  1.00  0.00     0.023 A 
ATOM     70  C   UNL     1       5.229  -6.037 -10.276  1.00  0.00     0.012 A 
ATOM     71  C   UNL     1       2.902  -6.445  -9.706  1.00  0.00     0.148 A 
ATOM     72  C   UNL     1       4.842  -5.268 -11.372  1.00  0.00     0.002 A 
ATOM     73  C   UNL     1       2.522  -5.712 -10.829  1.00  0.00     0.091 A 
ATOM     74  F   UNL     1       1.998  -7.004  -8.889  1.00  0.00    -0.205 F 
ATOM     75  C   UNL     1       3.490  -5.113 -11.653  1.00  0.00     0.022 A 
BRANCH  73  76
ATOM     76  S   UNL     1       0.809  -5.503 -11.339  1.00  0.00     0.127 S 
ATOM     77  O   UNL     1       0.621  -4.064 -11.159  1.00  0.00    -0.237 OA
ATOM     78  O   UNL     1       0.849  -5.942 -12.734  1.00  0.00    -0.237 OA
ATOM     79  O   UNL     1       0.019  -6.346 -10.453  1.00  0.00    -0.744 OA
ENDBRANCH  73  76
ENDBRANCH  55  69
BRANCH  56  80
ATOM     80  C   UNL     1       7.232 -11.830  -1.580  1.00  0.00     0.023 A 
ATOM     81  C   UNL     1       8.275 -12.776  -1.673  1.00  0.00     0.012 A 
ATOM     82  C   UNL     1       6.546 -11.692  -0.360  1.00  0.00     0.148 A 
ATOM     83  C   UNL     1       8.598 -13.599  -0.594  1.00  0.00     0.002 A 
ATOM     84  C   UNL     1       6.910 -12.480   0.731  1.00  0.00     0.091 A 
ATOM     85  F   UNL     1       5.543 -10.805  -0.288  1.00  0.00    -0.205 F 
ATOM     86  C   UNL     1       7.922 -13.445   0.611  1.00  0.00     0.022 A 
BRANCH  84  87
ATOM     87  S   UNL     1       6.178 -12.261   2.359  1.00  0.00     0.127 S 
ATOM     88  O   UNL     1       5.241 -13.379   2.421  1.00  0.00    -0.237 OA
ATOM     89  O   UNL     1       7.342 -12.383   3.239  1.00  0.00    -0.237 OA
ATOM     90  O   UNL     1       5.587 -10.930   2.335  1.00  0.00    -0.744 OA
ENDBRANCH  84  87
ENDBRANCH  56  80
BRANCH  68  91
ATOM     91  C   UNL     1       4.634 -13.606  -7.828  1.00  0.00     0.023 A 
ATOM     92  C   UNL     1       3.475 -14.329  -7.489  1.00  0.00     0.012 A 
ATOM     93  C   UNL     1       5.430 -14.039  -8.909  1.00  0.00     0.148 A 
ATOM     94  C   UNL     1       3.119 -15.470  -8.208  1.00  0.00     0.002 A 
ATOM     95  C   UNL     1       5.045 -15.150  -9.649  1.00  0.00     0.091 A 
ATOM     96  F   UNL     1       6.537 -13.343  -9.204  1.00  0.00    -0.205 F 
ATOM     97  C   UNL     1       3.894 -15.872  -9.295  1.00  0.00     0.022 A 
BRANCH  95  98
ATOM     98  S   UNL     1       5.926 -15.675 -11.125  1.00  0.00     0.127 S 
ATOM     99  O   UNL     1       6.574 -16.902 -10.664  1.00  0.00    -0.237 OA
ATOM    100  O   UNL     1       4.836 -15.882 -12.079  1.00  0.00    -0.237 OA
ATOM    101  O   UNL     1       6.828 -14.583 -11.465  1.00  0.00    -0.744 OA
ENDBRANCH  95  98
ENDBRANCH  68  91
ENDBRANCH  42  43
ENDBRANCH  34  37
ENDBRANCH  32  33
ENDBRANCH  31  32
ENDBRANCH  30  31
ENDBRANCH   1  30
TORSDOF 20
