REMARK SMILES O=C(NCCCCNC(=O)[C@@H]1[C@@H](C(=O)Nc2cccc(C(F)(F)F)c2)[C@@H]2C=C[C@H]1O2)c1ccc(-c2c3nc(c(-c4cccc(S(=O)(=O)[O-])c4F)c4ccc([nH]4)c(-c4cccc(S(=O)(=O)[O-])c4F)c4nc(c(-c5cccc(S(=O)(=O)[O-])c5F)c5ccc2[nH]5)C=C4)C=C3)cc1
REMARK SMILES IDX 5 1 4 2 3 3 1 4 2 5 31 7 32 8 93 9 33 10 92 11 34 12 35 13
REMARK SMILES IDX 36 14 86 15 37 16 91 17 85 18 87 19 38 20 90 21 84 22 83 23
REMARK SMILES IDX 39 25 71 26 51 27 70 28 52 29 55 30 69 31 88 32 53 33 54 34
REMARK SMILES IDX 68 36 89 37 56 38 40 39 41 40 49 41 42 42 44 43 50 44 43 45
REMARK SMILES IDX 45 46 46 47 47 48 48 49 72 50 73 51 81 52 74 53 76 54 82 55
REMARK SMILES IDX 75 56 77 57 78 58 79 59 80 60 57 61 58 62 66 63 59 64 61 65
REMARK SMILES IDX 67 66 60 67 62 68 63 69 64 70 65 71 6 72 7 73 8 74 9 75
REMARK SMILES IDX 10 77 11 78 12 79 29 80 26 81 28 82 30 83 27 84 13 85 14 86
REMARK SMILES IDX 15 87 16 89 17 90 25 91 18 92 20 93 19 94 21 95 22 96 23 97
REMARK SMILES IDX 24 98
REMARK H PARENT 3 6 87 24 55 35 8 76 15 88
REMARK Flexibility Score: inf
ROOT
ATOM      1  C   UNL     1       5.069  -0.563   2.168  1.00  0.00     0.023 C 
ENDROOT
BRANCH   1   2
ATOM      2  C   UNL     1       4.563  -0.476   0.735  1.00  0.00     0.116 C 
BRANCH   2   3
ATOM      3  N   UNL     1       3.131  -0.704   0.606  1.00  0.00    -0.352 N 
ATOM      4  O   UNL     1       1.037  -0.287  -0.134  1.00  0.00    -0.269 OA
ATOM      5  C   UNL     1       2.237  -0.042  -0.203  1.00  0.00     0.251 C 
ATOM      6  H   UNL     1       2.756  -1.420   1.167  1.00  0.00     0.163 HD
BRANCH   5   7
ATOM      7  C   UNL     1       2.751   0.997  -1.115  1.00  0.00     0.039 A 
ATOM      8  C   UNL     1       3.837   0.719  -1.951  1.00  0.00     0.014 A 
ATOM      9  C   UNL     1       2.198   2.277  -1.063  1.00  0.00     0.014 A 
ATOM     10  C   UNL     1       4.467   1.759  -2.622  1.00  0.00     0.010 A 
ATOM     11  C   UNL     1       2.785   3.304  -1.802  1.00  0.00     0.010 A 
ATOM     12  C   UNL     1       3.946   3.060  -2.554  1.00  0.00    -0.014 A 
BRANCH  12  13
ATOM     13  C   UNL     1       4.588   4.156  -3.317  1.00  0.00     0.031 A 
ATOM     14  C   UNL     1       5.200   5.331  -2.612  1.00  0.00     0.074 A 
ATOM     15  C   UNL     1       4.569   4.098  -4.662  1.00  0.00     0.049 A 
ATOM     16  N   UNL     1       5.713   6.420  -3.123  1.00  0.00    -0.248 NA
ATOM     17  C   UNL     1       5.232   5.287  -1.141  1.00  0.00     0.031 C 
ATOM     18  C   UNL     1       3.974   3.014  -5.446  1.00  0.00     0.029 A 
ATOM     19  N   UNL     1       5.036   4.976  -5.605  1.00  0.00    -0.354 N 
ATOM     20  C   UNL     1       6.079   7.213  -2.043  1.00  0.00     0.074 A 
ATOM     21  C   UNL     1       5.737   6.478  -0.845  1.00  0.00     0.031 C 
ATOM     22  C   UNL     1       4.104   3.292  -6.750  1.00  0.00     0.029 A 
ATOM     23  C   UNL     1       4.738   4.598  -6.892  1.00  0.00     0.049 A 
ATOM     24  H   UNL     1       5.535   5.795  -5.383  1.00  0.00     0.167 HD
ATOM     25  C   UNL     1       6.657   8.438  -2.054  1.00  0.00     0.034 A 
ATOM     26  C   UNL     1       4.919   5.244  -8.059  1.00  0.00     0.034 A 
ATOM     27  C   UNL     1       7.034   9.137  -3.254  1.00  0.00     0.049 A 
ATOM     28  C   UNL     1       5.588   6.586  -8.046  1.00  0.00     0.074 A 
ATOM     29  C   UNL     1       7.687  10.351  -3.374  1.00  0.00     0.029 A 
ATOM     30  N   UNL     1       6.788   8.686  -4.543  1.00  0.00    -0.354 N 
ATOM     31  N   UNL     1       6.029   7.272  -7.020  1.00  0.00    -0.248 NA
ATOM     32  C   UNL     1       5.811   7.232  -9.346  1.00  0.00     0.031 C 
ATOM     33  C   UNL     1       7.828  10.638  -4.737  1.00  0.00     0.029 A 
ATOM     34  C   UNL     1       7.273   9.597  -5.465  1.00  0.00     0.049 A 
ATOM     35  H   UNL     1       6.336   7.841  -4.769  1.00  0.00     0.167 HD
ATOM     36  C   UNL     1       6.604   8.420  -7.548  1.00  0.00     0.074 A 
ATOM     37  C   UNL     1       6.469   8.328  -8.989  1.00  0.00     0.031 C 
ATOM     38  C   UNL     1       7.177   9.461  -6.897  1.00  0.00     0.034 A 
BRANCH  25  39
ATOM     39  C   UNL     1       6.952   9.088  -0.728  1.00  0.00     0.023 A 
ATOM     40  C   UNL     1       8.036   8.629   0.046  1.00  0.00     0.012 A 
ATOM     41  C   UNL     1       6.194  10.184  -0.272  1.00  0.00     0.148 A 
ATOM     42  C   UNL     1       8.344   9.231   1.265  1.00  0.00     0.002 A 
ATOM     43  C   UNL     1       6.529  10.802   0.929  1.00  0.00     0.091 A 
ATOM     44  F   UNL     1       5.148  10.592  -1.004  1.00  0.00    -0.205 F 
ATOM     45  C   UNL     1       7.598  10.323   1.702  1.00  0.00     0.022 A 
BRANCH  43  46
ATOM     46  S   UNL     1       5.657  12.258   1.521  1.00  0.00     0.127 S 
ATOM     47  O   UNL     1       4.692  11.669   2.447  1.00  0.00    -0.237 OA
ATOM     48  O   UNL     1       6.724  13.028   2.164  1.00  0.00    -0.237 OA
ATOM     49  O   UNL     1       5.100  12.887   0.332  1.00  0.00    -0.744 OA
ENDBRANCH  43  46
ENDBRANCH  25  39
BRANCH  26  50
ATOM     50  C   UNL     1       4.485   4.583  -9.320  1.00  0.00     0.023 A 
ATOM     51  C   UNL     1       5.455   4.048 -10.187  1.00  0.00     0.012 A 
ATOM     52  C   UNL     1       3.119   4.373  -9.596  1.00  0.00     0.148 A 
ATOM     53  C   UNL     1       5.071   3.316 -11.312  1.00  0.00     0.002 A 
ATOM     54  C   UNL     1       2.746   3.594 -10.684  1.00  0.00     0.091 A 
ATOM     55  F   UNL     1       2.214   4.902  -8.761  1.00  0.00    -0.205 F 
ATOM     56  C   UNL     1       3.720   3.075 -11.550  1.00  0.00     0.022 A 
BRANCH  54  57
ATOM     57  S   UNL     1       1.042   3.100 -10.973  1.00  0.00     0.127 S 
ATOM     58  O   UNL     1       0.696   3.893 -12.149  1.00  0.00    -0.237 OA
ATOM     59  O   UNL     1       1.181   1.663 -11.216  1.00  0.00    -0.237 OA
ATOM     60  O   UNL     1       0.325   3.432  -9.749  1.00  0.00    -0.744 OA
ENDBRANCH  54  57
ENDBRANCH  26  50
BRANCH  38  61
ATOM     61  C   UNL     1       7.731  10.582  -7.732  1.00  0.00     0.023 A 
ATOM     62  C   UNL     1       6.853  11.526  -8.297  1.00  0.00     0.012 A 
ATOM     63  C   UNL     1       9.122  10.752  -7.874  1.00  0.00     0.148 A 
ATOM     64  C   UNL     1       7.351  12.618  -9.005  1.00  0.00     0.002 A 
ATOM     65  C   UNL     1       9.612  11.864  -8.548  1.00  0.00     0.091 A 
ATOM     66  F   UNL     1       9.937   9.827  -7.346  1.00  0.00    -0.205 F 
ATOM     67  C   UNL     1       8.729  12.794  -9.120  1.00  0.00     0.022 A 
BRANCH  65  68
ATOM     68  S   UNL     1      11.370  12.215  -8.669  1.00  0.00     0.127 S 
ATOM     69  O   UNL     1      11.641  11.897 -10.070  1.00  0.00    -0.237 OA
ATOM     70  O   UNL     1      11.426  13.641  -8.345  1.00  0.00    -0.237 OA
ATOM     71  O   UNL     1      12.019  11.350  -7.694  1.00  0.00    -0.744 OA
ENDBRANCH  65  68
ENDBRANCH  38  61
ENDBRANCH  12  13
ENDBRANCH   5   7
ENDBRANCH   2   3
ENDBRANCH   1   2
BRANCH   1  72
ATOM     72  C   UNL     1       4.721  -1.854   2.900  1.00  0.00     0.023 C 
BRANCH  72  73
ATOM     73  C   UNL     1       5.283  -3.124   2.264  1.00  0.00     0.116 C 
BRANCH  73  74
ATOM     74  N   UNL     1       6.597  -3.436   2.787  1.00  0.00    -0.356 N 
ATOM     75  C   UNL     1       7.055  -4.307   3.715  1.00  0.00     0.227 C 
ATOM     76  H   UNL     1       7.312  -2.896   2.379  1.00  0.00     0.163 HD
ATOM     77  O   UNL     1       8.245  -4.166   4.025  1.00  0.00    -0.275 OA
BRANCH  75  78
ATOM     78  C   UNL     1       6.248  -5.390   4.409  1.00  0.00     0.127 C 
ATOM     79  C   UNL     1       5.236  -6.260   3.606  1.00  0.00     0.127 C 
ATOM     80  C   UNL     1       5.419  -4.934   5.615  1.00  0.00     0.155 C 
ATOM     81  C   UNL     1       4.013  -6.213   4.548  1.00  0.00     0.155 C 
ATOM     82  C   UNL     1       4.248  -4.072   5.264  1.00  0.00     0.004 C 
ATOM     83  O   UNL     1       4.680  -6.172   5.846  1.00  0.00    -0.365 OA
ATOM     84  C   UNL     1       3.393  -4.848   4.586  1.00  0.00     0.004 C 
BRANCH  79  85
ATOM     85  C   UNL     1       5.683  -7.710   3.465  1.00  0.00     0.231 C 
ATOM     86  O   UNL     1       6.797  -8.095   3.828  1.00  0.00    -0.274 OA
ATOM     87  N   UNL     1       4.844  -8.668   2.969  1.00  0.00    -0.326 N 
ATOM     88  H   UNL     1       5.127  -9.584   3.195  1.00  0.00     0.169 HD
BRANCH  87  89
ATOM     89  C   UNL     1       3.667  -8.627   2.207  1.00  0.00     0.041 A 
ATOM     90  C   UNL     1       2.834  -9.751   2.279  1.00  0.00     0.026 A 
ATOM     91  C   UNL     1       3.336  -7.597   1.327  1.00  0.00     0.039 A 
ATOM     92  C   UNL     1       1.664  -9.825   1.523  1.00  0.00     0.003 A 
ATOM     93  C   UNL     1       2.170  -7.669   0.540  1.00  0.00     0.058 A 
ATOM     94  C   UNL     1       1.332  -8.787   0.656  1.00  0.00     0.013 A 
BRANCH  93  95
ATOM     95  C   UNL     1       1.838  -6.588  -0.462  1.00  0.00     0.416 C 
ATOM     96  F   UNL     1       1.894  -7.039  -1.744  1.00  0.00    -0.166 F 
ATOM     97  F   UNL     1       0.584  -6.090  -0.289  1.00  0.00    -0.166 F 
ATOM     98  F   UNL     1       2.681  -5.520  -0.398  1.00  0.00    -0.166 F 
ENDBRANCH  93  95
ENDBRANCH  87  89
ENDBRANCH  79  85
ENDBRANCH  75  78
ENDBRANCH  73  74
ENDBRANCH  72  73
ENDBRANCH   1  72
TORSDOF 17
