REMARK SMILES O=C(NCCCCNC(=O)c1ccc(-c2c3nc(c(-c4cccc(S(=O)(=O)[O-])c4F)c4ccc([nH]4)c(-c4cccc(S(=O)(=O)[O-])c4F)c4nc(c(-c5cccc(S(=O)(=O)[O-])c5F)c5ccc2[nH]5)C=C4)C=C3)cc1)C1=Cc2cc(Cl)c(Cl)c(Cl)c2O[C@@H]1C(F)(F)F
REMARK SMILES IDX 6 1 5 2 4 3 3 4 1 5 2 6 74 8 75 9 86 10 76 11 85 12 77 13
REMARK SMILES IDX 84 14 78 15 82 16 79 17 80 18 83 19 81 20 87 21 88 22 89 23
REMARK SMILES IDX 90 24 7 25 8 26 9 27 10 29 11 30 12 31 73 32 13 33 72 34
REMARK SMILES IDX 14 35 15 36 16 37 66 38 17 39 71 40 65 41 67 42 18 43 70 44
REMARK SMILES IDX 64 45 63 46 19 48 51 49 31 50 50 51 32 52 35 53 49 54 68 55
REMARK SMILES IDX 33 56 34 57 48 59 69 60 36 61 20 62 21 63 29 64 22 65 24 66
REMARK SMILES IDX 30 67 23 68 25 69 26 70 27 71 28 72 52 73 53 74 61 75 54 76
REMARK SMILES IDX 56 77 62 78 55 79 57 80 58 81 59 82 60 83 37 84 38 85 46 86
REMARK SMILES IDX 39 87 41 88 47 89 40 90 42 91 43 92 44 93 45 94
REMARK H PARENT 3 7 8 28 67 47 35 58
REMARK Flexibility Score: inf
ROOT
ATOM      1  C   UNL     1       4.083   4.392   0.414  1.00  0.00     0.023 C 
ENDROOT
BRANCH   1   2
ATOM      2  C   UNL     1       4.416   3.294  -0.588  1.00  0.00     0.023 C 
BRANCH   2   3
ATOM      3  C   UNL     1       4.080   1.870  -0.161  1.00  0.00     0.116 C 
BRANCH   3   4
ATOM      4  N   UNL     1       2.796   1.369  -0.624  1.00  0.00    -0.352 N 
ATOM      5  O   UNL     1       1.197  -0.148  -1.082  1.00  0.00    -0.270 OA
ATOM      6  C   UNL     1       2.382   0.083  -0.850  1.00  0.00     0.251 C 
ATOM      7  H   UNL     1       2.119   2.061  -0.802  1.00  0.00     0.163 HD
BRANCH   6   8
ATOM      8  C   UNL     1       3.311  -1.079  -0.738  1.00  0.00     0.067 C 
ATOM      9  C   UNL     1       4.557  -1.030  -1.236  1.00  0.00     0.025 C 
ATOM     10  C   UNL     1       3.026  -1.961   0.453  1.00  0.00     0.314 C 
ATOM     11  C   UNL     1       5.587  -1.030  -0.173  1.00  0.00     0.020 A 
ATOM     12  O   UNL     1       3.992  -1.750   1.515  1.00  0.00    -0.474 OA
ATOM     13  C   UNL     1       6.840  -0.495  -0.483  1.00  0.00     0.034 A 
ATOM     14  C   UNL     1       5.233  -1.268   1.164  1.00  0.00     0.148 A 
ATOM     15  C   UNL     1       7.708  -0.113   0.543  1.00  0.00     0.062 A 
ATOM     16  C   UNL     1       6.119  -0.910   2.194  1.00  0.00     0.103 A 
ATOM     17  Cl  UNL     1       9.173   0.674   0.066  1.00  0.00    -0.083 Cl
ATOM     18  C   UNL     1       7.350  -0.302   1.887  1.00  0.00     0.082 A 
ATOM     19  Cl  UNL     1       5.619  -1.147   3.841  1.00  0.00    -0.079 Cl
ATOM     20  Cl  UNL     1       8.396   0.261   3.152  1.00  0.00    -0.081 Cl
BRANCH  10  21
ATOM     21  C   UNL     1       2.952  -3.445   0.056  1.00  0.00     0.429 C 
ATOM     22  F   UNL     1       2.583  -4.223   1.101  1.00  0.00    -0.167 F 
ATOM     23  F   UNL     1       2.053  -3.660  -0.934  1.00  0.00    -0.167 F 
ATOM     24  F   UNL     1       4.145  -3.914  -0.387  1.00  0.00    -0.167 F 
ENDBRANCH  10  21
ENDBRANCH   6   8
ENDBRANCH   3   4
ENDBRANCH   2   3
ENDBRANCH   1   2
BRANCH   1  25
ATOM     25  C   UNL     1       4.670   4.247   1.818  1.00  0.00     0.116 C 
BRANCH  25  26
ATOM     26  N   UNL     1       6.114   4.050   1.866  1.00  0.00    -0.352 N 
ATOM     27  C   UNL     1       7.053   4.646   2.682  1.00  0.00     0.251 C 
ATOM     28  H   UNL     1       6.471   3.396   1.222  1.00  0.00     0.163 HD
ATOM     29  O   UNL     1       8.242   4.365   2.545  1.00  0.00    -0.269 OA
BRANCH  27  30
ATOM     30  C   UNL     1       6.643   5.670   3.670  1.00  0.00     0.039 A 
ATOM     31  C   UNL     1       7.344   6.878   3.708  1.00  0.00     0.014 A 
ATOM     32  C   UNL     1       5.534   5.481   4.497  1.00  0.00     0.014 A 
ATOM     33  C   UNL     1       6.859   7.936   4.482  1.00  0.00     0.010 A 
ATOM     34  C   UNL     1       5.003   6.562   5.199  1.00  0.00     0.010 A 
ATOM     35  C   UNL     1       5.645   7.808   5.180  1.00  0.00    -0.014 A 
BRANCH  35  36
ATOM     36  C   UNL     1       5.003   8.996   5.804  1.00  0.00     0.031 A 
ATOM     37  C   UNL     1       4.757   9.066   7.285  1.00  0.00     0.074 A 
ATOM     38  C   UNL     1       4.558   9.990   5.007  1.00  0.00     0.049 A 
ATOM     39  N   UNL     1       4.259  10.051   7.988  1.00  0.00    -0.248 NA
ATOM     40  C   UNL     1       5.083   7.870   8.077  1.00  0.00     0.031 C 
ATOM     41  C   UNL     1       4.619   9.990   3.542  1.00  0.00     0.029 A 
ATOM     42  N   UNL     1       3.956  11.186   5.310  1.00  0.00    -0.354 N 
ATOM     43  C   UNL     1       4.184   9.587   9.295  1.00  0.00     0.074 A 
ATOM     44  C   UNL     1       4.651   8.217   9.281  1.00  0.00     0.031 C 
ATOM     45  C   UNL     1       4.109  11.141   3.079  1.00  0.00     0.029 A 
ATOM     46  C   UNL     1       3.670  11.956   4.206  1.00  0.00     0.049 A 
ATOM     47  H   UNL     1       3.748  11.466   6.231  1.00  0.00     0.167 HD
ATOM     48  C   UNL     1       3.795  10.249  10.412  1.00  0.00     0.034 A 
ATOM     49  C   UNL     1       3.138  13.191   4.111  1.00  0.00     0.034 A 
ATOM     50  C   UNL     1       3.376  11.625  10.429  1.00  0.00     0.049 A 
ATOM     51  C   UNL     1       2.797  13.937   5.372  1.00  0.00     0.074 A 
ATOM     52  C   UNL     1       3.075  12.422  11.520  1.00  0.00     0.029 A 
ATOM     53  N   UNL     1       3.187  12.409   9.301  1.00  0.00    -0.354 N 
ATOM     54  N   UNL     1       2.934  13.556   6.619  1.00  0.00    -0.248 NA
ATOM     55  C   UNL     1       2.271  15.300   5.213  1.00  0.00     0.031 C 
ATOM     56  C   UNL     1       2.690  13.683  11.049  1.00  0.00     0.029 A 
ATOM     57  C   UNL     1       2.763  13.676   9.666  1.00  0.00     0.049 A 
ATOM     58  H   UNL     1       3.333  12.108   8.375  1.00  0.00     0.167 HD
ATOM     59  C   UNL     1       2.538  14.640   7.394  1.00  0.00     0.074 A 
ATOM     60  C   UNL     1       2.186  15.703   6.474  1.00  0.00     0.031 C 
ATOM     61  C   UNL     1       2.456  14.739   8.744  1.00  0.00     0.034 A 
BRANCH  48  62
ATOM     62  C   UNL     1       3.874   9.507  11.721  1.00  0.00     0.023 A 
ATOM     63  C   UNL     1       5.138   9.229  12.283  1.00  0.00     0.012 A 
ATOM     64  C   UNL     1       2.711   9.122  12.416  1.00  0.00     0.148 A 
ATOM     65  C   UNL     1       5.245   8.546  13.493  1.00  0.00     0.002 A 
ATOM     66  C   UNL     1       2.825   8.478  13.644  1.00  0.00     0.091 A 
ATOM     67  F   UNL     1       1.518   9.371  11.858  1.00  0.00    -0.205 F 
ATOM     68  C   UNL     1       4.090   8.179  14.178  1.00  0.00     0.022 A 
BRANCH  66  69
ATOM     69  S   UNL     1       1.394   8.032  14.634  1.00  0.00     0.127 S 
ATOM     70  O   UNL     1       1.303   6.593  14.392  1.00  0.00    -0.237 OA
ATOM     71  O   UNL     1       1.823   8.397  15.985  1.00  0.00    -0.237 OA
ATOM     72  O   UNL     1       0.291   8.830  14.116  1.00  0.00    -0.744 OA
ENDBRANCH  66  69
ENDBRANCH  48  62
BRANCH  49  73
ATOM     73  C   UNL     1       3.008  13.840   2.776  1.00  0.00     0.023 A 
ATOM     74  C   UNL     1       3.876  14.900   2.445  1.00  0.00     0.012 A 
ATOM     75  C   UNL     1       2.075  13.393   1.822  1.00  0.00     0.148 A 
ATOM     76  C   UNL     1       3.800  15.519   1.197  1.00  0.00     0.002 A 
ATOM     77  C   UNL     1       2.040  13.980   0.561  1.00  0.00     0.091 A 
ATOM     78  F   UNL     1       1.250  12.392   2.160  1.00  0.00    -0.205 F 
ATOM     79  C   UNL     1       2.891  15.053   0.252  1.00  0.00     0.022 A 
BRANCH  77  80
ATOM     80  S   UNL     1       0.997  13.356  -0.762  1.00  0.00     0.127 S 
ATOM     81  O   UNL     1      -0.026  14.394  -0.852  1.00  0.00    -0.237 OA
ATOM     82  O   UNL     1       1.930  13.309  -1.889  1.00  0.00    -0.237 OA
ATOM     83  O   UNL     1       0.537  12.048  -0.313  1.00  0.00    -0.744 OA
ENDBRANCH  77  80
ENDBRANCH  49  73
BRANCH  61  84
ATOM     84  C   UNL     1       1.970  16.047   9.312  1.00  0.00     0.023 A 
ATOM     85  C   UNL     1       0.610  16.395   9.189  1.00  0.00     0.012 A 
ATOM     86  C   UNL     1       2.842  16.908  10.006  1.00  0.00     0.148 A 
ATOM     87  C   UNL     1       0.133  17.596   9.714  1.00  0.00     0.002 A 
ATOM     88  C   UNL     1       2.350  18.082  10.567  1.00  0.00     0.091 A 
ATOM     89  F   UNL     1       4.138  16.575  10.094  1.00  0.00    -0.205 F 
ATOM     90  C   UNL     1       1.000  18.433  10.412  1.00  0.00     0.022 A 
BRANCH  88  91
ATOM     91  S   UNL     1       3.385  19.165  11.559  1.00  0.00     0.127 S 
ATOM     92  O   UNL     1       3.749  20.199  10.592  1.00  0.00    -0.237 OA
ATOM     93  O   UNL     1       2.467  19.608  12.609  1.00  0.00    -0.237 OA
ATOM     94  O   UNL     1       4.480  18.330  12.036  1.00  0.00    -0.744 OA
ENDBRANCH  88  91
ENDBRANCH  61  84
ENDBRANCH  35  36
ENDBRANCH  27  30
ENDBRANCH  25  26
ENDBRANCH   1  25
TORSDOF 15
