REMARK SMILES O=C(CC1(C[S@](=O)C[C@H]2Cc3ccccc3S2)CC1)NCCCCNC(=O)c1ccc(-c2c3nc(c(-c4cccc(S(=O)(=O)[O-])c4F)c4ccc([nH]4)c(-c4cccc(S(=O)(=O)[O-])c4F)c4nc(c(-c5cccc(S(=O)(=O)[O-])c5F)c5ccc2[nH]5)C=C4)C=C3)cc1
REMARK SMILES IDX 21 1 20 2 1 3 2 4 3 6 4 7 18 8 19 9 5 10 6 11 7 12 8 13 9 14
REMARK SMILES IDX 10 15 17 16 11 17 16 18 12 19 15 20 13 21 14 22 22 23 23 24
REMARK SMILES IDX 24 25 25 26 26 27 27 29 28 30 29 31 90 32 30 33 89 34 31 35
REMARK SMILES IDX 32 36 33 37 83 38 34 39 88 40 82 41 84 42 35 43 87 44 81 45
REMARK SMILES IDX 80 46 36 48 68 49 48 50 67 51 49 52 52 53 66 54 85 55 50 56
REMARK SMILES IDX 51 57 65 59 86 60 53 61 37 62 38 63 46 64 39 65 41 66 47 67
REMARK SMILES IDX 40 68 42 69 43 70 44 71 45 72 69 73 70 74 78 75 71 76 73 77
REMARK SMILES IDX 79 78 72 79 74 80 75 81 76 82 77 83 54 84 55 85 63 86 56 87
REMARK SMILES IDX 58 88 64 89 57 90 59 91 60 92 61 93 62 94
REMARK H PARENT 20 5 25 28 84 47 52 58
REMARK Flexibility Score: inf
ROOT
ATOM      1  C   UNL     1      -2.716   6.629   2.333  1.00  0.00     0.116 C 
ENDROOT
BRANCH   1   2
ATOM      2  N   UNL     1      -2.069   5.340   2.213  1.00  0.00    -0.356 N 
ATOM      3  O   UNL     1       0.099   6.091   2.006  1.00  0.00    -0.275 OA
ATOM      4  C   UNL     1      -0.716   5.174   2.033  1.00  0.00     0.220 C 
ATOM      5  H   UNL     1      -2.632   4.534   2.262  1.00  0.00     0.163 HD
BRANCH   4   6
ATOM      6  C   UNL     1      -0.310   3.715   1.911  1.00  0.00     0.108 C 
BRANCH   6   7
ATOM      7  C   UNL     1       0.169   3.130   3.228  1.00  0.00    -0.009 C 
ATOM      8  C   UNL     1      -0.862   2.899   4.323  1.00  0.00     0.009 C 
ATOM      9  C   UNL     1      -0.288   1.726   3.588  1.00  0.00     0.009 C 
BRANCH   7  10
ATOM     10  C   UNL     1       1.556   3.562   3.663  1.00  0.00     0.112 C 
BRANCH  10  11
ATOM     11  S   UNL     1       2.837   2.868   2.594  1.00  0.00     0.023 S 
ATOM     12  O   UNL     1       3.008   1.412   2.888  1.00  0.00    -0.260 OA
BRANCH  11  13
ATOM     13  C   UNL     1       4.271   3.819   3.148  1.00  0.00     0.120 C 
BRANCH  13  14
ATOM     14  C   UNL     1       4.964   3.538   4.489  1.00  0.00     0.068 C 
ATOM     15  C   UNL     1       4.187   3.932   5.759  1.00  0.00     0.052 C 
ATOM     16  S   UNL     1       5.546   1.825   4.740  1.00  0.00    -0.121 SA
ATOM     17  C   UNL     1       3.662   2.672   6.382  1.00  0.00    -0.033 A 
ATOM     18  C   UNL     1       4.285   1.504   5.939  1.00  0.00     0.011 A 
ATOM     19  C   UNL     1       2.655   2.614   7.341  1.00  0.00     0.005 A 
ATOM     20  C   UNL     1       3.892   0.262   6.411  1.00  0.00     0.015 A 
ATOM     21  C   UNL     1       2.250   1.366   7.819  1.00  0.00     0.000 A 
ATOM     22  C   UNL     1       2.861   0.196   7.351  1.00  0.00     0.001 A 
ENDBRANCH  13  14
ENDBRANCH  11  13
ENDBRANCH  10  11
ENDBRANCH   7  10
ENDBRANCH   6   7
ENDBRANCH   4   6
ENDBRANCH   1   2
BRANCH   1  23
ATOM     23  C   UNL     1      -3.952   6.726   1.438  1.00  0.00     0.023 C 
BRANCH  23  24
ATOM     24  C   UNL     1      -4.983   5.607   1.623  1.00  0.00     0.023 C 
BRANCH  24  25
ATOM     25  C   UNL     1      -5.498   5.422   3.046  1.00  0.00     0.116 C 
BRANCH  25  26
ATOM     26  N   UNL     1      -6.311   6.539   3.499  1.00  0.00    -0.352 N 
ATOM     27  C   UNL     1      -7.587   6.527   4.015  1.00  0.00     0.251 C 
ATOM     28  H   UNL     1      -5.890   7.426   3.427  1.00  0.00     0.163 HD
ATOM     29  O   UNL     1      -8.180   7.586   4.203  1.00  0.00    -0.269 OA
BRANCH  27  30
ATOM     30  C   UNL     1      -8.251   5.235   4.301  1.00  0.00     0.039 A 
ATOM     31  C   UNL     1      -7.575   4.225   4.989  1.00  0.00     0.014 A 
ATOM     32  C   UNL     1      -9.554   5.021   3.843  1.00  0.00     0.014 A 
ATOM     33  C   UNL     1      -8.133   2.952   5.066  1.00  0.00     0.010 A 
ATOM     34  C   UNL     1     -10.143   3.761   3.992  1.00  0.00     0.010 A 
ATOM     35  C   UNL     1      -9.417   2.700   4.554  1.00  0.00    -0.014 A 
BRANCH  35  36
ATOM     36  C   UNL     1      -9.972   1.321   4.610  1.00  0.00     0.031 A 
ATOM     37  C   UNL     1     -10.256   0.547   3.350  1.00  0.00     0.074 A 
ATOM     38  C   UNL     1     -10.187   0.744   5.808  1.00  0.00     0.049 A 
ATOM     39  N   UNL     1     -10.687  -0.682   3.223  1.00  0.00    -0.248 NA
ATOM     40  C   UNL     1     -10.034   1.235   2.067  1.00  0.00     0.031 C 
ATOM     41  C   UNL     1      -9.976   1.394   7.103  1.00  0.00     0.029 A 
ATOM     42  N   UNL     1     -10.613  -0.519   6.134  1.00  0.00    -0.354 N 
ATOM     43  C   UNL     1     -10.835  -0.898   1.858  1.00  0.00     0.074 A 
ATOM     44  C   UNL     1     -10.445   0.326   1.193  1.00  0.00     0.031 C 
ATOM     45  C   UNL     1     -10.227   0.512   8.082  1.00  0.00     0.029 A 
ATOM     46  C   UNL     1     -10.659  -0.750   7.488  1.00  0.00     0.049 A 
ATOM     47  H   UNL     1     -10.862  -1.194   5.462  1.00  0.00     0.167 HD
ATOM     48  C   UNL     1     -11.240  -2.018   1.215  1.00  0.00     0.034 A 
ATOM     49  C   UNL     1     -11.007  -1.852   8.181  1.00  0.00     0.034 A 
ATOM     50  C   UNL     1     -11.563  -3.258   1.865  1.00  0.00     0.049 A 
ATOM     51  C   UNL     1     -11.427  -3.089   7.445  1.00  0.00     0.074 A 
ATOM     52  C   UNL     1     -11.897  -4.469   1.283  1.00  0.00     0.029 A 
ATOM     53  N   UNL     1     -11.596  -3.450   3.236  1.00  0.00    -0.354 N 
ATOM     54  N   UNL     1     -11.459  -3.302   6.152  1.00  0.00    -0.248 NA
ATOM     55  C   UNL     1     -11.850  -4.239   8.257  1.00  0.00     0.031 C 
ATOM     56  C   UNL     1     -12.143  -5.391   2.305  1.00  0.00     0.029 A 
ATOM     57  C   UNL     1     -11.957  -4.755   3.521  1.00  0.00     0.049 A 
ATOM     58  H   UNL     1     -11.394  -2.759   3.909  1.00  0.00     0.167 HD
ATOM     59  C   UNL     1     -11.895  -4.612   5.994  1.00  0.00     0.074 A 
ATOM     60  C   UNL     1     -12.098  -5.151   7.323  1.00  0.00     0.031 C 
ATOM     61  C   UNL     1     -12.122  -5.295   4.846  1.00  0.00     0.034 A 
BRANCH  48  62
ATOM     62  C   UNL     1     -11.314  -1.981  -0.287  1.00  0.00     0.023 A 
ATOM     63  C   UNL     1     -10.134  -2.125  -1.041  1.00  0.00     0.012 A 
ATOM     64  C   UNL     1     -12.556  -1.895  -0.946  1.00  0.00     0.148 A 
ATOM     65  C   UNL     1     -10.186  -2.171  -2.434  1.00  0.00     0.002 A 
ATOM     66  C   UNL     1     -12.602  -1.970  -2.333  1.00  0.00     0.091 A 
ATOM     67  F   UNL     1     -13.663  -1.739  -0.206  1.00  0.00    -0.205 F 
ATOM     68  C   UNL     1     -11.419  -2.104  -3.078  1.00  0.00     0.022 A 
BRANCH  66  69
ATOM     69  S   UNL     1     -14.144  -1.947  -3.255  1.00  0.00     0.127 S 
ATOM     70  O   UNL     1     -14.084  -0.633  -3.895  1.00  0.00    -0.237 OA
ATOM     71  O   UNL     1     -13.975  -3.078  -4.167  1.00  0.00    -0.237 OA
ATOM     72  O   UNL     1     -15.203  -2.113  -2.270  1.00  0.00    -0.744 OA
ENDBRANCH  66  69
ENDBRANCH  48  62
BRANCH  49  73
ATOM     73  C   UNL     1     -10.897  -1.828   9.664  1.00  0.00     0.023 A 
ATOM     74  C   UNL     1      -9.805  -2.470  10.277  1.00  0.00     0.012 A 
ATOM     75  C   UNL     1     -11.794  -1.080  10.450  1.00  0.00     0.148 A 
ATOM     76  C   UNL     1      -9.604  -2.362  11.653  1.00  0.00     0.002 A 
ATOM     77  C   UNL     1     -11.563  -0.941  11.812  1.00  0.00     0.091 A 
ATOM     78  F   UNL     1     -12.821  -0.477   9.835  1.00  0.00    -0.205 F 
ATOM     79  C   UNL     1     -10.474  -1.588  12.418  1.00  0.00     0.022 A 
BRANCH  77  80
ATOM     80  S   UNL     1     -12.555   0.129  12.860  1.00  0.00     0.127 S 
ATOM     81  O   UNL     1     -13.060  -0.812  13.857  1.00  0.00    -0.237 OA
ATOM     82  O   UNL     1     -11.549   1.070  13.354  1.00  0.00    -0.237 OA
ATOM     83  O   UNL     1     -13.565   0.714  11.990  1.00  0.00    -0.744 OA
ENDBRANCH  77  80
ENDBRANCH  49  73
BRANCH  61  84
ATOM     84  C   UNL     1     -12.626  -6.707   4.951  1.00  0.00     0.023 A 
ATOM     85  C   UNL     1     -13.995  -6.929   5.195  1.00  0.00     0.012 A 
ATOM     86  C   UNL     1     -11.779  -7.799   4.682  1.00  0.00     0.148 A 
ATOM     87  C   UNL     1     -14.514  -8.223   5.173  1.00  0.00     0.002 A 
ATOM     88  C   UNL     1     -12.310  -9.083   4.631  1.00  0.00     0.091 A 
ATOM     89  F   UNL     1     -10.478  -7.559   4.463  1.00  0.00    -0.205 F 
ATOM     90  C   UNL     1     -13.676  -9.296   4.880  1.00  0.00     0.022 A 
BRANCH  88  91
ATOM     91  S   UNL     1     -11.329 -10.521   4.187  1.00  0.00     0.127 S 
ATOM     92  O   UNL     1     -11.305 -11.265   5.445  1.00  0.00    -0.237 OA
ATOM     93  O   UNL     1     -12.136 -11.132   3.131  1.00  0.00    -0.237 OA
ATOM     94  O   UNL     1     -10.039 -10.008   3.746  1.00  0.00    -0.744 OA
ENDBRANCH  88  91
ENDBRANCH  61  84
ENDBRANCH  35  36
ENDBRANCH  27  30
ENDBRANCH  25  26
ENDBRANCH  24  25
ENDBRANCH  23  24
ENDBRANCH   1  23
TORSDOF 19
