REMARK SMILES O=C1C[C@@H](C(=O)NCCCCNC(=O)c2ccc(-c3c4nc(c(-c5cccc(S(=O)(=O)[O-])c5F)c5ccc([nH]5)c(-c5cccc(S(=O)(=O)[O-])c5F)c5nc(c(-c6cccc(S(=O)(=O)[O-])c6F)c6ccc3[nH]6)C=C5)C=C4)cc2)C2(CC[NH+](Cc3c[nH]nc3-c3ccc(Cl)cc3)CC2)N1
REMARK SMILES IDX 9 1 8 2 7 3 5 4 6 5 4 7 1 8 2 9 3 10 97 11 78 12 79 14 96 15
REMARK SMILES IDX 80 16 95 17 81 18 82 20 83 21 84 22 87 23 85 24 86 25 88 27
REMARK SMILES IDX 89 28 94 29 90 30 93 31 91 32 92 33 10 34 11 35 12 36 13 37
REMARK SMILES IDX 14 39 15 40 16 41 77 42 17 43 76 44 18 45 19 46 20 47 70 48
REMARK SMILES IDX 21 49 75 50 69 51 71 52 22 53 74 54 68 55 67 56 23 58 55 59
REMARK SMILES IDX 35 60 54 61 36 62 39 63 53 64 72 65 37 66 38 67 52 69 73 70
REMARK SMILES IDX 40 71 24 72 25 73 33 74 26 75 28 76 34 77 27 78 29 79 30 80
REMARK SMILES IDX 31 81 32 82 56 83 57 84 65 85 58 86 60 87 66 88 59 89 61 90
REMARK SMILES IDX 62 91 63 92 64 93 41 94 42 95 50 96 43 97 45 98 51 99 44 100
REMARK SMILES IDX 46 101 47 102 48 103 49 104
REMARK H PARENT 7 6 97 13 81 19 85 26 12 38 71 57 39 68
REMARK Flexibility Score: inf
ROOT
ATOM      1  C   UNL     1       1.718   3.341  -0.648  1.00  0.00     0.023 C 
ENDROOT
BRANCH   1   2
ATOM      2  C   UNL     1       1.640   1.997  -1.379  1.00  0.00     0.116 C 
BRANCH   2   3
ATOM      3  N   UNL     1       2.670   1.800  -2.387  1.00  0.00    -0.356 N 
ATOM      4  C   UNL     1       3.752   0.981  -2.465  1.00  0.00     0.226 C 
ATOM      5  O   UNL     1       4.412   1.036  -3.509  1.00  0.00    -0.275 OA
ATOM      6  H   UNL     1       2.560   2.379  -3.175  1.00  0.00     0.163 HD
BRANCH   4   7
ATOM      7  C   UNL     1       4.226   0.039  -1.354  1.00  0.00     0.114 C 
ATOM      8  O   UNL     1       1.746  -1.124   0.946  1.00  0.00    -0.275 OA
ATOM      9  C   UNL     1       2.679  -0.630   0.344  1.00  0.00     0.221 C 
ATOM     10  C   UNL     1       3.191  -1.041  -1.012  1.00  0.00     0.116 C 
ATOM     11  N   UNL     1       3.434   0.433   0.789  1.00  0.00    -0.349 N 
ATOM     12  C   UNL     1       4.635   0.668  -0.004  1.00  0.00     0.063 C 
ATOM     13  H   UNL     1       3.187   0.982   1.568  1.00  0.00     0.164 HD
ATOM     14  C   UNL     1       4.966   2.166  -0.091  1.00  0.00     0.091 C 
ATOM     15  C   UNL     1       5.755  -0.156   0.700  1.00  0.00     0.091 C 
ATOM     16  C   UNL     1       6.435   2.478  -0.310  1.00  0.00     0.264 C 
ATOM     17  C   UNL     1       7.172   0.415   0.638  1.00  0.00     0.264 C 
ATOM     18  N   UNL     1       7.274   1.861   0.695  1.00  0.00    -0.331 N 
ATOM     19  H   UNL     1       8.247   2.040   0.444  1.00  0.00     0.348 HD
BRANCH  18  20
ATOM     20  C   UNL     1       7.362   2.539   1.996  1.00  0.00     0.303 C 
BRANCH  20  21
ATOM     21  C   UNL     1       6.121   2.533   2.837  1.00  0.00     0.052 A 
ATOM     22  C   UNL     1       5.649   1.481   3.603  1.00  0.00     0.115 A 
ATOM     23  C   UNL     1       5.223   3.614   3.162  1.00  0.00     0.101 A 
ATOM     24  N   UNL     1       4.484   1.894   4.165  1.00  0.00    -0.285 N 
ATOM     25  N   UNL     1       4.208   3.176   3.929  1.00  0.00    -0.175 NA
ATOM     26  H   UNL     1       3.900   1.304   4.695  1.00  0.00     0.189 HD
BRANCH  23  27
ATOM     27  C   UNL     1       5.299   5.042   2.844  1.00  0.00     0.003 A 
ATOM     28  C   UNL     1       5.295   5.963   3.904  1.00  0.00     0.012 A 
ATOM     29  C   UNL     1       5.336   5.531   1.534  1.00  0.00     0.012 A 
ATOM     30  C   UNL     1       5.371   7.337   3.660  1.00  0.00     0.021 A 
ATOM     31  C   UNL     1       5.419   6.907   1.286  1.00  0.00     0.021 A 
ATOM     32  C   UNL     1       5.444   7.803   2.351  1.00  0.00     0.041 A 
ATOM     33  Cl  UNL     1       5.559   9.492   2.056  1.00  0.00    -0.084 Cl
ENDBRANCH  23  27
ENDBRANCH  20  21
ENDBRANCH  18  20
ENDBRANCH   4   7
ENDBRANCH   2   3
ENDBRANCH   1   2
BRANCH   1  34
ATOM     34  C   UNL     1       1.351   4.548  -1.503  1.00  0.00     0.023 C 
BRANCH  34  35
ATOM     35  C   UNL     1      -0.011   4.439  -2.169  1.00  0.00     0.116 C 
BRANCH  35  36
ATOM     36  N   UNL     1      -1.085   4.158  -1.219  1.00  0.00    -0.352 N 
ATOM     37  C   UNL     1      -2.317   4.758  -1.127  1.00  0.00     0.251 C 
ATOM     38  H   UNL     1      -0.902   3.448  -0.562  1.00  0.00     0.163 HD
ATOM     39  O   UNL     1      -3.070   4.516  -0.191  1.00  0.00    -0.269 OA
BRANCH  37  40
ATOM     40  C   UNL     1      -2.693   5.727  -2.171  1.00  0.00     0.039 A 
ATOM     41  C   UNL     1      -3.085   7.011  -1.794  1.00  0.00     0.014 A 
ATOM     42  C   UNL     1      -2.534   5.387  -3.517  1.00  0.00     0.014 A 
ATOM     43  C   UNL     1      -3.239   7.988  -2.776  1.00  0.00     0.010 A 
ATOM     44  C   UNL     1      -2.593   6.384  -4.479  1.00  0.00     0.010 A 
ATOM     45  C   UNL     1      -2.946   7.694  -4.119  1.00  0.00    -0.014 A 
BRANCH  45  46
ATOM     46  C   UNL     1      -2.980   8.745  -5.165  1.00  0.00     0.031 A 
ATOM     47  C   UNL     1      -3.915   8.606  -6.334  1.00  0.00     0.074 A 
ATOM     48  C   UNL     1      -2.100   9.764  -5.115  1.00  0.00     0.049 A 
ATOM     49  N   UNL     1      -4.035   9.372  -7.386  1.00  0.00    -0.248 NA
ATOM     50  C   UNL     1      -4.812   7.437  -6.339  1.00  0.00     0.031 C 
ATOM     51  C   UNL     1      -1.085   9.959  -4.075  1.00  0.00     0.029 A 
ATOM     52  N   UNL     1      -1.895  10.813  -5.976  1.00  0.00    -0.354 N 
ATOM     53  C   UNL     1      -4.985   8.759  -8.194  1.00  0.00     0.074 A 
ATOM     54  C   UNL     1      -5.387   7.541  -7.528  1.00  0.00     0.031 C 
ATOM     55  C   UNL     1      -0.368  11.058  -4.359  1.00  0.00     0.029 A 
ATOM     56  C   UNL     1      -0.842  11.624  -5.618  1.00  0.00     0.049 A 
ATOM     57  H   UNL     1      -2.448  10.970  -6.775  1.00  0.00     0.167 HD
ATOM     58  C   UNL     1      -5.496   9.186  -9.371  1.00  0.00     0.034 A 
ATOM     59  C   UNL     1      -0.306  12.690  -6.243  1.00  0.00     0.034 A 
ATOM     60  C   UNL     1      -5.121  10.418 -10.009  1.00  0.00     0.049 A 
ATOM     61  C   UNL     1      -0.917  13.161  -7.535  1.00  0.00     0.074 A 
ATOM     62  C   UNL     1      -5.652  10.988 -11.152  1.00  0.00     0.029 A 
ATOM     63  N   UNL     1      -4.110  11.260  -9.573  1.00  0.00    -0.354 N 
ATOM     64  N   UNL     1      -1.932  12.661  -8.198  1.00  0.00    -0.248 NA
ATOM     65  C   UNL     1      -0.332  14.361  -8.150  1.00  0.00     0.031 C 
ATOM     66  C   UNL     1      -4.935  12.155 -11.430  1.00  0.00     0.029 A 
ATOM     67  C   UNL     1      -3.987  12.335 -10.436  1.00  0.00     0.049 A 
ATOM     68  H   UNL     1      -3.561  11.114  -8.769  1.00  0.00     0.167 HD
ATOM     69  C   UNL     1      -2.128  13.503  -9.287  1.00  0.00     0.074 A 
ATOM     70  C   UNL     1      -1.143  14.559  -9.180  1.00  0.00     0.031 C 
ATOM     71  C   UNL     1      -3.032  13.403 -10.293  1.00  0.00     0.034 A 
BRANCH  58  72
ATOM     72  C   UNL     1      -6.544   8.332 -10.034  1.00  0.00     0.023 A 
ATOM     73  C   UNL     1      -7.832   8.238  -9.468  1.00  0.00     0.012 A 
ATOM     74  C   UNL     1      -6.275   7.681 -11.253  1.00  0.00     0.148 A 
ATOM     75  C   UNL     1      -8.826   7.483 -10.089  1.00  0.00     0.002 A 
ATOM     76  C   UNL     1      -7.284   6.972 -11.891  1.00  0.00     0.091 A 
ATOM     77  F   UNL     1      -5.037   7.765 -11.762  1.00  0.00    -0.205 F 
ATOM     78  C   UNL     1      -8.556   6.862 -11.305  1.00  0.00     0.022 A 
BRANCH  76  79
ATOM     79  S   UNL     1      -7.064   6.207 -13.501  1.00  0.00     0.127 S 
ATOM     80  O   UNL     1      -7.152   4.786 -13.166  1.00  0.00    -0.237 OA
ATOM     81  O   UNL     1      -8.208   6.730 -14.247  1.00  0.00    -0.237 OA
ATOM     82  O   UNL     1      -5.764   6.651 -13.985  1.00  0.00    -0.744 OA
ENDBRANCH  76  79
ENDBRANCH  58  72
BRANCH  59  83
ATOM     83  C   UNL     1       0.854  13.408  -5.642  1.00  0.00     0.023 A 
ATOM     84  C   UNL     1       0.686  14.715  -5.146  1.00  0.00     0.012 A 
ATOM     85  C   UNL     1       2.120  12.797  -5.553  1.00  0.00     0.148 A 
ATOM     86  C   UNL     1       1.767  15.417  -4.610  1.00  0.00     0.002 A 
ATOM     87  C   UNL     1       3.178  13.480  -4.964  1.00  0.00     0.091 A 
ATOM     88  F   UNL     1       2.263  11.557  -6.039  1.00  0.00    -0.205 F 
ATOM     89  C   UNL     1       3.009  14.797  -4.511  1.00  0.00     0.022 A 
BRANCH  87  90
ATOM     90  S   UNL     1       4.776  12.712  -4.678  1.00  0.00     0.127 S 
ATOM     91  O   UNL     1       5.623  13.418  -5.635  1.00  0.00    -0.237 OA
ATOM     92  O   UNL     1       5.022  13.044  -3.274  1.00  0.00    -0.237 OA
ATOM     93  O   UNL     1       4.581  11.291  -4.932  1.00  0.00    -0.744 OA
ENDBRANCH  87  90
ENDBRANCH  59  83
BRANCH  71  94
ATOM     94  C   UNL     1      -3.030  14.483 -11.343  1.00  0.00     0.023 A 
ATOM     95  C   UNL     1      -1.975  14.561 -12.273  1.00  0.00     0.012 A 
ATOM     96  C   UNL     1      -4.116  15.375 -11.451  1.00  0.00     0.148 A 
ATOM     97  C   UNL     1      -1.982  15.535 -13.271  1.00  0.00     0.002 A 
ATOM     98  C   UNL     1      -4.142  16.307 -12.481  1.00  0.00     0.091 A 
ATOM     99  F   UNL     1      -5.103  15.294 -10.547  1.00  0.00    -0.205 F 
ATOM    100  C   UNL     1      -3.070  16.398 -13.383  1.00  0.00     0.022 A 
BRANCH  98 101
ATOM    101  S   UNL     1      -5.545  17.392 -12.764  1.00  0.00     0.127 S 
ATOM    102  O   UNL     1      -4.992  18.695 -12.399  1.00  0.00    -0.237 OA
ATOM    103  O   UNL     1      -5.790  17.212 -14.195  1.00  0.00    -0.237 OA
ATOM    104  O   UNL     1      -6.613  16.904 -11.901  1.00  0.00    -0.744 OA
ENDBRANCH  98 101
ENDBRANCH  71  94
ENDBRANCH  45  46
ENDBRANCH  37  40
ENDBRANCH  35  36
ENDBRANCH  34  35
ENDBRANCH   1  34
TORSDOF 17
