REMARK SMILES O=C(NCCCCNC(=O)c1ccc(N2C(=O)/C(=C/C3=c4ccccc4=NC3)SC2=S)cc1O)c1ccc(-c2c3nc(c(-c4cccc(S(=O)(=O)[O-])c4F)c4ccc([nH]4)c(-c4cccc(S(=O)(=O)[O-])c4F)c4nc(c(-c5cccc(S(=O)(=O)[O-])c5F)c5ccc2[nH]5)C=C4)C=C3)cc1
REMARK SMILES IDX 5 1 4 2 3 3 1 4 2 5 35 7 36 8 97 9 37 10 96 11 38 12 39 13
REMARK SMILES IDX 40 14 90 15 41 16 95 17 89 18 91 19 42 20 94 21 88 22 87 23
REMARK SMILES IDX 43 25 75 26 55 27 74 28 56 29 59 30 73 31 92 32 57 33 58 34
REMARK SMILES IDX 72 36 93 37 60 38 44 39 45 40 53 41 46 42 48 43 54 44 47 45
REMARK SMILES IDX 49 46 50 47 51 48 52 49 76 50 77 51 85 52 78 53 80 54 86 55
REMARK SMILES IDX 79 56 81 57 82 58 83 59 84 60 61 61 62 62 70 63 63 64 65 65
REMARK SMILES IDX 71 66 64 67 66 68 67 69 68 70 69 71 6 72 7 73 8 74 9 75
REMARK SMILES IDX 10 77 11 78 12 79 33 80 13 81 32 82 14 83 34 84 15 86 16 87
REMARK SMILES IDX 30 88 17 89 18 90 29 91 31 92 19 93 20 94 21 95 28 96 22 97
REMARK SMILES IDX 26 98 27 99 23 100 25 101 24 102
REMARK H PARENT 3 6 91 24 59 35 8 76 34 85
REMARK Flexibility Score: inf
ROOT
ATOM      1  C   UNL     1       4.993  -2.590  -0.210  1.00  0.00     0.023 C 
ENDROOT
BRANCH   1   2
ATOM      2  C   UNL     1       4.713  -1.116  -0.480  1.00  0.00     0.116 C 
BRANCH   2   3
ATOM      3  N   UNL     1       3.298  -0.836  -0.661  1.00  0.00    -0.352 N 
ATOM      4  O   UNL     1       1.274   0.031  -0.231  1.00  0.00    -0.269 OA
ATOM      5  C   UNL     1       2.484   0.062  -0.017  1.00  0.00     0.251 C 
ATOM      6  H   UNL     1       2.853  -1.376  -1.353  1.00  0.00     0.163 HD
BRANCH   5   7
ATOM      7  C   UNL     1       3.040   1.054   0.933  1.00  0.00     0.039 A 
ATOM      8  C   UNL     1       2.309   1.357   2.086  1.00  0.00     0.014 A 
ATOM      9  C   UNL     1       4.237   1.727   0.674  1.00  0.00     0.014 A 
ATOM     10  C   UNL     1       2.788   2.314   2.984  1.00  0.00     0.010 A 
ATOM     11  C   UNL     1       4.754   2.620   1.610  1.00  0.00     0.010 A 
ATOM     12  C   UNL     1       4.018   2.950   2.756  1.00  0.00    -0.014 A 
BRANCH  12  13
ATOM     13  C   UNL     1       4.504   4.023   3.659  1.00  0.00     0.031 A 
ATOM     14  C   UNL     1       4.628   5.433   3.143  1.00  0.00     0.074 A 
ATOM     15  C   UNL     1       4.868   3.735   4.924  1.00  0.00     0.049 A 
ATOM     16  N   UNL     1       5.037   6.505   3.771  1.00  0.00    -0.248 NA
ATOM     17  C   UNL     1       4.273   5.668   1.733  1.00  0.00     0.031 C 
ATOM     18  C   UNL     1       4.858   2.400   5.525  1.00  0.00     0.029 A 
ATOM     19  N   UNL     1       5.320   4.550   5.931  1.00  0.00    -0.354 N 
ATOM     20  C   UNL     1       5.038   7.520   2.823  1.00  0.00     0.074 A 
ATOM     21  C   UNL     1       4.614   6.938   1.571  1.00  0.00     0.031 C 
ATOM     22  C   UNL     1       5.252   2.493   6.806  1.00  0.00     0.029 A 
ATOM     23  C   UNL     1       5.555   3.889   7.114  1.00  0.00     0.049 A 
ATOM     24  H   UNL     1       5.462   5.518   5.818  1.00  0.00     0.167 HD
ATOM     25  C   UNL     1       5.323   8.832   2.986  1.00  0.00     0.034 A 
ATOM     26  C   UNL     1       5.948   4.357   8.315  1.00  0.00     0.034 A 
ATOM     27  C   UNL     1       5.630   9.435   4.250  1.00  0.00     0.049 A 
ATOM     28  C   UNL     1       6.184   5.832   8.492  1.00  0.00     0.074 A 
ATOM     29  C   UNL     1       5.795  10.777   4.541  1.00  0.00     0.029 A 
ATOM     30  N   UNL     1       5.803   8.739   5.434  1.00  0.00    -0.354 N 
ATOM     31  N   UNL     1       6.036   6.798   7.618  1.00  0.00    -0.248 NA
ATOM     32  C   UNL     1       6.616   6.288   9.823  1.00  0.00     0.031 C 
ATOM     33  C   UNL     1       6.063  10.893   5.907  1.00  0.00     0.029 A 
ATOM     34  C   UNL     1       6.075   9.622   6.461  1.00  0.00     0.049 A 
ATOM     35  H   UNL     1       5.741   7.761   5.529  1.00  0.00     0.167 HD
ATOM     36  C   UNL     1       6.332   7.975   8.296  1.00  0.00     0.074 A 
ATOM     37  C   UNL     1       6.661   7.605   9.657  1.00  0.00     0.031 C 
ATOM     38  C   UNL     1       6.344   9.244   7.824  1.00  0.00     0.034 A 
BRANCH  25  39
ATOM     39  C   UNL     1       5.222   9.725   1.783  1.00  0.00     0.023 A 
ATOM     40  C   UNL     1       3.950  10.151   1.352  1.00  0.00     0.012 A 
ATOM     41  C   UNL     1       6.374  10.191   1.123  1.00  0.00     0.148 A 
ATOM     42  C   UNL     1       3.824  11.014   0.266  1.00  0.00     0.002 A 
ATOM     43  C   UNL     1       6.242  11.074   0.058  1.00  0.00     0.091 A 
ATOM     44  F   UNL     1       7.571   9.754   1.540  1.00  0.00    -0.205 F 
ATOM     45  C   UNL     1       4.968  11.482  -0.374  1.00  0.00     0.022 A 
BRANCH  43  46
ATOM     46  S   UNL     1       7.653  11.774  -0.805  1.00  0.00     0.127 S 
ATOM     47  O   UNL     1       7.571  11.098  -2.099  1.00  0.00    -0.237 OA
ATOM     48  O   UNL     1       7.319  13.198  -0.838  1.00  0.00    -0.237 OA
ATOM     49  O   UNL     1       8.821  11.441  -0.000  1.00  0.00    -0.744 OA
ENDBRANCH  43  46
ENDBRANCH  25  39
BRANCH  26  50
ATOM     50  C   UNL     1       6.019   3.425   9.472  1.00  0.00     0.023 A 
ATOM     51  C   UNL     1       4.967   3.430  10.408  1.00  0.00     0.012 A 
ATOM     52  C   UNL     1       7.064   2.492   9.612  1.00  0.00     0.148 A 
ATOM     53  C   UNL     1       4.956   2.527  11.470  1.00  0.00     0.002 A 
ATOM     54  C   UNL     1       7.031   1.573  10.655  1.00  0.00     0.091 A 
ATOM     55  F   UNL     1       8.051   2.507   8.705  1.00  0.00    -0.205 F 
ATOM     56  C   UNL     1       5.982   1.594  11.589  1.00  0.00     0.022 A 
BRANCH  54  57
ATOM     57  S   UNL     1       8.254   0.271  10.848  1.00  0.00     0.127 S 
ATOM     58  O   UNL     1       8.831   0.594  12.152  1.00  0.00    -0.237 OA
ATOM     59  O   UNL     1       7.418  -0.928  10.824  1.00  0.00    -0.237 OA
ATOM     60  O   UNL     1       9.160   0.406   9.716  1.00  0.00    -0.744 OA
ENDBRANCH  54  57
ENDBRANCH  26  50
BRANCH  38  61
ATOM     61  C   UNL     1       6.719  10.356   8.762  1.00  0.00     0.023 A 
ATOM     62  C   UNL     1       8.082  10.633   8.976  1.00  0.00     0.012 A 
ATOM     63  C   UNL     1       5.738  11.227   9.275  1.00  0.00     0.148 A 
ATOM     64  C   UNL     1       8.467  11.770   9.685  1.00  0.00     0.002 A 
ATOM     65  C   UNL     1       6.130  12.374   9.954  1.00  0.00     0.091 A 
ATOM     66  F   UNL     1       4.449  10.937   9.050  1.00  0.00    -0.205 F 
ATOM     67  C   UNL     1       7.493  12.645  10.162  1.00  0.00     0.022 A 
BRANCH  65  68
ATOM     68  S   UNL     1       4.960  13.607  10.537  1.00  0.00     0.127 S 
ATOM     69  O   UNL     1       5.194  13.581  11.981  1.00  0.00    -0.237 OA
ATOM     70  O   UNL     1       5.430  14.817   9.864  1.00  0.00    -0.237 OA
ATOM     71  O   UNL     1       3.643  13.145  10.121  1.00  0.00    -0.744 OA
ENDBRANCH  65  68
ENDBRANCH  38  61
ENDBRANCH  12  13
ENDBRANCH   5   7
ENDBRANCH   2   3
ENDBRANCH   1   2
BRANCH   1  72
ATOM     72  C   UNL     1       4.490  -3.562  -1.276  1.00  0.00     0.023 C 
BRANCH  72  73
ATOM     73  C   UNL     1       4.893  -3.226  -2.708  1.00  0.00     0.116 C 
BRANCH  73  74
ATOM     74  N   UNL     1       6.332  -3.217  -2.900  1.00  0.00    -0.352 N 
ATOM     75  C   UNL     1       7.058  -3.862  -3.870  1.00  0.00     0.255 C 
ATOM     76  H   UNL     1       6.851  -2.683  -2.255  1.00  0.00     0.163 HD
ATOM     77  O   UNL     1       8.284  -3.802  -3.898  1.00  0.00    -0.269 OA
BRANCH  75  78
ATOM     78  C   UNL     1       6.353  -4.721  -4.835  1.00  0.00     0.081 A 
ATOM     79  C   UNL     1       6.549  -6.097  -4.729  1.00  0.00     0.020 A 
ATOM     80  C   UNL     1       5.476  -4.209  -5.794  1.00  0.00     0.130 A 
ATOM     81  C   UNL     1       5.820  -6.964  -5.544  1.00  0.00     0.028 A 
ATOM     82  C   UNL     1       4.750  -5.078  -6.612  1.00  0.00     0.073 A 
ATOM     83  C   UNL     1       4.905  -6.470  -6.491  1.00  0.00     0.054 A 
BRANCH  80  84
ATOM     84  O   UNL     1       5.286  -2.860  -5.899  1.00  0.00    -0.507 OA
ATOM     85  H   UNL     1       5.771  -2.274  -5.353  1.00  0.00     0.293 HD
ENDBRANCH  80  84
BRANCH  83  86
ATOM     86  N   UNL     1       4.108  -7.379  -7.259  1.00  0.00    -0.261 N 
ATOM     87  C   UNL     1       3.546  -8.490  -6.630  1.00  0.00     0.270 C 
ATOM     88  C   UNL     1       3.827  -7.240  -8.613  1.00  0.00     0.152 C 
ATOM     89  O   UNL     1       3.627  -8.809  -5.450  1.00  0.00    -0.268 OA
ATOM     90  C   UNL     1       2.735  -9.278  -7.596  1.00  0.00     0.081 C 
ATOM     91  S   UNL     1       2.738  -8.527  -9.133  1.00  0.00    -0.054 SA
ATOM     92  S   UNL     1       4.430  -6.158  -9.739  1.00  0.00    -0.051 S 
ATOM     93  C   UNL     1       2.078 -10.383  -7.219  1.00  0.00     0.027 C 
BRANCH  93  94
ATOM     94  C   UNL     1       1.269 -11.242  -8.047  1.00  0.00    -0.016 C 
ATOM     95  C   UNL     1      -0.004 -11.568  -7.837  1.00  0.00     0.005 A 
ATOM     96  C   UNL     1       1.805 -11.962  -9.252  1.00  0.00     0.179 C 
ATOM     97  C   UNL     1      -0.998 -11.221  -6.871  1.00  0.00     0.011 A 
ATOM     98  C   UNL     1      -0.287 -12.502  -8.940  1.00  0.00     0.065 A 
ATOM     99  N   UNL     1       0.676 -12.781  -9.765  1.00  0.00    -0.280 NA
ATOM    100  C   UNL     1      -2.224 -11.756  -6.990  1.00  0.00     0.001 A 
ATOM    101  C   UNL     1      -1.660 -13.047  -9.003  1.00  0.00     0.028 A 
ATOM    102  C   UNL     1      -2.551 -12.674  -8.069  1.00  0.00     0.002 A 
ENDBRANCH  93  94
ENDBRANCH  83  86
ENDBRANCH  75  78
ENDBRANCH  73  74
ENDBRANCH  72  73
ENDBRANCH   1  72
TORSDOF 17
