REMARK SMILES CCCc1nc(C)cc(N2CCC(C(=O)NCCCCNC(=O)c3ccc(-c4c5nc(c(-c6cccc(S(=O)(=O)[O-])c6F)c6ccc([nH]6)c(-c6cccc(S(=O)(=O)[O-])c6F)c6nc(c(-c7cccc(S(=O)(=O)[O-])c7F)c7ccc4[nH]7)C=C6)C=C5)cc3)(n3ccc(C(C)C)n3)CC2)n1
REMARK SMILES IDX 18 1 17 2 16 3 14 4 15 5 13 7 10 8 11 9 96 10 12 11 95 12
REMARK SMILES IDX 9 13 4 14 5 15 97 16 6 17 7 18 8 19 3 20 2 21 1 22 87 23
REMARK SMILES IDX 88 24 94 25 89 26 90 27 91 28 92 29 93 30 19 31 20 32 21 33
REMARK SMILES IDX 22 34 23 36 24 37 25 38 86 39 26 40 85 41 27 42 28 43 29 44
REMARK SMILES IDX 79 45 30 46 84 47 78 48 80 49 31 50 83 51 77 52 76 53 32 55
REMARK SMILES IDX 64 56 44 57 63 58 45 59 48 60 62 61 81 62 46 63 47 64 61 66
REMARK SMILES IDX 82 67 49 68 33 69 34 70 42 71 35 72 37 73 43 74 36 75 38 76
REMARK SMILES IDX 39 77 40 78 41 79 65 80 66 81 74 82 67 83 69 84 75 85 68 86
REMARK SMILES IDX 70 87 71 88 72 89 73 90 50 91 51 92 59 93 52 94 54 95 60 96
REMARK SMILES IDX 53 97 55 98 56 99 57 100 58 101
REMARK H PARENT 16 6 21 35 80 54 48 65
REMARK Flexibility Score: inf
ROOT
ATOM      1  C   UNL     1      -3.861  -2.068   3.798  1.00  0.00     0.023 C 
ENDROOT
BRANCH   1   2
ATOM      2  C   UNL     1      -4.471  -0.754   3.307  1.00  0.00     0.116 C 
BRANCH   2   3
ATOM      3  N   UNL     1      -5.696  -0.418   4.022  1.00  0.00    -0.354 N 
ATOM      4  C   UNL     1      -6.010   0.588   4.908  1.00  0.00     0.248 C 
ATOM      5  O   UNL     1      -7.078   0.413   5.499  1.00  0.00    -0.272 OA
ATOM      6  H   UNL     1      -6.445  -1.029   3.835  1.00  0.00     0.163 HD
BRANCH   4   7
ATOM      7  C   UNL     1      -5.028   1.776   5.178  1.00  0.00     0.144 C 
ATOM      8  N   UNL     1      -2.370   2.189   4.264  1.00  0.00    -0.356 N 
ATOM      9  C   UNL     1      -2.457   1.726   5.635  1.00  0.00     0.121 C 
ATOM     10  C   UNL     1      -3.351   3.138   3.784  1.00  0.00     0.121 C 
ATOM     11  C   UNL     1      -3.823   1.130   5.922  1.00  0.00     0.062 C 
ATOM     12  C   UNL     1      -4.722   2.483   3.830  1.00  0.00     0.062 C 
BRANCH   8  13
ATOM     13  C   UNL     1      -1.127   2.087   3.676  1.00  0.00     0.132 A 
ATOM     14  C   UNL     1       0.544   0.723   2.888  1.00  0.00     0.130 A 
ATOM     15  N   UNL     1       1.330   1.753   2.526  1.00  0.00    -0.238 NA
ATOM     16  N   UNL     1      -0.654   0.846   3.482  1.00  0.00    -0.216 NA
ATOM     17  C   UNL     1       0.845   2.987   2.747  1.00  0.00     0.043 A 
ATOM     18  C   UNL     1       1.713   4.133   2.326  1.00  0.00     0.067 C 
ATOM     19  C   UNL     1      -0.400   3.200   3.304  1.00  0.00     0.070 A 
BRANCH  14  20
ATOM     20  C   UNL     1       0.983  -0.661   2.496  1.00  0.00     0.077 C 
BRANCH  20  21
ATOM     21  C   UNL     1       0.419  -1.083   1.135  1.00  0.00     0.005 C 
ATOM     22  C   UNL     1       0.938  -0.239  -0.024  1.00  0.00     0.004 C 
ENDBRANCH  20  21
ENDBRANCH  14  20
ENDBRANCH   8  13
BRANCH   7  23
ATOM     23  N   UNL     1      -5.605   2.838   6.065  1.00  0.00    -0.257 N 
ATOM     24  C   UNL     1      -4.906   3.828   6.722  1.00  0.00     0.110 A 
ATOM     25  N   UNL     1      -6.932   3.060   6.139  1.00  0.00    -0.177 NA
ATOM     26  C   UNL     1      -5.830   4.597   7.383  1.00  0.00     0.045 A 
ATOM     27  C   UNL     1      -7.075   4.034   7.043  1.00  0.00     0.065 A 
BRANCH  27  28
ATOM     28  C   UNL     1      -8.439   4.413   7.542  1.00  0.00     0.034 C 
ATOM     29  C   UNL     1      -8.471   4.500   9.072  1.00  0.00     0.014 C 
ATOM     30  C   UNL     1      -8.915   5.726   6.922  1.00  0.00     0.014 C 
ENDBRANCH  27  28
ENDBRANCH   7  23
ENDBRANCH   4   7
ENDBRANCH   2   3
ENDBRANCH   1   2
BRANCH   1  31
ATOM     31  C   UNL     1      -4.698  -3.317   3.519  1.00  0.00     0.023 C 
BRANCH  31  32
ATOM     32  C   UNL     1      -5.064  -3.544   2.057  1.00  0.00     0.116 C 
BRANCH  32  33
ATOM     33  N   UNL     1      -3.900  -3.629   1.186  1.00  0.00    -0.352 N 
ATOM     34  C   UNL     1      -3.620  -4.550   0.204  1.00  0.00     0.251 C 
ATOM     35  H   UNL     1      -3.219  -2.931   1.318  1.00  0.00     0.163 HD
ATOM     36  O   UNL     1      -2.522  -4.543  -0.347  1.00  0.00    -0.269 OA
BRANCH  34  37
ATOM     37  C   UNL     1      -4.631  -5.565  -0.163  1.00  0.00     0.039 A 
ATOM     38  C   UNL     1      -4.238  -6.901  -0.277  1.00  0.00     0.014 A 
ATOM     39  C   UNL     1      -5.964  -5.205  -0.375  1.00  0.00     0.014 A 
ATOM     40  C   UNL     1      -5.196  -7.885  -0.535  1.00  0.00     0.010 A 
ATOM     41  C   UNL     1      -6.927  -6.194  -0.560  1.00  0.00     0.010 A 
ATOM     42  C   UNL     1      -6.554  -7.544  -0.643  1.00  0.00    -0.014 A 
BRANCH  42  43
ATOM     43  C   UNL     1      -7.602  -8.581  -0.830  1.00  0.00     0.031 A 
ATOM     44  C   UNL     1      -8.448  -8.585  -2.076  1.00  0.00     0.074 A 
ATOM     45  C   UNL     1      -7.854  -9.462   0.159  1.00  0.00     0.049 A 
ATOM     46  N   UNL     1      -9.462  -9.352  -2.381  1.00  0.00    -0.248 NA
ATOM     47  C   UNL     1      -8.130  -7.577  -3.102  1.00  0.00     0.031 C 
ATOM     48  C   UNL     1      -7.159  -9.513   1.448  1.00  0.00     0.029 A 
ATOM     49  N   UNL     1      -8.788 -10.466   0.250  1.00  0.00    -0.354 N 
ATOM     50  C   UNL     1      -9.922  -8.903  -3.613  1.00  0.00     0.074 A 
ATOM     51  C   UNL     1      -9.100  -7.773  -3.985  1.00  0.00     0.031 C 
ATOM     52  C   UNL     1      -7.691 -10.491   2.199  1.00  0.00     0.029 A 
ATOM     53  C   UNL     1      -8.782 -11.119   1.461  1.00  0.00     0.049 A 
ATOM     54  H   UNL     1      -9.404 -10.695  -0.483  1.00  0.00     0.167 HD
ATOM     55  C   UNL     1     -10.917  -9.405  -4.383  1.00  0.00     0.034 A 
ATOM     56  C   UNL     1      -9.572 -12.107   1.928  1.00  0.00     0.034 A 
ATOM     57  C   UNL     1     -11.701 -10.559  -4.036  1.00  0.00     0.049 A 
ATOM     58  C   UNL     1     -10.641 -12.672   1.031  1.00  0.00     0.074 A 
ATOM     59  C   UNL     1     -12.683 -11.187  -4.782  1.00  0.00     0.029 A 
ATOM     60  N   UNL     1     -11.593 -11.260  -2.846  1.00  0.00    -0.354 N 
ATOM     61  N   UNL     1     -10.958 -12.330  -0.194  1.00  0.00    -0.248 NA
ATOM     62  C   UNL     1     -11.437 -13.788   1.566  1.00  0.00     0.031 C 
ATOM     63  C   UNL     1     -13.175 -12.264  -4.038  1.00  0.00     0.029 A 
ATOM     64  C   UNL     1     -12.486 -12.317  -2.838  1.00  0.00     0.049 A 
ATOM     65  H   UNL     1     -10.972 -11.040  -2.115  1.00  0.00     0.167 HD
ATOM     66  C   UNL     1     -11.957 -13.212  -0.590  1.00  0.00     0.074 A 
ATOM     67  C   UNL     1     -12.178 -14.118   0.517  1.00  0.00     0.031 C 
ATOM     68  C   UNL     1     -12.645 -13.255  -1.757  1.00  0.00     0.034 A 
BRANCH  55  69
ATOM     69  C   UNL     1     -11.167  -8.757  -5.720  1.00  0.00     0.023 A 
ATOM     70  C   UNL     1     -10.241  -8.956  -6.764  1.00  0.00     0.012 A 
ATOM     71  C   UNL     1     -12.345  -8.026  -5.969  1.00  0.00     0.148 A 
ATOM     72  C   UNL     1     -10.469  -8.416  -8.029  1.00  0.00     0.002 A 
ATOM     73  C   UNL     1     -12.586  -7.527  -7.244  1.00  0.00     0.091 A 
ATOM     74  F   UNL     1     -13.205  -7.834  -4.959  1.00  0.00    -0.205 F 
ATOM     75  C   UNL     1     -11.646  -7.712  -8.271  1.00  0.00     0.022 A 
BRANCH  73  76
ATOM     76  S   UNL     1     -14.104  -6.673  -7.685  1.00  0.00     0.127 S 
ATOM     77  O   UNL     1     -13.618  -5.315  -7.928  1.00  0.00    -0.237 OA
ATOM     78  O   UNL     1     -14.524  -7.394  -8.887  1.00  0.00    -0.237 OA
ATOM     79  O   UNL     1     -14.995  -6.818  -6.543  1.00  0.00    -0.744 OA
ENDBRANCH  73  76
ENDBRANCH  55  69
BRANCH  56  80
ATOM     80  C   UNL     1      -9.346 -12.672   3.289  1.00  0.00     0.023 A 
ATOM     81  C   UNL     1      -8.854 -13.986   3.419  1.00  0.00     0.012 A 
ATOM     82  C   UNL     1      -9.614 -11.924   4.451  1.00  0.00     0.148 A 
ATOM     83  C   UNL     1      -8.675 -14.559   4.678  1.00  0.00     0.002 A 
ATOM     84  C   UNL     1      -9.380 -12.482   5.704  1.00  0.00     0.091 A 
ATOM     85  F   UNL     1     -10.097 -10.681   4.312  1.00  0.00    -0.205 F 
ATOM     86  C   UNL     1      -8.929 -13.805   5.820  1.00  0.00     0.022 A 
BRANCH  84  87
ATOM     87  S   UNL     1      -9.556 -11.532   7.218  1.00  0.00     0.127 S 
ATOM     88  O   UNL     1     -10.835 -12.018   7.730  1.00  0.00    -0.237 OA
ATOM     89  O   UNL     1      -8.384 -11.956   7.986  1.00  0.00    -0.237 OA
ATOM     90  O   UNL     1      -9.522 -10.136   6.803  1.00  0.00    -0.744 OA
ENDBRANCH  84  87
ENDBRANCH  56  80
BRANCH  68  91
ATOM     91  C   UNL     1     -13.670 -14.345  -1.927  1.00  0.00     0.023 A 
ATOM     92  C   UNL     1     -14.891 -14.272  -1.229  1.00  0.00     0.012 A 
ATOM     93  C   UNL     1     -13.454 -15.398  -2.838  1.00  0.00     0.148 A 
ATOM     94  C   UNL     1     -15.870 -15.248  -1.412  1.00  0.00     0.002 A 
ATOM     95  C   UNL     1     -14.453 -16.340  -3.051  1.00  0.00     0.091 A 
ATOM     96  F   UNL     1     -12.277 -15.459  -3.478  1.00  0.00    -0.205 F 
ATOM     97  C   UNL     1     -15.656 -16.274  -2.330  1.00  0.00     0.022 A 
BRANCH  95  98
ATOM     98  S   UNL     1     -14.303 -17.639  -4.282  1.00  0.00     0.127 S 
ATOM     99  O   UNL     1     -14.089 -18.819  -3.446  1.00  0.00    -0.237 OA
ATOM    100  O   UNL     1     -15.606 -17.590  -4.947  1.00  0.00    -0.237 OA
ATOM    101  O   UNL     1     -13.180 -17.260  -5.130  1.00  0.00    -0.744 OA
ENDBRANCH  95  98
ENDBRANCH  68  91
ENDBRANCH  42  43
ENDBRANCH  34  37
ENDBRANCH  32  33
ENDBRANCH  31  32
ENDBRANCH   1  31
TORSDOF 19
