REMARK SMILES O=C(NCCCCNC(=O)[C@H]1CC[C@@H](C[NH2+]C[C@H]2CCCOC2)CC1)c1ccc(-c2c3nc(c(-c4cccc(S(=O)(=O)[O-])c4F)c4ccc([nH]4)c(-c4cccc(S(=O)(=O)[O-])c4F)c4nc(c(-c5cccc(S(=O)(=O)[O-])c5F)c5ccc2[nH]5)C=C4)C=C3)cc1
REMARK SMILES IDX 6 1 5 2 4 3 3 4 1 5 2 6 26 8 27 9 88 10 28 11 87 12 29 13
REMARK SMILES IDX 30 14 31 15 81 16 32 17 86 18 80 19 82 20 33 21 85 22 79 23
REMARK SMILES IDX 78 24 34 26 66 27 46 28 65 29 47 30 50 31 64 32 83 33 48 34
REMARK SMILES IDX 49 35 63 37 84 38 51 39 35 40 36 41 44 42 37 43 39 44 45 45
REMARK SMILES IDX 38 46 40 47 41 48 42 49 43 50 67 51 68 52 76 53 69 54 71 55
REMARK SMILES IDX 77 56 70 57 72 58 73 59 74 60 75 61 52 62 53 63 61 64 54 65
REMARK SMILES IDX 56 66 62 67 55 68 57 69 58 70 59 71 60 72 7 73 8 74 9 75
REMARK SMILES IDX 10 77 11 78 25 79 12 80 24 81 13 82 14 83 15 84 16 85 17 88
REMARK SMILES IDX 18 89 19 90 23 91 20 92 22 93 21 94
REMARK H PARENT 3 7 82 25 50 36 8 76 16 86 16 87
REMARK Flexibility Score: inf
ROOT
ATOM      1  C   UNL     1      16.955   0.838   6.756  1.00  0.00     0.023 C 
ENDROOT
BRANCH   1   2
ATOM      2  C   UNL     1      17.534   1.315   8.090  1.00  0.00     0.023 C 
BRANCH   2   3
ATOM      3  C   UNL     1      19.006   0.990   8.320  1.00  0.00     0.116 C 
BRANCH   3   4
ATOM      4  N   UNL     1      19.865   1.527   7.277  1.00  0.00    -0.352 N 
ATOM      5  O   UNL     1      21.397   2.886   6.349  1.00  0.00    -0.269 OA
ATOM      6  C   UNL     1      20.903   2.419   7.374  1.00  0.00     0.251 C 
ATOM      7  H   UNL     1      19.673   1.203   6.368  1.00  0.00     0.163 HD
BRANCH   6   8
ATOM      8  C   UNL     1      21.401   2.831   8.702  1.00  0.00     0.039 A 
ATOM      9  C   UNL     1      21.643   1.884   9.701  1.00  0.00     0.014 A 
ATOM     10  C   UNL     1      21.639   4.186   8.944  1.00  0.00     0.014 A 
ATOM     11  C   UNL     1      21.995   2.301  10.981  1.00  0.00     0.010 A 
ATOM     12  C   UNL     1      22.067   4.595  10.207  1.00  0.00     0.010 A 
ATOM     13  C   UNL     1      22.221   3.660  11.244  1.00  0.00    -0.014 A 
BRANCH  13  14
ATOM     14  C   UNL     1      22.680   4.099  12.585  1.00  0.00     0.031 A 
ATOM     15  C   UNL     1      21.841   5.024  13.420  1.00  0.00     0.074 A 
ATOM     16  C   UNL     1      23.895   3.712  13.016  1.00  0.00     0.049 A 
ATOM     17  N   UNL     1      22.130   5.591  14.562  1.00  0.00    -0.248 NA
ATOM     18  C   UNL     1      20.509   5.366  12.897  1.00  0.00     0.031 C 
ATOM     19  C   UNL     1      24.811   2.842  12.275  1.00  0.00     0.029 A 
ATOM     20  N   UNL     1      24.587   4.031  14.157  1.00  0.00    -0.354 N 
ATOM     21  C   UNL     1      21.042   6.398  14.872  1.00  0.00     0.074 A 
ATOM     22  C   UNL     1      20.086   6.245  13.795  1.00  0.00     0.031 C 
ATOM     23  C   UNL     1      25.951   2.713  12.968  1.00  0.00     0.029 A 
ATOM     24  C   UNL     1      25.870   3.538  14.169  1.00  0.00     0.049 A 
ATOM     25  H   UNL     1      24.202   4.560  14.893  1.00  0.00     0.167 HD
ATOM     26  C   UNL     1      20.857   7.189  15.956  1.00  0.00     0.034 A 
ATOM     27  C   UNL     1      26.889   3.760  15.020  1.00  0.00     0.034 A 
ATOM     28  C   UNL     1      21.811   7.322  17.025  1.00  0.00     0.049 A 
ATOM     29  C   UNL     1      26.666   4.644  16.212  1.00  0.00     0.074 A 
ATOM     30  C   UNL     1      21.687   8.037  18.204  1.00  0.00     0.029 A 
ATOM     31  N   UNL     1      23.075   6.752  17.035  1.00  0.00    -0.354 N 
ATOM     32  N   UNL     1      25.585   5.301  16.556  1.00  0.00    -0.248 NA
ATOM     33  C   UNL     1      27.787   4.797  17.149  1.00  0.00     0.031 C 
ATOM     34  C   UNL     1      22.894   7.937  18.903  1.00  0.00     0.029 A 
ATOM     35  C   UNL     1      23.751   7.116  18.187  1.00  0.00     0.049 A 
ATOM     36  H   UNL     1      23.439   6.173  16.326  1.00  0.00     0.167 HD
ATOM     37  C   UNL     1      25.880   5.914  17.767  1.00  0.00     0.074 A 
ATOM     38  C   UNL     1      27.243   5.547  18.098  1.00  0.00     0.031 C 
ATOM     39  C   UNL     1      25.091   6.707  18.531  1.00  0.00     0.034 A 
BRANCH  26  40
ATOM     40  C   UNL     1      19.572   7.976  16.038  1.00  0.00     0.023 A 
ATOM     41  C   UNL     1      18.347   7.309  16.247  1.00  0.00     0.012 A 
ATOM     42  C   UNL     1      19.583   9.381  15.938  1.00  0.00     0.148 A 
ATOM     43  C   UNL     1      17.150   8.023  16.302  1.00  0.00     0.002 A 
ATOM     44  C   UNL     1      18.391  10.089  16.044  1.00  0.00     0.091 A 
ATOM     45  F   UNL     1      20.752  10.000  15.722  1.00  0.00    -0.205 F 
ATOM     46  C   UNL     1      17.173   9.412  16.209  1.00  0.00     0.022 A 
BRANCH  44  47
ATOM     47  S   UNL     1      18.332  11.885  16.020  1.00  0.00     0.127 S 
ATOM     48  O   UNL     1      17.802  12.144  14.682  1.00  0.00    -0.237 OA
ATOM     49  O   UNL     1      17.402  12.179  17.111  1.00  0.00    -0.237 OA
ATOM     50  O   UNL     1      19.698  12.332  16.254  1.00  0.00    -0.744 OA
ENDBRANCH  44  47
ENDBRANCH  26  40
BRANCH  27  51
ATOM     51  C   UNL     1      28.202   3.110  14.759  1.00  0.00     0.023 A 
ATOM     52  C   UNL     1      28.622   2.038  15.566  1.00  0.00     0.012 A 
ATOM     53  C   UNL     1      28.987   3.492  13.652  1.00  0.00     0.148 A 
ATOM     54  C   UNL     1      29.810   1.364  15.284  1.00  0.00     0.002 A 
ATOM     55  C   UNL     1      30.138   2.780  13.344  1.00  0.00     0.091 A 
ATOM     56  F   UNL     1      28.564   4.517  12.899  1.00  0.00    -0.205 F 
ATOM     57  C   UNL     1      30.560   1.725  14.168  1.00  0.00     0.022 A 
BRANCH  55  58
ATOM     58  S   UNL     1      31.089   3.078  11.849  1.00  0.00     0.127 S 
ATOM     59  O   UNL     1      32.366   3.532  12.394  1.00  0.00    -0.237 OA
ATOM     60  O   UNL     1      31.116   1.746  11.244  1.00  0.00    -0.237 OA
ATOM     61  O   UNL     1      30.341   4.072  11.093  1.00  0.00    -0.744 OA
ENDBRANCH  55  58
ENDBRANCH  27  51
BRANCH  39  62
ATOM     62  C   UNL     1      25.641   7.198  19.843  1.00  0.00     0.023 A 
ATOM     63  C   UNL     1      26.606   8.224  19.871  1.00  0.00     0.012 A 
ATOM     64  C   UNL     1      25.105   6.717  21.055  1.00  0.00     0.148 A 
ATOM     65  C   UNL     1      27.037   8.754  21.087  1.00  0.00     0.002 A 
ATOM     66  C   UNL     1      25.500   7.286  22.258  1.00  0.00     0.091 A 
ATOM     67  F   UNL     1      24.202   5.726  21.003  1.00  0.00    -0.205 F 
ATOM     68  C   UNL     1      26.474   8.297  22.277  1.00  0.00     0.022 A 
BRANCH  66  69
ATOM     69  S   UNL     1      24.753   6.837  23.829  1.00  0.00     0.127 S 
ATOM     70  O   UNL     1      25.875   6.204  24.521  1.00  0.00    -0.237 OA
ATOM     71  O   UNL     1      24.361   8.140  24.366  1.00  0.00    -0.237 OA
ATOM     72  O   UNL     1      23.642   5.950  23.512  1.00  0.00    -0.744 OA
ENDBRANCH  66  69
ENDBRANCH  39  62
ENDBRANCH  13  14
ENDBRANCH   6   8
ENDBRANCH   3   4
ENDBRANCH   2   3
ENDBRANCH   1   2
BRANCH   1  73
ATOM     73  C   UNL     1      17.226  -0.623   6.407  1.00  0.00     0.116 C 
BRANCH  73  74
ATOM     74  N   UNL     1      16.690  -1.540   7.391  1.00  0.00    -0.356 N 
ATOM     75  C   UNL     1      16.063  -2.734   7.195  1.00  0.00     0.223 C 
ATOM     76  H   UNL     1      16.792  -1.263   8.330  1.00  0.00     0.163 HD
ATOM     77  O   UNL     1      15.873  -3.447   8.181  1.00  0.00    -0.275 OA
BRANCH  75  78
ATOM     78  C   UNL     1      15.572  -3.114   5.795  1.00  0.00     0.078 C 
ATOM     79  C   UNL     1      15.376  -4.631   5.707  1.00  0.00     0.014 C 
ATOM     80  C   UNL     1      14.299  -2.316   5.473  1.00  0.00     0.014 C 
ATOM     81  C   UNL     1      14.681  -5.041   4.412  1.00  0.00     0.010 C 
ATOM     82  C   UNL     1      13.356  -2.909   4.423  1.00  0.00     0.010 C 
ATOM     83  C   UNL     1      13.270  -4.439   4.305  1.00  0.00     0.044 C 
BRANCH  83  84
ATOM     84  C   UNL     1      12.309  -5.212   5.249  1.00  0.00     0.263 C 
BRANCH  84  85
ATOM     85  N   UNL     1      11.014  -4.599   5.539  1.00  0.00    -0.346 N 
ATOM     86  H   UNL     1      10.469  -4.553   4.678  1.00  0.00     0.346 HD
ATOM     87  H   UNL     1      11.178  -3.665   5.915  1.00  0.00     0.346 HD
BRANCH  85  88
ATOM     88  C   UNL     1      10.264  -5.374   6.538  1.00  0.00     0.266 C 
BRANCH  88  89
ATOM     89  C   UNL     1      10.348  -4.958   8.035  1.00  0.00     0.070 C 
ATOM     90  C   UNL     1      11.758  -4.914   8.642  1.00  0.00     0.014 C 
ATOM     91  C   UNL     1       9.647  -3.626   8.307  1.00  0.00     0.169 C 
ATOM     92  C   UNL     1      12.503  -3.618   8.347  1.00  0.00     0.029 C 
ATOM     93  O   UNL     1      10.400  -2.537   7.778  1.00  0.00    -0.381 OA
ATOM     94  C   UNL     1      11.635  -2.376   8.475  1.00  0.00     0.160 C 
ENDBRANCH  88  89
ENDBRANCH  85  88
ENDBRANCH  84  85
ENDBRANCH  83  84
ENDBRANCH  75  78
ENDBRANCH  73  74
ENDBRANCH   1  73
TORSDOF 18
