REMARK SMILES COc1ccc(NC(=O)[C@@H]2[C@@H](C(=O)NCCCCNC(=O)c3ccc(-c4c5nc(c(-c6cccc(S(=O)(=O)[O-])c6F)c6ccc([nH]6)c(-c6cccc(S(=O)(=O)[O-])c6F)c6nc(c(-c7cccc(S(=O)(=O)[O-])c7F)c7ccc4[nH]7)C=C6)C=C5)cc3)[C@@H]3CC[C@H]2C3=C(C)C)cc1
REMARK SMILES IDX 16 1 15 2 14 3 12 4 13 5 11 7 10 8 88 9 85 10 87 11 89 12
REMARK SMILES IDX 86 13 90 14 91 15 92 16 8 17 7 18 9 20 6 21 3 22 4 23 94 24
REMARK SMILES IDX 5 25 93 26 2 27 1 28 17 29 18 30 19 31 20 32 21 34 22 35
REMARK SMILES IDX 23 36 84 37 24 38 83 39 25 40 26 41 27 42 77 43 28 44 82 45
REMARK SMILES IDX 76 46 78 47 29 48 81 49 75 50 74 51 30 53 62 54 42 55 61 56
REMARK SMILES IDX 43 57 46 58 60 59 79 60 44 61 45 62 59 64 80 65 47 66 31 67
REMARK SMILES IDX 32 68 40 69 33 70 35 71 41 72 34 73 36 74 37 75 38 76 39 77
REMARK SMILES IDX 63 78 64 79 72 80 65 81 67 82 73 83 66 84 68 85 69 86 70 87
REMARK SMILES IDX 71 88 48 89 49 90 57 91 50 92 52 93 58 94 51 95 53 96 54 97
REMARK SMILES IDX 55 98 56 99
REMARK H PARENT 14 6 7 19 19 33 78 52 46 63
REMARK Flexibility Score: inf
ROOT
ATOM      1  C   UNL     1      -1.779   9.870  -0.980  1.00  0.00     0.023 C 
ENDROOT
BRANCH   1   2
ATOM      2  C   UNL     1      -1.236   9.942   0.445  1.00  0.00     0.116 C 
BRANCH   2   3
ATOM      3  N   UNL     1      -2.091   9.302   1.415  1.00  0.00    -0.356 N 
ATOM      4  C   UNL     1      -2.060   8.110   2.038  1.00  0.00     0.224 C 
ATOM      5  O   UNL     1      -2.804   8.028   3.029  1.00  0.00    -0.275 OA
ATOM      6  H   UNL     1      -2.861   9.855   1.677  1.00  0.00     0.163 HD
BRANCH   4   7
ATOM      7  C   UNL     1      -1.247   6.873   1.657  1.00  0.00     0.098 C 
ATOM      8  C   UNL     1      -0.291   6.746   0.426  1.00  0.00     0.099 C 
ATOM      9  C   UNL     1      -0.797   5.468  -0.239  1.00  0.00     0.028 C 
ATOM     10  C   UNL     1      -2.314   5.748   1.407  1.00  0.00     0.028 C 
ATOM     11  C   UNL     1      -0.682   4.206   0.643  1.00  0.00     0.009 C 
ATOM     12  C   UNL     1      -2.279   5.652  -0.090  1.00  0.00    -0.064 C 
ATOM     13  C   UNL     1      -1.714   4.395   1.754  1.00  0.00     0.009 C 
ATOM     14  C   UNL     1      -3.240   5.617  -1.026  1.00  0.00    -0.077 C 
ATOM     15  C   UNL     1      -4.699   5.485  -0.691  1.00  0.00     0.039 C 
ATOM     16  C   UNL     1      -2.915   5.629  -2.495  1.00  0.00     0.039 C 
BRANCH   8  17
ATOM     17  C   UNL     1       1.182   6.925   0.839  1.00  0.00     0.228 C 
ATOM     18  N   UNL     1       2.239   6.092   0.630  1.00  0.00    -0.326 N 
ATOM     19  H   UNL     1       3.089   6.454   0.972  1.00  0.00     0.169 HD
ATOM     20  O   UNL     1       1.470   7.946   1.488  1.00  0.00    -0.274 OA
BRANCH  18  21
ATOM     21  C   UNL     1       2.380   4.834   0.036  1.00  0.00     0.041 A 
ATOM     22  C   UNL     1       2.178   2.149  -0.711  1.00  0.00     0.119 A 
ATOM     23  C   UNL     1       1.763   3.157  -1.584  1.00  0.00     0.048 A 
ATOM     24  C   UNL     1       2.868   2.494   0.449  1.00  0.00     0.048 A 
ATOM     25  C   UNL     1       1.881   4.504  -1.218  1.00  0.00     0.030 A 
ATOM     26  C   UNL     1       2.990   3.839   0.810  1.00  0.00     0.030 A 
BRANCH  22  27
ATOM     27  O   UNL     1       1.863   0.868  -1.072  1.00  0.00    -0.497 OA
ATOM     28  C   UNL     1       1.628  -0.021   0.021  1.00  0.00     0.278 C 
ENDBRANCH  22  27
ENDBRANCH  18  21
ENDBRANCH   8  17
ENDBRANCH   4   7
ENDBRANCH   2   3
ENDBRANCH   1   2
BRANCH   1  29
ATOM     29  C   UNL     1      -3.148  10.519  -1.206  1.00  0.00     0.023 C 
BRANCH  29  30
ATOM     30  C   UNL     1      -3.302  11.960  -0.731  1.00  0.00     0.116 C 
BRANCH  30  31
ATOM     31  N   UNL     1      -2.313  12.865  -1.295  1.00  0.00    -0.352 N 
ATOM     32  C   UNL     1      -2.475  14.156  -1.739  1.00  0.00     0.251 C 
ATOM     33  H   UNL     1      -1.400  12.503  -1.368  1.00  0.00     0.163 HD
ATOM     34  O   UNL     1      -1.536  14.739  -2.277  1.00  0.00    -0.269 OA
BRANCH  32  35
ATOM     35  C   UNL     1      -3.785  14.831  -1.603  1.00  0.00     0.039 A 
ATOM     36  C   UNL     1      -4.306  15.516  -2.704  1.00  0.00     0.014 A 
ATOM     37  C   UNL     1      -4.504  14.780  -0.406  1.00  0.00     0.014 A 
ATOM     38  C   UNL     1      -5.577  16.093  -2.626  1.00  0.00     0.010 A 
ATOM     39  C   UNL     1      -5.797  15.295  -0.352  1.00  0.00     0.010 A 
ATOM     40  C   UNL     1      -6.348  15.957  -1.460  1.00  0.00    -0.014 A 
BRANCH  40  41
ATOM     41  C   UNL     1      -7.739  16.477  -1.390  1.00  0.00     0.031 A 
ATOM     42  C   UNL     1      -8.104  17.552  -0.404  1.00  0.00     0.074 A 
ATOM     43  C   UNL     1      -8.698  15.911  -2.151  1.00  0.00     0.049 A 
ATOM     44  N   UNL     1      -9.272  18.089  -0.163  1.00  0.00    -0.248 NA
ATOM     45  C   UNL     1      -7.020  18.074   0.445  1.00  0.00     0.031 C 
ATOM     46  C   UNL     1      -8.492  14.798  -3.080  1.00  0.00     0.029 A 
ATOM     47  N   UNL     1     -10.044  16.169  -2.237  1.00  0.00    -0.354 N 
ATOM     48  C   UNL     1      -9.075  18.978   0.887  1.00  0.00     0.074 A 
ATOM     49  C   UNL     1      -7.679  18.888   1.257  1.00  0.00     0.031 C 
ATOM     50  C   UNL     1      -9.668  14.468  -3.639  1.00  0.00     0.029 A 
ATOM     51  C   UNL     1     -10.715  15.324  -3.090  1.00  0.00     0.049 A 
ATOM     52  H   UNL     1     -10.487  16.892  -1.736  1.00  0.00     0.167 HD
ATOM     53  C   UNL     1      -9.966  19.813   1.472  1.00  0.00     0.034 A 
ATOM     54  C   UNL     1     -12.026  15.237  -3.389  1.00  0.00     0.034 A 
ATOM     55  C   UNL     1     -11.342  19.932   1.072  1.00  0.00     0.049 A 
ATOM     56  C   UNL     1     -12.986  16.214  -2.766  1.00  0.00     0.074 A 
ATOM     57  C   UNL     1     -12.297  20.824   1.529  1.00  0.00     0.029 A 
ATOM     58  N   UNL     1     -11.966  19.128   0.131  1.00  0.00    -0.354 N 
ATOM     59  N   UNL     1     -12.744  17.172  -1.905  1.00  0.00    -0.248 NA
ATOM     60  C   UNL     1     -14.393  16.125  -3.184  1.00  0.00     0.031 C 
ATOM     61  C   UNL     1     -13.505  20.540   0.883  1.00  0.00     0.029 A 
ATOM     62  C   UNL     1     -13.295  19.491   0.002  1.00  0.00     0.049 A 
ATOM     63  H   UNL     1     -11.527  18.404  -0.372  1.00  0.00     0.167 HD
ATOM     64  C   UNL     1     -13.957  17.820  -1.703  1.00  0.00     0.074 A 
ATOM     65  C   UNL     1     -14.929  17.159  -2.550  1.00  0.00     0.031 C 
ATOM     66  C   UNL     1     -14.243  18.860  -0.880  1.00  0.00     0.034 A 
BRANCH  53  67
ATOM     67  C   UNL     1      -9.468  20.703   2.582  1.00  0.00     0.023 A 
ATOM     68  C   UNL     1      -8.601  21.774   2.280  1.00  0.00     0.012 A 
ATOM     69  C   UNL     1      -9.900  20.518   3.910  1.00  0.00     0.148 A 
ATOM     70  C   UNL     1      -8.141  22.622   3.287  1.00  0.00     0.002 A 
ATOM     71  C   UNL     1      -9.474  21.396   4.900  1.00  0.00     0.091 A 
ATOM     72  F   UNL     1     -10.707  19.484   4.182  1.00  0.00    -0.205 F 
ATOM     73  C   UNL     1      -8.585  22.440   4.593  1.00  0.00     0.022 A 
BRANCH  71  74
ATOM     74  S   UNL     1     -10.054  21.296   6.598  1.00  0.00     0.127 S 
ATOM     75  O   UNL     1      -8.863  20.805   7.288  1.00  0.00    -0.237 OA
ATOM     76  O   UNL     1     -10.396  22.689   6.889  1.00  0.00    -0.237 OA
ATOM     77  O   UNL     1     -11.189  20.385   6.580  1.00  0.00    -0.744 OA
ENDBRANCH  71  74
ENDBRANCH  53  67
BRANCH  54  78
ATOM     78  C   UNL     1     -12.496  14.223  -4.375  1.00  0.00     0.023 A 
ATOM     79  C   UNL     1     -12.939  14.642  -5.644  1.00  0.00     0.012 A 
ATOM     80  C   UNL     1     -12.471  12.846  -4.077  1.00  0.00     0.148 A 
ATOM     81  C   UNL     1     -13.378  13.713  -6.588  1.00  0.00     0.002 A 
ATOM     82  C   UNL     1     -12.855  11.922  -5.041  1.00  0.00     0.091 A 
ATOM     83  F   UNL     1     -12.055  12.468  -2.860  1.00  0.00    -0.205 F 
ATOM     84  C   UNL     1     -13.326  12.354  -6.291  1.00  0.00     0.022 A 
BRANCH  82  85
ATOM     85  S   UNL     1     -12.694  10.150  -4.796  1.00  0.00     0.127 S 
ATOM     86  O   UNL     1     -14.090   9.733  -4.694  1.00  0.00    -0.237 OA
ATOM     87  O   UNL     1     -12.016   9.736  -6.026  1.00  0.00    -0.237 OA
ATOM     88  O   UNL     1     -11.895   9.990  -3.589  1.00  0.00    -0.744 OA
ENDBRANCH  82  85
ENDBRANCH  54  78
BRANCH  66  89
ATOM     89  C   UNL     1     -15.658  19.378  -0.872  1.00  0.00     0.023 A 
ATOM     90  C   UNL     1     -16.680  18.620  -0.268  1.00  0.00     0.012 A 
ATOM     91  C   UNL     1     -15.958  20.652  -1.394  1.00  0.00     0.148 A 
ATOM     92  C   UNL     1     -17.985  19.107  -0.212  1.00  0.00     0.002 A 
ATOM     93  C   UNL     1     -17.251  21.153  -1.290  1.00  0.00     0.091 A 
ATOM     94  F   UNL     1     -14.976  21.351  -1.981  1.00  0.00    -0.205 F 
ATOM     95  C   UNL     1     -18.268  20.377  -0.711  1.00  0.00     0.022 A 
BRANCH  93  96
ATOM     96  S   UNL     1     -17.685  22.815  -1.815  1.00  0.00     0.127 S 
ATOM     97  O   UNL     1     -18.463  22.552  -3.025  1.00  0.00    -0.237 OA
ATOM     98  O   UNL     1     -18.468  23.305  -0.681  1.00  0.00    -0.237 OA
ATOM     99  O   UNL     1     -16.423  23.512  -2.023  1.00  0.00    -0.744 OA
ENDBRANCH  93  96
ENDBRANCH  66  89
ENDBRANCH  40  41
ENDBRANCH  32  35
ENDBRANCH  30  31
ENDBRANCH  29  30
ENDBRANCH   1  29
TORSDOF 17
