REMARK SMILES CC[C@@H](C)[C@H](C(=O)NCCCCNC(=O)c1ccc(-c2c3nc(c(-c4cccc(S(=O)(=O)[O-])c4F)c4ccc([nH]4)c(-c4cccc(S(=O)(=O)[O-])c4F)c4nc(c(-c5cccc(S(=O)(=O)[O-])c5F)c5ccc2[nH]5)C=C4)C=C3)cc1)S(=O)(=O)c1cccc(OC)c1
REMARK SMILES IDX 10 1 9 2 8 3 6 4 7 5 5 7 3 8 4 9 2 10 1 11 79 12 80 13 81 14
REMARK SMILES IDX 82 15 83 16 89 17 84 18 86 19 85 20 87 21 88 22 11 23 12 24
REMARK SMILES IDX 13 25 14 26 15 28 16 29 17 30 78 31 18 32 77 33 19 34 20 35
REMARK SMILES IDX 21 36 71 37 22 38 76 39 70 40 72 41 23 42 75 43 69 44 68 45
REMARK SMILES IDX 24 47 56 48 36 49 55 50 37 51 40 52 54 53 73 54 38 55 39 56
REMARK SMILES IDX 53 58 74 59 41 60 25 61 26 62 34 63 27 64 29 65 35 66 28 67
REMARK SMILES IDX 30 68 31 69 32 70 33 71 57 72 58 73 66 74 59 75 61 76 67 77
REMARK SMILES IDX 60 78 62 79 63 80 64 81 65 82 42 83 43 84 51 85 44 86 46 87
REMARK SMILES IDX 52 88 45 89 47 90 48 91 49 92 50 93
REMARK H PARENT 8 6 13 27 72 46 40 57
REMARK Flexibility Score: inf
ROOT
ATOM      1  C   UNL     1       4.563  -2.773  -2.686  1.00  0.00     0.023 C 
ENDROOT
BRANCH   1   2
ATOM      2  C   UNL     1       3.811  -3.259  -1.455  1.00  0.00     0.116 C 
BRANCH   2   3
ATOM      3  N   UNL     1       2.780  -2.343  -1.015  1.00  0.00    -0.355 N 
ATOM      4  C   UNL     1       1.521  -2.573  -0.560  1.00  0.00     0.239 C 
ATOM      5  O   UNL     1       1.028  -1.661   0.116  1.00  0.00    -0.274 OA
ATOM      6  H   UNL     1       3.034  -1.392  -1.052  1.00  0.00     0.163 HD
BRANCH   4   7
ATOM      7  C   UNL     1       0.686  -3.797  -0.874  1.00  0.00     0.205 C 
BRANCH   7   8
ATOM      8  C   UNL     1       0.346  -4.119  -2.359  1.00  0.00     0.014 C 
ATOM      9  C   UNL     1       1.492  -4.623  -3.229  1.00  0.00     0.009 C 
BRANCH   8  10
ATOM     10  C   UNL     1      -0.407  -2.918  -2.997  1.00  0.00     0.002 C 
ATOM     11  C   UNL     1      -0.504  -2.925  -4.516  1.00  0.00     0.004 C 
ENDBRANCH   8  10
ENDBRANCH   7   8
BRANCH   7  12
ATOM     12  S   UNL     1       0.938  -5.170   0.222  1.00  0.00     0.190 S 
ATOM     13  O   UNL     1       0.111  -4.976   1.401  1.00  0.00    -0.223 OA
ATOM     14  O   UNL     1       0.763  -6.388  -0.554  1.00  0.00    -0.223 OA
BRANCH  12  15
ATOM     15  C   UNL     1       2.613  -5.204   0.822  1.00  0.00     0.071 A 
ATOM     16  C   UNL     1       3.449  -6.267   0.456  1.00  0.00     0.020 A 
ATOM     17  C   UNL     1       3.067  -4.207   1.694  1.00  0.00     0.066 A 
ATOM     18  C   UNL     1       4.760  -6.308   0.926  1.00  0.00     0.005 A 
ATOM     19  C   UNL     1       4.401  -4.223   2.107  1.00  0.00     0.120 A 
ATOM     20  C   UNL     1       5.234  -5.285   1.747  1.00  0.00     0.046 A 
BRANCH  19  21
ATOM     21  O   UNL     1       4.986  -3.251   2.870  1.00  0.00    -0.497 OA
ATOM     22  C   UNL     1       4.588  -1.921   2.543  1.00  0.00     0.278 C 
ENDBRANCH  19  21
ENDBRANCH  12  15
ENDBRANCH   7  12
ENDBRANCH   4   7
ENDBRANCH   2   3
ENDBRANCH   1   2
BRANCH   1  23
ATOM     23  C   UNL     1       5.765  -1.871  -2.393  1.00  0.00     0.023 C 
BRANCH  23  24
ATOM     24  C   UNL     1       6.763  -2.393  -1.361  1.00  0.00     0.116 C 
BRANCH  24  25
ATOM     25  N   UNL     1       7.161  -3.781  -1.547  1.00  0.00    -0.352 N 
ATOM     26  C   UNL     1       8.296  -4.393  -1.053  1.00  0.00     0.251 C 
ATOM     27  H   UNL     1       6.556  -4.344  -2.082  1.00  0.00     0.163 HD
ATOM     28  O   UNL     1       8.531  -5.566  -1.271  1.00  0.00    -0.269 OA
BRANCH  26  29
ATOM     29  C   UNL     1       9.244  -3.551  -0.294  1.00  0.00     0.039 A 
ATOM     30  C   UNL     1      10.496  -3.288  -0.854  1.00  0.00     0.014 A 
ATOM     31  C   UNL     1       8.830  -2.917   0.879  1.00  0.00     0.014 A 
ATOM     32  C   UNL     1      11.310  -2.315  -0.273  1.00  0.00     0.010 A 
ATOM     33  C   UNL     1       9.622  -1.912   1.425  1.00  0.00     0.010 A 
ATOM     34  C   UNL     1      10.860  -1.591   0.844  1.00  0.00    -0.014 A 
BRANCH  34  35
ATOM     35  C   UNL     1      11.651  -0.459   1.383  1.00  0.00     0.031 A 
ATOM     36  C   UNL     1      12.268  -0.548   2.748  1.00  0.00     0.074 A 
ATOM     37  C   UNL     1      11.734   0.686   0.676  1.00  0.00     0.049 A 
ATOM     38  N   UNL     1      12.984   0.341   3.384  1.00  0.00    -0.248 NA
ATOM     39  C   UNL     1      12.029  -1.785   3.508  1.00  0.00     0.031 C 
ATOM     40  C   UNL     1      11.093   0.929  -0.619  1.00  0.00     0.029 A 
ATOM     41  N   UNL     1      12.369   1.869   0.958  1.00  0.00    -0.354 N 
ATOM     42  C   UNL     1      13.261  -0.215   4.626  1.00  0.00     0.074 A 
ATOM     43  C   UNL     1      12.606  -1.504   4.668  1.00  0.00     0.031 C 
ATOM     44  C   UNL     1      11.368   2.182  -1.018  1.00  0.00     0.029 A 
ATOM     45  C   UNL     1      12.196   2.834  -0.007  1.00  0.00     0.049 A 
ATOM     46  H   UNL     1      12.900   2.014   1.774  1.00  0.00     0.167 HD
ATOM     47  C   UNL     1      14.021   0.287   5.627  1.00  0.00     0.034 A 
ATOM     48  C   UNL     1      12.660   4.098  -0.074  1.00  0.00     0.034 A 
ATOM     49  C   UNL     1      14.711   1.546   5.562  1.00  0.00     0.049 A 
ATOM     50  C   UNL     1      13.558   4.605   1.022  1.00  0.00     0.074 A 
ATOM     51  C   UNL     1      15.588   2.095   6.481  1.00  0.00     0.029 A 
ATOM     52  N   UNL     1      14.601   2.454   4.521  1.00  0.00    -0.354 N 
ATOM     53  N   UNL     1      13.970   3.985   2.102  1.00  0.00    -0.248 NA
ATOM     54  C   UNL     1      14.091   5.967   0.872  1.00  0.00     0.031 C 
ATOM     55  C   UNL     1      16.004   3.340   5.996  1.00  0.00     0.029 A 
ATOM     56  C   UNL     1      15.389   3.562   4.774  1.00  0.00     0.049 A 
ATOM     57  H   UNL     1      14.043   2.329   3.720  1.00  0.00     0.167 HD
ATOM     58  C   UNL     1      14.835   4.866   2.740  1.00  0.00     0.074 A 
ATOM     59  C   UNL     1      14.904   6.056   1.917  1.00  0.00     0.031 C 
ATOM     60  C   UNL     1      15.498   4.712   3.913  1.00  0.00     0.034 A 
BRANCH  47  61
ATOM     61  C   UNL     1      14.209  -0.569   6.849  1.00  0.00     0.023 A 
ATOM     62  C   UNL     1      15.059  -1.691   6.775  1.00  0.00     0.012 A 
ATOM     63  C   UNL     1      13.595  -0.245   8.073  1.00  0.00     0.148 A 
ATOM     64  C   UNL     1      15.272  -2.496   7.893  1.00  0.00     0.002 A 
ATOM     65  C   UNL     1      13.841  -1.031   9.193  1.00  0.00     0.091 A 
ATOM     66  F   UNL     1      12.768   0.810   8.116  1.00  0.00    -0.205 F 
ATOM     67  C   UNL     1      14.671  -2.161   9.103  1.00  0.00     0.022 A 
BRANCH  65  68
ATOM     68  S   UNL     1      13.165  -0.640  10.811  1.00  0.00     0.127 S 
ATOM     69  O   UNL     1      12.092  -1.625  10.929  1.00  0.00    -0.237 OA
ATOM     70  O   UNL     1      14.310  -0.877  11.692  1.00  0.00    -0.237 OA
ATOM     71  O   UNL     1      12.740   0.751  10.737  1.00  0.00    -0.744 OA
ENDBRANCH  65  68
ENDBRANCH  47  61
BRANCH  48  72
ATOM     72  C   UNL     1      12.364   4.935  -1.271  1.00  0.00     0.023 A 
ATOM     73  C   UNL     1      13.396   5.204  -2.192  1.00  0.00     0.012 A 
ATOM     74  C   UNL     1      11.072   5.433  -1.523  1.00  0.00     0.148 A 
ATOM     75  C   UNL     1      13.152   5.976  -3.328  1.00  0.00     0.002 A 
ATOM     76  C   UNL     1      10.825   6.160  -2.683  1.00  0.00     0.091 A 
ATOM     77  F   UNL     1      10.106   5.182  -0.628  1.00  0.00    -0.205 F 
ATOM     78  C   UNL     1      11.866   6.445  -3.580  1.00  0.00     0.022 A 
BRANCH  76  79
ATOM     79  S   UNL     1       9.167   6.679  -3.143  1.00  0.00     0.127 S 
ATOM     80  O   UNL     1       9.175   8.087  -2.757  1.00  0.00    -0.237 OA
ATOM     81  O   UNL     1       9.155   6.436  -4.587  1.00  0.00    -0.237 OA
ATOM     82  O   UNL     1       8.271   5.811  -2.390  1.00  0.00    -0.744 OA
ENDBRANCH  76  79
ENDBRANCH  48  72
BRANCH  60  83
ATOM     83  C   UNL     1      16.376   5.843   4.375  1.00  0.00     0.023 A 
ATOM     84  C   UNL     1      15.785   7.000   4.920  1.00  0.00     0.012 A 
ATOM     85  C   UNL     1      17.779   5.725   4.355  1.00  0.00     0.148 A 
ATOM     86  C   UNL     1      16.578   8.032   5.418  1.00  0.00     0.002 A 
ATOM     87  C   UNL     1      18.562   6.741   4.890  1.00  0.00     0.091 A 
ATOM     88  F   UNL     1      18.323   4.627   3.810  1.00  0.00    -0.205 F 
ATOM     89  C   UNL     1      17.964   7.898   5.415  1.00  0.00     0.022 A 
BRANCH  87  90
ATOM     90  S   UNL     1      20.350   6.605   5.006  1.00  0.00     0.127 S 
ATOM     91  O   UNL     1      20.786   7.420   3.875  1.00  0.00    -0.237 OA
ATOM     92  O   UNL     1      20.627   7.187   6.320  1.00  0.00    -0.237 OA
ATOM     93  O   UNL     1      20.644   5.181   4.909  1.00  0.00    -0.744 OA
ENDBRANCH  87  90
ENDBRANCH  60  83
ENDBRANCH  34  35
ENDBRANCH  26  29
ENDBRANCH  24  25
ENDBRANCH  23  24
ENDBRANCH   1  23
TORSDOF 19
