REMARK SMILES C[C@@H]1Cc2ccccc2N1S(=O)(=O)c1c[nH]c(C(=O)NCCCCNC(=O)c2ccc(-c3c4nc(c(-c5cccc(S(=O)(=O)[O-])c5F)c5ccc([nH]5)c(-c5cccc(S(=O)(=O)[O-])c5F)c5nc(c(-c6cccc(S(=O)(=O)[O-])c6F)c6ccc3[nH]6)C=C5)C=C4)cc2)c1
REMARK SMILES IDX 23 1 22 2 21 3 20 4 18 5 19 6 17 8 14 9 15 10 91 11 16 12
REMARK SMILES IDX 11 14 12 15 13 16 10 17 1 18 2 19 3 20 4 21 9 22 5 23 8 24
REMARK SMILES IDX 6 25 7 26 24 27 25 28 26 29 27 31 28 32 29 33 90 34 30 35
REMARK SMILES IDX 89 36 31 37 32 38 33 39 83 40 34 41 88 42 82 43 84 44 35 45
REMARK SMILES IDX 87 46 81 47 80 48 36 50 68 51 48 52 67 53 49 54 52 55 66 56
REMARK SMILES IDX 85 57 50 58 51 59 65 61 86 62 53 63 37 64 38 65 46 66 39 67
REMARK SMILES IDX 41 68 47 69 40 70 42 71 43 72 44 73 45 74 69 75 70 76 78 77
REMARK SMILES IDX 71 78 73 79 79 80 72 81 74 82 75 83 76 84 77 85 54 86 55 87
REMARK SMILES IDX 63 88 56 89 58 90 64 91 57 92 59 93 60 94 61 95 62 96
REMARK H PARENT 20 7 16 13 25 30 84 49 52 60
REMARK Flexibility Score: inf
ROOT
ATOM      1  C   UNL     1      -6.068   4.024  -6.333  1.00  0.00     0.023 C 
ENDROOT
BRANCH   1   2
ATOM      2  C   UNL     1      -5.004   3.510  -5.361  1.00  0.00     0.023 C 
BRANCH   2   3
ATOM      3  C   UNL     1      -3.700   3.110  -6.041  1.00  0.00     0.116 C 
BRANCH   3   4
ATOM      4  N   UNL     1      -2.940   4.274  -6.448  1.00  0.00    -0.351 N 
ATOM      5  C   UNL     1      -1.646   4.636  -6.209  1.00  0.00     0.267 C 
ATOM      6  O   UNL     1      -1.204   5.593  -6.847  1.00  0.00    -0.268 OA
ATOM      7  H   UNL     1      -3.446   4.918  -6.994  1.00  0.00     0.163 HD
BRANCH   5   8
ATOM      8  C   UNL     1      -0.802   3.918  -5.279  1.00  0.00     0.105 A 
ATOM      9  C   UNL     1       0.233   2.705  -3.658  1.00  0.00     0.106 A 
ATOM     10  C   UNL     1       1.200   3.393  -4.360  1.00  0.00     0.105 A 
ATOM     11  C   UNL     1      -1.023   3.043  -4.225  1.00  0.00     0.055 A 
ATOM     12  N   UNL     1       0.566   4.133  -5.314  1.00  0.00    -0.356 N 
ATOM     13  H   UNL     1       1.019   4.739  -5.944  1.00  0.00     0.166 HD
BRANCH   9  14
ATOM     14  S   UNL     1       0.490   1.703  -2.276  1.00  0.00     0.266 S 
ATOM     15  O   UNL     1       1.927   1.564  -2.205  1.00  0.00    -0.201 OA
ATOM     16  O   UNL     1      -0.352   0.543  -2.524  1.00  0.00    -0.201 OA
BRANCH  14  17
ATOM     17  N   UNL     1      -0.061   2.449  -0.840  1.00  0.00    -0.263 N 
ATOM     18  C   UNL     1      -0.742   0.777   0.878  1.00  0.00     0.032 C 
ATOM     19  C   UNL     1       0.379   1.685   0.397  1.00  0.00     0.101 C 
ATOM     20  C   UNL     1       0.789   2.740   1.448  1.00  0.00     0.063 C 
ATOM     21  C   UNL     1       0.793   4.011   0.667  1.00  0.00    -0.021 A 
ATOM     22  C   UNL     1       0.278   3.824  -0.609  1.00  0.00     0.055 A 
ATOM     23  C   UNL     1       1.160   5.271   1.122  1.00  0.00     0.006 A 
ATOM     24  C   UNL     1       0.001   4.921  -1.409  1.00  0.00     0.027 A 
ATOM     25  C   UNL     1       0.962   6.368   0.283  1.00  0.00     0.000 A 
ATOM     26  C   UNL     1       0.367   6.196  -0.970  1.00  0.00     0.002 A 
ENDBRANCH  14  17
ENDBRANCH   9  14
ENDBRANCH   5   8
ENDBRANCH   3   4
ENDBRANCH   2   3
ENDBRANCH   1   2
BRANCH   1  27
ATOM     27  C   UNL     1      -6.419   3.051  -7.464  1.00  0.00     0.116 C 
BRANCH  27  28
ATOM     28  N   UNL     1      -6.937   1.761  -7.044  1.00  0.00    -0.352 N 
ATOM     29  C   UNL     1      -8.140   1.352  -6.518  1.00  0.00     0.251 C 
ATOM     30  H   UNL     1      -6.292   1.026  -7.160  1.00  0.00     0.163 HD
ATOM     31  O   UNL     1      -8.307   0.141  -6.370  1.00  0.00    -0.269 OA
BRANCH  29  32
ATOM     32  C   UNL     1      -9.176   2.303  -6.043  1.00  0.00     0.039 A 
ATOM     33  C   UNL     1      -9.306   3.594  -6.550  1.00  0.00     0.014 A 
ATOM     34  C   UNL     1     -10.033   1.885  -5.010  1.00  0.00     0.014 A 
ATOM     35  C   UNL     1     -10.121   4.512  -5.918  1.00  0.00     0.010 A 
ATOM     36  C   UNL     1     -10.921   2.784  -4.420  1.00  0.00     0.010 A 
ATOM     37  C   UNL     1     -10.924   4.111  -4.849  1.00  0.00    -0.014 A 
BRANCH  37  38
ATOM     38  C   UNL     1     -11.875   5.127  -4.362  1.00  0.00     0.031 A 
ATOM     39  C   UNL     1     -12.973   5.372  -5.411  1.00  0.00     0.074 A 
ATOM     40  C   UNL     1     -11.542   5.771  -3.205  1.00  0.00     0.049 A 
ATOM     41  N   UNL     1     -13.466   6.487  -5.867  1.00  0.00    -0.248 NA
ATOM     42  C   UNL     1     -13.456   4.206  -6.200  1.00  0.00     0.031 C 
ATOM     43  C   UNL     1     -10.447   5.370  -2.298  1.00  0.00     0.029 A 
ATOM     44  N   UNL     1     -12.037   6.882  -2.555  1.00  0.00    -0.354 N 
ATOM     45  C   UNL     1     -14.448   6.140  -6.824  1.00  0.00     0.074 A 
ATOM     46  C   UNL     1     -14.271   4.750  -7.106  1.00  0.00     0.031 C 
ATOM     47  C   UNL     1     -10.324   6.245  -1.276  1.00  0.00     0.029 A 
ATOM     48  C   UNL     1     -11.319   7.295  -1.410  1.00  0.00     0.049 A 
ATOM     49  H   UNL     1     -12.841   7.357  -2.869  1.00  0.00     0.167 HD
ATOM     50  C   UNL     1     -15.448   6.983  -7.217  1.00  0.00     0.034 A 
ATOM     51  C   UNL     1     -11.478   8.428  -0.656  1.00  0.00     0.034 A 
ATOM     52  C   UNL     1     -15.362   8.209  -6.494  1.00  0.00     0.049 A 
ATOM     53  C   UNL     1     -12.646   9.127  -1.223  1.00  0.00     0.074 A 
ATOM     54  C   UNL     1     -14.584   9.330  -6.599  1.00  0.00     0.029 A 
ATOM     55  N   UNL     1     -15.988   8.204  -5.271  1.00  0.00    -0.354 N 
ATOM     56  N   UNL     1     -13.880   8.724  -1.130  1.00  0.00    -0.248 NA
ATOM     57  C   UNL     1     -12.413  10.293  -2.086  1.00  0.00     0.031 C 
ATOM     58  C   UNL     1     -14.453   9.782  -5.265  1.00  0.00     0.029 A 
ATOM     59  C   UNL     1     -15.250   8.995  -4.427  1.00  0.00     0.049 A 
ATOM     60  H   UNL     1     -16.816   7.722  -5.042  1.00  0.00     0.167 HD
ATOM     61  C   UNL     1     -14.482   9.362  -2.188  1.00  0.00     0.074 A 
ATOM     62  C   UNL     1     -13.653  10.498  -2.515  1.00  0.00     0.031 C 
ATOM     63  C   UNL     1     -15.311   8.685  -3.018  1.00  0.00     0.034 A 
BRANCH  50  64
ATOM     64  C   UNL     1     -16.711   6.771  -8.019  1.00  0.00     0.023 A 
ATOM     65  C   UNL     1     -17.306   7.947  -8.556  1.00  0.00     0.012 A 
ATOM     66  C   UNL     1     -17.487   5.598  -8.022  1.00  0.00     0.148 A 
ATOM     67  C   UNL     1     -18.636   7.991  -8.971  1.00  0.00     0.002 A 
ATOM     68  C   UNL     1     -18.807   5.636  -8.482  1.00  0.00     0.091 A 
ATOM     69  F   UNL     1     -16.988   4.476  -7.495  1.00  0.00    -0.205 F 
ATOM     70  C   UNL     1     -19.392   6.834  -8.922  1.00  0.00     0.022 A 
BRANCH  68  71
ATOM     71  S   UNL     1     -19.863   4.182  -8.521  1.00  0.00     0.127 S 
ATOM     72  O   UNL     1     -20.727   4.405  -7.366  1.00  0.00    -0.237 OA
ATOM     73  O   UNL     1     -20.533   4.329  -9.816  1.00  0.00    -0.237 OA
ATOM     74  O   UNL     1     -18.959   3.043  -8.451  1.00  0.00    -0.744 OA
ENDBRANCH  68  71
ENDBRANCH  50  64
BRANCH  51  75
ATOM     75  C   UNL     1     -10.671   9.139   0.412  1.00  0.00     0.023 A 
ATOM     76  C   UNL     1      -9.609   8.546   1.113  1.00  0.00     0.012 A 
ATOM     77  C   UNL     1     -10.900  10.520   0.698  1.00  0.00     0.148 A 
ATOM     78  C   UNL     1      -8.761   9.299   1.949  1.00  0.00     0.002 A 
ATOM     79  C   UNL     1     -10.002  11.286   1.437  1.00  0.00     0.091 A 
ATOM     80  F   UNL     1     -12.013  11.113   0.253  1.00  0.00    -0.205 F 
ATOM     81  C   UNL     1      -8.928  10.675   2.077  1.00  0.00     0.022 A 
BRANCH  79  82
ATOM     82  S   UNL     1     -10.098  13.088   1.483  1.00  0.00     0.127 S 
ATOM     83  O   UNL     1      -9.839  13.383   2.892  1.00  0.00    -0.237 OA
ATOM     84  O   UNL     1      -9.017  13.458   0.571  1.00  0.00    -0.237 OA
ATOM     85  O   UNL     1     -11.437  13.438   1.026  1.00  0.00    -0.744 OA
ENDBRANCH  79  82
ENDBRANCH  51  75
BRANCH  63  86
ATOM     86  C   UNL     1     -15.971   7.458  -2.409  1.00  0.00     0.023 A 
ATOM     87  C   UNL     1     -17.046   7.674  -1.534  1.00  0.00     0.012 A 
ATOM     88  C   UNL     1     -15.522   6.128  -2.582  1.00  0.00     0.148 A 
ATOM     89  C   UNL     1     -17.656   6.609  -0.863  1.00  0.00     0.002 A 
ATOM     90  C   UNL     1     -16.112   5.065  -1.896  1.00  0.00     0.091 A 
ATOM     91  F   UNL     1     -14.516   5.908  -3.421  1.00  0.00    -0.205 F 
ATOM     92  C   UNL     1     -17.190   5.308  -1.039  1.00  0.00     0.022 A 
BRANCH  90  93
ATOM     93  S   UNL     1     -15.514   3.361  -1.985  1.00  0.00     0.127 S 
ATOM     94  O   UNL     1     -15.390   2.998  -0.571  1.00  0.00    -0.237 OA
ATOM     95  O   UNL     1     -16.605   2.685  -2.681  1.00  0.00    -0.237 OA
ATOM     96  O   UNL     1     -14.245   3.396  -2.705  1.00  0.00    -0.744 OA
ENDBRANCH  90  93
ENDBRANCH  63  86
ENDBRANCH  37  38
ENDBRANCH  29  32
ENDBRANCH  27  28
ENDBRANCH   1  27
TORSDOF 16
