REMARK SMILES COc1ccccc1[C@@H]1CN(C(=O)Cc2csc(C)n2)C[C@H]1C(=O)NCCCCNC(=O)c1ccc(-c2c3nc(c(-c4cccc(S(=O)(=O)[O-])c4F)c4ccc([nH]4)c(-c4cccc(S(=O)(=O)[O-])c4F)c4nc(c(-c5cccc(S(=O)(=O)[O-])c5F)c5ccc2[nH]5)C=C4)C=C3)cc1
REMARK SMILES IDX 27 1 26 2 25 3 23 4 24 5 22 7 9 8 10 9 11 10 21 11 8 12 3 13
REMARK SMILES IDX 4 14 5 15 7 16 6 17 2 18 1 19 12 20 13 21 14 22 15 23 16 24
REMARK SMILES IDX 20 25 17 26 18 27 19 28 28 29 29 30 30 31 31 32 32 34 33 35
REMARK SMILES IDX 34 36 95 37 35 38 94 39 36 40 37 41 38 42 88 43 39 44 93 45
REMARK SMILES IDX 87 46 89 47 40 48 92 49 86 50 85 51 41 53 73 54 53 55 72 56
REMARK SMILES IDX 54 57 57 58 71 59 90 60 55 61 56 62 70 64 91 65 58 66 42 67
REMARK SMILES IDX 43 68 51 69 44 70 46 71 52 72 45 73 47 74 48 75 49 76 50 77
REMARK SMILES IDX 74 78 75 79 83 80 76 81 78 82 84 83 77 84 79 85 80 86 81 87
REMARK SMILES IDX 82 88 59 89 60 90 68 91 61 92 63 93 69 94 62 95 64 96 65 97
REMARK SMILES IDX 66 98 67 99
REMARK H PARENT 25 6 30 33 89 52 57 63
REMARK Flexibility Score: inf
ROOT
ATOM      1  C   UNL     1       6.302   1.130   3.042  1.00  0.00     0.023 C 
ENDROOT
BRANCH   1   2
ATOM      2  C   UNL     1       5.738  -0.200   2.547  1.00  0.00     0.116 C 
BRANCH   2   3
ATOM      3  N   UNL     1       4.538  -0.573   3.271  1.00  0.00    -0.356 N 
ATOM      4  C   UNL     1       3.242  -0.645   2.873  1.00  0.00     0.225 C 
ATOM      5  O   UNL     1       2.408  -0.998   3.711  1.00  0.00    -0.275 OA
ATOM      6  H   UNL     1       4.689  -0.816   4.213  1.00  0.00     0.163 HD
BRANCH   4   7
ATOM      7  C   UNL     1       2.799  -0.332   1.455  1.00  0.00     0.107 C 
ATOM      8  C   UNL     1       3.084   1.107   0.987  1.00  0.00     0.057 C 
ATOM      9  C   UNL     1       3.470   0.968  -0.484  1.00  0.00     0.128 C 
ATOM     10  N   UNL     1       4.021  -0.371  -0.589  1.00  0.00    -0.341 N 
ATOM     11  C   UNL     1       3.463  -1.248   0.428  1.00  0.00     0.133 C 
BRANCH   8  12
ATOM     12  C   UNL     1       2.017   2.130   1.313  1.00  0.00    -0.000 A 
ATOM     13  C   UNL     1       0.790   2.262   0.645  1.00  0.00     0.122 A 
ATOM     14  C   UNL     1      -0.116   3.268   1.003  1.00  0.00     0.047 A 
ATOM     15  C   UNL     1       0.183   4.156   2.035  1.00  0.00     0.004 A 
ATOM     16  C   UNL     1       2.292   3.036   2.360  1.00  0.00     0.008 A 
ATOM     17  C   UNL     1       1.392   4.044   2.710  1.00  0.00     0.001 A 
BRANCH  13  18
ATOM     18  O   UNL     1       0.482   1.545  -0.479  1.00  0.00    -0.496 OA
ATOM     19  C   UNL     1      -0.128   0.289  -0.194  1.00  0.00     0.278 C 
ENDBRANCH  13  18
ENDBRANCH   8  12
BRANCH  10  20
ATOM     20  C   UNL     1       4.869  -0.856  -1.565  1.00  0.00     0.228 C 
ATOM     21  O   UNL     1       5.268  -2.023  -1.536  1.00  0.00    -0.274 OA
BRANCH  20  22
ATOM     22  C   UNL     1       5.390   0.115  -2.612  1.00  0.00     0.157 C 
BRANCH  22  23
ATOM     23  C   UNL     1       4.314   0.649  -3.500  1.00  0.00     0.061 A 
ATOM     24  C   UNL     1       4.093   1.978  -3.813  1.00  0.00     0.091 A 
ATOM     25  N   UNL     1       3.419  -0.233  -4.083  1.00  0.00    -0.246 NA
ATOM     26  S   UNL     1       2.712   2.128  -4.816  1.00  0.00    -0.127 S 
ATOM     27  C   UNL     1       2.519   0.423  -4.781  1.00  0.00     0.090 A 
ATOM     28  C   UNL     1       1.393  -0.221  -5.506  1.00  0.00     0.079 C 
ENDBRANCH  22  23
ENDBRANCH  20  22
ENDBRANCH  10  20
ENDBRANCH   4   7
ENDBRANCH   2   3
ENDBRANCH   1   2
BRANCH   1  29
ATOM     29  C   UNL     1       6.875   1.085   4.457  1.00  0.00     0.023 C 
BRANCH  29  30
ATOM     30  C   UNL     1       7.901  -0.015   4.696  1.00  0.00     0.116 C 
BRANCH  30  31
ATOM     31  N   UNL     1       8.982  -0.006   3.721  1.00  0.00    -0.352 N 
ATOM     32  C   UNL     1      10.323  -0.209   3.929  1.00  0.00     0.251 C 
ATOM     33  H   UNL     1       8.716   0.169   2.789  1.00  0.00     0.163 HD
ATOM     34  O   UNL     1      11.123  -0.041   3.013  1.00  0.00    -0.269 OA
BRANCH  32  35
ATOM     35  C   UNL     1      10.791  -0.596   5.274  1.00  0.00     0.039 A 
ATOM     36  C   UNL     1      11.856   0.102   5.844  1.00  0.00     0.014 A 
ATOM     37  C   UNL     1      10.147  -1.615   5.983  1.00  0.00     0.014 A 
ATOM     38  C   UNL     1      12.239  -0.183   7.154  1.00  0.00     0.010 A 
ATOM     39  C   UNL     1      10.477  -1.840   7.314  1.00  0.00     0.010 A 
ATOM     40  C   UNL     1      11.532  -1.134   7.910  1.00  0.00    -0.014 A 
BRANCH  40  41
ATOM     41  C   UNL     1      11.885  -1.399   9.326  1.00  0.00     0.031 A 
ATOM     42  C   UNL     1      12.379  -2.760   9.739  1.00  0.00     0.074 A 
ATOM     43  C   UNL     1      11.697  -0.436  10.250  1.00  0.00     0.049 A 
ATOM     44  N   UNL     1      12.723  -3.184  10.927  1.00  0.00    -0.248 NA
ATOM     45  C   UNL     1      12.472  -3.786   8.687  1.00  0.00     0.031 C 
ATOM     46  C   UNL     1      11.138   0.893   9.987  1.00  0.00     0.029 A 
ATOM     47  N   UNL     1      11.938  -0.431  11.600  1.00  0.00    -0.354 N 
ATOM     48  C   UNL     1      13.048  -4.526  10.771  1.00  0.00     0.074 A 
ATOM     49  C   UNL     1      12.813  -4.860   9.384  1.00  0.00     0.031 C 
ATOM     50  C   UNL     1      11.092   1.587  11.135  1.00  0.00     0.029 A 
ATOM     51  C   UNL     1      11.598   0.750  12.218  1.00  0.00     0.049 A 
ATOM     52  H   UNL     1      12.319  -1.201  12.082  1.00  0.00     0.167 HD
ATOM     53  C   UNL     1      13.539  -5.393  11.688  1.00  0.00     0.034 A 
ATOM     54  C   UNL     1      11.690   1.116  13.512  1.00  0.00     0.034 A 
ATOM     55  C   UNL     1      13.813  -5.045  13.055  1.00  0.00     0.049 A 
ATOM     56  C   UNL     1      12.286   0.149  14.499  1.00  0.00     0.074 A 
ATOM     57  C   UNL     1      14.376  -5.827  14.047  1.00  0.00     0.029 A 
ATOM     58  N   UNL     1      13.544  -3.809  13.623  1.00  0.00    -0.354 N 
ATOM     59  N   UNL     1      12.740  -1.064  14.296  1.00  0.00    -0.248 NA
ATOM     60  C   UNL     1      12.422   0.617  15.886  1.00  0.00     0.031 C 
ATOM     61  C   UNL     1      14.439  -5.066  15.220  1.00  0.00     0.029 A 
ATOM     62  C   UNL     1      13.932  -3.805  14.952  1.00  0.00     0.049 A 
ATOM     63  H   UNL     1      13.138  -3.047  13.151  1.00  0.00     0.167 HD
ATOM     64  C   UNL     1      13.251  -1.489  15.518  1.00  0.00     0.074 A 
ATOM     65  C   UNL     1      13.072  -0.393  16.448  1.00  0.00     0.031 C 
ATOM     66  C   UNL     1      13.802  -2.684  15.846  1.00  0.00     0.034 A 
BRANCH  53  67
ATOM     67  C   UNL     1      13.881  -6.784  11.218  1.00  0.00     0.023 A 
ATOM     68  C   UNL     1      14.997  -6.970  10.375  1.00  0.00     0.012 A 
ATOM     69  C   UNL     1      13.142  -7.904  11.643  1.00  0.00     0.148 A 
ATOM     70  C   UNL     1      15.351  -8.244   9.933  1.00  0.00     0.002 A 
ATOM     71  C   UNL     1      13.528  -9.176  11.234  1.00  0.00     0.091 A 
ATOM     72  F   UNL     1      12.072  -7.706  12.425  1.00  0.00    -0.205 F 
ATOM     73  C   UNL     1      14.623  -9.347  10.370  1.00  0.00     0.022 A 
BRANCH  71  74
ATOM     74  S   UNL     1      12.706 -10.669  11.802  1.00  0.00     0.127 S 
ATOM     75  O   UNL     1      12.019 -11.108  10.589  1.00  0.00    -0.237 OA
ATOM     76  O   UNL     1      13.836 -11.510  12.200  1.00  0.00    -0.237 OA
ATOM     77  O   UNL     1      11.840 -10.258  12.898  1.00  0.00    -0.744 OA
ENDBRANCH  71  74
ENDBRANCH  53  67
BRANCH  54  78
ATOM     78  C   UNL     1      11.289   2.489  13.932  1.00  0.00     0.023 A 
ATOM     79  C   UNL     1      12.283   3.405  14.333  1.00  0.00     0.012 A 
ATOM     80  C   UNL     1       9.943   2.899  13.925  1.00  0.00     0.148 A 
ATOM     81  C   UNL     1      11.939   4.689  14.757  1.00  0.00     0.002 A 
ATOM     82  C   UNL     1       9.612   4.198  14.295  1.00  0.00     0.091 A 
ATOM     83  F   UNL     1       9.009   2.012  13.553  1.00  0.00    -0.205 F 
ATOM     84  C   UNL     1      10.606   5.089  14.729  1.00  0.00     0.022 A 
BRANCH  82  85
ATOM     85  S   UNL     1       7.938   4.835  14.161  1.00  0.00     0.127 S 
ATOM     86  O   UNL     1       7.509   4.847  15.556  1.00  0.00    -0.237 OA
ATOM     87  O   UNL     1       8.159   6.156  13.572  1.00  0.00    -0.237 OA
ATOM     88  O   UNL     1       7.238   3.903  13.286  1.00  0.00    -0.744 OA
ENDBRANCH  82  85
ENDBRANCH  54  78
BRANCH  66  89
ATOM     89  C   UNL     1      14.287  -2.859  17.261  1.00  0.00     0.023 A 
ATOM     90  C   UNL     1      13.355  -2.997  18.308  1.00  0.00     0.012 A 
ATOM     91  C   UNL     1      15.664  -2.952  17.542  1.00  0.00     0.148 A 
ATOM     92  C   UNL     1      13.787  -3.186  19.620  1.00  0.00     0.002 A 
ATOM     93  C   UNL     1      16.086  -3.190  18.845  1.00  0.00     0.091 A 
ATOM     94  F   UNL     1      16.537  -2.799  16.535  1.00  0.00    -0.205 F 
ATOM     95  C   UNL     1      15.150  -3.295  19.887  1.00  0.00     0.022 A 
BRANCH  93  96
ATOM     96  S   UNL     1      17.816  -3.438  19.262  1.00  0.00     0.127 S 
ATOM     97  O   UNL     1      18.157  -2.163  19.891  1.00  0.00    -0.237 OA
ATOM     98  O   UNL     1      17.755  -4.575  20.181  1.00  0.00    -0.237 OA
ATOM     99  O   UNL     1      18.493  -3.719  18.003  1.00  0.00    -0.744 OA
ENDBRANCH  93  96
ENDBRANCH  66  89
ENDBRANCH  40  41
ENDBRANCH  32  35
ENDBRANCH  30  31
ENDBRANCH  29  30
ENDBRANCH   1  29
TORSDOF 19
