REMARK SMILES Cc1cc(C[N@H+]2CC[C@@H](C(=O)NCCCCNC(=O)c3ccc(-c4c5nc(c(-c6cccc(S(=O)(=O)[O-])c6F)c6ccc([nH]6)c(-c6cccc(S(=O)(=O)[O-])c6F)c6nc(c(-c7cccc(S(=O)(=O)[O-])c7F)c7ccc4[nH]7)C=C6)C=C5)cc3)[C@@H]2C)ccc1Br
REMARK SMILES IDX 15 1 14 2 13 3 12 4 10 5 11 6 9 8 6 9 7 10 83 11 8 13 84 14
REMARK SMILES IDX 5 15 4 16 1 17 2 18 3 19 87 20 86 21 88 22 85 23 16 24 17 25
REMARK SMILES IDX 18 26 19 28 20 29 21 30 82 31 22 32 81 33 23 34 24 35 25 36
REMARK SMILES IDX 75 37 26 38 80 39 74 40 76 41 27 42 79 43 73 44 72 45 28 47
REMARK SMILES IDX 60 48 40 49 59 50 41 51 44 52 58 53 77 54 42 55 43 56 57 58
REMARK SMILES IDX 78 59 45 60 29 61 30 62 38 63 31 64 33 65 39 66 32 67 34 68
REMARK SMILES IDX 35 69 36 70 37 71 61 72 62 73 70 74 63 75 65 76 71 77 64 78
REMARK SMILES IDX 66 79 67 80 68 81 69 82 46 83 47 84 55 85 48 86 50 87 56 88
REMARK SMILES IDX 49 89 51 90 52 91 53 92 54 93
REMARK H PARENT 12 7 6 12 17 27 76 46 44 57
REMARK Flexibility Score: inf
ROOT
ATOM      1  C   UNL     1       0.892   1.228   2.539  1.00  0.00     0.023 C 
ENDROOT
BRANCH   1   2
ATOM      2  C   UNL     1       1.754   0.609   1.180  1.00  0.00     0.023 C 
BRANCH   2   3
ATOM      3  C   UNL     1       1.750   0.890  -0.993  1.00  0.00     0.116 C 
BRANCH   3   4
ATOM      4  N   UNL     1       1.719   2.210  -1.913  1.00  0.00    -0.356 N 
ATOM      5  C   UNL     1       2.586   2.855  -2.733  1.00  0.00     0.229 C 
ATOM      6  O   UNL     1       2.139   3.851  -3.318  1.00  0.00    -0.275 OA
ATOM      7  H   UNL     1       0.847   2.665  -1.870  1.00  0.00     0.163 HD
BRANCH   5   8
ATOM      8  C   UNL     1       4.042   2.468  -2.970  1.00  0.00     0.142 C 
ATOM      9  N   UNL     1       5.497   1.377  -1.381  1.00  0.00    -0.328 N 
ATOM     10  C   UNL     1       5.234   0.418  -2.456  1.00  0.00     0.263 C 
ATOM     11  C   UNL     1       4.972   2.691  -1.781  1.00  0.00     0.193 C 
ATOM     12  H   UNL     1       6.507   1.442  -1.260  1.00  0.00     0.348 HD
ATOM     13  C   UNL     1       4.267   1.046  -3.446  1.00  0.00     0.081 C 
ATOM     14  C   UNL     1       6.162   3.589  -2.124  1.00  0.00     0.076 C 
BRANCH   9  15
ATOM     15  C   UNL     1       5.044   0.946  -0.058  1.00  0.00     0.299 C 
BRANCH  15  16
ATOM     16  C   UNL     1       3.553   0.838   0.077  1.00  0.00     0.007 A 
ATOM     17  C   UNL     1       0.301  -2.236  -0.246  1.00  0.00     0.045 C 
ATOM     18  C   UNL     1       0.952  -0.894  -0.115  1.00  0.00    -0.036 A 
ATOM     19  C   UNL     1       2.753  -0.775  -0.104  1.00  0.00     0.014 A 
ATOM     20  C   UNL     1      -0.050   0.588   0.080  1.00  0.00     0.020 A 
ATOM     21  C   UNL     1       0.727   2.193   0.282  1.00  0.00     0.016 A 
ATOM     22  Br  UNL     1      -1.918   0.524  -0.235  1.00  0.00    -0.051 Br
ATOM     23  C   UNL     1       2.534   2.322   0.329  1.00  0.00     0.011 A 
ENDBRANCH  15  16
ENDBRANCH   9  15
ENDBRANCH   5   8
ENDBRANCH   3   4
ENDBRANCH   2   3
ENDBRANCH   1   2
BRANCH   1  24
ATOM     24  C   UNL     1      -0.143   0.299   3.163  1.00  0.00     0.116 C 
BRANCH  24  25
ATOM     25  N   UNL     1       0.333  -1.054   3.417  1.00  0.00    -0.352 N 
ATOM     26  C   UNL     1      -0.418  -2.114   3.865  1.00  0.00     0.251 C 
ATOM     27  H   UNL     1       1.288  -1.226   3.250  1.00  0.00     0.163 HD
ATOM     28  O   UNL     1       0.074  -3.215   4.077  1.00  0.00    -0.269 OA
BRANCH  26  29
ATOM     29  C   UNL     1      -1.831  -1.837   4.168  1.00  0.00     0.039 A 
ATOM     30  C   UNL     1      -2.211  -1.765   5.507  1.00  0.00     0.014 A 
ATOM     31  C   UNL     1      -2.694  -1.439   3.146  1.00  0.00     0.014 A 
ATOM     32  C   UNL     1      -3.455  -1.233   5.827  1.00  0.00     0.010 A 
ATOM     33  C   UNL     1      -3.889  -0.814   3.476  1.00  0.00     0.010 A 
ATOM     34  C   UNL     1      -4.288  -0.719   4.818  1.00  0.00    -0.014 A 
BRANCH  34  35
ATOM     35  C   UNL     1      -5.594  -0.113   5.171  1.00  0.00     0.031 A 
ATOM     36  C   UNL     1      -6.864  -0.756   4.684  1.00  0.00     0.074 A 
ATOM     37  C   UNL     1      -5.636   1.019   5.902  1.00  0.00     0.049 A 
ATOM     38  N   UNL     1      -8.101  -0.419   4.934  1.00  0.00    -0.248 NA
ATOM     39  C   UNL     1      -6.731  -1.912   3.780  1.00  0.00     0.031 C 
ATOM     40  C   UNL     1      -4.469   1.786   6.347  1.00  0.00     0.029 A 
ATOM     41  N   UNL     1      -6.702   1.730   6.392  1.00  0.00    -0.354 N 
ATOM     42  C   UNL     1      -8.886  -1.292   4.193  1.00  0.00     0.074 A 
ATOM     43  C   UNL     1      -7.992  -2.152   3.454  1.00  0.00     0.031 C 
ATOM     44  C   UNL     1      -4.883   2.851   7.054  1.00  0.00     0.029 A 
ATOM     45  C   UNL     1      -6.342   2.856   7.097  1.00  0.00     0.049 A 
ATOM     46  H   UNL     1      -7.639   1.460   6.253  1.00  0.00     0.167 HD
ATOM     47  C   UNL     1     -10.233  -1.391   4.156  1.00  0.00     0.034 A 
ATOM     48  C   UNL     1      -7.105   3.784   7.709  1.00  0.00     0.034 A 
ATOM     49  C   UNL     1     -11.114  -0.571   4.938  1.00  0.00     0.049 A 
ATOM     50  C   UNL     1      -8.601   3.604   7.709  1.00  0.00     0.074 A 
ATOM     51  C   UNL     1     -12.488  -0.666   5.063  1.00  0.00     0.029 A 
ATOM     52  N   UNL     1     -10.710   0.503   5.713  1.00  0.00    -0.354 N 
ATOM     53  N   UNL     1      -9.316   2.649   7.164  1.00  0.00    -0.248 NA
ATOM     54  C   UNL     1      -9.393   4.601   8.443  1.00  0.00     0.031 C 
ATOM     55  C   UNL     1     -12.919   0.377   5.887  1.00  0.00     0.029 A 
ATOM     56  C   UNL     1     -11.810   1.095   6.305  1.00  0.00     0.049 A 
ATOM     57  H   UNL     1      -9.778   0.800   5.826  1.00  0.00     0.167 HD
ATOM     58  C   UNL     1     -10.635   2.911   7.516  1.00  0.00     0.074 A 
ATOM     59  C   UNL     1     -10.617   4.098   8.346  1.00  0.00     0.031 C 
ATOM     60  C   UNL     1     -11.763   2.243   7.172  1.00  0.00     0.034 A 
BRANCH  47  61
ATOM     61  C   UNL     1     -10.840  -2.447   3.274  1.00  0.00     0.023 A 
ATOM     62  C   UNL     1     -10.741  -3.807   3.634  1.00  0.00     0.012 A 
ATOM     63  C   UNL     1     -11.574  -2.084   2.129  1.00  0.00     0.148 A 
ATOM     64  C   UNL     1     -11.344  -4.792   2.853  1.00  0.00     0.002 A 
ATOM     65  C   UNL     1     -12.213  -3.067   1.384  1.00  0.00     0.091 A 
ATOM     66  F   UNL     1     -11.633  -0.788   1.793  1.00  0.00    -0.205 F 
ATOM     67  C   UNL     1     -12.090  -4.421   1.738  1.00  0.00     0.022 A 
BRANCH  65  68
ATOM     68  S   UNL     1     -13.266  -2.687  -0.020  1.00  0.00     0.127 S 
ATOM     69  O   UNL     1     -12.512  -3.282  -1.123  1.00  0.00    -0.237 OA
ATOM     70  O   UNL     1     -14.499  -3.393   0.326  1.00  0.00    -0.237 OA
ATOM     71  O   UNL     1     -13.381  -1.236  -0.059  1.00  0.00    -0.744 OA
ENDBRANCH  65  68
ENDBRANCH  47  61
BRANCH  48  72
ATOM     72  C   UNL     1      -6.475   4.941   8.409  1.00  0.00     0.023 A 
ATOM     73  C   UNL     1      -6.563   5.049   9.811  1.00  0.00     0.012 A 
ATOM     74  C   UNL     1      -5.795   5.942   7.689  1.00  0.00     0.148 A 
ATOM     75  C   UNL     1      -6.028   6.154  10.477  1.00  0.00     0.002 A 
ATOM     76  C   UNL     1      -5.212   7.009   8.363  1.00  0.00     0.091 A 
ATOM     77  F   UNL     1      -5.732   5.834   6.354  1.00  0.00    -0.205 F 
ATOM     78  C   UNL     1      -5.345   7.129   9.754  1.00  0.00     0.022 A 
BRANCH  76  79
ATOM     79  S   UNL     1      -4.201   8.233   7.522  1.00  0.00     0.127 S 
ATOM     80  O   UNL     1      -5.090   9.390   7.498  1.00  0.00    -0.237 OA
ATOM     81  O   UNL     1      -3.055   8.353   8.426  1.00  0.00    -0.237 OA
ATOM     82  O   UNL     1      -3.879   7.647   6.228  1.00  0.00    -0.744 OA
ENDBRANCH  76  79
ENDBRANCH  48  72
BRANCH  60  83
ATOM     83  C   UNL     1     -13.071   2.748   7.719  1.00  0.00     0.023 A 
ATOM     84  C   UNL     1     -13.623   3.946   7.228  1.00  0.00     0.012 A 
ATOM     85  C   UNL     1     -13.791   1.985   8.659  1.00  0.00     0.148 A 
ATOM     86  C   UNL     1     -14.858   4.397   7.691  1.00  0.00     0.002 A 
ATOM     87  C   UNL     1     -15.046   2.413   9.074  1.00  0.00     0.091 A 
ATOM     88  F   UNL     1     -13.240   0.855   9.125  1.00  0.00    -0.205 F 
ATOM     89  C   UNL     1     -15.574   3.625   8.602  1.00  0.00     0.022 A 
BRANCH  87  90
ATOM     90  S   UNL     1     -16.083   1.430  10.162  1.00  0.00     0.127 S 
ATOM     91  O   UNL     1     -16.018   2.196  11.406  1.00  0.00    -0.237 OA
ATOM     92  O   UNL     1     -17.378   1.478   9.483  1.00  0.00    -0.237 OA
ATOM     93  O   UNL     1     -15.476   0.107  10.211  1.00  0.00    -0.744 OA
ENDBRANCH  87  90
ENDBRANCH  60  83
ENDBRANCH  34  35
ENDBRANCH  26  29
ENDBRANCH  24  25
ENDBRANCH   1  24
TORSDOF 16
