REMARK SMILES CC(=O)c1ccccc1S(=O)(=O)N1CCC(C(=O)NCCCCNC(=O)c2ccc(-c3c4nc(c(-c5cccc(S(=O)(=O)[O-])c5F)c5ccc([nH]5)c(-c5cccc(S(=O)(=O)[O-])c5F)c5nc(c(-c6cccc(S(=O)(=O)[O-])c6F)c6ccc3[nH]6)C=C5)C=C4)cc2)CC1
REMARK SMILES IDX 21 1 20 2 19 3 17 4 18 5 16 7 13 8 14 9 91 10 15 11 90 12
REMARK SMILES IDX 10 13 11 14 12 15 9 16 4 17 5 18 6 19 8 20 7 21 2 22 1 23
REMARK SMILES IDX 3 24 22 25 23 26 24 27 25 28 26 30 27 31 28 32 89 33 29 34
REMARK SMILES IDX 88 35 30 36 31 37 32 38 82 39 33 40 87 41 81 42 83 43 34 44
REMARK SMILES IDX 86 45 80 46 79 47 35 49 67 50 47 51 66 52 48 53 51 54 65 55
REMARK SMILES IDX 84 56 49 57 50 58 64 60 85 61 52 62 36 63 37 64 45 65 38 66
REMARK SMILES IDX 40 67 46 68 39 69 41 70 42 71 43 72 44 73 68 74 69 75 77 76
REMARK SMILES IDX 70 77 72 78 78 79 71 80 73 81 74 82 75 83 76 84 53 85 54 86
REMARK SMILES IDX 62 87 55 88 57 89 63 90 56 91 58 92 59 93 60 94 61 95
REMARK H PARENT 19 6 24 29 83 48 51 59
REMARK Flexibility Score: inf
ROOT
ATOM      1  C   UNL     1       2.623   0.690   4.942  1.00  0.00     0.023 C 
ENDROOT
BRANCH   1   2
ATOM      2  C   UNL     1       2.406  -0.695   4.338  1.00  0.00     0.116 C 
BRANCH   2   3
ATOM      3  N   UNL     1       1.023  -1.117   4.431  1.00  0.00    -0.356 N 
ATOM      4  C   UNL     1       0.091  -1.293   3.453  1.00  0.00     0.223 C 
ATOM      5  O   UNL     1      -1.046  -1.631   3.784  1.00  0.00    -0.275 OA
ATOM      6  H   UNL     1       0.708  -1.307   5.344  1.00  0.00     0.163 HD
BRANCH   4   7
ATOM      7  C   UNL     1       0.449  -1.097   1.986  1.00  0.00     0.081 C 
ATOM      8  N   UNL     1       2.021  -0.524  -0.268  1.00  0.00    -0.198 NA
ATOM      9  C   UNL     1       2.112   0.468   0.820  1.00  0.00     0.103 C 
ATOM     10  C   UNL     1       2.171  -1.925   0.222  1.00  0.00     0.103 C 
ATOM     11  C   UNL     1       0.879   0.345   1.699  1.00  0.00     0.030 C 
ATOM     12  C   UNL     1       1.396  -2.201   1.508  1.00  0.00     0.030 C 
BRANCH   8  13
ATOM     13  S   UNL     1       2.926  -0.167  -1.664  1.00  0.00     0.243 S 
ATOM     14  O   UNL     1       4.009  -1.114  -1.762  1.00  0.00    -0.207 OA
ATOM     15  O   UNL     1       3.184   1.264  -1.680  1.00  0.00    -0.207 OA
BRANCH  13  16
ATOM     16  C   UNL     1       1.887  -0.436  -3.073  1.00  0.00     0.093 A 
ATOM     17  C   UNL     1       0.537  -0.771  -3.046  1.00  0.00     0.037 A 
ATOM     18  C   UNL     1      -0.176  -0.908  -4.250  1.00  0.00     0.013 A 
ATOM     19  C   UNL     1       0.449  -0.675  -5.474  1.00  0.00     0.001 A 
ATOM     20  C   UNL     1       2.510  -0.209  -4.315  1.00  0.00     0.022 A 
ATOM     21  C   UNL     1       1.792  -0.319  -5.506  1.00  0.00     0.001 A 
BRANCH  17  22
ATOM     22  C   UNL     1      -0.274  -0.965  -1.838  1.00  0.00     0.161 C 
ATOM     23  C   UNL     1      -0.981   0.249  -1.304  1.00  0.00     0.093 C 
ATOM     24  O   UNL     1      -0.460  -2.103  -1.423  1.00  0.00    -0.294 OA
ENDBRANCH  17  22
ENDBRANCH  13  16
ENDBRANCH   8  13
ENDBRANCH   4   7
ENDBRANCH   2   3
ENDBRANCH   1   2
BRANCH   1  25
ATOM     25  C   UNL     1       2.454   0.743   6.458  1.00  0.00     0.023 C 
BRANCH  25  26
ATOM     26  C   UNL     1       3.258  -0.300   7.218  1.00  0.00     0.116 C 
BRANCH  26  27
ATOM     27  N   UNL     1       4.674  -0.291   6.870  1.00  0.00    -0.352 N 
ATOM     28  C   UNL     1       5.754  -0.416   7.707  1.00  0.00     0.251 C 
ATOM     29  H   UNL     1       4.881  -0.180   5.913  1.00  0.00     0.163 HD
ATOM     30  O   UNL     1       6.895  -0.267   7.284  1.00  0.00    -0.269 OA
BRANCH  28  31
ATOM     31  C   UNL     1       5.505  -0.701   9.131  1.00  0.00     0.039 A 
ATOM     32  C   UNL     1       6.073   0.131  10.097  1.00  0.00     0.014 A 
ATOM     33  C   UNL     1       4.641  -1.737   9.494  1.00  0.00     0.014 A 
ATOM     34  C   UNL     1       5.723  -0.043  11.435  1.00  0.00     0.010 A 
ATOM     35  C   UNL     1       4.227  -1.849  10.814  1.00  0.00     0.010 A 
ATOM     36  C   UNL     1       4.773  -1.013  11.799  1.00  0.00    -0.014 A 
BRANCH  36  37
ATOM     37  C   UNL     1       4.342  -1.173  13.208  1.00  0.00     0.031 A 
ATOM     38  C   UNL     1       4.596  -2.470  13.926  1.00  0.00     0.074 A 
ATOM     39  C   UNL     1       3.649  -0.186  13.810  1.00  0.00     0.049 A 
ATOM     40  N   UNL     1       4.263  -2.817  15.141  1.00  0.00    -0.248 NA
ATOM     41  C   UNL     1       5.285  -3.530  13.169  1.00  0.00     0.031 C 
ATOM     42  C   UNL     1       3.257   1.079  13.183  1.00  0.00     0.029 A 
ATOM     43  N   UNL     1       3.130  -0.102  15.076  1.00  0.00    -0.354 N 
ATOM     44  C   UNL     1       4.663  -4.140  15.280  1.00  0.00     0.074 A 
ATOM     45  C   UNL     1       5.226  -4.549  14.012  1.00  0.00     0.031 C 
ATOM     46  C   UNL     1       2.568   1.814  14.070  1.00  0.00     0.029 A 
ATOM     47  C   UNL     1       2.448   1.067  15.318  1.00  0.00     0.049 A 
ATOM     48  H   UNL     1       3.235  -0.813  15.750  1.00  0.00     0.167 HD
ATOM     49  C   UNL     1       4.602  -4.934  16.374  1.00  0.00     0.034 A 
ATOM     50  C   UNL     1       1.801   1.489  16.422  1.00  0.00     0.034 A 
ATOM     51  C   UNL     1       4.093  -4.503  17.646  1.00  0.00     0.049 A 
ATOM     52  C   UNL     1       1.808   0.615  17.646  1.00  0.00     0.074 A 
ATOM     53  C   UNL     1       4.079  -5.192  18.845  1.00  0.00     0.029 A 
ATOM     54  N   UNL     1       3.503  -3.271  17.884  1.00  0.00    -0.354 N 
ATOM     55  N   UNL     1       2.348  -0.569  17.811  1.00  0.00    -0.248 NA
ATOM     56  C   UNL     1       1.156   1.150  18.849  1.00  0.00     0.031 C 
ATOM     57  C   UNL     1       3.461  -4.383  19.805  1.00  0.00     0.029 A 
ATOM     58  C   UNL     1       3.115  -3.180  19.209  1.00  0.00     0.049 A 
ATOM     59  H   UNL     1       3.379  -2.564  17.210  1.00  0.00     0.167 HD
ATOM     60  C   UNL     1       2.132  -0.905  19.143  1.00  0.00     0.074 A 
ATOM     61  C   UNL     1       1.432   0.212  19.745  1.00  0.00     0.031 C 
ATOM     62  C   UNL     1       2.468  -2.039  19.805  1.00  0.00     0.034 A 
BRANCH  49  63
ATOM     63  C   UNL     1       5.155  -6.330  16.257  1.00  0.00     0.023 A 
ATOM     64  C   UNL     1       6.547  -6.520  16.141  1.00  0.00     0.012 A 
ATOM     65  C   UNL     1       4.307  -7.453  16.311  1.00  0.00     0.148 A 
ATOM     66  C   UNL     1       7.085  -7.802  16.044  1.00  0.00     0.002 A 
ATOM     67  C   UNL     1       4.854  -8.730  16.262  1.00  0.00     0.091 A 
ATOM     68  F   UNL     1       2.984  -7.253  16.397  1.00  0.00    -0.205 F 
ATOM     69  C   UNL     1       6.240  -8.906  16.116  1.00  0.00     0.022 A 
BRANCH  67  70
ATOM     70  S   UNL     1       3.861 -10.217  16.428  1.00  0.00     0.127 S 
ATOM     71  O   UNL     1       3.916 -10.761  15.072  1.00  0.00    -0.237 OA
ATOM     72  O   UNL     1       4.615 -10.981  17.422  1.00  0.00    -0.237 OA
ATOM     73  O   UNL     1       2.546  -9.774  16.871  1.00  0.00    -0.744 OA
ENDBRANCH  67  70
ENDBRANCH  49  63
BRANCH  50  74
ATOM     74  C   UNL     1       1.162   2.836  16.442  1.00  0.00     0.023 A 
ATOM     75  C   UNL     1       1.732   3.859  17.224  1.00  0.00     0.012 A 
ATOM     76  C   UNL     1       0.018   3.117  15.672  1.00  0.00     0.148 A 
ATOM     77  C   UNL     1       1.155   5.129  17.265  1.00  0.00     0.002 A 
ATOM     78  C   UNL     1      -0.520   4.399  15.675  1.00  0.00     0.091 A 
ATOM     79  F   UNL     1      -0.516   2.127  14.942  1.00  0.00    -0.205 F 
ATOM     80  C   UNL     1       0.036   5.402  16.484  1.00  0.00     0.022 A 
BRANCH  78  81
ATOM     81  S   UNL     1      -1.878   4.875  14.599  1.00  0.00     0.127 S 
ATOM     82  O   UNL     1      -2.974   5.029  15.550  1.00  0.00    -0.237 OA
ATOM     83  O   UNL     1      -1.381   6.126  14.022  1.00  0.00    -0.237 OA
ATOM     84  O   UNL     1      -2.017   3.788  13.639  1.00  0.00    -0.744 OA
ENDBRANCH  78  81
ENDBRANCH  50  74
BRANCH  62  85
ATOM     85  C   UNL     1       2.119  -2.124  21.267  1.00  0.00     0.023 A 
ATOM     86  C   UNL     1       0.777  -2.293  21.659  1.00  0.00     0.012 A 
ATOM     87  C   UNL     1       3.131  -2.112  22.247  1.00  0.00     0.148 A 
ATOM     88  C   UNL     1       0.443  -2.414  23.007  1.00  0.00     0.002 A 
ATOM     89  C   UNL     1       2.796  -2.284  23.584  1.00  0.00     0.091 A 
ATOM     90  F   UNL     1       4.401  -1.931  21.855  1.00  0.00    -0.205 F 
ATOM     91  C   UNL     1       1.452  -2.422  23.968  1.00  0.00     0.022 A 
BRANCH  89  92
ATOM     92  S   UNL     1       4.038  -2.406  24.876  1.00  0.00     0.127 S 
ATOM     93  O   UNL     1       3.914  -1.107  25.534  1.00  0.00    -0.237 OA
ATOM     94  O   UNL     1       3.554  -3.539  25.667  1.00  0.00    -0.237 OA
ATOM     95  O   UNL     1       5.303  -2.646  24.194  1.00  0.00    -0.744 OA
ENDBRANCH  89  92
ENDBRANCH  62  85
ENDBRANCH  36  37
ENDBRANCH  28  31
ENDBRANCH  26  27
ENDBRANCH  25  26
ENDBRANCH   1  25
TORSDOF 17
