REMARK SMILES Cc1ccc(-c2cc(Cl)ccc2Cl)c(C(=O)NCCCCNC(=O)c2ccc(-c3c4nc(c(-c5cccc(S(=O)(=O)[O-])c5F)c5ccc([nH]5)c(-c5cccc(S(=O)(=O)[O-])c5F)c5nc(c(-c6cccc(S(=O)(=O)[O-])c6F)c6ccc3[nH]6)C=C5)C=C4)cc2)c1
REMARK SMILES IDX 20 1 19 2 18 3 17 4 15 5 16 6 14 8 1 9 2 10 3 11 88 12 4 13
REMARK SMILES IDX 5 14 6 15 7 16 12 17 8 18 11 19 13 20 9 21 10 22 21 23 22 24
REMARK SMILES IDX 23 25 24 27 25 28 26 29 87 30 27 31 86 32 28 33 29 34 30 35
REMARK SMILES IDX 80 36 31 37 85 38 79 39 81 40 32 41 84 42 78 43 77 44 33 46
REMARK SMILES IDX 65 47 45 48 64 49 46 50 49 51 63 52 82 53 47 54 48 55 62 57
REMARK SMILES IDX 83 58 50 59 34 60 35 61 43 62 36 63 38 64 44 65 37 66 39 67
REMARK SMILES IDX 40 68 41 69 42 70 66 71 67 72 75 73 68 74 70 75 76 76 69 77
REMARK SMILES IDX 71 78 72 79 73 80 74 81 51 82 52 83 60 84 53 85 55 86 61 87
REMARK SMILES IDX 54 88 56 89 57 90 58 91 59 92
REMARK H PARENT 17 7 22 26 81 45 49 56
REMARK Flexibility Score: inf
ROOT
ATOM      1  C   UNL     1       0.325   5.315  -2.188  1.00  0.00     0.023 C 
ENDROOT
BRANCH   1   2
ATOM      2  C   UNL     1       0.947   4.163  -1.382  1.00  0.00     0.023 C 
BRANCH   2   3
ATOM      3  C   UNL     1       0.414   3.996   0.051  1.00  0.00     0.116 C 
BRANCH   3   4
ATOM      4  N   UNL     1      -0.982   3.598   0.064  1.00  0.00    -0.352 N 
ATOM      5  C   UNL     1      -1.670   2.412  -0.004  1.00  0.00     0.251 C 
ATOM      6  O   UNL     1      -2.893   2.544   0.059  1.00  0.00    -0.269 OA
ATOM      7  H   UNL     1      -1.586   4.371   0.141  1.00  0.00     0.163 HD
BRANCH   5   8
ATOM      8  C   UNL     1      -1.051   1.035  -0.118  1.00  0.00     0.047 A 
ATOM      9  C   UNL     1       2.467  -0.476  -0.183  1.00  0.00     0.044 C 
ATOM     10  C   UNL     1       0.968  -0.386  -0.170  1.00  0.00    -0.050 A 
ATOM     11  C   UNL     1       0.184  -1.525  -0.073  1.00  0.00     0.004 A 
ATOM     12  C   UNL     1       0.338   0.864  -0.240  1.00  0.00     0.018 A 
ATOM     13  C   UNL     1      -1.204  -1.403  -0.049  1.00  0.00     0.010 A 
ATOM     14  C   UNL     1      -1.852  -0.142  -0.057  1.00  0.00    -0.004 A 
BRANCH  14  15
ATOM     15  C   UNL     1      -3.336  -0.154  -0.037  1.00  0.00     0.003 A 
ATOM     16  C   UNL     1      -4.043   0.289  -1.175  1.00  0.00     0.030 A 
ATOM     17  C   UNL     1      -4.093  -0.605   1.066  1.00  0.00     0.049 A 
ATOM     18  C   UNL     1      -5.439   0.331  -1.188  1.00  0.00     0.041 A 
ATOM     19  C   UNL     1      -5.494  -0.590   1.034  1.00  0.00     0.023 A 
ATOM     20  Cl  UNL     1      -3.351  -1.202   2.513  1.00  0.00    -0.084 Cl
ATOM     21  Cl  UNL     1      -6.265   0.938  -2.571  1.00  0.00    -0.084 Cl
ATOM     22  C   UNL     1      -6.167  -0.111  -0.089  1.00  0.00     0.022 A 
ENDBRANCH  14  15
ENDBRANCH   5   8
ENDBRANCH   3   4
ENDBRANCH   2   3
ENDBRANCH   1   2
BRANCH   1  23
ATOM     23  C   UNL     1       0.461   6.662  -1.505  1.00  0.00     0.116 C 
BRANCH  23  24
ATOM     24  N   UNL     1       1.831   7.122  -1.433  1.00  0.00    -0.352 N 
ATOM     25  C   UNL     1       2.309   8.336  -0.987  1.00  0.00     0.251 C 
ATOM     26  H   UNL     1       2.512   6.483  -1.744  1.00  0.00     0.163 HD
ATOM     27  O   UNL     1       3.292   8.795  -1.576  1.00  0.00    -0.269 OA
BRANCH  25  28
ATOM     28  C   UNL     1       1.810   8.960   0.268  1.00  0.00     0.039 A 
ATOM     29  C   UNL     1       2.705   9.784   0.972  1.00  0.00     0.014 A 
ATOM     30  C   UNL     1       0.659   8.518   0.904  1.00  0.00     0.014 A 
ATOM     31  C   UNL     1       2.624   9.877   2.358  1.00  0.00     0.010 A 
ATOM     32  C   UNL     1       0.604   8.548   2.269  1.00  0.00     0.010 A 
ATOM     33  C   UNL     1       1.654   9.121   2.986  1.00  0.00    -0.014 A 
BRANCH  33  34
ATOM     34  C   UNL     1       1.591   8.788   4.390  1.00  0.00     0.031 A 
ATOM     35  C   UNL     1       0.767   9.642   5.263  1.00  0.00     0.074 A 
ATOM     36  C   UNL     1       1.850   7.482   4.649  1.00  0.00     0.049 A 
ATOM     37  N   UNL     1       0.568   9.404   6.508  1.00  0.00    -0.248 NA
ATOM     38  C   UNL     1       0.076  10.841   4.787  1.00  0.00     0.031 C 
ATOM     39  C   UNL     1       1.237   6.646   5.674  1.00  0.00     0.029 A 
ATOM     40  N   UNL     1       2.725   6.588   4.015  1.00  0.00    -0.354 N 
ATOM     41  C   UNL     1      -0.504  10.176   6.898  1.00  0.00     0.074 A 
ATOM     42  C   UNL     1      -0.662  11.158   5.857  1.00  0.00     0.031 C 
ATOM     43  C   UNL     1       1.942   5.507   5.784  1.00  0.00     0.029 A 
ATOM     44  C   UNL     1       3.153   5.692   5.005  1.00  0.00     0.049 A 
ATOM     45  H   UNL     1       2.986   6.589   3.066  1.00  0.00     0.167 HD
ATOM     46  C   UNL     1      -1.219   9.774   7.984  1.00  0.00     0.034 A 
ATOM     47  C   UNL     1       4.414   5.720   5.545  1.00  0.00     0.034 A 
ATOM     48  C   UNL     1      -0.533   8.654   8.653  1.00  0.00     0.049 A 
ATOM     49  C   UNL     1       4.417   6.113   7.024  1.00  0.00     0.074 A 
ATOM     50  C   UNL     1      -0.750   7.288   8.684  1.00  0.00     0.029 A 
ATOM     51  N   UNL     1       0.758   8.854   9.141  1.00  0.00    -0.354 N 
ATOM     52  N   UNL     1       3.358   6.502   7.684  1.00  0.00    -0.248 NA
ATOM     53  C   UNL     1       5.604   6.101   7.876  1.00  0.00     0.031 C 
ATOM     54  C   UNL     1       0.478   6.664   9.060  1.00  0.00     0.029 A 
ATOM     55  C   UNL     1       1.422   7.647   9.316  1.00  0.00     0.049 A 
ATOM     56  H   UNL     1       1.148   9.736   9.337  1.00  0.00     0.167 HD
ATOM     57  C   UNL     1       3.703   6.943   8.932  1.00  0.00     0.074 A 
ATOM     58  C   UNL     1       5.106   6.572   9.036  1.00  0.00     0.031 C 
ATOM     59  C   UNL     1       2.829   7.632   9.737  1.00  0.00     0.034 A 
BRANCH  46  60
ATOM     60  C   UNL     1      -2.609  10.247   8.377  1.00  0.00     0.023 A 
ATOM     61  C   UNL     1      -3.116   9.769   9.606  1.00  0.00     0.012 A 
ATOM     62  C   UNL     1      -3.497  11.048   7.611  1.00  0.00     0.148 A 
ATOM     63  C   UNL     1      -4.413  10.059  10.050  1.00  0.00     0.002 A 
ATOM     64  C   UNL     1      -4.768  11.393   8.085  1.00  0.00     0.091 A 
ATOM     65  F   UNL     1      -3.171  11.415   6.370  1.00  0.00    -0.205 F 
ATOM     66  C   UNL     1      -5.235  10.886   9.299  1.00  0.00     0.022 A 
BRANCH  64  67
ATOM     67  S   UNL     1      -5.874  12.506   7.191  1.00  0.00     0.127 S 
ATOM     68  O   UNL     1      -6.953  11.607   6.784  1.00  0.00    -0.237 OA
ATOM     69  O   UNL     1      -6.249  13.474   8.223  1.00  0.00    -0.237 OA
ATOM     70  O   UNL     1      -5.092  13.069   6.097  1.00  0.00    -0.744 OA
ENDBRANCH  64  67
ENDBRANCH  46  60
BRANCH  47  71
ATOM     71  C   UNL     1       5.467   6.067   4.540  1.00  0.00     0.023 A 
ATOM     72  C   UNL     1       5.671   5.129   3.499  1.00  0.00     0.012 A 
ATOM     73  C   UNL     1       5.849   7.404   4.333  1.00  0.00     0.148 A 
ATOM     74  C   UNL     1       6.047   5.550   2.222  1.00  0.00     0.002 A 
ATOM     75  C   UNL     1       6.214   7.819   3.052  1.00  0.00     0.091 A 
ATOM     76  F   UNL     1       5.766   8.260   5.359  1.00  0.00    -0.205 F 
ATOM     77  C   UNL     1       6.263   6.904   1.987  1.00  0.00     0.022 A 
BRANCH  75  78
ATOM     78  S   UNL     1       6.473   9.556   2.660  1.00  0.00     0.127 S 
ATOM     79  O   UNL     1       7.929   9.652   2.691  1.00  0.00    -0.237 OA
ATOM     80  O   UNL     1       5.882   9.669   1.328  1.00  0.00    -0.237 OA
ATOM     81  O   UNL     1       5.759  10.289   3.695  1.00  0.00    -0.744 OA
ENDBRANCH  75  78
ENDBRANCH  47  71
BRANCH  59  82
ATOM     82  C   UNL     1       3.229   8.385  11.002  1.00  0.00     0.023 A 
ATOM     83  C   UNL     1       4.561   8.758  11.270  1.00  0.00     0.012 A 
ATOM     84  C   UNL     1       2.250   8.870  11.910  1.00  0.00     0.148 A 
ATOM     85  C   UNL     1       4.919   9.481  12.414  1.00  0.00     0.002 A 
ATOM     86  C   UNL     1       2.596   9.708  12.967  1.00  0.00     0.091 A 
ATOM     87  F   UNL     1       0.967   8.505  11.774  1.00  0.00    -0.205 F 
ATOM     88  C   UNL     1       3.934   9.977  13.252  1.00  0.00     0.022 A 
BRANCH  86  89
ATOM     89  S   UNL     1       1.339  10.608  13.888  1.00  0.00     0.127 S 
ATOM     90  O   UNL     1       1.139   9.747  15.050  1.00  0.00    -0.237 OA
ATOM     91  O   UNL     1       2.012  11.876  14.178  1.00  0.00    -0.237 OA
ATOM     92  O   UNL     1       0.213  10.729  12.972  1.00  0.00    -0.744 OA
ENDBRANCH  86  89
ENDBRANCH  59  82
ENDBRANCH  33  34
ENDBRANCH  25  28
ENDBRANCH  23  24
ENDBRANCH   1  23
TORSDOF 15
