REMARK SMILES CS(=O)(=O)Nc1ccc(-c2cc(Cl)cc3c2O[C@H](C(F)(F)F)C(C(=O)NCCCCNC(=O)c2ccc(-c4c5nc(c(-c6cccc(S(=O)(=O)[O-])c6F)c6ccc([nH]6)c(-c6cccc(S(=O)(=O)[O-])c6F)c6nc(c(-c7cccc(S(=O)(=O)[O-])c7F)c7ccc4[nH]7)C=C6)C=C5)cc2)=C3)cc1
REMARK SMILES IDX 28 1 27 2 26 3 24 4 25 5 23 7 10 8 11 9 16 10 12 11 15 12
REMARK SMILES IDX 17 13 13 14 14 15 97 16 18 17 9 18 6 19 7 20 99 21 8 22
REMARK SMILES IDX 98 23 5 24 2 26 1 27 3 28 4 29 19 30 20 31 21 32 22 33 29 34
REMARK SMILES IDX 30 35 31 36 32 37 33 39 34 40 35 41 96 42 36 43 95 44 37 45
REMARK SMILES IDX 38 46 39 47 89 48 40 49 94 50 88 51 90 52 41 53 93 54 87 55
REMARK SMILES IDX 86 56 42 58 74 59 54 60 73 61 55 62 58 63 72 64 91 65 56 66
REMARK SMILES IDX 57 67 71 69 92 70 59 71 43 72 44 73 52 74 45 75 47 76 53 77
REMARK SMILES IDX 46 78 48 79 49 80 50 81 51 82 75 83 76 84 84 85 77 86 79 87
REMARK SMILES IDX 85 88 78 89 80 90 81 91 82 92 83 93 60 94 61 95 69 96 62 97
REMARK SMILES IDX 64 98 70 99 63 100 65 101 66 102 67 103 68 104
REMARK H PARENT 26 6 5 25 31 38 90 57 58 68
REMARK Flexibility Score: inf
ROOT
ATOM      1  C   UNL     1      10.996   3.983   9.830  1.00  0.00     0.023 C 
ENDROOT
BRANCH   1   2
ATOM      2  C   UNL     1      10.541   2.826   8.930  1.00  0.00     0.116 C 
BRANCH   2   3
ATOM      3  N   UNL     1       9.115   2.628   9.075  1.00  0.00    -0.352 N 
ATOM      4  C   UNL     1       8.166   2.538   8.115  1.00  0.00     0.251 C 
ATOM      5  O   UNL     1       7.043   2.970   8.353  1.00  0.00    -0.270 OA
ATOM      6  H   UNL     1       8.790   2.546  10.001  1.00  0.00     0.163 HD
BRANCH   4   7
ATOM      7  C   UNL     1       8.498   1.816   6.848  1.00  0.00     0.067 C 
ATOM      8  C   UNL     1       4.971   2.366   4.882  1.00  0.00     0.026 A 
ATOM      9  C   UNL     1       3.941   2.080   5.820  1.00  0.00     0.033 A 
ATOM     10  C   UNL     1       6.267   1.963   5.249  1.00  0.00     0.135 A 
ATOM     11  C   UNL     1       4.145   1.296   6.952  1.00  0.00     0.042 A 
ATOM     12  C   UNL     1       6.430   1.065   6.335  1.00  0.00     0.019 A 
ATOM     13  O   UNL     1       7.417   2.451   4.643  1.00  0.00    -0.475 OA
ATOM     14  Cl  UNL     1       2.849   1.030   8.048  1.00  0.00    -0.084 Cl
ATOM     15  C   UNL     1       5.376   0.716   7.175  1.00  0.00     0.032 A 
ATOM     16  C   UNL     1       7.806   0.668   6.706  1.00  0.00     0.025 C 
ATOM     17  C   UNL     1       8.541   2.696   5.604  1.00  0.00     0.314 C 
BRANCH   8  18
ATOM     18  C   UNL     1       4.476   2.852   3.561  1.00  0.00    -0.014 A 
ATOM     19  C   UNL     1       2.525   2.888   1.482  1.00  0.00     0.048 A 
ATOM     20  C   UNL     1       2.503   3.842   2.503  1.00  0.00     0.027 A 
ATOM     21  C   UNL     1       3.624   2.036   1.405  1.00  0.00     0.027 A 
ATOM     22  C   UNL     1       3.483   3.849   3.508  1.00  0.00     0.011 A 
ATOM     23  C   UNL     1       4.595   2.022   2.431  1.00  0.00     0.011 A 
BRANCH  19  24
ATOM     24  N   UNL     1       1.325   2.743   0.727  1.00  0.00    -0.284 N 
ATOM     25  H   UNL     1       0.572   3.318   0.995  1.00  0.00     0.180 HD
BRANCH  24  26
ATOM     26  S   UNL     1       1.042   1.721  -0.551  1.00  0.00     0.229 S 
ATOM     27  C   UNL     1       0.974   0.099   0.194  1.00  0.00     0.183 C 
ATOM     28  O   UNL     1       2.154   1.772  -1.475  1.00  0.00    -0.207 OA
ATOM     29  O   UNL     1      -0.301   2.037  -0.990  1.00  0.00    -0.207 OA
ENDBRANCH  24  26
ENDBRANCH  19  24
ENDBRANCH   8  18
BRANCH  17  30
ATOM     30  C   UNL     1       9.918   2.504   4.928  1.00  0.00     0.429 C 
ATOM     31  F   UNL     1       9.835   1.836   3.755  1.00  0.00    -0.167 F 
ATOM     32  F   UNL     1      10.514   3.696   4.679  1.00  0.00    -0.167 F 
ATOM     33  F   UNL     1      10.788   1.805   5.705  1.00  0.00    -0.167 F 
ENDBRANCH  17  30
ENDBRANCH   4   7
ENDBRANCH   2   3
ENDBRANCH   1   2
BRANCH   1  34
ATOM     34  C   UNL     1      10.744   3.784  11.332  1.00  0.00     0.023 C 
BRANCH  34  35
ATOM     35  C   UNL     1      11.336   2.510  11.921  1.00  0.00     0.116 C 
BRANCH  35  36
ATOM     36  N   UNL     1      12.788   2.499  11.840  1.00  0.00    -0.352 N 
ATOM     37  C   UNL     1      13.711   2.338  12.844  1.00  0.00     0.251 C 
ATOM     38  H   UNL     1      13.162   2.625  10.938  1.00  0.00     0.163 HD
ATOM     39  O   UNL     1      14.898   2.557  12.617  1.00  0.00    -0.269 OA
BRANCH  37  40
ATOM     40  C   UNL     1      13.276   1.921  14.195  1.00  0.00     0.039 A 
ATOM     41  C   UNL     1      13.824   2.562  15.309  1.00  0.00     0.014 A 
ATOM     42  C   UNL     1      12.340   0.898  14.367  1.00  0.00     0.014 A 
ATOM     43  C   UNL     1      13.396   2.209  16.592  1.00  0.00     0.010 A 
ATOM     44  C   UNL     1      11.855   0.606  15.640  1.00  0.00     0.010 A 
ATOM     45  C   UNL     1      12.387   1.247  16.768  1.00  0.00    -0.014 A 
BRANCH  45  46
ATOM     46  C   UNL     1      11.884   0.902  18.125  1.00  0.00     0.031 A 
ATOM     47  C   UNL     1      12.035  -0.497  18.662  1.00  0.00     0.074 A 
ATOM     48  C   UNL     1      11.232   1.833  18.850  1.00  0.00     0.049 A 
ATOM     49  N   UNL     1      11.645  -0.985  19.812  1.00  0.00    -0.248 NA
ATOM     50  C   UNL     1      12.685  -1.485  17.785  1.00  0.00     0.031 C 
ATOM     51  C   UNL     1      10.945   3.200  18.411  1.00  0.00     0.029 A 
ATOM     52  N   UNL     1      10.674   1.764  20.103  1.00  0.00    -0.354 N 
ATOM     53  C   UNL     1      11.970  -2.336  19.783  1.00  0.00     0.074 A 
ATOM     54  C   UNL     1      12.552  -2.601  18.486  1.00  0.00     0.031 C 
ATOM     55  C   UNL     1      10.277   3.844  19.382  1.00  0.00     0.029 A 
ATOM     56  C   UNL     1      10.061   2.930  20.499  1.00  0.00     0.049 A 
ATOM     57  H   UNL     1      10.708   0.956  20.664  1.00  0.00     0.167 HD
ATOM     58  C   UNL     1      11.827  -3.268  20.756  1.00  0.00     0.034 A 
ATOM     59  C   UNL     1       9.398   3.231  21.634  1.00  0.00     0.034 A 
ATOM     60  C   UNL     1      11.282  -2.994  22.059  1.00  0.00     0.049 A 
ATOM     61  C   UNL     1       9.292   2.190  22.716  1.00  0.00     0.074 A 
ATOM     62  C   UNL     1      11.172  -3.849  23.142  1.00  0.00     0.029 A 
ATOM     63  N   UNL     1      10.747  -1.778  22.454  1.00  0.00    -0.354 N 
ATOM     64  N   UNL     1       9.748   0.961  22.728  1.00  0.00    -0.248 NA
ATOM     65  C   UNL     1       8.615   2.591  23.957  1.00  0.00     0.031 C 
ATOM     66  C   UNL     1      10.543  -3.157  24.182  1.00  0.00     0.029 A 
ATOM     67  C   UNL     1      10.297  -1.860  23.761  1.00  0.00     0.049 A 
ATOM     68  H   UNL     1      10.694  -0.974  21.888  1.00  0.00     0.167 HD
ATOM     69  C   UNL     1       9.452   0.457  23.990  1.00  0.00     0.074 A 
ATOM     70  C   UNL     1       8.796   1.522  24.720  1.00  0.00     0.031 C 
ATOM     71  C   UNL     1       9.691  -0.779  24.495  1.00  0.00     0.034 A 
BRANCH  58  72
ATOM     72  C   UNL     1      12.314  -4.665  20.465  1.00  0.00     0.023 A 
ATOM     73  C   UNL     1      13.698  -4.913  20.352  1.00  0.00     0.012 A 
ATOM     74  C   UNL     1      11.410  -5.741  20.357  1.00  0.00     0.148 A 
ATOM     75  C   UNL     1      14.172  -6.199  20.096  1.00  0.00     0.002 A 
ATOM     76  C   UNL     1      11.894  -7.028  20.151  1.00  0.00     0.091 A 
ATOM     77  F   UNL     1      10.098  -5.485  20.448  1.00  0.00    -0.205 F 
ATOM     78  C   UNL     1      13.272  -7.256  20.007  1.00  0.00     0.022 A 
BRANCH  76  79
ATOM     79  S   UNL     1      10.825  -8.470  20.104  1.00  0.00     0.127 S 
ATOM     80  O   UNL     1      10.908  -8.853  18.695  1.00  0.00    -0.237 OA
ATOM     81  O   UNL     1      11.502  -9.384  21.024  1.00  0.00    -0.237 OA
ATOM     82  O   UNL     1       9.515  -8.016  20.551  1.00  0.00    -0.744 OA
ENDBRANCH  76  79
ENDBRANCH  58  72
BRANCH  59  83
ATOM     83  C   UNL     1       8.842   4.599  21.835  1.00  0.00     0.023 A 
ATOM     84  C   UNL     1       9.422   5.450  22.796  1.00  0.00     0.012 A 
ATOM     85  C   UNL     1       7.755   5.066  21.072  1.00  0.00     0.148 A 
ATOM     86  C   UNL     1       8.906   6.726  23.021  1.00  0.00     0.002 A 
ATOM     87  C   UNL     1       7.282   6.360  21.261  1.00  0.00     0.091 A 
ATOM     88  F   UNL     1       7.211   4.239  20.168  1.00  0.00    -0.205 F 
ATOM     89  C   UNL     1       7.842   7.184  22.248  1.00  0.00     0.022 A 
BRANCH  87  90
ATOM     90  S   UNL     1       6.004   7.080  20.224  1.00  0.00     0.127 S 
ATOM     91  O   UNL     1       4.885   7.183  21.156  1.00  0.00    -0.237 OA
ATOM     92  O   UNL     1       6.611   8.356  19.843  1.00  0.00    -0.237 OA
ATOM     93  O   UNL     1       5.823   6.148  19.119  1.00  0.00    -0.744 OA
ENDBRANCH  87  90
ENDBRANCH  59  83
BRANCH  71  94
ATOM     94  C   UNL     1       9.289  -1.039  25.924  1.00  0.00     0.023 A 
ATOM     95  C   UNL     1       7.926  -1.131  26.270  1.00  0.00     0.012 A 
ATOM     96  C   UNL     1      10.268  -1.248  26.915  1.00  0.00     0.148 A 
ATOM     97  C   UNL     1       7.544  -1.382  27.587  1.00  0.00     0.002 A 
ATOM     98  C   UNL     1       9.881  -1.553  28.214  1.00  0.00     0.091 A 
ATOM     99  F   UNL     1      11.560  -1.139  26.572  1.00  0.00    -0.205 F 
ATOM    100  C   UNL     1       8.521  -1.605  28.556  1.00  0.00     0.022 A 
BRANCH  98 101
ATOM    101  S   UNL     1      11.069  -1.953  29.501  1.00  0.00     0.127 S 
ATOM    102  O   UNL     1      11.031  -0.747  30.327  1.00  0.00    -0.237 OA
ATOM    103  O   UNL     1      10.469  -3.135  30.120  1.00  0.00    -0.237 OA
ATOM    104  O   UNL     1      12.330  -2.205  28.818  1.00  0.00    -0.744 OA
ENDBRANCH  98 101
ENDBRANCH  71  94
ENDBRANCH  45  46
ENDBRANCH  37  40
ENDBRANCH  35  36
ENDBRANCH  34  35
ENDBRANCH   1  34
TORSDOF 18
