REMARK SMILES Cc1c(Br)c(C)c2c(c1Br)O[C@H](C(F)(F)F)C(C(=O)NCCCCNC(=O)c1ccc(-c3c4nc(c(-c5cccc(S(=O)(=O)[O-])c5F)c5ccc([nH]5)c(-c5cccc(S(=O)(=O)[O-])c5F)c5nc(c(-c6cccc(S(=O)(=O)[O-])c6F)c6ccc3[nH]6)C=C5)C=C4)cc1)=C2
REMARK SMILES IDX 23 1 22 2 21 3 20 4 18 5 19 6 17 8 1 9 2 10 3 11 9 12 4 13
REMARK SMILES IDX 5 14 8 15 10 16 6 17 7 18 11 19 91 20 12 21 13 22 14 23
REMARK SMILES IDX 15 24 16 25 24 26 25 27 26 28 27 30 28 31 29 32 90 33 30 34
REMARK SMILES IDX 89 35 31 36 32 37 33 38 83 39 34 40 88 41 82 42 84 43 35 44
REMARK SMILES IDX 87 45 81 46 80 47 36 49 68 50 48 51 67 52 49 53 52 54 66 55
REMARK SMILES IDX 85 56 50 57 51 58 65 60 86 61 53 62 37 63 38 64 46 65 39 66
REMARK SMILES IDX 41 67 47 68 40 69 42 70 43 71 44 72 45 73 69 74 70 75 78 76
REMARK SMILES IDX 71 77 73 78 79 79 72 80 74 81 75 82 76 83 77 84 54 85 55 86
REMARK SMILES IDX 63 87 56 88 58 89 64 90 57 91 59 92 60 93 61 94 62 95
REMARK H PARENT 20 7 25 29 84 48 52 59
REMARK Flexibility Score: inf
ROOT
ATOM      1  C   UNL     1       2.470 -10.237   3.150  1.00  0.00     0.023 C 
ENDROOT
BRANCH   1   2
ATOM      2  C   UNL     1       2.269  -8.925   2.388  1.00  0.00     0.023 C 
BRANCH   2   3
ATOM      3  C   UNL     1       0.816  -8.628   2.029  1.00  0.00     0.116 C 
BRANCH   3   4
ATOM      4  N   UNL     1       0.114  -7.959   3.109  1.00  0.00    -0.352 N 
ATOM      5  C   UNL     1      -0.250  -6.692   3.412  1.00  0.00     0.251 C 
ATOM      6  O   UNL     1      -0.865  -6.557   4.475  1.00  0.00    -0.270 OA
ATOM      7  H   UNL     1      -0.173  -8.595   3.804  1.00  0.00     0.163 HD
BRANCH   5   8
ATOM      8  C   UNL     1       0.027  -5.490   2.571  1.00  0.00     0.067 C 
ATOM      9  C   UNL     1       0.780   0.520   0.052  1.00  0.00     0.047 C 
ATOM     10  C   UNL     1       0.447  -0.702   0.877  1.00  0.00    -0.019 A 
ATOM     11  C   UNL     1      -0.343  -0.649   2.053  1.00  0.00     0.025 A 
ATOM     12  C   UNL     1       0.934  -1.959   0.463  1.00  0.00     0.064 A 
ATOM     13  Br  UNL     1      -1.014   1.046   2.657  1.00  0.00    -0.050 Br
ATOM     14  C   UNL     1      -0.637  -1.820   2.802  1.00  0.00    -0.026 A 
ATOM     15  C   UNL     1       0.661  -3.120   1.200  1.00  0.00     0.142 A 
ATOM     16  Br  UNL     1       1.981  -2.129  -1.136  1.00  0.00    -0.046 Br
ATOM     17  C   UNL     1      -1.480  -1.791   4.059  1.00  0.00     0.046 C 
ATOM     18  C   UNL     1      -0.103  -3.060   2.371  1.00  0.00     0.022 A 
ATOM     19  O   UNL     1       1.214  -4.296   0.764  1.00  0.00    -0.474 OA
ATOM     20  C   UNL     1      -0.281  -4.305   3.130  1.00  0.00     0.026 C 
ATOM     21  C   UNL     1       0.569  -5.528   1.177  1.00  0.00     0.314 C 
BRANCH  21  22
ATOM     22  C   UNL     1      -0.485  -5.940   0.134  1.00  0.00     0.429 C 
ATOM     23  F   UNL     1       0.108  -6.238  -1.049  1.00  0.00    -0.167 F 
ATOM     24  F   UNL     1      -1.179  -7.041   0.504  1.00  0.00    -0.167 F 
ATOM     25  F   UNL     1      -1.390  -4.963  -0.103  1.00  0.00    -0.167 F 
ENDBRANCH  21  22
ENDBRANCH   5   8
ENDBRANCH   3   4
ENDBRANCH   2   3
ENDBRANCH   1   2
BRANCH   1  26
ATOM     26  C   UNL     1       1.903 -11.485   2.474  1.00  0.00     0.116 C 
BRANCH  26  27
ATOM     27  N   UNL     1       2.300 -11.634   1.079  1.00  0.00    -0.352 N 
ATOM     28  C   UNL     1       2.490 -12.803   0.380  1.00  0.00     0.251 C 
ATOM     29  H   UNL     1       2.448 -10.800   0.578  1.00  0.00     0.163 HD
ATOM     30  O   UNL     1       2.883 -12.787  -0.781  1.00  0.00    -0.269 OA
BRANCH  28  31
ATOM     31  C   UNL     1       2.255 -14.079   1.081  1.00  0.00     0.039 A 
ATOM     32  C   UNL     1       3.317 -14.974   1.217  1.00  0.00     0.014 A 
ATOM     33  C   UNL     1       1.024 -14.321   1.696  1.00  0.00     0.014 A 
ATOM     34  C   UNL     1       3.166 -16.085   2.047  1.00  0.00     0.010 A 
ATOM     35  C   UNL     1       0.898 -15.394   2.570  1.00  0.00     0.010 A 
ATOM     36  C   UNL     1       1.971 -16.278   2.760  1.00  0.00    -0.014 A 
BRANCH  36  37
ATOM     37  C   UNL     1       1.844 -17.385   3.737  1.00  0.00     0.031 A 
ATOM     38  C   UNL     1       0.888 -18.512   3.482  1.00  0.00     0.074 A 
ATOM     39  C   UNL     1       2.551 -17.337   4.884  1.00  0.00     0.049 A 
ATOM     40  N   UNL     1       0.662 -19.575   4.207  1.00  0.00    -0.248 NA
ATOM     41  C   UNL     1       0.063 -18.426   2.266  1.00  0.00     0.031 C 
ATOM     42  C   UNL     1       3.447 -16.248   5.279  1.00  0.00     0.029 A 
ATOM     43  N   UNL     1       2.623 -18.222   5.930  1.00  0.00    -0.354 N 
ATOM     44  C   UNL     1      -0.335 -20.277   3.545  1.00  0.00     0.074 A 
ATOM     45  C   UNL     1      -0.710 -19.496   2.387  1.00  0.00     0.031 C 
ATOM     46  C   UNL     1       4.003 -16.545   6.465  1.00  0.00     0.029 A 
ATOM     47  C   UNL     1       3.495 -17.835   6.921  1.00  0.00     0.049 A 
ATOM     48  H   UNL     1       2.100 -19.055   5.968  1.00  0.00     0.167 HD
ATOM     49  C   UNL     1      -0.857 -21.489   3.845  1.00  0.00     0.034 A 
ATOM     50  C   UNL     1       3.861 -18.463   8.056  1.00  0.00     0.034 A 
ATOM     51  C   UNL     1      -0.446 -22.284   4.968  1.00  0.00     0.049 A 
ATOM     52  C   UNL     1       3.288 -19.822   8.354  1.00  0.00     0.074 A 
ATOM     53  C   UNL     1      -0.859 -23.557   5.317  1.00  0.00     0.029 A 
ATOM     54  N   UNL     1       0.476 -21.883   5.922  1.00  0.00    -0.354 N 
ATOM     55  N   UNL     1       2.463 -20.543   7.633  1.00  0.00    -0.248 NA
ATOM     56  C   UNL     1       3.719 -20.470   9.601  1.00  0.00     0.031 C 
ATOM     57  C   UNL     1      -0.184 -23.926   6.486  1.00  0.00     0.029 A 
ATOM     58  C   UNL     1       0.647 -22.883   6.863  1.00  0.00     0.049 A 
ATOM     59  H   UNL     1       0.941 -21.015   5.929  1.00  0.00     0.167 HD
ATOM     60  C   UNL     1       2.295 -21.737   8.323  1.00  0.00     0.074 A 
ATOM     61  C   UNL     1       3.121 -21.652   9.511  1.00  0.00     0.031 C 
ATOM     62  C   UNL     1       1.514 -22.800   8.011  1.00  0.00     0.034 A 
BRANCH  49  63
ATOM     63  C   UNL     1      -1.859 -22.066   2.883  1.00  0.00     0.023 A 
ATOM     64  C   UNL     1      -1.402 -22.564   1.645  1.00  0.00     0.012 A 
ATOM     65  C   UNL     1      -3.226 -22.154   3.203  1.00  0.00     0.148 A 
ATOM     66  C   UNL     1      -2.294 -23.114   0.727  1.00  0.00     0.002 A 
ATOM     67  C   UNL     1      -4.105 -22.737   2.297  1.00  0.00     0.091 A 
ATOM     68  F   UNL     1      -3.646 -21.649   4.372  1.00  0.00    -0.205 F 
ATOM     69  C   UNL     1      -3.643 -23.209   1.057  1.00  0.00     0.022 A 
BRANCH  67  70
ATOM     70  S   UNL     1      -5.851 -22.961   2.659  1.00  0.00     0.127 S 
ATOM     71  O   UNL     1      -6.453 -21.872   1.892  1.00  0.00    -0.237 OA
ATOM     72  O   UNL     1      -6.112 -24.299   2.127  1.00  0.00    -0.237 OA
ATOM     73  O   UNL     1      -5.969 -22.855   4.107  1.00  0.00    -0.744 OA
ENDBRANCH  67  70
ENDBRANCH  49  63
BRANCH  50  74
ATOM     74  C   UNL     1       4.917 -17.863   8.921  1.00  0.00     0.023 A 
ATOM     75  C   UNL     1       6.200 -18.444   8.924  1.00  0.00     0.012 A 
ATOM     76  C   UNL     1       4.689 -16.697   9.676  1.00  0.00     0.148 A 
ATOM     77  C   UNL     1       7.234 -17.884   9.673  1.00  0.00     0.002 A 
ATOM     78  C   UNL     1       5.737 -16.116  10.384  1.00  0.00     0.091 A 
ATOM     79  F   UNL     1       3.458 -16.166   9.670  1.00  0.00    -0.205 F 
ATOM     80  C   UNL     1       7.007 -16.715  10.393  1.00  0.00     0.022 A 
BRANCH  78  81
ATOM     81  S   UNL     1       5.572 -14.541  11.233  1.00  0.00     0.127 S 
ATOM     82  O   UNL     1       5.600 -14.952  12.634  1.00  0.00    -0.237 OA
ATOM     83  O   UNL     1       6.763 -13.823  10.777  1.00  0.00    -0.237 OA
ATOM     84  O   UNL     1       4.315 -13.974  10.763  1.00  0.00    -0.744 OA
ENDBRANCH  78  81
ENDBRANCH  50  74
BRANCH  62  85
ATOM     85  C   UNL     1       1.500 -23.968   8.960  1.00  0.00     0.023 A 
ATOM     86  C   UNL     1       0.759 -23.871  10.154  1.00  0.00     0.012 A 
ATOM     87  C   UNL     1       2.103 -25.192   8.613  1.00  0.00     0.148 A 
ATOM     88  C   UNL     1       0.625 -24.975  10.994  1.00  0.00     0.002 A 
ATOM     89  C   UNL     1       1.931 -26.300   9.435  1.00  0.00     0.091 A 
ATOM     90  F   UNL     1       2.819 -25.255   7.481  1.00  0.00    -0.205 F 
ATOM     91  C   UNL     1       1.198 -26.191  10.628  1.00  0.00     0.022 A 
BRANCH  89  92
ATOM     92  S   UNL     1       2.550 -27.929   8.997  1.00  0.00     0.127 S 
ATOM     93  O   UNL     1       3.682 -28.073   9.910  1.00  0.00    -0.237 OA
ATOM     94  O   UNL     1       1.407 -28.790   9.302  1.00  0.00    -0.237 OA
ATOM     95  O   UNL     1       2.891 -27.859   7.582  1.00  0.00    -0.744 OA
ENDBRANCH  89  92
ENDBRANCH  62  85
ENDBRANCH  36  37
ENDBRANCH  28  31
ENDBRANCH  26  27
ENDBRANCH   1  26
TORSDOF 15
