REMARK SMILES O=C(NCCCCNC(=O)c1cc(N2CCCCCC2)nc2ccc(NC(=O)c3ccc(F)cc3)cc12)c1ccc(-c2c3nc(c(-c4cccc(S(=O)(=O)[O-])c4F)c4ccc([nH]4)c(-c4cccc(S(=O)(=O)[O-])c4F)c4nc(c(-c5cccc(S(=O)(=O)[O-])c5F)c5ccc2[nH]5)C=C4)C=C3)cc1
REMARK SMILES IDX 6 1 5 2 4 3 3 4 1 5 2 6 38 8 39 9 100 10 40 11 99 12 41 13
REMARK SMILES IDX 42 14 43 15 93 16 44 17 98 18 92 19 94 20 45 21 97 22 91 23
REMARK SMILES IDX 90 24 46 26 78 27 58 28 77 29 59 30 62 31 76 32 95 33 60 34
REMARK SMILES IDX 61 35 75 37 96 38 63 39 47 40 48 41 56 42 49 43 51 44 57 45
REMARK SMILES IDX 50 46 52 47 53 48 54 49 55 50 79 51 80 52 88 53 81 54 83 55
REMARK SMILES IDX 89 56 82 57 84 58 85 59 86 60 87 61 64 62 65 63 73 64 66 65
REMARK SMILES IDX 68 66 74 67 67 68 69 69 70 70 71 71 72 72 7 73 8 74 9 75
REMARK SMILES IDX 10 77 11 78 12 79 37 80 13 81 22 82 36 83 21 84 23 85 25 86
REMARK SMILES IDX 24 87 14 88 15 89 16 90 17 91 20 93 19 94 18 95 26 97 27 98
REMARK SMILES IDX 28 100 29 101 30 102 35 103 31 104 34 105 32 106 33 107
REMARK H PARENT 3 7 94 25 62 36 8 76 26 99
REMARK Flexibility Score: 90.00
ROOT
ATOM      1  C   UNL     1       4.089   3.179  -2.577  1.00  0.00     0.023 C 
ENDROOT
BRANCH   1   2
ATOM      2  C   UNL     1       4.567   1.746  -2.342  1.00  0.00     0.023 C 
BRANCH   2   3
ATOM      3  C   UNL     1       4.308   1.180  -0.951  1.00  0.00     0.116 C 
BRANCH   3   4
ATOM      4  N   UNL     1       2.897   1.060  -0.632  1.00  0.00    -0.352 N 
ATOM      5  O   UNL     1       0.963   0.015  -0.151  1.00  0.00    -0.269 OA
ATOM      6  C   UNL     1       2.180  -0.054  -0.255  1.00  0.00     0.251 C 
ATOM      7  H   UNL     1       2.378   1.895  -0.694  1.00  0.00     0.163 HD
BRANCH   6   8
ATOM      8  C   UNL     1       2.883  -1.336  -0.019  1.00  0.00     0.039 A 
ATOM      9  C   UNL     1       4.027  -1.395   0.781  1.00  0.00     0.014 A 
ATOM     10  C   UNL     1       2.390  -2.496  -0.622  1.00  0.00     0.014 A 
ATOM     11  C   UNL     1       4.755  -2.580   0.863  1.00  0.00     0.010 A 
ATOM     12  C   UNL     1       3.085  -3.701  -0.481  1.00  0.00     0.010 A 
ATOM     13  C   UNL     1       4.294  -3.746   0.230  1.00  0.00    -0.014 A 
BRANCH  13  14
ATOM     14  C   UNL     1       5.053  -5.016   0.364  1.00  0.00     0.031 A 
ATOM     15  C   UNL     1       5.692  -5.673  -0.830  1.00  0.00     0.074 A 
ATOM     16  C   UNL     1       5.153  -5.590   1.579  1.00  0.00     0.049 A 
ATOM     17  N   UNL     1       6.380  -6.785  -0.885  1.00  0.00    -0.248 NA
ATOM     18  C   UNL     1       5.536  -5.003  -2.131  1.00  0.00     0.031 C 
ATOM     19  C   UNL     1       4.545  -5.069   2.805  1.00  0.00     0.029 A 
ATOM     20  N   UNL     1       5.789  -6.736   1.984  1.00  0.00    -0.354 N 
ATOM     21  C   UNL     1       6.710  -6.968  -2.222  1.00  0.00     0.074 A 
ATOM     22  C   UNL     1       6.140  -5.855  -2.951  1.00  0.00     0.031 C 
ATOM     23  C   UNL     1       4.851  -5.881   3.826  1.00  0.00     0.029 A 
ATOM     24  C   UNL     1       5.638  -7.003   3.325  1.00  0.00     0.049 A 
ATOM     25  H   UNL     1       6.305  -7.311   1.374  1.00  0.00     0.167 HD
ATOM     26  C   UNL     1       7.438  -7.961  -2.786  1.00  0.00     0.034 A 
ATOM     27  C   UNL     1       6.070  -8.039   4.069  1.00  0.00     0.034 A 
ATOM     28  C   UNL     1       8.041  -9.042  -2.052  1.00  0.00     0.049 A 
ATOM     29  C   UNL     1       6.890  -9.117   3.420  1.00  0.00     0.074 A 
ATOM     30  C   UNL     1       8.851 -10.057  -2.532  1.00  0.00     0.029 A 
ATOM     31  N   UNL     1       7.901  -9.254  -0.689  1.00  0.00    -0.354 N 
ATOM     32  N   UNL     1       7.292  -9.206   2.176  1.00  0.00    -0.248 NA
ATOM     33  C   UNL     1       7.339 -10.223   4.278  1.00  0.00     0.031 C 
ATOM     34  C   UNL     1       9.189 -10.891  -1.462  1.00  0.00     0.029 A 
ATOM     35  C   UNL     1       8.603 -10.387  -0.312  1.00  0.00     0.049 A 
ATOM     36  H   UNL     1       7.380  -8.683  -0.079  1.00  0.00     0.167 HD
ATOM     37  C   UNL     1       8.056 -10.364   2.104  1.00  0.00     0.074 A 
ATOM     38  C   UNL     1       8.082 -10.931   3.437  1.00  0.00     0.031 C 
ATOM     39  C   UNL     1       8.664 -10.916   1.026  1.00  0.00     0.034 A 
BRANCH  26  40
ATOM     40  C   UNL     1       7.687  -7.907  -4.271  1.00  0.00     0.023 A 
ATOM     41  C   UNL     1       8.641  -7.002  -4.777  1.00  0.00     0.012 A 
ATOM     42  C   UNL     1       7.070  -8.823  -5.147  1.00  0.00     0.148 A 
ATOM     43  C   UNL     1       8.967  -6.998  -6.133  1.00  0.00     0.002 A 
ATOM     44  C   UNL     1       7.427  -8.838  -6.491  1.00  0.00     0.091 A 
ATOM     45  F   UNL     1       6.151  -9.664  -4.649  1.00  0.00    -0.205 F 
ATOM     46  C   UNL     1       8.371  -7.923  -6.986  1.00  0.00     0.022 A 
BRANCH  44  47
ATOM     47  S   UNL     1       6.774 -10.041  -7.655  1.00  0.00     0.127 S 
ATOM     48  O   UNL     1       5.883  -9.211  -8.466  1.00  0.00    -0.237 OA
ATOM     49  O   UNL     1       7.982 -10.492  -8.346  1.00  0.00    -0.237 OA
ATOM     50  O   UNL     1       6.118 -11.062  -6.851  1.00  0.00    -0.744 OA
ENDBRANCH  44  47
ENDBRANCH  26  40
BRANCH  27  51
ATOM     51  C   UNL     1       5.779  -8.055   5.530  1.00  0.00     0.023 A 
ATOM     52  C   UNL     1       6.823  -7.815   6.442  1.00  0.00     0.012 A 
ATOM     53  C   UNL     1       4.464  -8.211   6.013  1.00  0.00     0.148 A 
ATOM     54  C   UNL     1       6.566  -7.739   7.811  1.00  0.00     0.002 A 
ATOM     55  C   UNL     1       4.206  -8.075   7.371  1.00  0.00     0.091 A 
ATOM     56  F   UNL     1       3.487  -8.457   5.128  1.00  0.00    -0.205 F 
ATOM     57  C   UNL     1       5.257  -7.852   8.274  1.00  0.00     0.022 A 
BRANCH  55  58
ATOM     58  S   UNL     1       2.536  -8.054   8.032  1.00  0.00     0.127 S 
ATOM     59  O   UNL     1       2.462  -9.351   8.701  1.00  0.00    -0.237 OA
ATOM     60  O   UNL     1       2.579  -6.899   8.930  1.00  0.00    -0.237 OA
ATOM     61  O   UNL     1       1.662  -7.883   6.880  1.00  0.00    -0.744 OA
ENDBRANCH  55  58
ENDBRANCH  27  51
BRANCH  39  62
ATOM     62  C   UNL     1       9.422 -12.202   1.226  1.00  0.00     0.023 A 
ATOM     63  C   UNL     1       8.709 -13.407   1.377  1.00  0.00     0.012 A 
ATOM     64  C   UNL     1      10.828 -12.232   1.153  1.00  0.00     0.148 A 
ATOM     65  C   UNL     1       9.386 -14.623   1.469  1.00  0.00     0.002 A 
ATOM     66  C   UNL     1      11.494 -13.451   1.203  1.00  0.00     0.091 A 
ATOM     67  F   UNL     1      11.487 -11.070   1.028  1.00  0.00    -0.205 F 
ATOM     68  C   UNL     1      10.775 -14.646   1.368  1.00  0.00     0.022 A 
BRANCH  66  69
ATOM     69  S   UNL     1      13.273 -13.586   0.987  1.00  0.00     0.127 S 
ATOM     70  O   UNL     1      13.717 -13.880   2.349  1.00  0.00    -0.237 OA
ATOM     71  O   UNL     1      13.390 -14.706   0.052  1.00  0.00    -0.237 OA
ATOM     72  O   UNL     1      13.709 -12.304   0.449  1.00  0.00    -0.744 OA
ENDBRANCH  66  69
ENDBRANCH  39  62
ENDBRANCH  13  14
ENDBRANCH   6   8
ENDBRANCH   3   4
ENDBRANCH   2   3
ENDBRANCH   1   2
BRANCH   1  73
ATOM     73  C   UNL     1       4.516   4.195  -1.525  1.00  0.00     0.116 C 
BRANCH  73  74
ATOM     74  N   UNL     1       5.957   4.261  -1.341  1.00  0.00    -0.352 N 
ATOM     75  C   UNL     1       6.731   5.357  -1.060  1.00  0.00     0.252 C 
ATOM     76  H   UNL     1       6.439   3.407  -1.428  1.00  0.00     0.163 HD
ATOM     77  O   UNL     1       7.946   5.255  -0.929  1.00  0.00    -0.269 OA
BRANCH  75  78
ATOM     78  C   UNL     1       6.107   6.687  -0.955  1.00  0.00     0.052 A 
ATOM     79  C   UNL     1       6.508   7.614  -1.903  1.00  0.00     0.061 A 
ATOM     80  C   UNL     1       5.225   7.046   0.072  1.00  0.00     0.015 A 
ATOM     81  C   UNL     1       6.022   8.906  -1.834  1.00  0.00     0.130 A 
ATOM     82  C   UNL     1       4.744   8.360   0.055  1.00  0.00     0.074 A 
ATOM     83  C   UNL     1       4.831   6.161   1.099  1.00  0.00     0.037 A 
ATOM     84  N   UNL     1       5.147   9.266  -0.865  1.00  0.00    -0.231 NA
ATOM     85  C   UNL     1       3.819   8.710   1.035  1.00  0.00     0.031 A 
ATOM     86  C   UNL     1       3.973   6.542   2.120  1.00  0.00     0.042 A 
ATOM     87  C   UNL     1       3.424   7.819   2.050  1.00  0.00     0.028 A 
BRANCH  81  88
ATOM     88  N   UNL     1       6.472   9.851  -2.743  1.00  0.00    -0.357 N 
BRANCH  88  89
ATOM     89  C   UNL     1       6.380   9.577  -4.170  1.00  0.00     0.118 C 
BRANCH  89  90
ATOM     90  C   UNL     1       7.745   9.215  -4.752  1.00  0.00     0.021 C 
BRANCH  90  91
ATOM     91  C   UNL     1       8.744  10.369  -4.813  1.00  0.00     0.002 CG0
ATOM     92  G   UNL     1       8.956  11.124  -3.498  1.00  0.00     0.000 G0
ENDBRANCH  90  91
ENDBRANCH  89  90
ENDBRANCH  88  89
BRANCH  88  93
ATOM     93  C   UNL     1       6.699  11.198  -2.253  1.00  0.00     0.118 C 
BRANCH  93  94
ATOM     94  C   UNL     1       7.738  11.958  -3.086  1.00  0.00     0.021 C 
BRANCH  94  95
ATOM     95  C   UNL     1       8.956  11.124  -3.498  1.00  0.00     0.002 CG0
ATOM     96  G   UNL     1       8.744  10.369  -4.813  1.00  0.00     0.000 G0
ENDBRANCH  94  95
ENDBRANCH  93  94
ENDBRANCH  88  93
ENDBRANCH  81  88
BRANCH  86  97
ATOM     97  N   UNL     1       3.608   5.705   3.191  1.00  0.00    -0.322 N 
ATOM     98  C   UNL     1       4.092   4.491   3.641  1.00  0.00     0.255 C 
ATOM     99  H   UNL     1       2.859   6.054   3.726  1.00  0.00     0.170 HD
ATOM    100  O   UNL     1       3.454   3.866   4.487  1.00  0.00    -0.269 OA
BRANCH  98 101
ATOM    101  C   UNL     1       5.372   3.917   3.170  1.00  0.00     0.040 A 
ATOM    102  C   UNL     1       6.559   4.665   3.195  1.00  0.00     0.017 A 
ATOM    103  C   UNL     1       5.377   2.604   2.676  1.00  0.00     0.017 A 
ATOM    104  C   UNL     1       7.721   4.136   2.626  1.00  0.00     0.040 A 
ATOM    105  C   UNL     1       6.549   2.073   2.133  1.00  0.00     0.040 A 
ATOM    106  C   UNL     1       7.702   2.852   2.091  1.00  0.00     0.123 A 
ATOM    107  F   UNL     1       8.809   2.356   1.524  1.00  0.00    -0.207 F 
ENDBRANCH  98 101
ENDBRANCH  86  97
ENDBRANCH  75  78
ENDBRANCH  73  74
ENDBRANCH   1  73
TORSDOF 17
