REMARK SMILES C[NH2+]C[C@H](C)C(=O)NC[C@](C)(O)C(=O)NCCCCNC(=O)c1ccc(-c2c3nc(c(-c4cccc(S(=O)(=O)[O-])c4F)c4ccc([nH]4)c(-c4cccc(S(=O)(=O)[O-])c4F)c4nc(c(-c5cccc(S(=O)(=O)[O-])c5F)c5ccc2[nH]5)C=C4)C=C3)cc1
REMARK SMILES IDX 16 1 15 2 13 3 14 4 10 6 11 7 9 8 8 9 6 10 7 11 4 13 5 14
REMARK SMILES IDX 3 15 2 16 1 17 12 20 17 22 18 23 19 24 20 25 21 26 22 28
REMARK SMILES IDX 23 29 24 30 85 31 25 32 84 33 26 34 27 35 28 36 78 37 29 38
REMARK SMILES IDX 83 39 77 40 79 41 30 42 82 43 76 44 75 45 31 47 63 48 43 49
REMARK SMILES IDX 62 50 44 51 47 52 61 53 80 54 45 55 46 56 60 58 81 59 48 60
REMARK SMILES IDX 32 61 33 62 41 63 34 64 36 65 42 66 35 67 37 68 38 69 39 70
REMARK SMILES IDX 40 71 64 72 65 73 73 74 66 75 68 76 74 77 67 78 69 79 70 80
REMARK SMILES IDX 71 81 72 82 49 83 50 84 58 85 51 86 53 87 59 88 52 89 54 90
REMARK SMILES IDX 55 91 56 92 57 93
REMARK H PARENT 15 5 8 12 2 18 2 19 12 21 20 27 79 46 47 57
REMARK Flexibility Score: inf
ROOT
ATOM      1  C   UNL     1      -3.300  -6.016  -1.356  1.00  0.00     0.116 C 
ENDROOT
BRANCH   1   2
ATOM      2  N   UNL     1      -2.856  -4.755  -0.793  1.00  0.00    -0.354 N 
ATOM      3  C   UNL     1      -2.912  -3.489  -1.307  1.00  0.00     0.253 C 
ATOM      4  O   UNL     1      -2.582  -2.566  -0.555  1.00  0.00    -0.272 OA
ATOM      5  H   UNL     1      -2.450  -4.821   0.101  1.00  0.00     0.163 HD
BRANCH   3   6
ATOM      6  C   UNL     1      -3.401  -3.200  -2.768  1.00  0.00     0.157 C 
ATOM      7  C   UNL     1      -2.844  -1.817  -3.171  1.00  0.00     0.055 C 
BRANCH   6   8
ATOM      8  C   UNL     1      -4.946  -3.123  -2.881  1.00  0.00     0.160 C 
BRANCH   8   9
ATOM      9  N   UNL     1      -5.656  -4.140  -2.135  1.00  0.00    -0.352 N 
ATOM     10  C   UNL     1      -6.423  -4.010  -1.019  1.00  0.00     0.228 C 
ATOM     11  O   UNL     1      -6.607  -5.015  -0.329  1.00  0.00    -0.275 OA
ATOM     12  H   UNL     1      -5.573  -5.056  -2.486  1.00  0.00     0.163 HD
BRANCH  10  13
ATOM     13  C   UNL     1      -7.124  -2.696  -0.699  1.00  0.00     0.130 C 
ATOM     14  C   UNL     1      -6.170  -1.608  -0.202  1.00  0.00     0.024 C 
BRANCH  13  15
ATOM     15  C   UNL     1      -8.034  -2.212  -1.853  1.00  0.00     0.273 C 
BRANCH  15  16
ATOM     16  N   UNL     1      -8.653  -3.238  -2.704  1.00  0.00    -0.348 N 
ATOM     17  C   UNL     1      -9.594  -4.087  -1.982  1.00  0.00     0.330 C 
ATOM     18  H   UNL     1      -9.152  -2.773  -3.463  1.00  0.00     0.346 HD
ATOM     19  H   UNL     1      -7.905  -3.839  -3.050  1.00  0.00     0.346 HD
ENDBRANCH  15  16
ENDBRANCH  13  15
ENDBRANCH  10  13
ENDBRANCH   8   9
ENDBRANCH   6   8
BRANCH   6  20
ATOM     20  O   UNL     1      -2.951  -4.138  -3.751  1.00  0.00    -0.378 OA
ATOM     21  H   UNL     1      -1.985  -4.213  -3.709  1.00  0.00     0.212 HD
ENDBRANCH   6  20
ENDBRANCH   3   6
ENDBRANCH   1   2
BRANCH   1  22
ATOM     22  C   UNL     1      -2.357  -7.178  -1.073  1.00  0.00     0.023 C 
BRANCH  22  23
ATOM     23  C   UNL     1      -2.260  -7.596   0.395  1.00  0.00     0.023 C 
BRANCH  23  24
ATOM     24  C   UNL     1      -3.586  -7.861   1.105  1.00  0.00     0.116 C 
BRANCH  24  25
ATOM     25  N   UNL     1      -4.387  -8.897   0.466  1.00  0.00    -0.352 N 
ATOM     26  C   UNL     1      -4.901 -10.058   0.994  1.00  0.00     0.251 C 
ATOM     27  H   UNL     1      -4.591  -8.742  -0.485  1.00  0.00     0.163 HD
ATOM     28  O   UNL     1      -5.459 -10.872   0.262  1.00  0.00    -0.269 OA
BRANCH  26  29
ATOM     29  C   UNL     1      -4.748 -10.343   2.437  1.00  0.00     0.039 A 
ATOM     30  C   UNL     1      -4.290 -11.602   2.833  1.00  0.00     0.014 A 
ATOM     31  C   UNL     1      -5.028  -9.365   3.394  1.00  0.00     0.014 A 
ATOM     32  C   UNL     1      -4.032 -11.851   4.184  1.00  0.00     0.010 A 
ATOM     33  C   UNL     1      -4.691  -9.588   4.727  1.00  0.00     0.010 A 
ATOM     34  C   UNL     1      -4.189 -10.832   5.138  1.00  0.00    -0.014 A 
BRANCH  34  35
ATOM     35  C   UNL     1      -3.809 -11.041   6.560  1.00  0.00     0.031 A 
ATOM     36  C   UNL     1      -4.842 -10.929   7.650  1.00  0.00     0.074 A 
ATOM     37  C   UNL     1      -2.515 -11.243   6.881  1.00  0.00     0.049 A 
ATOM     38  N   UNL     1      -4.688 -11.034   8.945  1.00  0.00    -0.248 NA
ATOM     39  C   UNL     1      -6.223 -10.633   7.234  1.00  0.00     0.031 C 
ATOM     40  C   UNL     1      -1.403 -11.284   5.929  1.00  0.00     0.029 A 
ATOM     41  N   UNL     1      -1.911 -11.427   8.101  1.00  0.00    -0.354 N 
ATOM     42  C   UNL     1      -5.938 -10.782   9.499  1.00  0.00     0.074 A 
ATOM     43  C   UNL     1      -6.832 -10.483   8.402  1.00  0.00     0.031 C 
ATOM     44  C   UNL     1      -0.256 -11.487   6.598  1.00  0.00     0.029 A 
ATOM     45  C   UNL     1      -0.544 -11.564   8.026  1.00  0.00     0.049 A 
ATOM     46  H   UNL     1      -2.410 -11.459   8.949  1.00  0.00     0.167 HD
ATOM     47  C   UNL     1      -6.317 -10.827  10.799  1.00  0.00     0.034 A 
ATOM     48  C   UNL     1       0.376 -11.728   8.998  1.00  0.00     0.034 A 
ATOM     49  C   UNL     1      -5.438 -11.168  11.884  1.00  0.00     0.049 A 
ATOM     50  C   UNL     1      -0.080 -11.824  10.429  1.00  0.00     0.074 A 
ATOM     51  C   UNL     1      -5.747 -11.331  13.223  1.00  0.00     0.029 A 
ATOM     52  N   UNL     1      -4.075 -11.393  11.759  1.00  0.00    -0.354 N 
ATOM     53  N   UNL     1      -1.295 -11.751  10.915  1.00  0.00    -0.248 NA
ATOM     54  C   UNL     1       0.958 -12.065  11.442  1.00  0.00     0.031 C 
ATOM     55  C   UNL     1      -4.567 -11.633  13.911  1.00  0.00     0.029 A 
ATOM     56  C   UNL     1      -3.528 -11.686  12.997  1.00  0.00     0.049 A 
ATOM     57  H   UNL     1      -3.572 -11.352  10.914  1.00  0.00     0.167 HD
ATOM     58  C   UNL     1      -1.173 -11.973  12.282  1.00  0.00     0.074 A 
ATOM     59  C   UNL     1       0.232 -12.207  12.543  1.00  0.00     0.031 C 
ATOM     60  C   UNL     1      -2.136 -11.970  13.237  1.00  0.00     0.034 A 
BRANCH  47  61
ATOM     61  C   UNL     1      -7.765 -10.553  11.114  1.00  0.00     0.023 A 
ATOM     62  C   UNL     1      -8.746 -11.499  10.750  1.00  0.00     0.012 A 
ATOM     63  C   UNL     1      -8.151  -9.395  11.817  1.00  0.00     0.148 A 
ATOM     64  C   UNL     1     -10.090 -11.281  11.047  1.00  0.00     0.002 A 
ATOM     65  C   UNL     1      -9.488  -9.207  12.150  1.00  0.00     0.091 A 
ATOM     66  F   UNL     1      -7.210  -8.497  12.138  1.00  0.00    -0.205 F 
ATOM     67  C   UNL     1     -10.460 -10.142  11.755  1.00  0.00     0.022 A 
BRANCH  65  68
ATOM     68  S   UNL     1     -10.056  -7.814  13.133  1.00  0.00     0.127 S 
ATOM     69  O   UNL     1     -10.781  -7.026  12.137  1.00  0.00    -0.237 OA
ATOM     70  O   UNL     1     -10.906  -8.466  14.130  1.00  0.00    -0.237 OA
ATOM     71  O   UNL     1      -8.857  -7.188  13.673  1.00  0.00    -0.744 OA
ENDBRANCH  65  68
ENDBRANCH  47  61
BRANCH  48  72
ATOM     72  C   UNL     1       1.815 -11.888   8.643  1.00  0.00     0.023 A 
ATOM     73  C   UNL     1       2.432 -13.144   8.809  1.00  0.00     0.012 A 
ATOM     74  C   UNL     1       2.568 -10.818   8.122  1.00  0.00     0.148 A 
ATOM     75  C   UNL     1       3.780 -13.322   8.497  1.00  0.00     0.002 A 
ATOM     76  C   UNL     1       3.895 -11.017   7.761  1.00  0.00     0.091 A 
ATOM     77  F   UNL     1       1.966  -9.628   7.981  1.00  0.00    -0.205 F 
ATOM     78  C   UNL     1       4.509 -12.263   7.964  1.00  0.00     0.022 A 
BRANCH  76  79
ATOM     79  S   UNL     1       4.873  -9.749   6.947  1.00  0.00     0.127 S 
ATOM     80  O   UNL     1       5.819  -9.379   7.997  1.00  0.00    -0.237 OA
ATOM     81  O   UNL     1       5.454 -10.488   5.825  1.00  0.00    -0.237 OA
ATOM     82  O   UNL     1       3.926  -8.714   6.554  1.00  0.00    -0.744 OA
ENDBRANCH  76  79
ENDBRANCH  48  72
BRANCH  60  83
ATOM     83  C   UNL     1      -1.716 -12.264  14.654  1.00  0.00     0.023 A 
ATOM     84  C   UNL     1      -0.979 -11.308  15.381  1.00  0.00     0.012 A 
ATOM     85  C   UNL     1      -2.110 -13.460  15.286  1.00  0.00     0.148 A 
ATOM     86  C   UNL     1      -0.609 -11.554  16.703  1.00  0.00     0.002 A 
ATOM     87  C   UNL     1      -1.780 -13.676  16.619  1.00  0.00     0.091 A 
ATOM     88  F   UNL     1      -2.794 -14.366  14.573  1.00  0.00    -0.205 F 
ATOM     89  C   UNL     1      -1.019 -12.731  17.325  1.00  0.00     0.022 A 
BRANCH  87  90
ATOM     90  S   UNL     1      -2.349 -15.118  17.528  1.00  0.00     0.127 S 
ATOM     91  O   UNL     1      -1.125 -15.911  17.626  1.00  0.00    -0.237 OA
ATOM     92  O   UNL     1      -2.799 -14.532  18.791  1.00  0.00    -0.237 OA
ATOM     93  O   UNL     1      -3.413 -15.703  16.723  1.00  0.00    -0.744 OA
ENDBRANCH  87  90
ENDBRANCH  60  83
ENDBRANCH  34  35
ENDBRANCH  26  29
ENDBRANCH  24  25
ENDBRANCH  23  24
ENDBRANCH  22  23
ENDBRANCH   1  22
TORSDOF 20
