REMARK SMILES O=C(NCCCCNC(=O)c1cc(Cl)ccc1N1C(=O)CC2(CCCC2)C1=O)c1ccc(-c2c3nc(c(-c4cccc(S(=O)(=O)[O-])c4F)c4ccc([nH]4)c(-c4cccc(S(=O)(=O)[O-])c4F)c4nc(c(-c5cccc(S(=O)(=O)[O-])c5F)c5ccc2[nH]5)C=C4)C=C3)cc1
REMARK SMILES IDX 4 1 3 2 1 3 2 4 29 6 30 7 91 8 31 9 90 10 32 11 33 12 34 13
REMARK SMILES IDX 84 14 35 15 89 16 83 17 85 18 36 19 88 20 82 21 81 22 37 24
REMARK SMILES IDX 69 25 49 26 68 27 50 28 53 29 67 30 86 31 51 32 52 33 66 35
REMARK SMILES IDX 87 36 54 37 38 38 39 39 47 40 40 41 42 42 48 43 41 44 43 45
REMARK SMILES IDX 44 46 45 47 46 48 70 49 71 50 79 51 72 52 74 53 80 54 73 55
REMARK SMILES IDX 75 56 76 57 77 58 78 59 55 60 56 61 64 62 57 63 59 64 65 65
REMARK SMILES IDX 58 66 60 67 61 68 62 69 63 70 5 71 6 72 7 73 8 74 9 75 10 77
REMARK SMILES IDX 11 78 12 79 17 80 13 81 16 82 14 83 15 84 18 85 19 86 27 87
REMARK SMILES IDX 20 88 21 89 22 90 28 91 23 92 26 93 24 94 25 95
REMARK H PARENT 3 5 85 23 53 34 8 76
REMARK Flexibility Score: inf
ROOT
ATOM      1  C   UNL     1       4.623  -1.310  -0.629  1.00  0.00     0.116 C 
ENDROOT
BRANCH   1   2
ATOM      2  N   UNL     1       3.200  -1.021  -0.724  1.00  0.00    -0.352 N 
ATOM      3  O   UNL     1       1.234  -0.043  -0.222  1.00  0.00    -0.269 OA
ATOM      4  C   UNL     1       2.453  -0.063  -0.076  1.00  0.00     0.251 C 
ATOM      5  H   UNL     1       2.697  -1.596  -1.345  1.00  0.00     0.163 HD
BRANCH   4   6
ATOM      6  C   UNL     1       3.113   0.906   0.830  1.00  0.00     0.039 A 
ATOM      7  C   UNL     1       4.296   1.545   0.459  1.00  0.00     0.014 A 
ATOM      8  C   UNL     1       2.552   1.151   2.087  1.00  0.00     0.014 A 
ATOM      9  C   UNL     1       5.013   2.271   1.405  1.00  0.00     0.010 A 
ATOM     10  C   UNL     1       3.231   1.959   3.006  1.00  0.00     0.010 A 
ATOM     11  C   UNL     1       4.497   2.477   2.695  1.00  0.00    -0.014 A 
BRANCH  11  12
ATOM     12  C   UNL     1       5.299   3.243   3.687  1.00  0.00     0.031 A 
ATOM     13  C   UNL     1       5.801   2.597   4.953  1.00  0.00     0.074 A 
ATOM     14  C   UNL     1       5.608   4.528   3.424  1.00  0.00     0.049 A 
ATOM     15  N   UNL     1       6.582   3.099   5.877  1.00  0.00    -0.248 NA
ATOM     16  C   UNL     1       5.368   1.217   5.228  1.00  0.00     0.031 C 
ATOM     17  C   UNL     1       5.141   5.283   2.259  1.00  0.00     0.029 A 
ATOM     18  N   UNL     1       6.394   5.422   4.106  1.00  0.00    -0.354 N 
ATOM     19  C   UNL     1       6.695   2.122   6.860  1.00  0.00     0.074 A 
ATOM     20  C   UNL     1       5.897   0.996   6.425  1.00  0.00     0.031 C 
ATOM     21  C   UNL     1       5.683   6.509   2.283  1.00  0.00     0.029 A 
ATOM     22  C   UNL     1       6.504   6.643   3.482  1.00  0.00     0.049 A 
ATOM     23  H   UNL     1       6.837   5.211   4.959  1.00  0.00     0.167 HD
ATOM     24  C   UNL     1       7.414   2.149   8.008  1.00  0.00     0.034 A 
ATOM     25  C   UNL     1       7.194   7.747   3.829  1.00  0.00     0.034 A 
ATOM     26  C   UNL     1       8.258   3.244   8.411  1.00  0.00     0.049 A 
ATOM     27  C   UNL     1       8.036   7.723   5.072  1.00  0.00     0.074 A 
ATOM     28  C   UNL     1       9.082   3.331   9.519  1.00  0.00     0.029 A 
ATOM     29  N   UNL     1       8.389   4.439   7.721  1.00  0.00    -0.354 N 
ATOM     30  N   UNL     1       8.239   6.736   5.911  1.00  0.00    -0.248 NA
ATOM     31  C   UNL     1       8.769   8.953   5.401  1.00  0.00     0.031 C 
ATOM     32  C   UNL     1       9.708   4.583   9.502  1.00  0.00     0.029 A 
ATOM     33  C   UNL     1       9.278   5.271   8.379  1.00  0.00     0.049 A 
ATOM     34  H   UNL     1       7.918   4.663   6.886  1.00  0.00     0.167 HD
ATOM     35  C   UNL     1       9.143   7.216   6.850  1.00  0.00     0.074 A 
ATOM     36  C   UNL     1       9.469   8.573   6.462  1.00  0.00     0.031 C 
ATOM     37  C   UNL     1       9.641   6.596   7.948  1.00  0.00     0.034 A 
BRANCH  24  38
ATOM     38  C   UNL     1       7.367   0.934   8.898  1.00  0.00     0.023 A 
ATOM     39  C   UNL     1       8.086  -0.222   8.530  1.00  0.00     0.012 A 
ATOM     40  C   UNL     1       6.678   0.957  10.127  1.00  0.00     0.148 A 
ATOM     41  C   UNL     1       8.101  -1.343   9.360  1.00  0.00     0.002 A 
ATOM     42  C   UNL     1       6.727  -0.152  10.965  1.00  0.00     0.091 A 
ATOM     43  F   UNL     1       5.980   2.055  10.449  1.00  0.00    -0.205 F 
ATOM     44  C   UNL     1       7.431  -1.304  10.580  1.00  0.00     0.022 A 
BRANCH  42  45
ATOM     45  S   UNL     1       5.956  -0.164  12.588  1.00  0.00     0.127 S 
ATOM     46  O   UNL     1       4.747  -0.946  12.335  1.00  0.00    -0.237 OA
ATOM     47  O   UNL     1       6.960  -0.844  13.408  1.00  0.00    -0.237 OA
ATOM     48  O   UNL     1       5.744   1.234  12.935  1.00  0.00    -0.744 OA
ENDBRANCH  42  45
ENDBRANCH  24  38
BRANCH  25  49
ATOM     49  C   UNL     1       7.178   8.935   2.931  1.00  0.00     0.023 A 
ATOM     50  C   UNL     1       8.340   9.267   2.207  1.00  0.00     0.012 A 
ATOM     51  C   UNL     1       6.011   9.701   2.746  1.00  0.00     0.148 A 
ATOM     52  C   UNL     1       8.345  10.351   1.330  1.00  0.00     0.002 A 
ATOM     53  C   UNL     1       6.007  10.744   1.828  1.00  0.00     0.091 A 
ATOM     54  F   UNL     1       4.921   9.384   3.459  1.00  0.00    -0.205 F 
ATOM     55  C   UNL     1       7.176  11.081   1.129  1.00  0.00     0.022 A 
BRANCH  53  56
ATOM     56  S   UNL     1       4.502  11.632   1.408  1.00  0.00     0.127 S 
ATOM     57  O   UNL     1       4.660  12.866   2.171  1.00  0.00    -0.237 OA
ATOM     58  O   UNL     1       4.627  11.783  -0.042  1.00  0.00    -0.237 OA
ATOM     59  O   UNL     1       3.413  10.756   1.823  1.00  0.00    -0.744 OA
ENDBRANCH  53  56
ENDBRANCH  25  49
BRANCH  37  60
ATOM     60  C   UNL     1      10.611   7.369   8.800  1.00  0.00     0.023 A 
ATOM     61  C   UNL     1      10.135   8.400   9.633  1.00  0.00     0.012 A 
ATOM     62  C   UNL     1      11.979   7.037   8.823  1.00  0.00     0.148 A 
ATOM     63  C   UNL     1      11.011   9.109  10.454  1.00  0.00     0.002 A 
ATOM     64  C   UNL     1      12.840   7.721   9.675  1.00  0.00     0.091 A 
ATOM     65  F   UNL     1      12.420   6.069   8.005  1.00  0.00    -0.205 F 
ATOM     66  C   UNL     1      12.360   8.763  10.484  1.00  0.00     0.022 A 
BRANCH  64  67
ATOM     67  S   UNL     1      14.572   7.270   9.830  1.00  0.00     0.127 S 
ATOM     68  O   UNL     1      15.215   8.239   8.945  1.00  0.00    -0.237 OA
ATOM     69  O   UNL     1      14.830   7.482  11.255  1.00  0.00    -0.237 OA
ATOM     70  O   UNL     1      14.652   5.877   9.410  1.00  0.00    -0.744 OA
ENDBRANCH  64  67
ENDBRANCH  37  60
ENDBRANCH  11  12
ENDBRANCH   4   6
ENDBRANCH   1   2
BRANCH   1  71
ATOM     71  C   UNL     1       4.930  -2.768  -0.311  1.00  0.00     0.023 C 
BRANCH  71  72
ATOM     72  C   UNL     1       4.425  -3.792  -1.325  1.00  0.00     0.023 C 
BRANCH  72  73
ATOM     73  C   UNL     1       4.768  -3.505  -2.784  1.00  0.00     0.116 C 
BRANCH  73  74
ATOM     74  N   UNL     1       6.197  -3.380  -3.023  1.00  0.00    -0.352 N 
ATOM     75  C   UNL     1       7.029  -4.156  -3.788  1.00  0.00     0.253 C 
ATOM     76  H   UNL     1       6.632  -2.623  -2.567  1.00  0.00     0.163 HD
ATOM     77  O   UNL     1       8.244  -3.969  -3.771  1.00  0.00    -0.269 OA
BRANCH  75  78
ATOM     78  C   UNL     1       6.479  -5.215  -4.665  1.00  0.00     0.065 A 
ATOM     79  C   UNL     1       5.491  -4.845  -5.594  1.00  0.00     0.036 A 
ATOM     80  C   UNL     1       7.071  -6.495  -4.726  1.00  0.00     0.065 A 
ATOM     81  C   UNL     1       5.029  -5.769  -6.523  1.00  0.00     0.041 A 
ATOM     82  C   UNL     1       6.614  -7.394  -5.705  1.00  0.00     0.029 A 
ATOM     83  Cl  UNL     1       3.779  -5.327  -7.618  1.00  0.00    -0.084 Cl
ATOM     84  C   UNL     1       5.582  -7.043  -6.581  1.00  0.00     0.023 A 
BRANCH  80  85
ATOM     85  N   UNL     1       8.113  -6.896  -3.851  1.00  0.00    -0.249 N 
ATOM     86  C   UNL     1       9.242  -7.563  -4.259  1.00  0.00     0.234 C 
ATOM     87  C   UNL     1       8.080  -6.708  -2.487  1.00  0.00     0.240 C 
ATOM     88  O   UNL     1       9.498  -8.024  -5.364  1.00  0.00    -0.274 OA
ATOM     89  C   UNL     1      10.213  -7.595  -3.114  1.00  0.00     0.118 C 
ATOM     90  C   UNL     1       9.348  -7.286  -1.897  1.00  0.00     0.059 C 
ATOM     91  O   UNL     1       7.136  -6.303  -1.820  1.00  0.00    -0.273 OA
ATOM     92  C   UNL     1       9.056  -8.537  -1.061  1.00  0.00     0.017 C 
ATOM     93  C   UNL     1      10.014  -6.365  -0.880  1.00  0.00     0.017 C 
ATOM     94  C   UNL     1      10.265  -8.677  -0.138  1.00  0.00     0.001 C 
ATOM     95  C   UNL     1      10.900  -7.289  -0.051  1.00  0.00     0.001 C 
ENDBRANCH  80  85
ENDBRANCH  75  78
ENDBRANCH  73  74
ENDBRANCH  72  73
ENDBRANCH  71  72
ENDBRANCH   1  71
TORSDOF 15
