REMARK SMILES COCC[C@]1(C(=O)NCCCCNC(=O)c2ccc(-c3c4nc(c(-c5cccc(S(=O)(=O)[O-])c5F)c5ccc([nH]5)c(-c5cccc(S(=O)(=O)[O-])c5F)c5nc(c(-c6cccc(S(=O)(=O)[O-])c6F)c6ccc3[nH]6)C=C5)C=C4)cc2)CCCN(C(=O)Cc2c(C)nc(C)[nH]c2=O)C1
REMARK SMILES IDX 10 1 9 2 8 3 6 4 7 5 5 7 79 8 95 9 80 10 82 11 81 12 4 13
REMARK SMILES IDX 3 14 2 15 1 16 83 17 84 18 85 19 86 20 87 21 93 22 88 23
REMARK SMILES IDX 89 24 92 25 94 26 90 27 91 29 11 30 12 31 13 32 14 33 15 35
REMARK SMILES IDX 16 36 17 37 78 38 18 39 77 40 19 41 20 42 21 43 71 44 22 45
REMARK SMILES IDX 76 46 70 47 72 48 23 49 75 50 69 51 68 52 24 54 56 55 36 56
REMARK SMILES IDX 55 57 37 58 40 59 54 60 73 61 38 62 39 63 53 65 74 66 41 67
REMARK SMILES IDX 25 68 26 69 34 70 27 71 29 72 35 73 28 74 30 75 31 76 32 77
REMARK SMILES IDX 33 78 57 79 58 80 66 81 59 82 61 83 67 84 60 85 62 86 63 87
REMARK SMILES IDX 64 88 65 89 42 90 43 91 51 92 44 93 46 94 52 95 45 96 47 97
REMARK SMILES IDX 48 98 49 99 50 100
REMARK H PARENT 8 6 92 28 13 34 72 53 40 64
REMARK Flexibility Score: inf
ROOT
ATOM      1  C   UNL     1      -0.880   0.019  -0.110  1.00  0.00     0.023 C 
ENDROOT
BRANCH   1   2
ATOM      2  C   UNL     1       0.045   1.251   0.017  1.00  0.00     0.116 C 
BRANCH   2   3
ATOM      3  N   UNL     1       0.640   1.648   1.336  1.00  0.00    -0.356 N 
ATOM      4  C   UNL     1       1.345   1.022   2.379  1.00  0.00     0.228 C 
ATOM      5  O   UNL     1       2.047   1.715   3.113  1.00  0.00    -0.274 OA
ATOM      6  H   UNL     1       0.499   2.605   1.520  1.00  0.00     0.163 HD
BRANCH   4   7
ATOM      7  C   UNL     1       1.058  -0.453   2.681  1.00  0.00     0.069 C 
ATOM      8  C   UNL     1       1.579  -1.061   1.315  1.00  0.00     0.021 C 
ATOM      9  C   UNL     1       1.777  -1.502   3.632  1.00  0.00     0.136 C 
ATOM     10  C   UNL     1       1.255  -2.488   0.930  1.00  0.00     0.023 C 
ATOM     11  N   UNL     1       1.234  -2.899   3.282  1.00  0.00    -0.341 N 
ATOM     12  C   UNL     1       1.708  -3.423   2.021  1.00  0.00     0.119 C 
BRANCH   7  13
ATOM     13  C   UNL     1      -0.317  -0.297   3.468  1.00  0.00     0.047 C 
BRANCH  13  14
ATOM     14  C   UNL     1      -1.081   1.028   3.742  1.00  0.00     0.161 C 
BRANCH  14  15
ATOM     15  O   UNL     1      -2.471   0.759   3.966  1.00  0.00    -0.385 OA
ATOM     16  C   UNL     1      -3.164   0.586   2.740  1.00  0.00     0.194 C 
ENDBRANCH  14  15
ENDBRANCH  13  14
ENDBRANCH   7  13
BRANCH  11  17
ATOM     17  C   UNL     1       0.146  -3.468   3.956  1.00  0.00     0.227 C 
ATOM     18  O   UNL     1      -0.182  -3.048   5.070  1.00  0.00    -0.275 OA
BRANCH  17  19
ATOM     19  C   UNL     1      -0.595  -4.729   3.368  1.00  0.00     0.143 C 
BRANCH  19  20
ATOM     20  C   UNL     1      -1.416  -4.681   2.085  1.00  0.00     0.048 A 
ATOM     21  C   UNL     1      -1.756  -5.725   1.291  1.00  0.00     0.049 A 
ATOM     22  C   UNL     1      -2.086  -3.431   1.698  1.00  0.00     0.254 A 
ATOM     23  C   UNL     1      -1.548  -7.162   1.685  1.00  0.00     0.067 C 
ATOM     24  N   UNL     1      -2.384  -5.611   0.061  1.00  0.00    -0.240 NA
ATOM     25  N   UNL     1      -2.630  -3.348   0.466  1.00  0.00    -0.311 N 
ATOM     26  O   UNL     1      -2.215  -2.495   2.480  1.00  0.00    -0.269 OA
ATOM     27  C   UNL     1      -2.778  -4.442  -0.316  1.00  0.00     0.105 A 
ATOM     28  H   UNL     1      -2.926  -2.472   0.129  1.00  0.00     0.171 HD
ATOM     29  C   UNL     1      -3.438  -4.208  -1.646  1.00  0.00     0.087 C 
ENDBRANCH  19  20
ENDBRANCH  17  19
ENDBRANCH  11  17
ENDBRANCH   4   7
ENDBRANCH   2   3
ENDBRANCH   1   2
BRANCH   1  30
ATOM     30  C   UNL     1      -2.313   0.332  -0.526  1.00  0.00     0.023 C 
BRANCH  30  31
ATOM     31  C   UNL     1      -2.515   0.757  -1.968  1.00  0.00     0.116 C 
BRANCH  31  32
ATOM     32  N   UNL     1      -2.338  -0.314  -2.942  1.00  0.00    -0.352 N 
ATOM     33  C   UNL     1      -3.210  -0.781  -3.908  1.00  0.00     0.251 C 
ATOM     34  H   UNL     1      -1.467  -0.773  -2.907  1.00  0.00     0.163 HD
ATOM     35  O   UNL     1      -2.901  -1.761  -4.581  1.00  0.00    -0.269 OA
BRANCH  33  36
ATOM     36  C   UNL     1      -4.533  -0.138  -4.092  1.00  0.00     0.039 A 
ATOM     37  C   UNL     1      -5.667  -0.929  -4.297  1.00  0.00     0.014 A 
ATOM     38  C   UNL     1      -4.664   1.247  -4.004  1.00  0.00     0.014 A 
ATOM     39  C   UNL     1      -6.932  -0.333  -4.319  1.00  0.00     0.010 A 
ATOM     40  C   UNL     1      -5.923   1.812  -3.864  1.00  0.00     0.010 A 
ATOM     41  C   UNL     1      -7.076   1.039  -4.055  1.00  0.00    -0.014 A 
BRANCH  41  42
ATOM     42  C   UNL     1      -8.403   1.710  -4.024  1.00  0.00     0.031 A 
ATOM     43  C   UNL     1      -8.660   2.892  -4.927  1.00  0.00     0.074 A 
ATOM     44  C   UNL     1      -9.337   1.328  -3.128  1.00  0.00     0.049 A 
ATOM     45  N   UNL     1      -9.705   3.676  -4.986  1.00  0.00    -0.248 NA
ATOM     46  C   UNL     1      -7.580   3.278  -5.855  1.00  0.00     0.031 C 
ATOM     47  C   UNL     1      -9.177   0.265  -2.133  1.00  0.00     0.029 A 
ATOM     48  N   UNL     1     -10.601   1.810  -2.893  1.00  0.00    -0.354 N 
ATOM     49  C   UNL     1      -9.383   4.669  -5.904  1.00  0.00     0.074 A 
ATOM     50  C   UNL     1      -8.028   4.426  -6.337  1.00  0.00     0.031 C 
ATOM     51  C   UNL     1     -10.304   0.163  -1.409  1.00  0.00     0.029 A 
ATOM     52  C   UNL     1     -11.252   1.177  -1.859  1.00  0.00     0.049 A 
ATOM     53  H   UNL     1     -11.004   2.541  -3.415  1.00  0.00     0.167 HD
ATOM     54  C   UNL     1     -10.157   5.672  -6.380  1.00  0.00     0.034 A 
ATOM     55  C   UNL     1     -12.472   1.395  -1.328  1.00  0.00     0.034 A 
ATOM     56  C   UNL     1     -11.528   5.864  -6.003  1.00  0.00     0.049 A 
ATOM     57  C   UNL     1     -13.338   2.473  -1.921  1.00  0.00     0.074 A 
ATOM     58  C   UNL     1     -12.438   6.774  -6.507  1.00  0.00     0.029 A 
ATOM     59  N   UNL     1     -12.185   5.135  -5.025  1.00  0.00    -0.354 N 
ATOM     60  N   UNL     1     -13.071   3.299  -2.904  1.00  0.00    -0.248 NA
ATOM     61  C   UNL     1     -14.688   2.627  -1.359  1.00  0.00     0.031 C 
ATOM     62  C   UNL     1     -13.638   6.620  -5.806  1.00  0.00     0.029 A 
ATOM     63  C   UNL     1     -13.487   5.583  -4.899  1.00  0.00     0.049 A 
ATOM     64  H   UNL     1     -11.785   4.406  -4.498  1.00  0.00     0.167 HD
ATOM     65  C   UNL     1     -14.228   4.043  -3.103  1.00  0.00     0.074 A 
ATOM     66  C   UNL     1     -15.206   3.554  -2.152  1.00  0.00     0.031 C 
ATOM     67  C   UNL     1     -14.459   5.048  -3.982  1.00  0.00     0.034 A 
BRANCH  54  68
ATOM     68  C   UNL     1      -9.554   6.605  -7.399  1.00  0.00     0.023 A 
ATOM     69  C   UNL     1      -9.253   6.136  -8.694  1.00  0.00     0.012 A 
ATOM     70  C   UNL     1      -9.334   7.961  -7.088  1.00  0.00     0.148 A 
ATOM     71  C   UNL     1      -8.706   6.989  -9.651  1.00  0.00     0.002 A 
ATOM     72  C   UNL     1      -8.839   8.818  -8.063  1.00  0.00     0.091 A 
ATOM     73  F   UNL     1      -9.605   8.385  -5.846  1.00  0.00    -0.205 F 
ATOM     74  C   UNL     1      -8.510   8.332  -9.339  1.00  0.00     0.022 A 
BRANCH  72  75
ATOM     75  S   UNL     1      -8.631  10.581  -7.791  1.00  0.00     0.127 S 
ATOM     76  O   UNL     1      -7.176  10.716  -7.838  1.00  0.00    -0.237 OA
ATOM     77  O   UNL     1      -9.334  11.151  -8.941  1.00  0.00    -0.237 OA
ATOM     78  O   UNL     1      -9.241  10.865  -6.500  1.00  0.00    -0.744 OA
ENDBRANCH  72  75
ENDBRANCH  54  68
BRANCH  55  79
ATOM     79  C   UNL     1     -12.968   0.544  -0.208  1.00  0.00     0.023 A 
ATOM     80  C   UNL     1     -14.028  -0.357  -0.432  1.00  0.00     0.012 A 
ATOM     81  C   UNL     1     -12.387   0.613   1.073  1.00  0.00     0.148 A 
ATOM     82  C   UNL     1     -14.526  -1.144   0.607  1.00  0.00     0.002 A 
ATOM     83  C   UNL     1     -12.849  -0.216   2.088  1.00  0.00     0.091 A 
ATOM     84  F   UNL     1     -11.386   1.482   1.269  1.00  0.00    -0.205 F 
ATOM     85  C   UNL     1     -13.931  -1.081   1.864  1.00  0.00     0.022 A 
BRANCH  83  86
ATOM     86  S   UNL     1     -12.058  -0.298   3.698  1.00  0.00     0.127 S 
ATOM     87  O   UNL     1     -13.071   0.307   4.559  1.00  0.00    -0.237 OA
ATOM     88  O   UNL     1     -11.882  -1.741   3.871  1.00  0.00    -0.237 OA
ATOM     89  O   UNL     1     -10.815   0.447   3.561  1.00  0.00    -0.744 OA
ENDBRANCH  83  86
ENDBRANCH  55  79
BRANCH  67  90
ATOM     90  C   UNL     1     -15.835   5.658  -4.002  1.00  0.00     0.023 A 
ATOM     91  C   UNL     1     -16.260   6.480  -2.940  1.00  0.00     0.012 A 
ATOM     92  C   UNL     1     -16.674   5.477  -5.119  1.00  0.00     0.148 A 
ATOM     93  C   UNL     1     -17.516   7.084  -2.974  1.00  0.00     0.002 A 
ATOM     94  C   UNL     1     -17.900   6.127  -5.171  1.00  0.00     0.091 A 
ATOM     95  F   UNL     1     -16.255   4.678  -6.111  1.00  0.00    -0.205 F 
ATOM     96  C   UNL     1     -18.329   6.918  -4.093  1.00  0.00     0.022 A 
BRANCH  94  97
ATOM     97  S   UNL     1     -18.965   6.058  -6.615  1.00  0.00     0.127 S 
ATOM     98  O   UNL     1     -20.076   5.243  -6.126  1.00  0.00    -0.237 OA
ATOM     99  O   UNL     1     -19.289   7.469  -6.827  1.00  0.00    -0.237 OA
ATOM    100  O   UNL     1     -18.168   5.454  -7.675  1.00  0.00    -0.744 OA
ENDBRANCH  94  97
ENDBRANCH  67  90
ENDBRANCH  41  42
ENDBRANCH  33  36
ENDBRANCH  31  32
ENDBRANCH  30  31
ENDBRANCH   1  30
TORSDOF 20
