REMARK SMILES COc1ccc(S(=O)(=O)N2C[C@H](C)C[C@H](C)C2)cc1C(=O)NCCCCNC(=O)c1ccc(-c2c3nc(c(-c4cccc(S(=O)(=O)[O-])c4F)c4ccc([nH]4)c(-c4cccc(S(=O)(=O)[O-])c4F)c4nc(c(-c5cccc(S(=O)(=O)[O-])c5F)c5ccc2[nH]5)C=C4)C=C3)cc1
REMARK SMILES IDX 25 1 24 2 23 3 22 4 20 5 21 6 19 8 3 9 4 10 5 11 18 12 6 13
REMARK SMILES IDX 2 14 1 15 7 16 8 17 9 18 10 19 11 20 17 21 12 22 15 23 13 24
REMARK SMILES IDX 14 25 16 26 26 27 27 28 28 29 29 31 30 32 31 33 92 34 32 35
REMARK SMILES IDX 91 36 33 37 34 38 35 39 85 40 36 41 90 42 84 43 86 44 37 45
REMARK SMILES IDX 89 46 83 47 82 48 38 50 70 51 50 52 69 53 51 54 54 55 68 56
REMARK SMILES IDX 87 57 52 58 53 59 67 61 88 62 55 63 39 64 40 65 48 66 41 67
REMARK SMILES IDX 43 68 49 69 42 70 44 71 45 72 46 73 47 74 71 75 72 76 80 77
REMARK SMILES IDX 73 78 75 79 81 80 74 81 76 82 77 83 78 84 79 85 56 86 57 87
REMARK SMILES IDX 65 88 58 89 60 90 66 91 59 92 61 93 62 94 63 95 64 96
REMARK H PARENT 22 7 27 30 86 49 54 60
REMARK Flexibility Score: inf
ROOT
ATOM      1  C   UNL     1       2.309   3.186   1.231  1.00  0.00     0.023 C 
ENDROOT
BRANCH   1   2
ATOM      2  C   UNL     1       1.617   2.255   2.233  1.00  0.00     0.023 C 
BRANCH   2   3
ATOM      3  C   UNL     1       1.141   0.910   1.691  1.00  0.00     0.116 C 
BRANCH   3   4
ATOM      4  N   UNL     1       2.173   0.178   0.991  1.00  0.00    -0.352 N 
ATOM      5  C   UNL     1       2.238  -1.145   0.667  1.00  0.00     0.255 C 
ATOM      6  O   UNL     1       3.198  -1.542   0.006  1.00  0.00    -0.269 OA
ATOM      7  H   UNL     1       2.946   0.717   0.706  1.00  0.00     0.163 HD
BRANCH   5   8
ATOM      8  C   UNL     1       1.245  -2.145   1.128  1.00  0.00     0.083 A 
ATOM      9  C   UNL     1      -0.138  -2.078   0.971  1.00  0.00     0.131 A 
ATOM     10  C   UNL     1      -0.937  -3.150   1.397  1.00  0.00     0.048 A 
ATOM     11  C   UNL     1      -0.355  -4.332   1.876  1.00  0.00     0.025 A 
ATOM     12  C   UNL     1       1.805  -3.324   1.642  1.00  0.00     0.039 A 
ATOM     13  C   UNL     1       1.033  -4.428   1.974  1.00  0.00     0.083 A 
BRANCH   9  14
ATOM     14  O   UNL     1      -0.792  -1.001   0.442  1.00  0.00    -0.496 OA
ATOM     15  C   UNL     1      -0.642  -0.943  -0.978  1.00  0.00     0.278 C 
ENDBRANCH   9  14
BRANCH  13  16
ATOM     16  S   UNL     1       1.771  -5.986   2.443  1.00  0.00     0.243 S 
ATOM     17  O   UNL     1       1.745  -6.020   3.886  1.00  0.00    -0.207 OA
ATOM     18  O   UNL     1       1.082  -6.996   1.658  1.00  0.00    -0.207 OA
BRANCH  16  19
ATOM     19  N   UNL     1       3.373  -5.968   1.925  1.00  0.00    -0.197 NA
ATOM     20  C   UNL     1       3.754  -6.129   0.514  1.00  0.00     0.105 C 
ATOM     21  C   UNL     1       4.496  -5.691   2.834  1.00  0.00     0.105 C 
ATOM     22  C   UNL     1       4.410  -4.843   0.004  1.00  0.00     0.001 C 
ATOM     23  C   UNL     1       5.169  -4.373   2.450  1.00  0.00     0.001 C 
ATOM     24  C   UNL     1       4.942  -5.013  -1.419  1.00  0.00     0.009 C 
ATOM     25  C   UNL     1       5.520  -4.328   0.948  1.00  0.00     0.009 C 
ATOM     26  C   UNL     1       6.400  -4.100   3.312  1.00  0.00     0.009 C 
ENDBRANCH  16  19
ENDBRANCH  13  16
ENDBRANCH   5   8
ENDBRANCH   3   4
ENDBRANCH   2   3
ENDBRANCH   1   2
BRANCH   1  27
ATOM     27  C   UNL     1       1.695   3.273  -0.164  1.00  0.00     0.116 C 
BRANCH  27  28
ATOM     28  N   UNL     1       0.322   3.752  -0.165  1.00  0.00    -0.352 N 
ATOM     29  C   UNL     1      -0.212   4.911  -0.676  1.00  0.00     0.251 C 
ATOM     30  H   UNL     1      -0.327   3.152   0.269  1.00  0.00     0.163 HD
ATOM     31  O   UNL     1      -1.396   5.174  -0.482  1.00  0.00    -0.269 OA
BRANCH  29  32
ATOM     32  C   UNL     1       0.642   5.859  -1.424  1.00  0.00     0.039 A 
ATOM     33  C   UNL     1       0.607   7.213  -1.076  1.00  0.00     0.014 A 
ATOM     34  C   UNL     1       1.481   5.421  -2.450  1.00  0.00     0.014 A 
ATOM     35  C   UNL     1       1.481   8.111  -1.695  1.00  0.00     0.010 A 
ATOM     36  C   UNL     1       2.403   6.302  -3.011  1.00  0.00     0.010 A 
ATOM     37  C   UNL     1       2.419   7.654  -2.634  1.00  0.00    -0.014 A 
BRANCH  37  38
ATOM     38  C   UNL     1       3.445   8.558  -3.218  1.00  0.00     0.031 A 
ATOM     39  C   UNL     1       3.480   8.803  -4.702  1.00  0.00     0.074 A 
ATOM     40  C   UNL     1       4.416   9.061  -2.429  1.00  0.00     0.049 A 
ATOM     41  N   UNL     1       4.368   9.450  -5.410  1.00  0.00    -0.248 NA
ATOM     42  C   UNL     1       2.390   8.214  -5.499  1.00  0.00     0.031 C 
ATOM     43  C   UNL     1       4.541   8.834  -0.988  1.00  0.00     0.029 A 
ATOM     44  N   UNL     1       5.506   9.839  -2.736  1.00  0.00    -0.354 N 
ATOM     45  C   UNL     1       3.975   9.305  -6.735  1.00  0.00     0.074 A 
ATOM     46  C   UNL     1       2.780   8.490  -6.735  1.00  0.00     0.031 C 
ATOM     47  C   UNL     1       5.645   9.453  -0.537  1.00  0.00     0.029 A 
ATOM     48  C   UNL     1       6.322  10.097  -1.658  1.00  0.00     0.049 A 
ATOM     49  H   UNL     1       5.687  10.180  -3.641  1.00  0.00     0.167 HD
ATOM     50  C   UNL     1       4.541   9.827  -7.850  1.00  0.00     0.034 A 
ATOM     51  C   UNL     1       7.489  10.768  -1.581  1.00  0.00     0.034 A 
ATOM     52  C   UNL     1       5.687  10.694  -7.842  1.00  0.00     0.049 A 
ATOM     53  C   UNL     1       8.055  11.398  -2.825  1.00  0.00     0.074 A 
ATOM     54  C   UNL     1       6.277  11.349  -8.909  1.00  0.00     0.029 A 
ATOM     55  N   UNL     1       6.413  11.035  -6.712  1.00  0.00    -0.354 N 
ATOM     56  N   UNL     1       7.581  11.378  -4.047  1.00  0.00    -0.248 NA
ATOM     57  C   UNL     1       9.294  12.175  -2.675  1.00  0.00     0.031 C 
ATOM     58  C   UNL     1       7.362  12.086  -8.423  1.00  0.00     0.029 A 
ATOM     59  C   UNL     1       7.442  11.895  -7.053  1.00  0.00     0.049 A 
ATOM     60  H   UNL     1       6.224  10.713  -5.801  1.00  0.00     0.167 HD
ATOM     61  C   UNL     1       8.439  12.169  -4.802  1.00  0.00     0.074 A 
ATOM     62  C   UNL     1       9.454  12.667  -3.897  1.00  0.00     0.031 C 
ATOM     63  C   UNL     1       8.400  12.444  -6.128  1.00  0.00     0.034 A 
BRANCH  50  64
ATOM     64  C   UNL     1       3.884   9.531  -9.172  1.00  0.00     0.023 A 
ATOM     65  C   UNL     1       2.667  10.165  -9.494  1.00  0.00     0.012 A 
ATOM     66  C   UNL     1       4.492   8.680 -10.115  1.00  0.00     0.148 A 
ATOM     67  C   UNL     1       2.049   9.933 -10.722  1.00  0.00     0.002 A 
ATOM     68  C   UNL     1       3.890   8.485 -11.353  1.00  0.00     0.091 A 
ATOM     69  F   UNL     1       5.638   8.067  -9.781  1.00  0.00    -0.205 F 
ATOM     70  C   UNL     1       2.665   9.103 -11.654  1.00  0.00     0.022 A 
BRANCH  68  71
ATOM     71  S   UNL     1       4.643   7.492 -12.647  1.00  0.00     0.127 S 
ATOM     72  O   UNL     1       3.822   6.282 -12.606  1.00  0.00    -0.237 OA
ATOM     73  O   UNL     1       4.442   8.323 -13.834  1.00  0.00    -0.237 OA
ATOM     74  O   UNL     1       6.036   7.320 -12.258  1.00  0.00    -0.744 OA
ENDBRANCH  68  71
ENDBRANCH  50  64
BRANCH  51  75
ATOM     75  C   UNL     1       8.158  10.948  -0.261  1.00  0.00     0.023 A 
ATOM     76  C   UNL     1       8.152  12.222   0.341  1.00  0.00     0.012 A 
ATOM     77  C   UNL     1       8.767   9.874   0.414  1.00  0.00     0.148 A 
ATOM     78  C   UNL     1       8.766  12.429   1.576  1.00  0.00     0.002 A 
ATOM     79  C   UNL     1       9.332  10.076   1.669  1.00  0.00     0.091 A 
ATOM     80  F   UNL     1       8.777   8.672  -0.180  1.00  0.00    -0.205 F 
ATOM     81  C   UNL     1       9.347  11.355   2.245  1.00  0.00     0.022 A 
BRANCH  79  82
ATOM     82  S   UNL     1       9.983   8.720   2.653  1.00  0.00     0.127 S 
ATOM     83  O   UNL     1      11.423   8.888   2.480  1.00  0.00    -0.237 OA
ATOM     84  O   UNL     1       9.481   9.042   3.990  1.00  0.00    -0.237 OA
ATOM     85  O   UNL     1       9.405   7.513   2.076  1.00  0.00    -0.744 OA
ENDBRANCH  79  82
ENDBRANCH  51  75
BRANCH  63  86
ATOM     86  C   UNL     1       9.454  13.359  -6.690  1.00  0.00     0.023 A 
ATOM     87  C   UNL     1      10.761  12.876  -6.891  1.00  0.00     0.012 A 
ATOM     88  C   UNL     1       9.123  14.663  -7.109  1.00  0.00     0.148 A 
ATOM     89  C   UNL     1      11.730  13.684  -7.485  1.00  0.00     0.002 A 
ATOM     90  C   UNL     1      10.082  15.447  -7.738  1.00  0.00     0.091 A 
ATOM     91  F   UNL     1       7.878  15.110  -6.888  1.00  0.00    -0.205 F 
ATOM     92  C   UNL     1      11.388  14.963  -7.920  1.00  0.00     0.022 A 
BRANCH  90  93
ATOM     93  S   UNL     1       9.703  17.069  -8.413  1.00  0.00     0.127 S 
ATOM     94  O   UNL     1      10.327  17.954  -7.431  1.00  0.00    -0.237 OA
ATOM     95  O   UNL     1      10.374  17.032  -9.713  1.00  0.00    -0.237 OA
ATOM     96  O   UNL     1       8.250  17.139  -8.489  1.00  0.00    -0.744 OA
ENDBRANCH  90  93
ENDBRANCH  63  86
ENDBRANCH  37  38
ENDBRANCH  29  32
ENDBRANCH  27  28
ENDBRANCH   1  27
TORSDOF 17
