REMARK SMILES CCCN(CC(=O)NCCCCNC(=O)c1ccc(-c2c3nc(c(-c4cccc(S(=O)(=O)[O-])c4F)c4ccc([nH]4)c(-c4cccc(S(=O)(=O)[O-])c4F)c4nc(c(-c5cccc(S(=O)(=O)[O-])c5F)c5ccc2[nH]5)C=C4)C=C3)cc1)C(=O)Cc1ccc(F)c(F)c1
REMARK SMILES IDX 10 1 9 2 8 3 6 4 7 5 5 7 4 8 3 9 2 10 1 11 79 12 80 13 81 14
REMARK SMILES IDX 82 15 83 16 89 17 84 18 87 19 85 20 88 21 86 22 11 23 12 24
REMARK SMILES IDX 13 25 14 26 15 28 16 29 17 30 78 31 18 32 77 33 19 34 20 35
REMARK SMILES IDX 21 36 71 37 22 38 76 39 70 40 72 41 23 42 75 43 69 44 68 45
REMARK SMILES IDX 24 47 56 48 36 49 55 50 37 51 40 52 54 53 73 54 38 55 39 56
REMARK SMILES IDX 53 58 74 59 41 60 25 61 26 62 34 63 27 64 29 65 35 66 28 67
REMARK SMILES IDX 30 68 31 69 32 70 33 71 57 72 58 73 66 74 59 75 61 76 67 77
REMARK SMILES IDX 60 78 62 79 63 80 64 81 65 82 42 83 43 84 51 85 44 86 46 87
REMARK SMILES IDX 52 88 45 89 47 90 48 91 49 92 50 93
REMARK H PARENT 8 6 13 27 72 46 40 57
REMARK Flexibility Score: inf
ROOT
ATOM      1  C   UNL     1       3.746  -3.942   1.931  1.00  0.00     0.023 C 
ENDROOT
BRANCH   1   2
ATOM      2  C   UNL     1       2.564  -4.887   1.736  1.00  0.00     0.116 C 
BRANCH   2   3
ATOM      3  N   UNL     1       1.701  -4.936   2.891  1.00  0.00    -0.355 N 
ATOM      4  C   UNL     1       0.464  -4.397   3.058  1.00  0.00     0.239 C 
ATOM      5  O   UNL     1      -0.173  -4.733   4.059  1.00  0.00    -0.273 OA
ATOM      6  H   UNL     1       2.058  -5.428   3.666  1.00  0.00     0.163 HD
BRANCH   4   7
ATOM      7  C   UNL     1      -0.158  -3.467   2.000  1.00  0.00     0.219 C 
BRANCH   7   8
ATOM      8  N   UNL     1       0.619  -2.255   1.701  1.00  0.00    -0.333 N 
BRANCH   8   9
ATOM      9  C   UNL     1       1.138  -2.101   0.334  1.00  0.00     0.120 C 
BRANCH   9  10
ATOM     10  C   UNL     1       0.386  -1.102  -0.552  1.00  0.00     0.018 C 
ATOM     11  C   UNL     1       0.799   0.347  -0.349  1.00  0.00     0.006 C 
ENDBRANCH   9  10
ENDBRANCH   8   9
BRANCH   8  12
ATOM     12  C   UNL     1       0.871  -1.246   2.630  1.00  0.00     0.227 C 
ATOM     13  O   UNL     1       1.645  -0.320   2.364  1.00  0.00    -0.275 OA
BRANCH  12  14
ATOM     14  C   UNL     1       0.246  -1.292   4.024  1.00  0.00     0.135 C 
BRANCH  14  15
ATOM     15  C   UNL     1      -1.249  -1.061   4.077  1.00  0.00    -0.036 A 
ATOM     16  C   UNL     1      -1.801   0.188   3.749  1.00  0.00     0.007 A 
ATOM     17  C   UNL     1      -2.113  -2.093   4.480  1.00  0.00     0.046 A 
ATOM     18  C   UNL     1      -3.187   0.382   3.785  1.00  0.00     0.043 A 
ATOM     19  C   UNL     1      -3.490  -1.905   4.473  1.00  0.00     0.159 A 
ATOM     20  C   UNL     1      -4.025  -0.674   4.128  1.00  0.00     0.158 A 
ATOM     21  F   UNL     1      -4.295  -2.929   4.789  1.00  0.00    -0.204 F 
ATOM     22  F   UNL     1      -5.353  -0.492   4.125  1.00  0.00    -0.204 F 
ENDBRANCH  14  15
ENDBRANCH  12  14
ENDBRANCH   8  12
ENDBRANCH   7   8
ENDBRANCH   4   7
ENDBRANCH   2   3
ENDBRANCH   1   2
BRANCH   1  23
ATOM     23  C   UNL     1       4.754  -4.395   2.990  1.00  0.00     0.023 C 
BRANCH  23  24
ATOM     24  C   UNL     1       5.231  -5.837   2.858  1.00  0.00     0.116 C 
BRANCH  24  25
ATOM     25  N   UNL     1       5.749  -6.144   1.534  1.00  0.00    -0.352 N 
ATOM     26  C   UNL     1       6.829  -6.917   1.188  1.00  0.00     0.251 C 
ATOM     27  H   UNL     1       5.257  -5.743   0.782  1.00  0.00     0.163 HD
ATOM     28  O   UNL     1       7.191  -6.966   0.015  1.00  0.00    -0.269 OA
BRANCH  26  29
ATOM     29  C   UNL     1       7.569  -7.656   2.231  1.00  0.00     0.039 A 
ATOM     30  C   UNL     1       8.963  -7.601   2.225  1.00  0.00     0.014 A 
ATOM     31  C   UNL     1       6.897  -8.384   3.217  1.00  0.00     0.014 A 
ATOM     32  C   UNL     1       9.682  -8.235   3.238  1.00  0.00     0.010 A 
ATOM     33  C   UNL     1       7.612  -8.946   4.272  1.00  0.00     0.010 A 
ATOM     34  C   UNL     1       9.012  -8.886   4.289  1.00  0.00    -0.014 A 
BRANCH  34  35
ATOM     35  C   UNL     1       9.778  -9.482   5.413  1.00  0.00     0.031 A 
ATOM     36  C   UNL     1       9.728 -10.962   5.683  1.00  0.00     0.074 A 
ATOM     37  C   UNL     1      10.487  -8.674   6.227  1.00  0.00     0.049 A 
ATOM     38  N   UNL     1      10.370 -11.653   6.589  1.00  0.00    -0.248 NA
ATOM     39  C   UNL     1       8.823 -11.769   4.847  1.00  0.00     0.031 C 
ATOM     40  C   UNL     1      10.534  -7.212   6.135  1.00  0.00     0.029 A 
ATOM     41  N   UNL     1      11.292  -8.963   7.300  1.00  0.00    -0.354 N 
ATOM     42  C   UNL     1       9.926 -12.963   6.456  1.00  0.00     0.074 A 
ATOM     43  C   UNL     1       8.934 -12.967   5.403  1.00  0.00     0.031 C 
ATOM     44  C   UNL     1      11.338  -6.735   7.098  1.00  0.00     0.029 A 
ATOM     45  C   UNL     1      11.843  -7.850   7.892  1.00  0.00     0.049 A 
ATOM     46  H   UNL     1      11.459  -9.880   7.617  1.00  0.00     0.167 HD
ATOM     47  C   UNL     1      10.326 -14.068   7.129  1.00  0.00     0.034 A 
ATOM     48  C   UNL     1      12.663  -7.739   8.956  1.00  0.00     0.034 A 
ATOM     49  C   UNL     1      11.340 -14.065   8.150  1.00  0.00     0.049 A 
ATOM     50  C   UNL     1      13.140  -8.989   9.642  1.00  0.00     0.074 A 
ATOM     51  C   UNL     1      11.893 -15.146   8.814  1.00  0.00     0.029 A 
ATOM     52  N   UNL     1      11.939 -12.929   8.669  1.00  0.00    -0.354 N 
ATOM     53  N   UNL     1      12.854 -10.239   9.373  1.00  0.00    -0.248 NA
ATOM     54  C   UNL     1      14.086  -8.815  10.753  1.00  0.00     0.031 C 
ATOM     55  C   UNL     1      12.798 -14.660   9.763  1.00  0.00     0.029 A 
ATOM     56  C   UNL     1      12.842 -13.279   9.659  1.00  0.00     0.049 A 
ATOM     57  H   UNL     1      11.752 -12.008   8.377  1.00  0.00     0.167 HD
ATOM     58  C   UNL     1      13.608 -11.001  10.258  1.00  0.00     0.074 A 
ATOM     59  C   UNL     1      14.387 -10.071  11.049  1.00  0.00     0.031 C 
ATOM     60  C   UNL     1      13.640 -12.348  10.414  1.00  0.00     0.034 A 
BRANCH  47  61
ATOM     61  C   UNL     1       9.697 -15.386   6.760  1.00  0.00     0.023 A 
ATOM     62  C   UNL     1      10.006 -15.988   5.522  1.00  0.00     0.012 A 
ATOM     63  C   UNL     1       8.862 -16.066   7.668  1.00  0.00     0.148 A 
ATOM     64  C   UNL     1       9.469 -17.230   5.182  1.00  0.00     0.002 A 
ATOM     65  C   UNL     1       8.370 -17.324   7.343  1.00  0.00     0.091 A 
ATOM     66  F   UNL     1       8.563 -15.469   8.831  1.00  0.00    -0.205 F 
ATOM     67  C   UNL     1       8.662 -17.902   6.096  1.00  0.00     0.022 A 
BRANCH  65  68
ATOM     68  S   UNL     1       7.392 -18.309   8.483  1.00  0.00     0.127 S 
ATOM     69  O   UNL     1       6.086 -18.309   7.825  1.00  0.00    -0.237 OA
ATOM     70  O   UNL     1       8.090 -19.594   8.453  1.00  0.00    -0.237 OA
ATOM     71  O   UNL     1       7.445 -17.616   9.762  1.00  0.00    -0.744 OA
ENDBRANCH  65  68
ENDBRANCH  47  61
BRANCH  48  72
ATOM     72  C   UNL     1      13.129  -6.395   9.402  1.00  0.00     0.023 A 
ATOM     73  C   UNL     1      14.482  -6.036   9.247  1.00  0.00     0.012 A 
ATOM     74  C   UNL     1      12.233  -5.468   9.968  1.00  0.00     0.148 A 
ATOM     75  C   UNL     1      14.943  -4.794   9.685  1.00  0.00     0.002 A 
ATOM     76  C   UNL     1      12.686  -4.210  10.347  1.00  0.00     0.091 A 
ATOM     77  F   UNL     1      10.952  -5.832  10.117  1.00  0.00    -0.205 F 
ATOM     78  C   UNL     1      14.044  -3.878  10.226  1.00  0.00     0.022 A 
BRANCH  76  79
ATOM     79  S   UNL     1      11.574  -2.923  10.922  1.00  0.00     0.127 S 
ATOM     80  O   UNL     1      11.917  -2.844  12.340  1.00  0.00    -0.237 OA
ATOM     81  O   UNL     1      11.999  -1.776  10.119  1.00  0.00    -0.237 OA
ATOM     82  O   UNL     1      10.232  -3.401  10.620  1.00  0.00    -0.744 OA
ENDBRANCH  76  79
ENDBRANCH  48  72
BRANCH  60  83
ATOM     83  C   UNL     1      14.573 -12.903  11.460  1.00  0.00     0.023 A 
ATOM     84  C   UNL     1      14.300 -12.700  12.828  1.00  0.00     0.012 A 
ATOM     85  C   UNL     1      15.700 -13.662  11.087  1.00  0.00     0.148 A 
ATOM     86  C   UNL     1      15.159 -13.201  13.805  1.00  0.00     0.002 A 
ATOM     87  C   UNL     1      16.520 -14.206  12.068  1.00  0.00     0.091 A 
ATOM     88  F   UNL     1      15.955 -13.831   9.781  1.00  0.00    -0.205 F 
ATOM     89  C   UNL     1      16.262 -13.962  13.426  1.00  0.00     0.022 A 
BRANCH  87  90
ATOM     90  S   UNL     1      17.904 -15.281  11.674  1.00  0.00     0.127 S 
ATOM     91  O   UNL     1      19.045 -14.405  11.932  1.00  0.00    -0.237 OA
ATOM     92  O   UNL     1      17.738 -16.368  12.640  1.00  0.00    -0.237 OA
ATOM     93  O   UNL     1      17.720 -15.678  10.284  1.00  0.00    -0.744 OA
ENDBRANCH  87  90
ENDBRANCH  60  83
ENDBRANCH  34  35
ENDBRANCH  26  29
ENDBRANCH  24  25
ENDBRANCH  23  24
ENDBRANCH   1  23
TORSDOF 20
