REMARK SMILES COc1ccc(N2C[C@@H](C)Cn3c2nc2c3c(=O)n(CC(=O)NCCCCNC(=O)c3ccc(-c4c5nc(c(-c6cccc(S(=O)(=O)[O-])c6F)c6ccc([nH]6)c(-c6cccc(S(=O)(=O)[O-])c6F)c6nc(c(-c7cccc(S(=O)(=O)[O-])c7F)c7ccc4[nH]7)C=C6)C=C5)cc3)c(=O)n2C)cc1
REMARK SMILES IDX 25 1 24 2 23 3 21 4 22 5 20 7 19 8 7 9 8 10 13 11 9 12 12 13
REMARK SMILES IDX 14 14 11 15 10 16 16 17 15 18 17 19 96 20 18 21 94 22 97 23
REMARK SMILES IDX 95 24 6 25 3 26 4 27 99 28 5 29 98 30 2 31 1 32 26 33 27 34
REMARK SMILES IDX 28 35 29 36 30 38 31 39 32 40 93 41 33 42 92 43 34 44 35 45
REMARK SMILES IDX 36 46 86 47 37 48 91 49 85 50 87 51 38 52 90 53 84 54 83 55
REMARK SMILES IDX 39 57 71 58 51 59 70 60 52 61 55 62 69 63 88 64 53 65 54 66
REMARK SMILES IDX 68 68 89 69 56 70 40 71 41 72 49 73 42 74 44 75 50 76 43 77
REMARK SMILES IDX 45 78 46 79 47 80 48 81 72 82 73 83 81 84 74 85 76 86 82 87
REMARK SMILES IDX 75 88 77 89 78 90 79 91 80 92 57 93 58 94 66 95 59 96 61 97
REMARK SMILES IDX 67 98 60 99 62 100 63 101 64 102 65 103
REMARK H PARENT 23 6 28 37 87 56 55 67
REMARK Flexibility Score: inf
ROOT
ATOM      1  C   UNL     1       3.609 -10.590  -5.328  1.00  0.00     0.023 C 
ENDROOT
BRANCH   1   2
ATOM      2  C   UNL     1       4.674 -10.937  -6.368  1.00  0.00     0.116 C 
BRANCH   2   3
ATOM      3  N   UNL     1       4.172 -10.814  -7.723  1.00  0.00    -0.355 N 
ATOM      4  C   UNL     1       4.579 -10.013  -8.748  1.00  0.00     0.240 C 
ATOM      5  O   UNL     1       4.130 -10.252  -9.873  1.00  0.00    -0.273 OA
ATOM      6  H   UNL     1       3.414 -11.405  -7.937  1.00  0.00     0.163 HD
BRANCH   4   7
ATOM      7  C   UNL     1       5.626  -8.911  -8.550  1.00  0.00     0.230 C 
BRANCH   7   8
ATOM      8  N   UNL     1       5.208  -7.892  -7.594  1.00  0.00    -0.249 N 
ATOM      9  N   UNL     1       1.805  -3.709  -5.423  1.00  0.00    -0.312 N 
ATOM     10  C   UNL     1       0.959  -3.215  -6.519  1.00  0.00     0.131 C 
ATOM     11  C   UNL     1       2.775  -4.622  -5.716  1.00  0.00     0.212 A 
ATOM     12  C   UNL     1       0.424  -4.409  -7.311  1.00  0.00     0.026 C 
ATOM     13  N   UNL     1       2.683  -5.322  -6.906  1.00  0.00    -0.304 N 
ATOM     14  N   UNL     1       3.821  -5.045  -5.024  1.00  0.00    -0.194 NA
ATOM     15  C   UNL     1       1.615  -5.185  -7.876  1.00  0.00     0.131 C 
ATOM     16  C   UNL     1      -0.524  -3.973  -8.422  1.00  0.00     0.011 C 
ATOM     17  C   UNL     1       3.738  -6.175  -6.976  1.00  0.00     0.154 A 
ATOM     18  C   UNL     1       4.406  -6.001  -5.807  1.00  0.00     0.170 A 
ATOM     19  C   UNL     1       4.135  -7.089  -7.987  1.00  0.00     0.283 A 
ATOM     20  N   UNL     1       5.544  -6.724  -5.529  1.00  0.00    -0.279 N 
ATOM     21  O   UNL     1       3.598  -7.132  -9.082  1.00  0.00    -0.267 OA
ATOM     22  C   UNL     1       6.000  -7.668  -6.455  1.00  0.00     0.332 A 
ATOM     23  C   UNL     1       6.271  -6.501  -4.293  1.00  0.00     0.157 C 
ATOM     24  O   UNL     1       7.065  -8.270  -6.288  1.00  0.00    -0.247 OA
BRANCH   9  25
ATOM     25  C   UNL     1       1.564  -3.157  -4.152  1.00  0.00     0.044 A 
ATOM     26  C   UNL     1       0.999  -1.971  -1.647  1.00  0.00     0.119 A 
ATOM     27  C   UNL     1      -0.019  -2.567  -2.382  1.00  0.00     0.048 A 
ATOM     28  C   UNL     1       2.307  -2.008  -2.129  1.00  0.00     0.048 A 
ATOM     29  C   UNL     1       0.261  -3.142  -3.623  1.00  0.00     0.030 A 
ATOM     30  C   UNL     1       2.586  -2.608  -3.368  1.00  0.00     0.030 A 
BRANCH  26  31
ATOM     31  O   UNL     1       0.635  -1.448  -0.437  1.00  0.00    -0.497 OA
ATOM     32  C   UNL     1       1.196  -0.167  -0.170  1.00  0.00     0.278 C 
ENDBRANCH  26  31
ENDBRANCH   9  25
ENDBRANCH   7   8
ENDBRANCH   4   7
ENDBRANCH   2   3
ENDBRANCH   1   2
BRANCH   1  33
ATOM     33  C   UNL     1       2.464 -11.618  -5.199  1.00  0.00     0.023 C 
BRANCH  33  34
ATOM     34  C   UNL     1       2.849 -12.998  -4.627  1.00  0.00     0.116 C 
BRANCH  34  35
ATOM     35  N   UNL     1       3.312 -12.872  -3.255  1.00  0.00    -0.352 N 
ATOM     36  C   UNL     1       3.082 -13.617  -2.131  1.00  0.00     0.251 C 
ATOM     37  H   UNL     1       3.905 -12.100  -3.106  1.00  0.00     0.163 HD
ATOM     38  O   UNL     1       3.328 -13.078  -1.049  1.00  0.00    -0.269 OA
BRANCH  36  39
ATOM     39  C   UNL     1       2.571 -15.013  -2.134  1.00  0.00     0.039 A 
ATOM     40  C   UNL     1       1.837 -15.419  -1.008  1.00  0.00     0.014 A 
ATOM     41  C   UNL     1       2.921 -15.967  -3.092  1.00  0.00     0.014 A 
ATOM     42  C   UNL     1       1.445 -16.751  -0.844  1.00  0.00     0.010 A 
ATOM     43  C   UNL     1       2.522 -17.308  -2.927  1.00  0.00     0.010 A 
ATOM     44  C   UNL     1       1.775 -17.710  -1.808  1.00  0.00    -0.014 A 
BRANCH  44  45
ATOM     45  C   UNL     1       1.170 -19.060  -1.672  1.00  0.00     0.031 A 
ATOM     46  C   UNL     1       0.498 -19.566  -2.912  1.00  0.00     0.074 A 
ATOM     47  C   UNL     1       1.545 -19.951  -0.724  1.00  0.00     0.049 A 
ATOM     48  N   UNL     1       1.147 -20.147  -3.877  1.00  0.00    -0.248 NA
ATOM     49  C   UNL     1      -0.876 -19.208  -3.263  1.00  0.00     0.031 C 
ATOM     50  C   UNL     1       2.938 -20.111  -0.285  1.00  0.00     0.029 A 
ATOM     51  N   UNL     1       0.892 -21.038  -0.172  1.00  0.00    -0.354 N 
ATOM     52  C   UNL     1       0.310 -20.189  -4.981  1.00  0.00     0.074 A 
ATOM     53  C   UNL     1      -0.941 -19.604  -4.546  1.00  0.00     0.031 C 
ATOM     54  C   UNL     1       3.067 -21.313   0.317  1.00  0.00     0.029 A 
ATOM     55  C   UNL     1       1.754 -21.951   0.447  1.00  0.00     0.049 A 
ATOM     56  H   UNL     1      -0.084 -21.159  -0.210  1.00  0.00     0.167 HD
ATOM     57  C   UNL     1       0.699 -20.700  -6.182  1.00  0.00     0.034 A 
ATOM     58  C   UNL     1       1.562 -23.303   0.486  1.00  0.00     0.034 A 
ATOM     59  C   UNL     1       2.035 -21.228  -6.214  1.00  0.00     0.049 A 
ATOM     60  C   UNL     1       1.806 -23.671  -0.954  1.00  0.00     0.074 A 
ATOM     61  C   UNL     1       3.280 -20.825  -6.646  1.00  0.00     0.029 A 
ATOM     62  N   UNL     1       2.260 -22.451  -5.628  1.00  0.00    -0.354 N 
ATOM     63  N   UNL     1       2.973 -23.757  -1.533  1.00  0.00    -0.248 NA
ATOM     64  C   UNL     1       0.672 -23.555  -1.869  1.00  0.00     0.031 C 
ATOM     65  C   UNL     1       4.218 -21.589  -5.876  1.00  0.00     0.029 A 
ATOM     66  C   UNL     1       3.482 -22.390  -5.005  1.00  0.00     0.049 A 
ATOM     67  H   UNL     1       1.656 -23.227  -5.651  1.00  0.00     0.167 HD
ATOM     68  C   UNL     1       2.750 -23.397  -2.864  1.00  0.00     0.074 A 
ATOM     69  C   UNL     1       1.309 -23.304  -3.004  1.00  0.00     0.031 C 
ATOM     70  C   UNL     1       3.740 -23.027  -3.731  1.00  0.00     0.034 A 
BRANCH  57  71
ATOM     71  C   UNL     1      -0.187 -20.918  -7.353  1.00  0.00     0.023 A 
ATOM     72  C   UNL     1      -0.648 -22.238  -7.542  1.00  0.00     0.012 A 
ATOM     73  C   UNL     1      -0.393 -19.966  -8.367  1.00  0.00     0.148 A 
ATOM     74  C   UNL     1      -1.250 -22.626  -8.734  1.00  0.00     0.002 A 
ATOM     75  C   UNL     1      -1.007 -20.359  -9.557  1.00  0.00     0.091 A 
ATOM     76  F   UNL     1       0.055 -18.716  -8.176  1.00  0.00    -0.205 F 
ATOM     77  C   UNL     1      -1.421 -21.690  -9.745  1.00  0.00     0.022 A 
BRANCH  75  78
ATOM     78  S   UNL     1      -1.284 -19.250 -10.946  1.00  0.00     0.127 S 
ATOM     79  O   UNL     1      -0.436 -19.840 -11.981  1.00  0.00    -0.237 OA
ATOM     80  O   UNL     1      -2.721 -19.406 -11.173  1.00  0.00    -0.237 OA
ATOM     81  O   UNL     1      -0.882 -17.927 -10.488  1.00  0.00    -0.744 OA
ENDBRANCH  75  78
ENDBRANCH  57  71
BRANCH  58  82
ATOM     82  C   UNL     1       0.389 -23.818   1.276  1.00  0.00     0.023 A 
ATOM     83  C   UNL     1       0.238 -23.325   2.594  1.00  0.00     0.012 A 
ATOM     84  C   UNL     1      -0.558 -24.766   0.834  1.00  0.00     0.148 A 
ATOM     85  C   UNL     1      -0.859 -23.666   3.391  1.00  0.00     0.002 A 
ATOM     86  C   UNL     1      -1.690 -25.048   1.601  1.00  0.00     0.091 A 
ATOM     87  F   UNL     1      -0.352 -25.403  -0.324  1.00  0.00    -0.205 F 
ATOM     88  C   UNL     1      -1.844 -24.498   2.879  1.00  0.00     0.022 A 
BRANCH  86  89
ATOM     89  S   UNL     1      -3.061 -26.037   0.983  1.00  0.00     0.127 S 
ATOM     90  O   UNL     1      -3.188 -27.063   2.017  1.00  0.00    -0.237 OA
ATOM     91  O   UNL     1      -4.141 -25.051   0.957  1.00  0.00    -0.237 OA
ATOM     92  O   UNL     1      -2.643 -26.523  -0.325  1.00  0.00    -0.744 OA
ENDBRANCH  86  89
ENDBRANCH  58  82
BRANCH  70  93
ATOM     93  C   UNL     1       5.147 -23.128  -3.213  1.00  0.00     0.023 A 
ATOM     94  C   UNL     1       5.668 -24.400  -2.905  1.00  0.00     0.012 A 
ATOM     95  C   UNL     1       5.979 -21.997  -3.064  1.00  0.00     0.148 A 
ATOM     96  C   UNL     1       6.986 -24.551  -2.476  1.00  0.00     0.002 A 
ATOM     97  C   UNL     1       7.306 -22.158  -2.678  1.00  0.00     0.091 A 
ATOM     98  F   UNL     1       5.468 -20.780  -3.303  1.00  0.00    -0.205 F 
ATOM     99  C   UNL     1       7.809 -23.434  -2.378  1.00  0.00     0.022 A 
BRANCH  97 100
ATOM    100  S   UNL     1       8.474 -20.794  -2.588  1.00  0.00     0.127 S 
ATOM    101  O   UNL     1       8.910 -20.855  -1.192  1.00  0.00    -0.237 OA
ATOM    102  O   UNL     1       9.490 -21.204  -3.559  1.00  0.00    -0.237 OA
ATOM    103  O   UNL     1       7.735 -19.593  -2.949  1.00  0.00    -0.744 OA
ENDBRANCH  97 100
ENDBRANCH  70  93
ENDBRANCH  44  45
ENDBRANCH  36  39
ENDBRANCH  34  35
ENDBRANCH  33  34
ENDBRANCH   1  33
TORSDOF 17
