REMARK SMILES CC(C)(C)OC(=O)[C@]1(C(=O)NCCCCNC(=O)c2ccc(-c3c4nc(c(-c5cccc(S(=O)(=O)[O-])c5F)c5ccc([nH]5)c(-c5cccc(S(=O)(=O)[O-])c5F)c5nc(c(-c6cccc(S(=O)(=O)[O-])c6F)c6ccc3[nH]6)C=C5)C=C4)cc2)CC=CC[C@@H]1[NH3+]
REMARK SMILES IDX 13 1 12 2 11 3 9 4 10 5 8 7 82 8 86 9 83 10 85 11 84 12 6 13
REMARK SMILES IDX 7 14 5 15 2 16 1 17 3 18 4 19 87 20 14 24 15 25 16 26 17 27
REMARK SMILES IDX 18 29 19 30 20 31 81 32 21 33 80 34 22 35 23 36 24 37 74 38
REMARK SMILES IDX 25 39 79 40 73 41 75 42 26 43 78 44 72 45 71 46 27 48 59 49
REMARK SMILES IDX 39 50 58 51 40 52 43 53 57 54 76 55 41 56 42 57 56 59 77 60
REMARK SMILES IDX 44 61 28 62 29 63 37 64 30 65 32 66 38 67 31 68 33 69 34 70
REMARK SMILES IDX 35 71 36 72 60 73 61 74 69 75 62 76 64 77 70 78 63 79 65 80
REMARK SMILES IDX 66 81 67 82 68 83 45 84 46 85 54 86 47 87 49 88 55 89 48 90
REMARK SMILES IDX 50 91 51 92 52 93 53 94
REMARK H PARENT 11 6 87 21 87 22 87 23 16 28 75 47 43 58
REMARK Flexibility Score: inf
ROOT
ATOM      1  C   UNL     1       0.604   0.783  -6.481  1.00  0.00     0.023 C 
ENDROOT
BRANCH   1   2
ATOM      2  C   UNL     1      -0.147   1.903  -5.762  1.00  0.00     0.116 C 
BRANCH   2   3
ATOM      3  N   UNL     1      -0.112   1.736  -4.321  1.00  0.00    -0.355 N 
ATOM      4  C   UNL     1       0.506   2.424  -3.319  1.00  0.00     0.244 C 
ATOM      5  O   UNL     1       0.324   1.931  -2.198  1.00  0.00    -0.274 OA
ATOM      6  H   UNL     1      -0.641   0.970  -4.003  1.00  0.00     0.163 HD
BRANCH   4   7
ATOM      7  C   UNL     1       1.296   3.755  -3.521  1.00  0.00     0.201 C 
ATOM      8  C   UNL     1       0.351   4.734  -4.284  1.00  0.00     0.062 C 
ATOM      9  C   UNL     1       1.646   4.308  -2.088  1.00  0.00     0.212 C 
ATOM     10  C   UNL     1       0.341   6.176  -3.885  1.00  0.00    -0.029 C 
ATOM     11  C   UNL     1       1.903   5.829  -1.990  1.00  0.00     0.093 C 
ATOM     12  C   UNL     1       1.039   6.671  -2.863  1.00  0.00    -0.025 C 
BRANCH   7  13
ATOM     13  C   UNL     1       2.523   3.511  -4.403  1.00  0.00     0.328 C 
ATOM     14  O   UNL     1       2.494   2.829  -5.420  1.00  0.00    -0.251 OA
BRANCH  13  15
ATOM     15  O   UNL     1       3.638   4.207  -4.044  1.00  0.00    -0.459 OA
BRANCH  15  16
ATOM     16  C   UNL     1       4.824   4.111  -4.888  1.00  0.00     0.104 C 
ATOM     17  C   UNL     1       5.927   4.850  -4.119  1.00  0.00     0.056 C 
ATOM     18  C   UNL     1       4.584   4.832  -6.221  1.00  0.00     0.056 C 
ATOM     19  C   UNL     1       5.295   2.661  -5.105  1.00  0.00     0.056 C 
ENDBRANCH  15  16
ENDBRANCH  13  15
ENDBRANCH   7  13
BRANCH   9  20
ATOM     20  N   UNL     1       2.763   3.613  -1.408  1.00  0.00    -0.353 N 
ATOM     21  H   UNL     1       3.636   3.818  -1.893  1.00  0.00     0.344 HD
ATOM     22  H   UNL     1       2.595   2.607  -1.420  1.00  0.00     0.344 HD
ATOM     23  H   UNL     1       2.827   3.935  -0.443  1.00  0.00     0.344 HD
ENDBRANCH   9  20
ENDBRANCH   4   7
ENDBRANCH   2   3
ENDBRANCH   1   2
BRANCH   1  24
ATOM     24  C   UNL     1      -0.124  -0.559  -6.507  1.00  0.00     0.023 C 
BRANCH  24  25
ATOM     25  C   UNL     1      -1.549  -0.512  -7.043  1.00  0.00     0.116 C 
BRANCH  25  26
ATOM     26  N   UNL     1      -1.663   0.149  -8.337  1.00  0.00    -0.352 N 
ATOM     27  C   UNL     1      -2.502  -0.163  -9.378  1.00  0.00     0.251 C 
ATOM     28  H   UNL     1      -1.063   0.916  -8.483  1.00  0.00     0.163 HD
ATOM     29  O   UNL     1      -2.429   0.441 -10.445  1.00  0.00    -0.269 OA
BRANCH  27  30
ATOM     30  C   UNL     1      -3.465  -1.266  -9.204  1.00  0.00     0.039 A 
ATOM     31  C   UNL     1      -3.470  -2.309 -10.132  1.00  0.00     0.014 A 
ATOM     32  C   UNL     1      -4.296  -1.304  -8.082  1.00  0.00     0.014 A 
ATOM     33  C   UNL     1      -4.263  -3.433  -9.894  1.00  0.00     0.010 A 
ATOM     34  C   UNL     1      -5.028  -2.453  -7.811  1.00  0.00     0.010 A 
ATOM     35  C   UNL     1      -5.018  -3.528  -8.714  1.00  0.00    -0.014 A 
BRANCH  35  36
ATOM     36  C   UNL     1      -5.798  -4.748  -8.393  1.00  0.00     0.031 A 
ATOM     37  C   UNL     1      -7.295  -4.671  -8.277  1.00  0.00     0.074 A 
ATOM     38  C   UNL     1      -5.151  -5.896  -8.107  1.00  0.00     0.049 A 
ATOM     39  N   UNL     1      -8.143  -5.604  -7.935  1.00  0.00    -0.248 NA
ATOM     40  C   UNL     1      -7.918  -3.365  -8.552  1.00  0.00     0.031 C 
ATOM     41  C   UNL     1      -3.697  -6.070  -8.098  1.00  0.00     0.029 A 
ATOM     42  N   UNL     1      -5.634  -7.127  -7.741  1.00  0.00    -0.354 N 
ATOM     43  C   UNL     1      -9.391  -4.993  -7.914  1.00  0.00     0.074 A 
ATOM     44  C   UNL     1      -9.186  -3.600  -8.245  1.00  0.00     0.031 C 
ATOM     45  C   UNL     1      -3.406  -7.333  -7.747  1.00  0.00     0.029 A 
ATOM     46  C   UNL     1      -4.649  -8.053  -7.486  1.00  0.00     0.049 A 
ATOM     47  H   UNL     1      -6.594  -7.329  -7.668  1.00  0.00     0.167 HD
ATOM     48  C   UNL     1     -10.602  -5.548  -7.678  1.00  0.00     0.034 A 
ATOM     49  C   UNL     1      -4.739  -9.337  -7.088  1.00  0.00     0.034 A 
ATOM     50  C   UNL     1     -10.806  -6.945  -7.411  1.00  0.00     0.049 A 
ATOM     51  C   UNL     1      -6.103  -9.945  -6.897  1.00  0.00     0.074 A 
ATOM     52  C   UNL     1     -12.000  -7.625  -7.250  1.00  0.00     0.029 A 
ATOM     53  N   UNL     1      -9.791  -7.878  -7.270  1.00  0.00    -0.354 N 
ATOM     54  N   UNL     1      -7.282  -9.390  -7.046  1.00  0.00    -0.248 NA
ATOM     55  C   UNL     1      -6.152 -11.366  -6.521  1.00  0.00     0.031 C 
ATOM     56  C   UNL     1     -11.706  -8.970  -7.006  1.00  0.00     0.029 A 
ATOM     57  C   UNL     1     -10.329  -9.129  -7.026  1.00  0.00     0.049 A 
ATOM     58  H   UNL     1      -8.829  -7.680  -7.335  1.00  0.00     0.167 HD
ATOM     59  C   UNL     1      -8.210 -10.399  -6.819  1.00  0.00     0.074 A 
ATOM     60  C   UNL     1      -7.456 -11.605  -6.543  1.00  0.00     0.031 C 
ATOM     61  C   UNL     1      -9.564 -10.331  -6.819  1.00  0.00     0.034 A 
BRANCH  48  62
ATOM     62  C   UNL     1     -11.810  -4.654  -7.774  1.00  0.00     0.023 A 
ATOM     63  C   UNL     1     -12.241  -4.215  -9.043  1.00  0.00     0.012 A 
ATOM     64  C   UNL     1     -12.547  -4.295  -6.630  1.00  0.00     0.148 A 
ATOM     65  C   UNL     1     -13.370  -3.407  -9.170  1.00  0.00     0.002 A 
ATOM     66  C   UNL     1     -13.696  -3.523  -6.768  1.00  0.00     0.091 A 
ATOM     67  F   UNL     1     -12.108  -4.703  -5.431  1.00  0.00    -0.205 F 
ATOM     68  C   UNL     1     -14.102  -3.071  -8.035  1.00  0.00     0.022 A 
BRANCH  66  69
ATOM     69  S   UNL     1     -14.749  -3.096  -5.378  1.00  0.00     0.127 S 
ATOM     70  O   UNL     1     -14.464  -1.671  -5.218  1.00  0.00    -0.237 OA
ATOM     71  O   UNL     1     -16.084  -3.396  -5.897  1.00  0.00    -0.237 OA
ATOM     72  O   UNL     1     -14.323  -3.947  -4.276  1.00  0.00    -0.744 OA
ENDBRANCH  66  69
ENDBRANCH  48  62
BRANCH  49  73
ATOM     73  C   UNL     1      -3.506 -10.159  -6.929  1.00  0.00     0.023 A 
ATOM     74  C   UNL     1      -3.234 -11.175  -7.866  1.00  0.00     0.012 A 
ATOM     75  C   UNL     1      -2.593  -9.930  -5.882  1.00  0.00     0.148 A 
ATOM     76  C   UNL     1      -2.094 -11.969  -7.746  1.00  0.00     0.002 A 
ATOM     77  C   UNL     1      -1.432 -10.691  -5.797  1.00  0.00     0.091 A 
ATOM     78  F   UNL     1      -2.875  -8.969  -4.990  1.00  0.00    -0.205 F 
ATOM     79  C   UNL     1      -1.188 -11.722  -6.718  1.00  0.00     0.022 A 
BRANCH  77  80
ATOM     80  S   UNL     1      -0.154 -10.352  -4.581  1.00  0.00     0.127 S 
ATOM     81  O   UNL     1      -0.377 -11.417  -3.607  1.00  0.00    -0.237 OA
ATOM     82  O   UNL     1       1.069 -10.489  -5.374  1.00  0.00    -0.237 OA
ATOM     83  O   UNL     1      -0.413  -8.996  -4.117  1.00  0.00    -0.744 OA
ENDBRANCH  77  80
ENDBRANCH  49  73
BRANCH  61  84
ATOM     84  C   UNL     1     -10.327 -11.598  -6.545  1.00  0.00     0.023 A 
ATOM     85  C   UNL     1     -10.386 -12.104  -5.232  1.00  0.00     0.012 A 
ATOM     86  C   UNL     1     -11.054 -12.238  -7.568  1.00  0.00     0.148 A 
ATOM     87  C   UNL     1     -11.137 -13.244  -4.946  1.00  0.00     0.002 A 
ATOM     88  C   UNL     1     -11.835 -13.347  -7.267  1.00  0.00     0.091 A 
ATOM     89  F   UNL     1     -10.967 -11.752  -8.815  1.00  0.00    -0.205 F 
ATOM     90  C   UNL     1     -11.870 -13.857  -5.959  1.00  0.00     0.022 A 
BRANCH  88  91
ATOM     91  S   UNL     1     -12.883 -14.140  -8.491  1.00  0.00     0.127 S 
ATOM     92  O   UNL     1     -12.120 -15.348  -8.801  1.00  0.00    -0.237 OA
ATOM     93  O   UNL     1     -14.118 -14.376  -7.741  1.00  0.00    -0.237 OA
ATOM     94  O   UNL     1     -13.016 -13.184  -9.582  1.00  0.00    -0.744 OA
ENDBRANCH  88  91
ENDBRANCH  61  84
ENDBRANCH  35  36
ENDBRANCH  27  30
ENDBRANCH  25  26
ENDBRANCH  24  25
ENDBRANCH   1  24
TORSDOF 18
