REMARK SMILES CCC(CC)[C@H](C(=O)NCCCCNC(=O)c1ccc(-c2c3nc(c(-c4cccc(S(=O)(=O)[O-])c4F)c4ccc([nH]4)c(-c4cccc(S(=O)(=O)[O-])c4F)c4nc(c(-c5cccc(S(=O)(=O)[O-])c5F)c5ccc2[nH]5)C=C4)C=C3)cc1)c1ccc(OC(F)F)cc1
REMARK SMILES IDX 11 1 10 2 9 3 7 4 8 5 6 7 3 8 2 9 1 10 4 11 5 12 80 13 81 14
REMARK SMILES IDX 89 15 82 16 88 17 83 18 84 19 85 20 86 21 87 22 12 23 13 24
REMARK SMILES IDX 14 25 15 26 16 28 17 29 18 30 79 31 19 32 78 33 20 34 21 35
REMARK SMILES IDX 22 36 72 37 23 38 77 39 71 40 73 41 24 42 76 43 70 44 69 45
REMARK SMILES IDX 25 47 57 48 37 49 56 50 38 51 41 52 55 53 74 54 39 55 40 56
REMARK SMILES IDX 54 58 75 59 42 60 26 61 27 62 35 63 28 64 30 65 36 66 29 67
REMARK SMILES IDX 31 68 32 69 33 70 34 71 58 72 59 73 67 74 60 75 62 76 68 77
REMARK SMILES IDX 61 78 63 79 64 80 65 81 66 82 43 83 44 84 52 85 45 86 47 87
REMARK SMILES IDX 53 88 46 89 48 90 49 91 50 92 51 93
REMARK H PARENT 9 6 14 27 73 46 41 57
REMARK Flexibility Score: inf
ROOT
ATOM      1  C   UNL     1      -2.214  -0.142  -0.951  1.00  0.00     0.023 C 
ENDROOT
BRANCH   1   2
ATOM      2  C   UNL     1      -0.967   0.257  -1.736  1.00  0.00     0.116 C 
BRANCH   2   3
ATOM      3  N   UNL     1       0.172  -0.594  -1.436  1.00  0.00    -0.356 N 
ATOM      4  C   UNL     1       0.999  -1.294  -2.270  1.00  0.00     0.227 C 
ATOM      5  O   UNL     1       1.947  -1.893  -1.761  1.00  0.00    -0.274 OA
ATOM      6  H   UNL     1       0.382  -0.680  -0.478  1.00  0.00     0.163 HD
BRANCH   4   7
ATOM      7  C   UNL     1       0.751  -1.272  -3.790  1.00  0.00     0.111 C 
BRANCH   7   8
ATOM      8  C   UNL     1       1.242   0.105  -4.363  1.00  0.00     0.005 C 
BRANCH   8   9
ATOM      9  C   UNL     1       2.739   0.402  -4.086  1.00  0.00     0.001 C 
ATOM     10  C   UNL     1       3.408   1.409  -5.004  1.00  0.00     0.004 C 
ENDBRANCH   8   9
BRANCH   8  11
ATOM     11  C   UNL     1       0.657   0.466  -5.752  1.00  0.00     0.001 C 
ATOM     12  C   UNL     1       0.945  -0.445  -6.930  1.00  0.00     0.004 C 
ENDBRANCH   8  11
ENDBRANCH   7   8
BRANCH   7  13
ATOM     13  C   UNL     1       1.196  -2.586  -4.446  1.00  0.00    -0.035 A 
ATOM     14  C   UNL     1       0.400  -3.731  -4.258  1.00  0.00     0.008 A 
ATOM     15  C   UNL     1       2.347  -2.734  -5.228  1.00  0.00     0.008 A 
ATOM     16  C   UNL     1       0.722  -4.947  -4.873  1.00  0.00     0.047 A 
ATOM     17  C   UNL     1       2.664  -3.947  -5.853  1.00  0.00     0.047 A 
ATOM     18  C   UNL     1       1.842  -5.056  -5.697  1.00  0.00     0.126 A 
BRANCH  18  19
ATOM     19  O   UNL     1       2.027  -6.279  -6.275  1.00  0.00    -0.435 OA
BRANCH  19  20
ATOM     20  C   UNL     1       2.968  -6.373  -7.337  1.00  0.00     0.542 C 
ATOM     21  F   UNL     1       2.695  -5.454  -8.295  1.00  0.00    -0.167 F 
ATOM     22  F   UNL     1       4.222  -6.150  -6.877  1.00  0.00    -0.167 F 
ENDBRANCH  19  20
ENDBRANCH  18  19
ENDBRANCH   7  13
ENDBRANCH   4   7
ENDBRANCH   2   3
ENDBRANCH   1   2
BRANCH   1  23
ATOM     23  C   UNL     1      -2.080  -0.059   0.571  1.00  0.00     0.023 C 
BRANCH  23  24
ATOM     24  C   UNL     1      -1.692   1.309   1.121  1.00  0.00     0.116 C 
BRANCH  24  25
ATOM     25  N   UNL     1      -2.705   2.326   0.876  1.00  0.00    -0.352 N 
ATOM     26  C   UNL     1      -3.246   3.231   1.762  1.00  0.00     0.251 C 
ATOM     27  H   UNL     1      -3.050   2.372  -0.045  1.00  0.00     0.163 HD
ATOM     28  O   UNL     1      -4.192   3.933   1.430  1.00  0.00    -0.269 OA
BRANCH  26  29
ATOM     29  C   UNL     1      -2.688   3.327   3.130  1.00  0.00     0.039 A 
ATOM     30  C   UNL     1      -3.554   3.274   4.226  1.00  0.00     0.014 A 
ATOM     31  C   UNL     1      -1.309   3.437   3.324  1.00  0.00     0.014 A 
ATOM     32  C   UNL     1      -3.030   3.257   5.523  1.00  0.00     0.010 A 
ATOM     33  C   UNL     1      -0.788   3.356   4.611  1.00  0.00     0.010 A 
ATOM     34  C   UNL     1      -1.642   3.262   5.723  1.00  0.00    -0.014 A 
BRANCH  34  35
ATOM     35  C   UNL     1      -1.034   3.174   7.076  1.00  0.00     0.031 A 
ATOM     36  C   UNL     1      -0.187   4.310   7.582  1.00  0.00     0.074 A 
ATOM     37  C   UNL     1      -1.123   2.030   7.783  1.00  0.00     0.049 A 
ATOM     38  N   UNL     1       0.589   4.359   8.632  1.00  0.00    -0.248 NA
ATOM     39  C   UNL     1      -0.189   5.543   6.777  1.00  0.00     0.031 C 
ATOM     40  C   UNL     1      -1.868   0.837   7.376  1.00  0.00     0.029 A 
ATOM     41  N   UNL     1      -0.544   1.667   8.975  1.00  0.00    -0.354 N 
ATOM     42  C   UNL     1       1.211   5.601   8.584  1.00  0.00     0.074 A 
ATOM     43  C   UNL     1       0.733   6.269   7.393  1.00  0.00     0.031 C 
ATOM     44  C   UNL     1      -1.688  -0.129   8.292  1.00  0.00     0.029 A 
ATOM     45  C   UNL     1      -0.787   0.360   9.331  1.00  0.00     0.049 A 
ATOM     46  H   UNL     1      -0.006   2.284   9.522  1.00  0.00     0.167 HD
ATOM     47  C   UNL     1       2.084   6.145   9.463  1.00  0.00     0.034 A 
ATOM     48  C   UNL     1      -0.320  -0.368  10.366  1.00  0.00     0.034 A 
ATOM     49  C   UNL     1       2.505   5.504  10.678  1.00  0.00     0.049 A 
ATOM     50  C   UNL     1       0.610   0.280  11.357  1.00  0.00     0.074 A 
ATOM     51  C   UNL     1       3.321   6.005  11.676  1.00  0.00     0.029 A 
ATOM     52  N   UNL     1       2.137   4.225  11.065  1.00  0.00    -0.354 N 
ATOM     53  N   UNL     1       1.084   1.502  11.365  1.00  0.00    -0.248 NA
ATOM     54  C   UNL     1       1.045  -0.538  12.500  1.00  0.00     0.031 C 
ATOM     55  C   UNL     1       3.451   5.026  12.666  1.00  0.00     0.029 A 
ATOM     56  C   UNL     1       2.704   3.921  12.289  1.00  0.00     0.049 A 
ATOM     57  H   UNL     1       1.558   3.622  10.545  1.00  0.00     0.167 HD
ATOM     58  C   UNL     1       1.831   1.614  12.532  1.00  0.00     0.074 A 
ATOM     59  C   UNL     1       1.744   0.338  13.210  1.00  0.00     0.031 C 
ATOM     60  C   UNL     1       2.537   2.676  12.992  1.00  0.00     0.034 A 
BRANCH  47  61
ATOM     61  C   UNL     1       2.600   7.529   9.175  1.00  0.00     0.023 A 
ATOM     62  C   UNL     1       1.741   8.635   9.336  1.00  0.00     0.012 A 
ATOM     63  C   UNL     1       3.942   7.743   8.804  1.00  0.00     0.148 A 
ATOM     64  C   UNL     1       2.200   9.930   9.102  1.00  0.00     0.002 A 
ATOM     65  C   UNL     1       4.403   9.041   8.613  1.00  0.00     0.091 A 
ATOM     66  F   UNL     1       4.737   6.678   8.632  1.00  0.00    -0.205 F 
ATOM     67  C   UNL     1       3.532  10.134   8.751  1.00  0.00     0.022 A 
BRANCH  65  68
ATOM     68  S   UNL     1       6.121   9.408   8.236  1.00  0.00     0.127 S 
ATOM     69  O   UNL     1       6.044   9.754   6.817  1.00  0.00    -0.237 OA
ATOM     70  O   UNL     1       6.399  10.537   9.124  1.00  0.00    -0.237 OA
ATOM     71  O   UNL     1       6.865   8.196   8.548  1.00  0.00    -0.744 OA
ENDBRANCH  65  68
ENDBRANCH  47  61
BRANCH  48  72
ATOM     72  C   UNL     1      -0.780  -1.773  10.555  1.00  0.00     0.023 A 
ATOM     73  C   UNL     1      -1.656  -2.069  11.618  1.00  0.00     0.012 A 
ATOM     74  C   UNL     1      -0.388  -2.806   9.682  1.00  0.00     0.148 A 
ATOM     75  C   UNL     1      -2.110  -3.372  11.827  1.00  0.00     0.002 A 
ATOM     76  C   UNL     1      -0.885  -4.093   9.864  1.00  0.00     0.091 A 
ATOM     77  F   UNL     1       0.457  -2.510   8.684  1.00  0.00    -0.205 F 
ATOM     78  C   UNL     1      -1.733  -4.381  10.945  1.00  0.00     0.022 A 
BRANCH  76  79
ATOM     79  S   UNL     1      -0.557  -5.423   8.703  1.00  0.00     0.127 S 
ATOM     80  O   UNL     1       0.396  -6.242   9.447  1.00  0.00    -0.237 OA
ATOM     81  O   UNL     1      -1.884  -6.019   8.538  1.00  0.00    -0.237 OA
ATOM     82  O   UNL     1      -0.042  -4.775   7.504  1.00  0.00    -0.744 OA
ENDBRANCH  76  79
ENDBRANCH  48  72
BRANCH  60  83
ATOM     83  C   UNL     1       3.226   2.548  14.324  1.00  0.00     0.023 A 
ATOM     84  C   UNL     1       4.427   1.821  14.424  1.00  0.00     0.012 A 
ATOM     85  C   UNL     1       2.746   3.257  15.443  1.00  0.00     0.148 A 
ATOM     86  C   UNL     1       5.137   1.793  15.624  1.00  0.00     0.002 A 
ATOM     87  C   UNL     1       3.481   3.260  16.622  1.00  0.00     0.091 A 
ATOM     88  F   UNL     1       1.591   3.928  15.327  1.00  0.00    -0.205 F 
ATOM     89  C   UNL     1       4.673   2.523  16.716  1.00  0.00     0.022 A 
BRANCH  87  90
ATOM     90  S   UNL     1       3.013   4.248  18.048  1.00  0.00     0.127 S 
ATOM     91  O   UNL     1       2.598   3.219  19.000  1.00  0.00    -0.237 OA
ATOM     92  O   UNL     1       4.269   4.920  18.385  1.00  0.00    -0.237 OA
ATOM     93  O   UNL     1       1.954   5.138  17.592  1.00  0.00    -0.744 OA
ENDBRANCH  87  90
ENDBRANCH  60  83
ENDBRANCH  34  35
ENDBRANCH  26  29
ENDBRANCH  24  25
ENDBRANCH  23  24
ENDBRANCH   1  23
TORSDOF 20
