REMARK SMILES Cc1ccccc1[C@@H]1[NH2+][C@@H](C(=O)NCCCCNC(=O)c2ccc(-c3c4nc(c(-c5cccc(S(=O)(=O)[O-])c5F)c5ccc([nH]5)c(-c5cccc(S(=O)(=O)[O-])c5F)c5nc(c(-c6cccc(S(=O)(=O)[O-])c6F)c6ccc3[nH]6)C=C5)C=C4)cc2)CC2=c3ccccc3=N[C@H]21
REMARK SMILES IDX 16 1 15 2 14 3 13 4 11 5 12 6 10 8 8 9 9 10 93 11 85 14
REMARK SMILES IDX 92 15 84 16 86 17 91 18 87 19 90 20 88 21 89 22 7 23 1 24
REMARK SMILES IDX 2 25 3 26 4 27 6 28 5 29 17 30 18 31 19 32 20 34 21 35 22 36
REMARK SMILES IDX 83 37 23 38 82 39 24 40 25 41 26 42 76 43 27 44 81 45 75 46
REMARK SMILES IDX 77 47 28 48 80 49 74 50 73 51 29 53 61 54 41 55 60 56 42 57
REMARK SMILES IDX 45 58 59 59 78 60 43 61 44 62 58 64 79 65 46 66 30 67 31 68
REMARK SMILES IDX 39 69 32 70 34 71 40 72 33 73 35 74 36 75 37 76 38 77 62 78
REMARK SMILES IDX 63 79 71 80 64 81 66 82 72 83 65 84 67 85 68 86 69 87 70 88
REMARK SMILES IDX 47 89 48 90 56 91 49 92 51 93 57 94 50 95 52 96 53 97 54 98
REMARK SMILES IDX 55 99
REMARK H PARENT 13 7 9 12 9 13 18 33 77 52 45 63
REMARK Flexibility Score: inf
ROOT
ATOM      1  C   UNL     1      -3.175   8.225  -0.938  1.00  0.00     0.023 C 
ENDROOT
BRANCH   1   2
ATOM      2  C   UNL     1      -2.946   7.106   0.068  1.00  0.00     0.023 C 
BRANCH   2   3
ATOM      3  C   UNL     1      -3.813   5.849  -0.120  1.00  0.00     0.116 C 
BRANCH   3   4
ATOM      4  N   UNL     1      -3.386   4.890  -1.136  1.00  0.00    -0.351 N 
ATOM      5  C   UNL     1      -2.414   3.923  -1.123  1.00  0.00     0.278 C 
ATOM      6  O   UNL     1      -2.643   2.901  -1.786  1.00  0.00    -0.268 OA
ATOM      7  H   UNL     1      -3.886   4.949  -1.982  1.00  0.00     0.163 HD
BRANCH   5   8
ATOM      8  C   UNL     1      -1.010   4.140  -0.479  1.00  0.00     0.277 C 
ATOM      9  C   UNL     1       0.669   2.356   0.363  1.00  0.00     0.243 C 
ATOM     10  N   UNL     1      -0.137   2.945  -0.743  1.00  0.00    -0.327 N 
ATOM     11  C   UNL     1       0.631   3.011   1.781  1.00  0.00     0.196 C 
ATOM     12  H   UNL     1      -0.748   2.205  -1.090  1.00  0.00     0.347 HD
ATOM     13  H   UNL     1       0.570   3.306  -1.383  1.00  0.00     0.347 HD
ATOM     14  C   UNL     1      -0.694   3.652   1.940  1.00  0.00    -0.024 C 
ATOM     15  N   UNL     1       0.693   2.012   2.896  1.00  0.00    -0.270 NA
ATOM     16  C   UNL     1      -1.017   4.681   0.947  1.00  0.00     0.109 C 
ATOM     17  C   UNL     1      -1.414   3.108   2.906  1.00  0.00     0.002 A 
ATOM     18  C   UNL     1      -0.461   2.149   3.480  1.00  0.00     0.066 A 
ATOM     19  C   UNL     1      -2.755   3.234   3.364  1.00  0.00     0.010 A 
ATOM     20  C   UNL     1      -0.925   1.438   4.690  1.00  0.00     0.028 A 
ATOM     21  C   UNL     1      -3.133   2.494   4.417  1.00  0.00     0.001 A 
ATOM     22  C   UNL     1      -2.189   1.629   5.109  1.00  0.00     0.002 A 
BRANCH   9  23
ATOM     23  C   UNL     1       2.131   2.147  -0.061  1.00  0.00     0.015 A 
ATOM     24  C   UNL     1       2.677   4.654  -0.329  1.00  0.00     0.045 C 
ATOM     25  C   UNL     1       3.051   3.197  -0.296  1.00  0.00    -0.042 A 
ATOM     26  C   UNL     1       4.418   2.894  -0.446  1.00  0.00     0.004 A 
ATOM     27  C   UNL     1       4.872   1.577  -0.439  1.00  0.00     0.000 A 
ATOM     28  C   UNL     1       2.608   0.820  -0.116  1.00  0.00     0.010 A 
ATOM     29  C   UNL     1       3.962   0.538  -0.303  1.00  0.00     0.001 A 
ENDBRANCH   9  23
ENDBRANCH   5   8
ENDBRANCH   3   4
ENDBRANCH   2   3
ENDBRANCH   1   2
BRANCH   1  30
ATOM     30  C   UNL     1      -4.560   8.848  -0.862  1.00  0.00     0.116 C 
BRANCH  30  31
ATOM     31  N   UNL     1      -4.605  10.204  -0.326  1.00  0.00    -0.352 N 
ATOM     32  C   UNL     1      -5.698  11.061  -0.274  1.00  0.00     0.251 C 
ATOM     33  H   UNL     1      -3.761  10.553   0.042  1.00  0.00     0.163 HD
ATOM     34  O   UNL     1      -5.554  12.217   0.120  1.00  0.00    -0.269 OA
BRANCH  32  35
ATOM     35  C   UNL     1      -7.041  10.512  -0.588  1.00  0.00     0.039 A 
ATOM     36  C   UNL     1      -8.016  10.565   0.410  1.00  0.00     0.014 A 
ATOM     37  C   UNL     1      -7.201   9.667  -1.682  1.00  0.00     0.014 A 
ATOM     38  C   UNL     1      -8.978   9.561   0.470  1.00  0.00     0.010 A 
ATOM     39  C   UNL     1      -8.067   8.602  -1.562  1.00  0.00     0.010 A 
ATOM     40  C   UNL     1      -8.903   8.514  -0.446  1.00  0.00    -0.014 A 
BRANCH  40  41
ATOM     41  C   UNL     1      -9.700   7.303  -0.359  1.00  0.00     0.031 A 
ATOM     42  C   UNL     1     -11.037   7.303  -0.969  1.00  0.00     0.074 A 
ATOM     43  C   UNL     1      -9.187   6.182   0.191  1.00  0.00     0.049 A 
ATOM     44  N   UNL     1     -11.992   6.508  -0.634  1.00  0.00    -0.248 NA
ATOM     45  C   UNL     1     -11.405   8.267  -1.995  1.00  0.00     0.031 C 
ATOM     46  C   UNL     1      -9.714   4.826   0.101  1.00  0.00     0.029 A 
ATOM     47  N   UNL     1      -8.175   6.094   1.151  1.00  0.00    -0.354 N 
ATOM     48  C   UNL     1     -12.996   6.662  -1.567  1.00  0.00     0.074 A 
ATOM     49  C   UNL     1     -12.618   7.826  -2.332  1.00  0.00     0.031 C 
ATOM     50  C   UNL     1      -9.241   4.109   1.133  1.00  0.00     0.029 A 
ATOM     51  C   UNL     1      -8.532   5.031   2.005  1.00  0.00     0.049 A 
ATOM     52  H   UNL     1      -7.374   6.661   1.218  1.00  0.00     0.167 HD
ATOM     53  C   UNL     1     -13.942   5.686  -1.681  1.00  0.00     0.034 A 
ATOM     54  C   UNL     1      -8.727   5.169   3.350  1.00  0.00     0.034 A 
ATOM     55  C   UNL     1     -13.771   4.675  -0.623  1.00  0.00     0.049 A 
ATOM     56  C   UNL     1     -10.126   4.761   3.783  1.00  0.00     0.074 A 
ATOM     57  C   UNL     1     -13.132   3.446  -0.597  1.00  0.00     0.029 A 
ATOM     58  N   UNL     1     -14.014   5.017   0.705  1.00  0.00    -0.354 N 
ATOM     59  N   UNL     1     -11.092   4.459   2.959  1.00  0.00    -0.248 NA
ATOM     60  C   UNL     1     -10.558   4.716   5.178  1.00  0.00     0.031 C 
ATOM     61  C   UNL     1     -12.903   3.099   0.762  1.00  0.00     0.029 A 
ATOM     62  C   UNL     1     -13.432   4.095   1.565  1.00  0.00     0.049 A 
ATOM     63  H   UNL     1     -14.528   5.805   0.994  1.00  0.00     0.167 HD
ATOM     64  C   UNL     1     -12.272   4.351   3.649  1.00  0.00     0.074 A 
ATOM     65  C   UNL     1     -11.864   4.425   5.043  1.00  0.00     0.031 C 
ATOM     66  C   UNL     1     -13.486   4.287   3.015  1.00  0.00     0.034 A 
BRANCH  53  67
ATOM     67  C   UNL     1     -14.783   5.453  -2.930  1.00  0.00     0.023 A 
ATOM     68  C   UNL     1     -15.268   4.142  -3.145  1.00  0.00     0.012 A 
ATOM     69  C   UNL     1     -15.068   6.384  -3.957  1.00  0.00     0.148 A 
ATOM     70  C   UNL     1     -15.887   3.750  -4.338  1.00  0.00     0.002 A 
ATOM     71  C   UNL     1     -15.621   5.981  -5.178  1.00  0.00     0.091 A 
ATOM     72  F   UNL     1     -14.897   7.689  -3.737  1.00  0.00    -0.205 F 
ATOM     73  C   UNL     1     -16.028   4.660  -5.373  1.00  0.00     0.022 A 
BRANCH  71  74
ATOM     74  S   UNL     1     -15.771   7.092  -6.591  1.00  0.00     0.127 S 
ATOM     75  O   UNL     1     -15.101   6.335  -7.650  1.00  0.00    -0.237 OA
ATOM     76  O   UNL     1     -17.219   7.205  -6.749  1.00  0.00    -0.237 OA
ATOM     77  O   UNL     1     -15.084   8.322  -6.215  1.00  0.00    -0.744 OA
ENDBRANCH  71  74
ENDBRANCH  53  67
BRANCH  54  78
ATOM     78  C   UNL     1      -7.941   6.298   3.941  1.00  0.00     0.023 A 
ATOM     79  C   UNL     1      -6.537   6.264   3.746  1.00  0.00     0.012 A 
ATOM     80  C   UNL     1      -8.553   7.526   4.233  1.00  0.00     0.148 A 
ATOM     81  C   UNL     1      -5.812   7.447   3.602  1.00  0.00     0.002 A 
ATOM     82  C   UNL     1      -7.814   8.700   4.118  1.00  0.00     0.091 A 
ATOM     83  F   UNL     1      -9.858   7.548   4.532  1.00  0.00    -0.205 F 
ATOM     84  C   UNL     1      -6.464   8.668   3.736  1.00  0.00     0.022 A 
BRANCH  82  85
ATOM     85  S   UNL     1      -8.617  10.290   4.350  1.00  0.00     0.127 S 
ATOM     86  O   UNL     1      -8.611  10.412   5.803  1.00  0.00    -0.237 OA
ATOM     87  O   UNL     1      -7.719  11.210   3.654  1.00  0.00    -0.237 OA
ATOM     88  O   UNL     1      -9.915  10.124   3.711  1.00  0.00    -0.744 OA
ENDBRANCH  82  85
ENDBRANCH  54  78
BRANCH  66  89
ATOM     89  C   UNL     1     -14.837   4.393   3.706  1.00  0.00     0.023 A 
ATOM     90  C   UNL     1     -14.993   4.994   4.971  1.00  0.00     0.012 A 
ATOM     91  C   UNL     1     -16.031   3.998   3.046  1.00  0.00     0.148 A 
ATOM     92  C   UNL     1     -16.241   5.106   5.596  1.00  0.00     0.002 A 
ATOM     93  C   UNL     1     -17.282   4.222   3.621  1.00  0.00     0.091 A 
ATOM     94  F   UNL     1     -15.964   3.376   1.861  1.00  0.00    -0.205 F 
ATOM     95  C   UNL     1     -17.389   4.736   4.913  1.00  0.00     0.022 A 
BRANCH  93  96
ATOM     96  S   UNL     1     -18.795   4.008   2.672  1.00  0.00     0.127 S 
ATOM     97  O   UNL     1     -19.195   2.652   3.038  1.00  0.00    -0.237 OA
ATOM     98  O   UNL     1     -19.657   5.063   3.211  1.00  0.00    -0.237 OA
ATOM     99  O   UNL     1     -18.404   4.212   1.284  1.00  0.00    -0.744 OA
ENDBRANCH  93  96
ENDBRANCH  66  89
ENDBRANCH  40  41
ENDBRANCH  32  35
ENDBRANCH  30  31
ENDBRANCH   1  30
TORSDOF 15
