REMARK SMILES Cc1c(C[NH2+]CC(=O)NCCCCNC(=O)c2ccc(-c3c4nc(c(-c5cccc(S(=O)(=O)[O-])c5F)c5ccc([nH]5)c(-c5cccc(S(=O)(=O)[O-])c5F)c5nc(c(-c6cccc(S(=O)(=O)[O-])c6F)c6ccc3[nH]6)C=C5)C=C4)cc2)cnn1C
REMARK SMILES IDX 11 1 10 2 9 3 7 4 8 5 6 7 5 8 4 11 3 12 1 13 2 14 82 15
REMARK SMILES IDX 80 16 81 17 83 18 12 19 13 20 14 21 15 22 16 24 17 25 18 26
REMARK SMILES IDX 79 27 19 28 78 29 20 30 21 31 22 32 72 33 23 34 77 35 71 36
REMARK SMILES IDX 73 37 24 38 76 39 70 40 69 41 25 43 57 44 37 45 56 46 38 47
REMARK SMILES IDX 41 48 55 49 74 50 39 51 40 52 54 54 75 55 42 56 26 57 27 58
REMARK SMILES IDX 35 59 28 60 30 61 36 62 29 63 31 64 32 65 33 66 34 67 58 68
REMARK SMILES IDX 59 69 67 70 60 71 62 72 68 73 61 74 63 75 64 76 65 77 66 78
REMARK SMILES IDX 43 79 44 80 52 81 45 82 47 83 53 84 46 85 48 86 49 87 50 88
REMARK SMILES IDX 51 89
REMARK H PARENT 9 6 5 9 5 10 14 23 73 42 41 53
REMARK Flexibility Score: inf
ROOT
ATOM      1  C   UNL     1      -2.969  -3.151   1.256  1.00  0.00     0.023 C 
ENDROOT
BRANCH   1   2
ATOM      2  C   UNL     1      -2.381  -4.552   1.033  1.00  0.00     0.116 C 
BRANCH   2   3
ATOM      3  N   UNL     1      -2.498  -4.981  -0.354  1.00  0.00    -0.351 N 
ATOM      4  C   UNL     1      -1.556  -5.069  -1.346  1.00  0.00     0.275 C 
ATOM      5  O   UNL     1      -1.933  -5.374  -2.480  1.00  0.00    -0.269 OA
ATOM      6  H   UNL     1      -3.404  -5.254  -0.624  1.00  0.00     0.163 HD
BRANCH   4   7
ATOM      7  C   UNL     1      -0.070  -4.758  -1.071  1.00  0.00     0.362 C 
BRANCH   7   8
ATOM      8  N   UNL     1       0.321  -3.361  -1.421  1.00  0.00    -0.335 N 
ATOM      9  H   UNL     1       1.309  -3.219  -1.214  1.00  0.00     0.347 HD
ATOM     10  H   UNL     1       0.163  -3.195  -2.415  1.00  0.00     0.347 HD
BRANCH   8  11
ATOM     11  C   UNL     1      -0.482  -2.441  -0.632  1.00  0.00     0.301 C 
BRANCH  11  12
ATOM     12  C   UNL     1      -0.138  -1.006  -0.734  1.00  0.00     0.047 A 
ATOM     13  C   UNL     1       2.393  -0.855  -0.152  1.00  0.00     0.067 C 
ATOM     14  C   UNL     1       1.042  -0.331  -0.469  1.00  0.00     0.044 A 
ATOM     15  N   UNL     1       0.711   1.003  -0.473  1.00  0.00    -0.272 N 
ATOM     16  C   UNL     1      -1.092   0.023  -0.926  1.00  0.00     0.145 A 
ATOM     17  N   UNL     1      -0.573   1.239  -0.787  1.00  0.00    -0.181 NA
ATOM     18  C   UNL     1       1.540   2.123  -0.098  1.00  0.00     0.174 C 
ENDBRANCH  11  12
ENDBRANCH   8  11
ENDBRANCH   7   8
ENDBRANCH   4   7
ENDBRANCH   2   3
ENDBRANCH   1   2
BRANCH   1  19
ATOM     19  C   UNL     1      -4.465  -3.099   1.516  1.00  0.00     0.023 C 
BRANCH  19  20
ATOM     20  C   UNL     1      -4.877  -3.642   2.869  1.00  0.00     0.116 C 
BRANCH  20  21
ATOM     21  N   UNL     1      -4.271  -2.932   3.991  1.00  0.00    -0.352 N 
ATOM     22  C   UNL     1      -4.866  -2.507   5.159  1.00  0.00     0.251 C 
ATOM     23  H   UNL     1      -3.312  -2.729   3.901  1.00  0.00     0.163 HD
ATOM     24  O   UNL     1      -4.240  -1.843   5.973  1.00  0.00    -0.269 OA
BRANCH  22  25
ATOM     25  C   UNL     1      -6.288  -2.838   5.385  1.00  0.00     0.039 A 
ATOM     26  C   UNL     1      -7.174  -1.823   5.749  1.00  0.00     0.014 A 
ATOM     27  C   UNL     1      -6.750  -4.130   5.132  1.00  0.00     0.014 A 
ATOM     28  C   UNL     1      -8.544  -2.090   5.777  1.00  0.00     0.010 A 
ATOM     29  C   UNL     1      -8.114  -4.360   5.046  1.00  0.00     0.010 A 
ATOM     30  C   UNL     1      -9.026  -3.349   5.382  1.00  0.00    -0.014 A 
BRANCH  30  31
ATOM     31  C   UNL     1     -10.476  -3.651   5.322  1.00  0.00     0.031 A 
ATOM     32  C   UNL     1     -11.038  -4.766   6.161  1.00  0.00     0.074 A 
ATOM     33  C   UNL     1     -11.261  -3.006   4.435  1.00  0.00     0.049 A 
ATOM     34  N   UNL     1     -12.253  -5.246   6.190  1.00  0.00    -0.248 NA
ATOM     35  C   UNL     1     -10.097  -5.469   7.052  1.00  0.00     0.031 C 
ATOM     36  C   UNL     1     -10.814  -1.974   3.497  1.00  0.00     0.029 A 
ATOM     37  N   UNL     1     -12.599  -3.143   4.163  1.00  0.00    -0.354 N 
ATOM     38  C   UNL     1     -12.207  -6.337   7.049  1.00  0.00     0.074 A 
ATOM     39  C   UNL     1     -10.837  -6.477   7.487  1.00  0.00     0.031 C 
ATOM     40  C   UNL     1     -11.864  -1.552   2.772  1.00  0.00     0.029 A 
ATOM     41  C   UNL     1     -13.050  -2.301   3.173  1.00  0.00     0.049 A 
ATOM     42  H   UNL     1     -13.181  -3.783   4.632  1.00  0.00     0.167 HD
ATOM     43  C   UNL     1     -13.221  -7.127   7.472  1.00  0.00     0.034 A 
ATOM     44  C   UNL     1     -14.285  -2.147   2.656  1.00  0.00     0.034 A 
ATOM     45  C   UNL     1     -14.594  -6.925   7.105  1.00  0.00     0.049 A 
ATOM     46  C   UNL     1     -15.412  -2.981   3.203  1.00  0.00     0.074 A 
ATOM     47  C   UNL     1     -15.717  -7.576   7.579  1.00  0.00     0.029 A 
ATOM     48  N   UNL     1     -15.031  -5.995   6.174  1.00  0.00    -0.354 N 
ATOM     49  N   UNL     1     -15.383  -3.887   4.150  1.00  0.00    -0.248 NA
ATOM     50  C   UNL     1     -16.747  -2.747   2.635  1.00  0.00     0.031 C 
ATOM     51  C   UNL     1     -16.835  -7.046   6.924  1.00  0.00     0.029 A 
ATOM     52  C   UNL     1     -16.407  -6.058   6.051  1.00  0.00     0.049 A 
ATOM     53  H   UNL     1     -14.447  -5.380   5.673  1.00  0.00     0.167 HD
ATOM     54  C   UNL     1     -16.698  -4.305   4.319  1.00  0.00     0.074 A 
ATOM     55  C   UNL     1     -17.501  -3.540   3.386  1.00  0.00     0.031 C 
ATOM     56  C   UNL     1     -17.195  -5.247   5.159  1.00  0.00     0.034 A 
BRANCH  43  57
ATOM     57  C   UNL     1     -12.882  -8.235   8.433  1.00  0.00     0.023 A 
ATOM     58  C   UNL     1     -12.510  -7.920   9.757  1.00  0.00     0.012 A 
ATOM     59  C   UNL     1     -12.948  -9.585   8.038  1.00  0.00     0.148 A 
ATOM     60  C   UNL     1     -12.162  -8.925  10.657  1.00  0.00     0.002 A 
ATOM     61  C   UNL     1     -12.644 -10.585   8.956  1.00  0.00     0.091 A 
ATOM     62  F   UNL     1     -13.274  -9.868   6.769  1.00  0.00    -0.205 F 
ATOM     63  C   UNL     1     -12.239 -10.257  10.260  1.00  0.00     0.022 A 
BRANCH  61  64
ATOM     64  S   UNL     1     -12.791 -12.329   8.554  1.00  0.00     0.127 S 
ATOM     65  O   UNL     1     -11.396 -12.697   8.317  1.00  0.00    -0.237 OA
ATOM     66  O   UNL     1     -13.367 -12.885   9.780  1.00  0.00    -0.237 OA
ATOM     67  O   UNL     1     -13.669 -12.394   7.394  1.00  0.00    -0.744 OA
ENDBRANCH  61  64
ENDBRANCH  43  57
BRANCH  44  68
ATOM     68  C   UNL     1     -14.539  -1.082   1.645  1.00  0.00     0.023 A 
ATOM     69  C   UNL     1     -15.254   0.068   2.035  1.00  0.00     0.012 A 
ATOM     70  C   UNL     1     -14.046  -1.171   0.329  1.00  0.00     0.148 A 
ATOM     71  C   UNL     1     -15.497   1.099   1.127  1.00  0.00     0.002 A 
ATOM     72  C   UNL     1     -14.251  -0.118  -0.557  1.00  0.00     0.091 A 
ATOM     73  F   UNL     1     -13.375  -2.276  -0.025  1.00  0.00    -0.205 F 
ATOM     74  C   UNL     1     -14.987   1.011  -0.165  1.00  0.00     0.022 A 
BRANCH  72  75
ATOM     75  S   UNL     1     -13.531  -0.086  -2.204  1.00  0.00     0.127 S 
ATOM     76  O   UNL     1     -14.713  -0.232  -3.049  1.00  0.00    -0.237 OA
ATOM     77  O   UNL     1     -12.910   1.239  -2.235  1.00  0.00    -0.237 OA
ATOM     78  O   UNL     1     -12.587  -1.194  -2.241  1.00  0.00    -0.744 OA
ENDBRANCH  72  75
ENDBRANCH  44  68
BRANCH  56  79
ATOM     79  C   UNL     1     -18.680  -5.489   5.136  1.00  0.00     0.023 A 
ATOM     80  C   UNL     1     -19.253  -6.194   4.059  1.00  0.00     0.012 A 
ATOM     81  C   UNL     1     -19.489  -5.099   6.220  1.00  0.00     0.148 A 
ATOM     82  C   UNL     1     -20.616  -6.485   4.051  1.00  0.00     0.002 A 
ATOM     83  C   UNL     1     -20.838  -5.433   6.226  1.00  0.00     0.091 A 
ATOM     84  F   UNL     1     -18.927  -4.412   7.225  1.00  0.00    -0.205 F 
ATOM     85  C   UNL     1     -21.405  -6.117   5.138  1.00  0.00     0.022 A 
BRANCH  83  86
ATOM     86  S   UNL     1     -21.904  -5.086   7.630  1.00  0.00     0.127 S 
ATOM     87  O   UNL     1     -22.672  -3.941   7.146  1.00  0.00    -0.237 OA
ATOM     88  O   UNL     1     -22.670  -6.326   7.757  1.00  0.00    -0.237 OA
ATOM     89  O   UNL     1     -21.011  -4.816   8.749  1.00  0.00    -0.744 OA
ENDBRANCH  83  86
ENDBRANCH  56  79
ENDBRANCH  30  31
ENDBRANCH  22  25
ENDBRANCH  20  21
ENDBRANCH  19  20
ENDBRANCH   1  19
TORSDOF 17
