REMARK SMILES O=C(NCCCCNC(=O)c1c(F)cccc1Oc1cccc(Cl)c1)c1ccc(-c2c3nc(c(-c4cccc(S(=O)(=O)[O-])c4F)c4ccc([nH]4)c(-c4cccc(S(=O)(=O)[O-])c4F)c4nc(c(-c5cccc(S(=O)(=O)[O-])c5F)c5ccc2[nH]5)C=C4)C=C3)cc1
REMARK SMILES IDX 5 1 4 2 3 3 1 4 2 5 26 7 27 8 88 9 28 10 87 11 29 12 30 13
REMARK SMILES IDX 31 14 81 15 32 16 86 17 80 18 82 19 33 20 85 21 79 22 78 23
REMARK SMILES IDX 34 25 66 26 46 27 65 28 47 29 50 30 64 31 83 32 48 33 49 34
REMARK SMILES IDX 63 36 84 37 51 38 35 39 36 40 44 41 37 42 39 43 45 44 38 45
REMARK SMILES IDX 40 46 41 47 42 48 43 49 67 50 68 51 76 52 69 53 71 54 77 55
REMARK SMILES IDX 70 56 72 57 73 58 74 59 75 60 52 61 53 62 61 63 54 64 56 65
REMARK SMILES IDX 62 66 55 67 57 68 58 69 59 70 60 71 6 72 7 73 8 74 9 75
REMARK SMILES IDX 10 77 11 78 12 79 17 80 13 81 14 82 16 83 15 84 18 85 19 86
REMARK SMILES IDX 20 87 25 88 21 89 23 90 22 91 24 92
REMARK H PARENT 3 6 82 24 50 35 8 76
REMARK Flexibility Score: inf
ROOT
ATOM      1  C   UNL     1       4.998  -2.535  -0.244  1.00  0.00     0.023 C 
ENDROOT
BRANCH   1   2
ATOM      2  C   UNL     1       4.641  -1.093  -0.583  1.00  0.00     0.116 C 
BRANCH   2   3
ATOM      3  N   UNL     1       3.208  -0.845  -0.649  1.00  0.00    -0.352 N 
ATOM      4  O   UNL     1       1.226   0.088  -0.124  1.00  0.00    -0.269 OA
ATOM      5  C   UNL     1       2.448   0.102   0.002  1.00  0.00     0.251 C 
ATOM      6  H   UNL     1       2.707  -1.443  -1.249  1.00  0.00     0.163 HD
BRANCH   5   7
ATOM      7  C   UNL     1       3.097   1.095   0.888  1.00  0.00     0.039 A 
ATOM      8  C   UNL     1       4.266   1.749   0.499  1.00  0.00     0.014 A 
ATOM      9  C   UNL     1       2.543   1.348   2.147  1.00  0.00     0.014 A 
ATOM     10  C   UNL     1       4.986   2.487   1.434  1.00  0.00     0.010 A 
ATOM     11  C   UNL     1       3.220   2.172   3.053  1.00  0.00     0.010 A 
ATOM     12  C   UNL     1       4.479   2.699   2.727  1.00  0.00    -0.014 A 
BRANCH  12  13
ATOM     13  C   UNL     1       5.284   3.481   3.705  1.00  0.00     0.031 A 
ATOM     14  C   UNL     1       5.794   2.855   4.977  1.00  0.00     0.074 A 
ATOM     15  C   UNL     1       5.598   4.760   3.417  1.00  0.00     0.049 A 
ATOM     16  N   UNL     1       6.572   3.377   5.892  1.00  0.00    -0.248 NA
ATOM     17  C   UNL     1       5.379   1.473   5.271  1.00  0.00     0.031 C 
ATOM     18  C   UNL     1       5.131   5.492   2.237  1.00  0.00     0.029 A 
ATOM     19  N   UNL     1       6.391   5.665   4.076  1.00  0.00    -0.354 N 
ATOM     20  C   UNL     1       6.709   2.409   6.880  1.00  0.00     0.074 A 
ATOM     21  C   UNL     1       5.923   1.268   6.463  1.00  0.00     0.031 C 
ATOM     22  C   UNL     1       5.682   6.714   2.231  1.00  0.00     0.029 A 
ATOM     23  C   UNL     1       6.502   6.874   3.428  1.00  0.00     0.049 A 
ATOM     24  H   UNL     1       6.838   5.469   4.931  1.00  0.00     0.167 HD
ATOM     25  C   UNL     1       7.442   2.455   8.018  1.00  0.00     0.034 A 
ATOM     26  C   UNL     1       7.183   7.990   3.756  1.00  0.00     0.034 A 
ATOM     27  C   UNL     1       8.273   3.565   8.401  1.00  0.00     0.049 A 
ATOM     28  C   UNL     1       8.010   8.001   5.009  1.00  0.00     0.074 A 
ATOM     29  C   UNL     1       9.114   3.666   9.496  1.00  0.00     0.029 A 
ATOM     30  N   UNL     1       8.371   4.761   7.709  1.00  0.00    -0.354 N 
ATOM     31  N   UNL     1       8.227   7.028   5.859  1.00  0.00    -0.248 NA
ATOM     32  C   UNL     1       8.702   9.255   5.341  1.00  0.00     0.031 C 
ATOM     33  C   UNL     1       9.710   4.929   9.474  1.00  0.00     0.029 A 
ATOM     34  C   UNL     1       9.248   5.612   8.360  1.00  0.00     0.049 A 
ATOM     35  H   UNL     1       7.889   4.974   6.878  1.00  0.00     0.167 HD
ATOM     36  C   UNL     1       9.084   7.546   6.821  1.00  0.00     0.074 A 
ATOM     37  C   UNL     1       9.375   8.911   6.432  1.00  0.00     0.031 C 
ATOM     38  C   UNL     1       9.565   6.952   7.940  1.00  0.00     0.034 A 
BRANCH  25  39
ATOM     39  C   UNL     1       7.444   1.246   8.917  1.00  0.00     0.023 A 
ATOM     40  C   UNL     1       8.212   0.122   8.556  1.00  0.00     0.012 A 
ATOM     41  C   UNL     1       6.791   1.268  10.166  1.00  0.00     0.148 A 
ATOM     42  C   UNL     1       8.321  -0.969   9.417  1.00  0.00     0.002 A 
ATOM     43  C   UNL     1       6.933   0.191  11.034  1.00  0.00     0.091 A 
ATOM     44  F   UNL     1       6.053   2.342  10.482  1.00  0.00    -0.205 F 
ATOM     45  C   UNL     1       7.693  -0.929  10.659  1.00  0.00     0.022 A 
BRANCH  43  46
ATOM     46  S   UNL     1       6.226   0.173  12.686  1.00  0.00     0.127 S 
ATOM     47  O   UNL     1       5.180  -0.839  12.547  1.00  0.00    -0.237 OA
ATOM     48  O   UNL     1       7.367  -0.238  13.505  1.00  0.00    -0.237 OA
ATOM     49  O   UNL     1       5.753   1.528  12.936  1.00  0.00    -0.744 OA
ENDBRANCH  43  46
ENDBRANCH  25  39
BRANCH  26  50
ATOM     50  C   UNL     1       7.148   9.161   2.836  1.00  0.00     0.023 A 
ATOM     51  C   UNL     1       8.301   9.497   2.101  1.00  0.00     0.012 A 
ATOM     52  C   UNL     1       5.961   9.889   2.623  1.00  0.00     0.148 A 
ATOM     53  C   UNL     1       8.274  10.542   1.176  1.00  0.00     0.002 A 
ATOM     54  C   UNL     1       5.924  10.887   1.657  1.00  0.00     0.091 A 
ATOM     55  F   UNL     1       4.880   9.570   3.350  1.00  0.00    -0.205 F 
ATOM     56  C   UNL     1       7.082  11.225   0.942  1.00  0.00     0.022 A 
BRANCH  54  57
ATOM     57  S   UNL     1       4.392  11.700   1.186  1.00  0.00     0.127 S 
ATOM     58  O   UNL     1       4.532  13.001   1.833  1.00  0.00    -0.237 OA
ATOM     59  O   UNL     1       4.494  11.723  -0.274  1.00  0.00    -0.237 OA
ATOM     60  O   UNL     1       3.328  10.845   1.695  1.00  0.00    -0.744 OA
ENDBRANCH  54  57
ENDBRANCH  26  50
BRANCH  38  61
ATOM     61  C   UNL     1      10.450   7.764   8.847  1.00  0.00     0.023 A 
ATOM     62  C   UNL     1       9.865   8.734   9.685  1.00  0.00     0.012 A 
ATOM     63  C   UNL     1      11.826   7.486   8.960  1.00  0.00     0.148 A 
ATOM     64  C   UNL     1      10.639   9.423  10.616  1.00  0.00     0.002 A 
ATOM     65  C   UNL     1      12.583   8.148   9.919  1.00  0.00     0.091 A 
ATOM     66  F   UNL     1      12.362   6.569   8.142  1.00  0.00    -0.205 F 
ATOM     67  C   UNL     1      11.993   9.121  10.743  1.00  0.00     0.022 A 
BRANCH  65  68
ATOM     68  S   UNL     1      14.312   7.763  10.222  1.00  0.00     0.127 S 
ATOM     69  O   UNL     1      14.976   8.967   9.726  1.00  0.00    -0.237 OA
ATOM     70  O   UNL     1      14.344   7.604  11.676  1.00  0.00    -0.237 OA
ATOM     71  O   UNL     1      14.590   6.545   9.473  1.00  0.00    -0.744 OA
ENDBRANCH  65  68
ENDBRANCH  38  61
ENDBRANCH  12  13
ENDBRANCH   5   7
ENDBRANCH   2   3
ENDBRANCH   1   2
BRANCH   1  72
ATOM     72  C   UNL     1       4.495  -3.594  -1.221  1.00  0.00     0.023 C 
BRANCH  72  73
ATOM     73  C   UNL     1       4.766  -3.316  -2.695  1.00  0.00     0.116 C 
BRANCH  73  74
ATOM     74  N   UNL     1       6.172  -3.114  -3.002  1.00  0.00    -0.352 N 
ATOM     75  C   UNL     1       6.929  -3.738  -3.965  1.00  0.00     0.258 C 
ATOM     76  H   UNL     1       6.641  -2.446  -2.452  1.00  0.00     0.163 HD
ATOM     77  O   UNL     1       8.041  -3.320  -4.271  1.00  0.00    -0.269 OA
BRANCH  75  78
ATOM     78  C   UNL     1       6.375  -4.905  -4.655  1.00  0.00     0.118 A 
ATOM     79  C   UNL     1       5.460  -4.621  -5.678  1.00  0.00     0.139 A 
ATOM     80  C   UNL     1       6.653  -6.236  -4.317  1.00  0.00     0.143 A 
ATOM     81  F   UNL     1       5.165  -3.351  -5.996  1.00  0.00    -0.206 F 
ATOM     82  C   UNL     1       4.779  -5.635  -6.340  1.00  0.00     0.040 A 
ATOM     83  C   UNL     1       5.963  -7.253  -5.003  1.00  0.00     0.048 A 
ATOM     84  C   UNL     1       5.028  -6.959  -6.000  1.00  0.00     0.007 A 
BRANCH  80  85
ATOM     85  O   UNL     1       7.461  -6.742  -3.321  1.00  0.00    -0.456 OA
BRANCH  85  86
ATOM     86  C   UNL     1       8.448  -5.973  -2.768  1.00  0.00     0.128 A 
ATOM     87  C   UNL     1       8.224  -5.410  -1.510  1.00  0.00     0.047 A 
ATOM     88  C   UNL     1       9.696  -5.868  -3.382  1.00  0.00     0.067 A 
ATOM     89  C   UNL     1       9.228  -4.663  -0.894  1.00  0.00     0.005 A 
ATOM     90  C   UNL     1      10.699  -5.132  -2.753  1.00  0.00     0.044 A 
ATOM     91  C   UNL     1      10.468  -4.521  -1.519  1.00  0.00     0.021 A 
ATOM     92  Cl  UNL     1      12.249  -4.995  -3.491  1.00  0.00    -0.084 Cl
ENDBRANCH  85  86
ENDBRANCH  80  85
ENDBRANCH  75  78
ENDBRANCH  73  74
ENDBRANCH  72  73
ENDBRANCH   1  72
TORSDOF 16
