REMARK SMILES CCn1c(=O)n(CC)c2cc(C(=O)NCCCCNC(=O)c3ccc(-c4c5nc(c(-c6cccc(S(=O)(=O)[O-])c6F)c6ccc([nH]6)c(-c6cccc(S(=O)(=O)[O-])c6F)c6nc(c(-c7cccc(S(=O)(=O)[O-])c7F)c7ccc4[nH]7)C=C6)C=C5)cc3)ccc21
REMARK SMILES IDX 17 1 16 2 15 3 14 4 12 5 13 6 11 8 3 9 4 10 87 11 5 12 6 13
REMARK SMILES IDX 9 14 86 15 10 16 85 17 2 18 1 19 7 20 8 21 18 22 19 23 20 24
REMARK SMILES IDX 21 26 22 27 23 28 84 29 24 30 83 31 25 32 26 33 27 34 77 35
REMARK SMILES IDX 28 36 82 37 76 38 78 39 29 40 81 41 75 42 74 43 30 45 62 46
REMARK SMILES IDX 42 47 61 48 43 49 46 50 60 51 79 52 44 53 45 54 59 56 80 57
REMARK SMILES IDX 47 58 31 59 32 60 40 61 33 62 35 63 41 64 34 65 36 66 37 67
REMARK SMILES IDX 38 68 39 69 63 70 64 71 72 72 65 73 67 74 73 75 66 76 68 77
REMARK SMILES IDX 69 78 70 79 71 80 48 81 49 82 57 83 50 84 52 85 58 86 51 87
REMARK SMILES IDX 53 88 54 89 55 90 56 91
REMARK H PARENT 14 7 19 25 78 44 46 55
REMARK Flexibility Score: inf
ROOT
ATOM      1  C   UNL     1       5.485  -3.800   8.393  1.00  0.00     0.023 C 
ENDROOT
BRANCH   1   2
ATOM      2  C   UNL     1       4.686  -3.406   7.143  1.00  0.00     0.023 C 
BRANCH   2   3
ATOM      3  C   UNL     1       3.340  -2.752   7.466  1.00  0.00     0.116 C 
BRANCH   3   4
ATOM      4  N   UNL     1       3.529  -1.366   7.830  1.00  0.00    -0.352 N 
ATOM      5  C   UNL     1       3.346  -0.199   7.140  1.00  0.00     0.251 C 
ATOM      6  O   UNL     1       3.569   0.852   7.744  1.00  0.00    -0.269 OA
ATOM      7  H   UNL     1       3.850  -1.236   8.751  1.00  0.00     0.163 HD
BRANCH   5   8
ATOM      8  C   UNL     1       2.818  -0.134   5.745  1.00  0.00     0.042 A 
ATOM      9  N   UNL     1       0.810   0.463   2.158  1.00  0.00    -0.292 N 
ATOM     10  C   UNL     1       0.464   1.825   2.289  1.00  0.00     0.329 A 
ATOM     11  C   UNL     1       1.558   0.081   3.278  1.00  0.00     0.069 A 
ATOM     12  O   UNL     1      -0.183   2.499   1.490  1.00  0.00    -0.248 OA
ATOM     13  N   UNL     1       1.009   2.261   3.514  1.00  0.00    -0.292 N 
ATOM     14  C   UNL     1       1.643   1.177   4.133  1.00  0.00     0.070 A 
ATOM     15  C   UNL     1       2.167  -1.113   3.585  1.00  0.00     0.029 A 
ATOM     16  C   UNL     1       2.252   1.094   5.367  1.00  0.00     0.042 A 
ATOM     17  C   UNL     1       2.841  -1.194   4.812  1.00  0.00     0.016 A 
BRANCH   9  18
ATOM     18  C   UNL     1       0.391  -0.401   1.084  1.00  0.00     0.124 C 
ATOM     19  C   UNL     1       1.078  -0.072  -0.230  1.00  0.00     0.028 C 
ENDBRANCH   9  18
BRANCH  13  20
ATOM     20  C   UNL     1       0.981   3.612   4.013  1.00  0.00     0.124 C 
ATOM     21  C   UNL     1       0.010   3.802   5.165  1.00  0.00     0.028 C 
ENDBRANCH  13  20
ENDBRANCH   5   8
ENDBRANCH   3   4
ENDBRANCH   2   3
ENDBRANCH   1   2
BRANCH   1  22
ATOM     22  C   UNL     1       4.670  -4.609   9.401  1.00  0.00     0.116 C 
BRANCH  22  23
ATOM     23  N   UNL     1       4.058  -5.798   8.833  1.00  0.00    -0.352 N 
ATOM     24  C   UNL     1       4.360  -7.132   8.806  1.00  0.00     0.251 C 
ATOM     25  H   UNL     1       3.224  -5.594   8.352  1.00  0.00     0.163 HD
ATOM     26  O   UNL     1       3.523  -7.869   8.279  1.00  0.00    -0.269 OA
BRANCH  24  27
ATOM     27  C   UNL     1       5.652  -7.700   9.252  1.00  0.00     0.039 A 
ATOM     28  C   UNL     1       6.600  -7.006   9.997  1.00  0.00     0.014 A 
ATOM     29  C   UNL     1       5.966  -8.986   8.780  1.00  0.00     0.014 A 
ATOM     30  C   UNL     1       7.904  -7.444  10.040  1.00  0.00     0.010 A 
ATOM     31  C   UNL     1       7.255  -9.478   8.901  1.00  0.00     0.010 A 
ATOM     32  C   UNL     1       8.236  -8.649   9.431  1.00  0.00    -0.014 A 
BRANCH  32  33
ATOM     33  C   UNL     1       9.644  -8.997   9.417  1.00  0.00     0.031 A 
ATOM     34  C   UNL     1      10.287  -9.065  10.761  1.00  0.00     0.074 A 
ATOM     35  C   UNL     1      10.279  -9.268   8.262  1.00  0.00     0.049 A 
ATOM     36  N   UNL     1      11.300  -8.390  11.205  1.00  0.00    -0.248 NA
ATOM     37  C   UNL     1       9.616  -9.884  11.783  1.00  0.00     0.031 C 
ATOM     38  C   UNL     1       9.708  -9.445   6.924  1.00  0.00     0.029 A 
ATOM     39  N   UNL     1      11.582  -9.598   8.085  1.00  0.00    -0.354 N 
ATOM     40  C   UNL     1      11.507  -8.839  12.509  1.00  0.00     0.074 A 
ATOM     41  C   UNL     1      10.368  -9.649  12.856  1.00  0.00     0.031 C 
ATOM     42  C   UNL     1      10.589 -10.128   6.160  1.00  0.00     0.029 A 
ATOM     43  C   UNL     1      11.818 -10.303   6.911  1.00  0.00     0.049 A 
ATOM     44  H   UNL     1      12.292  -9.361   8.725  1.00  0.00     0.167 HD
ATOM     45  C   UNL     1      12.681  -8.672  13.175  1.00  0.00     0.034 A 
ATOM     46  C   UNL     1      12.901 -11.079   6.667  1.00  0.00     0.034 A 
ATOM     47  C   UNL     1      13.520  -7.673  12.583  1.00  0.00     0.049 A 
ATOM     48  C   UNL     1      13.973 -10.614   7.583  1.00  0.00     0.074 A 
ATOM     49  C   UNL     1      13.425  -6.306  12.412  1.00  0.00     0.029 A 
ATOM     50  N   UNL     1      14.487  -8.094  11.703  1.00  0.00    -0.354 N 
ATOM     51  N   UNL     1      14.496  -9.419   7.528  1.00  0.00    -0.248 NA
ATOM     52  C   UNL     1      14.140 -11.312   8.848  1.00  0.00     0.031 C 
ATOM     53  C   UNL     1      13.965  -6.062  11.115  1.00  0.00     0.029 A 
ATOM     54  C   UNL     1      14.400  -7.285  10.598  1.00  0.00     0.049 A 
ATOM     55  H   UNL     1      15.121  -8.835  11.839  1.00  0.00     0.167 HD
ATOM     56  C   UNL     1      14.668  -9.049   8.856  1.00  0.00     0.074 A 
ATOM     57  C   UNL     1      14.520 -10.288   9.618  1.00  0.00     0.031 C 
ATOM     58  C   UNL     1      14.622  -7.739   9.243  1.00  0.00     0.034 A 
BRANCH  45  59
ATOM     59  C   UNL     1      13.172  -9.629  14.223  1.00  0.00     0.023 A 
ATOM     60  C   UNL     1      14.136  -9.199  15.154  1.00  0.00     0.012 A 
ATOM     61  C   UNL     1      12.877 -11.012  14.178  1.00  0.00     0.148 A 
ATOM     62  C   UNL     1      14.769 -10.107  16.012  1.00  0.00     0.002 A 
ATOM     63  C   UNL     1      13.457 -11.898  15.076  1.00  0.00     0.091 A 
ATOM     64  F   UNL     1      12.118 -11.489  13.183  1.00  0.00    -0.205 F 
ATOM     65  C   UNL     1      14.418 -11.453  15.985  1.00  0.00     0.022 A 
BRANCH  63  66
ATOM     66  S   UNL     1      13.011 -13.637  15.100  1.00  0.00     0.127 S 
ATOM     67  O   UNL     1      14.188 -14.250  14.491  1.00  0.00    -0.237 OA
ATOM     68  O   UNL     1      12.852 -13.887  16.533  1.00  0.00    -0.237 OA
ATOM     69  O   UNL     1      11.772 -13.729  14.339  1.00  0.00    -0.744 OA
ENDBRANCH  63  66
ENDBRANCH  45  59
BRANCH  46  70
ATOM     70  C   UNL     1      12.934 -12.405   5.998  1.00  0.00     0.023 A 
ATOM     71  C   UNL     1      14.176 -12.957   5.625  1.00  0.00     0.012 A 
ATOM     72  C   UNL     1      11.800 -13.251   5.966  1.00  0.00     0.148 A 
ATOM     73  C   UNL     1      14.290 -14.307   5.270  1.00  0.00     0.002 A 
ATOM     74  C   UNL     1      11.914 -14.586   5.591  1.00  0.00     0.091 A 
ATOM     75  F   UNL     1      10.622 -12.783   6.398  1.00  0.00    -0.205 F 
ATOM     76  C   UNL     1      13.162 -15.123   5.258  1.00  0.00     0.022 A 
BRANCH  74  77
ATOM     77  S   UNL     1      10.492 -15.686   5.554  1.00  0.00     0.127 S 
ATOM     78  O   UNL     1      10.691 -16.401   4.293  1.00  0.00    -0.237 OA
ATOM     79  O   UNL     1      10.699 -16.491   6.754  1.00  0.00    -0.237 OA
ATOM     80  O   UNL     1       9.321 -14.817   5.565  1.00  0.00    -0.744 OA
ENDBRANCH  74  77
ENDBRANCH  46  70
BRANCH  58  81
ATOM     81  C   UNL     1      14.506  -6.690   8.160  1.00  0.00     0.023 A 
ATOM     82  C   UNL     1      13.329  -6.552   7.391  1.00  0.00     0.012 A 
ATOM     83  C   UNL     1      15.505  -5.712   8.044  1.00  0.00     0.148 A 
ATOM     84  C   UNL     1      13.159  -5.479   6.513  1.00  0.00     0.002 A 
ATOM     85  C   UNL     1      15.319  -4.626   7.194  1.00  0.00     0.091 A 
ATOM     86  F   UNL     1      16.605  -5.840   8.801  1.00  0.00    -0.205 F 
ATOM     87  C   UNL     1      14.151  -4.508   6.422  1.00  0.00     0.022 A 
BRANCH  85  88
ATOM     88  S   UNL     1      16.502  -3.279   7.102  1.00  0.00     0.127 S 
ATOM     89  O   UNL     1      17.059  -3.454   5.762  1.00  0.00    -0.237 OA
ATOM     90  O   UNL     1      15.645  -2.102   7.259  1.00  0.00    -0.237 OA
ATOM     91  O   UNL     1      17.438  -3.487   8.199  1.00  0.00    -0.744 OA
ENDBRANCH  85  88
ENDBRANCH  58  81
ENDBRANCH  32  33
ENDBRANCH  24  27
ENDBRANCH  22  23
ENDBRANCH   1  22
TORSDOF 16
