REMARK SMILES Cc1cc2c(c(C)c1Cl)C=C(C(=O)NCCCCNC(=O)c1ccc(-c3c4nc(c(-c5cccc(S(=O)(=O)[O-])c5F)c5ccc([nH]5)c(-c5cccc(S(=O)(=O)[O-])c5F)c5nc(c(-c6cccc(S(=O)(=O)[O-])c6F)c6ccc3[nH]6)C=C5)C=C4)cc1)[C@@H](C(F)(F)F)O2
REMARK SMILES IDX 17 1 16 2 15 3 14 4 12 5 13 6 11 8 1 9 2 10 3 11 8 12 4 13
REMARK SMILES IDX 6 14 9 15 5 16 90 17 7 18 10 19 85 20 86 21 87 22 88 23
REMARK SMILES IDX 89 24 18 25 19 26 20 27 21 29 22 30 23 31 84 32 24 33 83 34
REMARK SMILES IDX 25 35 26 36 27 37 77 38 28 39 82 40 76 41 78 42 29 43 81 44
REMARK SMILES IDX 75 45 74 46 30 48 62 49 42 50 61 51 43 52 46 53 60 54 79 55
REMARK SMILES IDX 44 56 45 57 59 59 80 60 47 61 31 62 32 63 40 64 33 65 35 66
REMARK SMILES IDX 41 67 34 68 36 69 37 70 38 71 39 72 63 73 64 74 72 75 65 76
REMARK SMILES IDX 67 77 73 78 66 79 68 80 69 81 70 82 71 83 48 84 49 85 57 86
REMARK SMILES IDX 50 87 52 88 58 89 51 90 53 91 54 92 55 93 56 94
REMARK H PARENT 14 7 19 28 78 47 46 58
REMARK Flexibility Score: inf
ROOT
ATOM      1  C   UNL     1      -3.616   6.800   7.405  1.00  0.00     0.023 C 
ENDROOT
BRANCH   1   2
ATOM      2  C   UNL     1      -3.272   5.661   6.441  1.00  0.00     0.023 C 
BRANCH   2   3
ATOM      3  C   UNL     1      -3.756   5.882   5.010  1.00  0.00     0.116 C 
BRANCH   3   4
ATOM      4  N   UNL     1      -2.818   6.671   4.231  1.00  0.00    -0.352 N 
ATOM      5  C   UNL     1      -1.882   6.442   3.282  1.00  0.00     0.251 C 
ATOM      6  O   UNL     1      -1.296   7.446   2.865  1.00  0.00    -0.270 OA
ATOM      7  H   UNL     1      -2.881   7.628   4.454  1.00  0.00     0.163 HD
BRANCH   5   8
ATOM      8  C   UNL     1      -1.527   5.104   2.720  1.00  0.00     0.067 C 
ATOM      9  C   UNL     1       1.108  -0.050  -0.276  1.00  0.00     0.046 C 
ATOM     10  C   UNL     1       0.730   1.314   0.237  1.00  0.00    -0.028 A 
ATOM     11  C   UNL     1      -0.237   1.407   1.242  1.00  0.00     0.052 A 
ATOM     12  C   UNL     1       1.308   2.498  -0.265  1.00  0.00     0.047 A 
ATOM     13  C   UNL     1      -0.620   2.648   1.741  1.00  0.00     0.128 A 
ATOM     14  C   UNL     1       0.931   3.767   0.239  1.00  0.00    -0.021 A 
ATOM     15  Cl  UNL     1       2.505   2.362  -1.519  1.00  0.00    -0.084 Cl
ATOM     16  C   UNL     1      -0.041   3.829   1.268  1.00  0.00     0.022 A 
ATOM     17  O   UNL     1      -1.551   2.618   2.741  1.00  0.00    -0.475 OA
ATOM     18  C   UNL     1       1.548   5.046  -0.278  1.00  0.00     0.047 C 
ATOM     19  C   UNL     1      -0.453   5.082   1.908  1.00  0.00     0.026 C 
ATOM     20  C   UNL     1      -2.299   3.844   2.969  1.00  0.00     0.314 C 
BRANCH  20  21
ATOM     21  C   UNL     1      -3.620   3.788   2.179  1.00  0.00     0.429 C 
ATOM     22  F   UNL     1      -4.409   2.788   2.647  1.00  0.00    -0.167 F 
ATOM     23  F   UNL     1      -4.341   4.928   2.285  1.00  0.00    -0.167 F 
ATOM     24  F   UNL     1      -3.428   3.564   0.859  1.00  0.00    -0.167 F 
ENDBRANCH  20  21
ENDBRANCH   5   8
ENDBRANCH   3   4
ENDBRANCH   2   3
ENDBRANCH   1   2
BRANCH   1  25
ATOM     25  C   UNL     1      -5.095   7.177   7.481  1.00  0.00     0.116 C 
BRANCH  25  26
ATOM     26  N   UNL     1      -5.986   6.046   7.705  1.00  0.00    -0.352 N 
ATOM     27  C   UNL     1      -7.217   6.057   8.322  1.00  0.00     0.251 C 
ATOM     28  H   UNL     1      -5.672   5.172   7.377  1.00  0.00     0.163 HD
ATOM     29  O   UNL     1      -7.843   5.018   8.498  1.00  0.00    -0.269 OA
BRANCH  27  30
ATOM     30  C   UNL     1      -7.739   7.346   8.811  1.00  0.00     0.039 A 
ATOM     31  C   UNL     1      -7.993   7.492  10.176  1.00  0.00     0.014 A 
ATOM     32  C   UNL     1      -7.858   8.431   7.938  1.00  0.00     0.014 A 
ATOM     33  C   UNL     1      -8.286   8.758  10.682  1.00  0.00     0.010 A 
ATOM     34  C   UNL     1      -8.089   9.701   8.455  1.00  0.00     0.010 A 
ATOM     35  C   UNL     1      -8.291   9.877   9.832  1.00  0.00    -0.014 A 
BRANCH  35  36
ATOM     36  C   UNL     1      -8.456  11.245  10.379  1.00  0.00     0.031 A 
ATOM     37  C   UNL     1      -9.670  12.058  10.035  1.00  0.00     0.074 A 
ATOM     38  C   UNL     1      -7.469  11.779  11.127  1.00  0.00     0.049 A 
ATOM     39  N   UNL     1      -9.985  13.264  10.425  1.00  0.00    -0.248 NA
ATOM     40  C   UNL     1     -10.646  11.448   9.117  1.00  0.00     0.031 C 
ATOM     41  C   UNL     1      -6.203  11.117  11.450  1.00  0.00     0.029 A 
ATOM     42  N   UNL     1      -7.369  13.002  11.741  1.00  0.00    -0.354 N 
ATOM     43  C   UNL     1     -11.181  13.566   9.789  1.00  0.00     0.074 A 
ATOM     44  C   UNL     1     -11.515  12.435   8.952  1.00  0.00     0.031 C 
ATOM     45  C   UNL     1      -5.466  11.931  12.223  1.00  0.00     0.029 A 
ATOM     46  C   UNL     1      -6.196  13.177  12.438  1.00  0.00     0.049 A 
ATOM     47  H   UNL     1      -8.071  13.691  11.687  1.00  0.00     0.167 HD
ATOM     48  C   UNL     1     -11.955  14.668   9.926  1.00  0.00     0.034 A 
ATOM     49  C   UNL     1      -5.768  14.214  13.185  1.00  0.00     0.034 A 
ATOM     50  C   UNL     1     -11.646  15.762  10.803  1.00  0.00     0.049 A 
ATOM     51  C   UNL     1      -6.670  15.406  13.360  1.00  0.00     0.074 A 
ATOM     52  C   UNL     1     -12.407  16.883  11.076  1.00  0.00     0.029 A 
ATOM     53  N   UNL     1     -10.485  15.870  11.552  1.00  0.00    -0.354 N 
ATOM     54  N   UNL     1      -7.875  15.602  12.882  1.00  0.00    -0.248 NA
ATOM     55  C   UNL     1      -6.173  16.505  14.202  1.00  0.00     0.031 C 
ATOM     56  C   UNL     1     -11.705  17.672  11.992  1.00  0.00     0.029 A 
ATOM     57  C   UNL     1     -10.507  17.040  12.289  1.00  0.00     0.049 A 
ATOM     58  H   UNL     1      -9.752  15.212  11.558  1.00  0.00     0.167 HD
ATOM     59  C   UNL     1      -8.293  16.827  13.388  1.00  0.00     0.074 A 
ATOM     60  C   UNL     1      -7.219  17.322  14.224  1.00  0.00     0.031 C 
ATOM     61  C   UNL     1      -9.456  17.488  13.166  1.00  0.00     0.034 A 
BRANCH  48  62
ATOM     62  C   UNL     1     -13.261  14.700   9.181  1.00  0.00     0.023 A 
ATOM     63  C   UNL     1     -14.328  13.901   9.643  1.00  0.00     0.012 A 
ATOM     64  C   UNL     1     -13.463  15.557   8.083  1.00  0.00     0.148 A 
ATOM     65  C   UNL     1     -15.568  13.936   9.009  1.00  0.00     0.002 A 
ATOM     66  C   UNL     1     -14.714  15.614   7.479  1.00  0.00     0.091 A 
ATOM     67  F   UNL     1     -12.430  16.290   7.645  1.00  0.00    -0.205 F 
ATOM     68  C   UNL     1     -15.764  14.799   7.936  1.00  0.00     0.022 A 
BRANCH  66  69
ATOM     69  S   UNL     1     -15.087  16.744   6.133  1.00  0.00     0.127 S 
ATOM     70  O   UNL     1     -15.135  15.835   4.989  1.00  0.00    -0.237 OA
ATOM     71  O   UNL     1     -16.385  17.287   6.534  1.00  0.00    -0.237 OA
ATOM     72  O   UNL     1     -14.003  17.716   6.117  1.00  0.00    -0.744 OA
ENDBRANCH  66  69
ENDBRANCH  48  62
BRANCH  49  73
ATOM     73  C   UNL     1      -4.477  14.107  13.922  1.00  0.00     0.023 A 
ATOM     74  C   UNL     1      -4.504  13.931  15.319  1.00  0.00     0.012 A 
ATOM     75  C   UNL     1      -3.237  14.106  13.255  1.00  0.00     0.148 A 
ATOM     76  C   UNL     1      -3.321  13.772  16.041  1.00  0.00     0.002 A 
ATOM     77  C   UNL     1      -2.064  13.897  13.974  1.00  0.00     0.091 A 
ATOM     78  F   UNL     1      -3.228  14.290  11.927  1.00  0.00    -0.205 F 
ATOM     79  C   UNL     1      -2.103  13.742  15.368  1.00  0.00     0.022 A 
BRANCH  77  80
ATOM     80  S   UNL     1      -0.467  13.706  13.171  1.00  0.00     0.127 S 
ATOM     81  O   UNL     1       0.169  14.988  13.460  1.00  0.00    -0.237 OA
ATOM     82  O   UNL     1       0.100  12.560  13.884  1.00  0.00    -0.237 OA
ATOM     83  O   UNL     1      -0.768  13.445  11.769  1.00  0.00    -0.744 OA
ENDBRANCH  77  80
ENDBRANCH  49  73
BRANCH  61  84
ATOM     84  C   UNL     1      -9.655  18.820  13.835  1.00  0.00     0.023 A 
ATOM     85  C   UNL     1      -9.014  19.957  13.306  1.00  0.00     0.012 A 
ATOM     86  C   UNL     1     -10.587  18.970  14.881  1.00  0.00     0.148 A 
ATOM     87  C   UNL     1      -9.293  21.225  13.811  1.00  0.00     0.002 A 
ATOM     88  C   UNL     1     -10.892  20.242  15.351  1.00  0.00     0.091 A 
ATOM     89  F   UNL     1     -11.173  17.871  15.377  1.00  0.00    -0.205 F 
ATOM     90  C   UNL     1     -10.242  21.369  14.821  1.00  0.00     0.022 A 
BRANCH  88  91
ATOM     91  S   UNL     1     -12.169  20.538  16.580  1.00  0.00     0.127 S 
ATOM     92  O   UNL     1     -11.378  20.937  17.742  1.00  0.00    -0.237 OA
ATOM     93  O   UNL     1     -12.944  21.618  15.968  1.00  0.00    -0.237 OA
ATOM     94  O   UNL     1     -12.891  19.280  16.720  1.00  0.00    -0.744 OA
ENDBRANCH  88  91
ENDBRANCH  61  84
ENDBRANCH  35  36
ENDBRANCH  27  30
ENDBRANCH  25  26
ENDBRANCH   1  25
TORSDOF 15
