REMARK SMILES C[C@H]1OCC[C@@H]1C(=O)Nc1ccc(Cl)c(C(=O)NCCCCNC(=O)c2ccc(-c3c4nc(c(-c5cccc(S(=O)(=O)[O-])c5F)c5ccc([nH]5)c(-c5cccc(S(=O)(=O)[O-])c5F)c5nc(c(-c6cccc(S(=O)(=O)[O-])c6F)c6ccc3[nH]6)C=C5)C=C4)cc2)c1
REMARK SMILES IDX 21 1 20 2 19 3 18 4 16 5 17 6 15 8 10 9 11 10 89 11 12 12
REMARK SMILES IDX 13 13 14 14 9 15 7 16 8 17 6 19 1 20 2 21 3 22 4 23 5 24
REMARK SMILES IDX 22 25 23 26 24 27 25 29 26 30 27 31 88 32 28 33 87 34 29 35
REMARK SMILES IDX 30 36 31 37 81 38 32 39 86 40 80 41 82 42 33 43 85 44 79 45
REMARK SMILES IDX 78 46 34 48 66 49 46 50 65 51 47 52 50 53 64 54 83 55 48 56
REMARK SMILES IDX 49 57 63 59 84 60 51 61 35 62 36 63 44 64 37 65 39 66 45 67
REMARK SMILES IDX 38 68 40 69 41 70 42 71 43 72 67 73 68 74 76 75 69 76 71 77
REMARK SMILES IDX 77 78 70 79 72 80 73 81 74 82 75 83 52 84 53 85 61 86 54 87
REMARK SMILES IDX 56 88 62 89 55 90 57 91 58 92 59 93 60 94
REMARK H PARENT 18 7 9 18 23 28 82 47 50 58
REMARK Flexibility Score: inf
ROOT
ATOM      1  C   UNL     1      -2.617   4.688   7.904  1.00  0.00     0.023 C 
ENDROOT
BRANCH   1   2
ATOM      2  C   UNL     1      -3.174   3.683   6.903  1.00  0.00     0.023 C 
BRANCH   2   3
ATOM      3  C   UNL     1      -2.297   3.365   5.704  1.00  0.00     0.116 C 
BRANCH   3   4
ATOM      4  N   UNL     1      -1.009   2.756   5.986  1.00  0.00    -0.352 N 
ATOM      5  C   UNL     1      -0.279   1.868   5.223  1.00  0.00     0.252 C 
ATOM      6  O   UNL     1       0.844   1.530   5.594  1.00  0.00    -0.269 OA
ATOM      7  H   UNL     1      -0.599   3.014   6.843  1.00  0.00     0.163 HD
BRANCH   5   8
ATOM      8  C   UNL     1      -0.866   1.202   4.033  1.00  0.00     0.060 A 
ATOM      9  C   UNL     1      -1.180  -0.865   2.817  1.00  0.00     0.042 A 
ATOM     10  C   UNL     1      -2.205  -0.274   2.095  1.00  0.00     0.028 A 
ATOM     11  C   UNL     1      -0.617  -0.177   3.890  1.00  0.00     0.041 A 
ATOM     12  C   UNL     1      -2.399   1.098   2.178  1.00  0.00     0.023 A 
ATOM     13  C   UNL     1      -1.613   1.850   3.045  1.00  0.00     0.053 A 
ATOM     14  Cl  UNL     1      -1.489   3.537   2.694  1.00  0.00    -0.083 Cl
BRANCH   9  15
ATOM     15  N   UNL     1      -0.684  -2.118   2.451  1.00  0.00    -0.326 N 
ATOM     16  C   UNL     1      -0.263  -2.543   1.216  1.00  0.00     0.230 C 
ATOM     17  O   UNL     1      -0.040  -3.754   1.082  1.00  0.00    -0.274 OA
ATOM     18  H   UNL     1      -0.629  -2.784   3.174  1.00  0.00     0.169 HD
BRANCH  16  19
ATOM     19  C   UNL     1       0.044  -1.606   0.029  1.00  0.00     0.110 C 
ATOM     20  C   UNL     1       2.080  -0.161  -0.465  1.00  0.00     0.039 C 
ATOM     21  C   UNL     1       0.824  -0.342   0.385  1.00  0.00     0.127 C 
ATOM     22  O   UNL     1      -0.045   0.767   0.113  1.00  0.00    -0.378 OA
ATOM     23  C   UNL     1      -0.983   0.372  -0.888  1.00  0.00     0.161 C 
ATOM     24  C   UNL     1      -1.131  -1.135  -0.805  1.00  0.00     0.044 C 
ENDBRANCH  16  19
ENDBRANCH   9  15
ENDBRANCH   5   8
ENDBRANCH   3   4
ENDBRANCH   2   3
ENDBRANCH   1   2
BRANCH   1  25
ATOM     25  C   UNL     1      -1.954   5.938   7.333  1.00  0.00     0.116 C 
BRANCH  25  26
ATOM     26  N   UNL     1      -2.813   6.738   6.466  1.00  0.00    -0.352 N 
ATOM     27  C   UNL     1      -3.214   8.050   6.582  1.00  0.00     0.251 C 
ATOM     28  H   UNL     1      -3.159   6.266   5.675  1.00  0.00     0.163 HD
ATOM     29  O   UNL     1      -3.988   8.532   5.757  1.00  0.00    -0.269 OA
BRANCH  27  30
ATOM     30  C   UNL     1      -2.761   8.864   7.730  1.00  0.00     0.039 A 
ATOM     31  C   UNL     1      -3.715   9.546   8.490  1.00  0.00     0.014 A 
ATOM     32  C   UNL     1      -1.414   8.904   8.096  1.00  0.00     0.014 A 
ATOM     33  C   UNL     1      -3.337  10.157   9.688  1.00  0.00     0.010 A 
ATOM     34  C   UNL     1      -1.054   9.438   9.329  1.00  0.00     0.010 A 
ATOM     35  C   UNL     1      -2.016  10.047  10.151  1.00  0.00    -0.014 A 
BRANCH  35  36
ATOM     36  C   UNL     1      -1.628  10.488  11.517  1.00  0.00     0.031 A 
ATOM     37  C   UNL     1      -0.573  11.542  11.709  1.00  0.00     0.074 A 
ATOM     38  C   UNL     1      -2.132   9.839  12.588  1.00  0.00     0.049 A 
ATOM     39  N   UNL     1      -0.026  11.967  12.818  1.00  0.00    -0.248 NA
ATOM     40  C   UNL     1      -0.041  12.180  10.493  1.00  0.00     0.031 C 
ATOM     41  C   UNL     1      -3.096   8.736  12.534  1.00  0.00     0.029 A 
ATOM     42  N   UNL     1      -1.877   9.986  13.929  1.00  0.00    -0.354 N 
ATOM     43  C   UNL     1       0.941  12.888  12.435  1.00  0.00     0.074 A 
ATOM     44  C   UNL     1       0.925  12.941  10.989  1.00  0.00     0.031 C 
ATOM     45  C   UNL     1      -3.347   8.307  13.780  1.00  0.00     0.029 A 
ATOM     46  C   UNL     1      -2.542   9.078  14.722  1.00  0.00     0.049 A 
ATOM     47  H   UNL     1      -1.275  10.676  14.290  1.00  0.00     0.167 HD
ATOM     48  C   UNL     1       1.748  13.644  13.216  1.00  0.00     0.034 A 
ATOM     49  C   UNL     1      -2.499   8.876  16.054  1.00  0.00     0.034 A 
ATOM     50  C   UNL     1       1.723  13.632  14.654  1.00  0.00     0.049 A 
ATOM     51  C   UNL     1      -1.625   9.760  16.901  1.00  0.00     0.074 A 
ATOM     52  C   UNL     1       2.421  14.442  15.532  1.00  0.00     0.029 A 
ATOM     53  N   UNL     1       0.966  12.765  15.425  1.00  0.00    -0.354 N 
ATOM     54  N   UNL     1      -0.848  10.748  16.530  1.00  0.00    -0.248 NA
ATOM     55  C   UNL     1      -1.643   9.522  18.352  1.00  0.00     0.031 C 
ATOM     56  C   UNL     1       2.096  14.054  16.836  1.00  0.00     0.029 A 
ATOM     57  C   UNL     1       1.187  13.010  16.769  1.00  0.00     0.049 A 
ATOM     58  H   UNL     1       0.359  12.076  15.069  1.00  0.00     0.167 HD
ATOM     59  C   UNL     1      -0.306  11.267  17.700  1.00  0.00     0.074 A 
ATOM     60  C   UNL     1      -0.863  10.499  18.795  1.00  0.00     0.031 C 
ATOM     61  C   UNL     1       0.587  12.275  17.852  1.00  0.00     0.034 A 
BRANCH  48  62
ATOM     62  C   UNL     1       2.684  14.604  12.531  1.00  0.00     0.023 A 
ATOM     63  C   UNL     1       2.160  15.767  11.931  1.00  0.00     0.012 A 
ATOM     64  C   UNL     1       4.076  14.392  12.530  1.00  0.00     0.148 A 
ATOM     65  C   UNL     1       3.003  16.690  11.313  1.00  0.00     0.002 A 
ATOM     66  C   UNL     1       4.914  15.336  11.947  1.00  0.00     0.091 A 
ATOM     67  F   UNL     1       4.554  13.268  13.084  1.00  0.00    -0.205 F 
ATOM     68  C   UNL     1       4.379  16.479  11.330  1.00  0.00     0.022 A 
BRANCH  66  69
ATOM     69  S   UNL     1       6.705  15.192  11.982  1.00  0.00     0.127 S 
ATOM     70  O   UNL     1       6.998  14.821  10.598  1.00  0.00    -0.237 OA
ATOM     71  O   UNL     1       7.117  16.547  12.350  1.00  0.00    -0.237 OA
ATOM     72  O   UNL     1       7.004  14.177  12.982  1.00  0.00    -0.744 OA
ENDBRANCH  66  69
ENDBRANCH  48  62
BRANCH  49  73
ATOM     73  C   UNL     1      -3.365   7.833  16.675  1.00  0.00     0.023 A 
ATOM     74  C   UNL     1      -4.470   8.233  17.451  1.00  0.00     0.012 A 
ATOM     75  C   UNL     1      -3.127   6.460  16.474  1.00  0.00     0.148 A 
ATOM     76  C   UNL     1      -5.308   7.284  18.038  1.00  0.00     0.002 A 
ATOM     77  C   UNL     1      -3.998   5.520  17.017  1.00  0.00     0.091 A 
ATOM     78  F   UNL     1      -2.062   6.097  15.746  1.00  0.00    -0.205 F 
ATOM     79  C   UNL     1      -5.080   5.930  17.812  1.00  0.00     0.022 A 
BRANCH  77  80
ATOM     80  S   UNL     1      -3.855   3.764  16.665  1.00  0.00     0.127 S 
ATOM     81  O   UNL     1      -3.324   3.248  17.923  1.00  0.00    -0.237 OA
ATOM     82  O   UNL     1      -5.244   3.395  16.384  1.00  0.00    -0.237 OA
ATOM     83  O   UNL     1      -2.970   3.670  15.512  1.00  0.00    -0.744 OA
ENDBRANCH  77  80
ENDBRANCH  49  73
BRANCH  61  84
ATOM     84  C   UNL     1       1.013  12.628  19.253  1.00  0.00     0.023 A 
ATOM     85  C   UNL     1       1.907  11.782  19.938  1.00  0.00     0.012 A 
ATOM     86  C   UNL     1       0.602  13.834  19.852  1.00  0.00     0.148 A 
ATOM     87  C   UNL     1       2.369  12.121  21.209  1.00  0.00     0.002 A 
ATOM     88  C   UNL     1       1.100  14.187  21.101  1.00  0.00     0.091 A 
ATOM     89  F   UNL     1      -0.265  14.615  19.190  1.00  0.00    -0.205 F 
ATOM     90  C   UNL     1       1.976  13.327  21.784  1.00  0.00     0.022 A 
BRANCH  88  91
ATOM     91  S   UNL     1       0.721  15.760  21.881  1.00  0.00     0.127 S 
ATOM     92  O   UNL     1      -0.180  15.351  22.957  1.00  0.00    -0.237 OA
ATOM     93  O   UNL     1       2.040  16.211  22.328  1.00  0.00    -0.237 OA
ATOM     94  O   UNL     1       0.120  16.587  20.843  1.00  0.00    -0.744 OA
ENDBRANCH  88  91
ENDBRANCH  61  84
ENDBRANCH  35  36
ENDBRANCH  27  30
ENDBRANCH  25  26
ENDBRANCH   1  25
TORSDOF 16
