REMARK SMILES C[C@H]1[C@H](C)CC[C@@]2(C(=O)NCCCCNC(=O)c3ccc(-c4c5nc(c(-c6cccc(S(=O)(=O)[O-])c6F)c6ccc([nH]6)c(-c6cccc(S(=O)(=O)[O-])c6F)c6nc(c(-c7cccc(S(=O)(=O)[O-])c7F)c7ccc4[nH]7)C=C6)C=C5)cc3)CC[C@@]3(C)C(=CC[C@@H]4[C@@]5(C)CC[C@H](O)C(C)(C)[C@@H]5CC[C@]43C)[C@H]12
REMARK SMILES IDX 13 1 12 2 11 3 10 4 8 5 9 6 7 8 1 9 2 10 3 11 103 12 4 13
REMARK SMILES IDX 5 14 85 15 6 16 81 17 83 18 86 19 82 20 84 21 101 22 87 23
REMARK SMILES IDX 88 24 100 25 102 26 89 27 99 28 90 29 91 30 98 31 92 32
REMARK SMILES IDX 95 33 93 34 96 35 97 36 94 37 14 39 15 40 16 41 17 43 18 44
REMARK SMILES IDX 19 45 80 46 20 47 79 48 21 49 22 50 23 51 73 52 24 53 78 54
REMARK SMILES IDX 72 55 74 56 25 57 77 58 71 59 70 60 26 62 58 63 38 64 57 65
REMARK SMILES IDX 39 66 42 67 56 68 75 69 40 70 41 71 55 73 76 74 43 75 27 76
REMARK SMILES IDX 28 77 36 78 29 79 31 80 37 81 30 82 32 83 33 84 34 85 35 86
REMARK SMILES IDX 59 87 60 88 68 89 61 90 63 91 69 92 62 93 64 94 65 95 66 96
REMARK SMILES IDX 67 97 44 98 45 99 53 100 46 101 48 102 54 103 47 104 49 105
REMARK SMILES IDX 50 106 51 107 52 108
REMARK H PARENT 10 7 94 38 15 42 74 61 42 72
REMARK Flexibility Score: inf
ROOT
ATOM      1  C   UNL     1      -2.599  -0.754   0.769  1.00  0.00     0.023 C 
ENDROOT
BRANCH   1   2
ATOM      2  C   UNL     1      -2.780   0.536   1.576  1.00  0.00     0.023 C 
BRANCH   2   3
ATOM      3  C   UNL     1      -1.677   1.589   1.442  1.00  0.00     0.116 C 
BRANCH   3   4
ATOM      4  N   UNL     1      -1.641   2.287   0.174  1.00  0.00    -0.356 N 
ATOM      5  C   UNL     1      -0.874   3.335  -0.252  1.00  0.00     0.226 C 
ATOM      6  O   UNL     1      -1.456   4.090  -1.044  1.00  0.00    -0.274 OA
ATOM      7  H   UNL     1      -2.278   1.948  -0.495  1.00  0.00     0.163 HD
BRANCH   5   8
ATOM      8  C   UNL     1       0.632   3.600   0.144  1.00  0.00     0.056 C 
ATOM      9  C   UNL     1       2.731   0.261  -0.141  1.00  0.00     0.008 C 
ATOM     10  C   UNL     1       1.685   1.236   0.431  1.00  0.00    -0.003 C 
ATOM     11  C   UNL     1       2.019   1.570   1.918  1.00  0.00    -0.011 C 
ATOM     12  C   UNL     1       1.623   2.535  -0.406  1.00  0.00     0.034 C 
ATOM     13  C   UNL     1       1.928   0.348   2.845  1.00  0.00     0.008 C 
ATOM     14  C   UNL     1       1.165   2.682   2.547  1.00  0.00     0.005 C 
ATOM     15  C   UNL     1       1.349   2.462  -1.917  1.00  0.00    -0.063 C 
ATOM     16  C   UNL     1       0.787   3.854   1.657  1.00  0.00     0.018 C 
ATOM     17  C   UNL     1       1.085   4.955  -0.542  1.00  0.00     0.018 C 
ATOM     18  C   UNL     1       1.856   3.678  -2.738  1.00  0.00    -0.006 C 
ATOM     19  C   UNL     1       0.491   1.556  -2.431  1.00  0.00    -0.027 C 
ATOM     20  C   UNL     1       1.240   4.959  -2.076  1.00  0.00     0.013 C 
ATOM     21  C   UNL     1       3.402   3.781  -2.628  1.00  0.00     0.017 C 
ATOM     22  C   UNL     1       1.433   3.557  -4.308  1.00  0.00    -0.020 C 
ATOM     23  C   UNL     1      -0.206   1.706  -3.759  1.00  0.00     0.032 C 
ATOM     24  C   UNL     1      -0.088   3.146  -4.318  1.00  0.00     0.006 C 
ATOM     25  C   UNL     1       1.670   4.882  -5.080  1.00  0.00     0.008 C 
ATOM     26  C   UNL     1       2.313   2.486  -5.027  1.00  0.00     0.012 C 
ATOM     27  C   UNL     1      -0.969   3.466  -5.600  1.00  0.00    -0.025 C 
ATOM     28  C   UNL     1       0.957   4.937  -6.433  1.00  0.00     0.005 C 
ATOM     29  C   UNL     1      -0.902   2.297  -6.602  1.00  0.00     0.012 C 
ATOM     30  C   UNL     1      -2.454   3.631  -5.133  1.00  0.00     0.010 C 
ATOM     31  C   UNL     1      -0.557   4.860  -6.202  1.00  0.00     0.003 C 
ATOM     32  C   UNL     1      -3.403   4.138  -6.217  1.00  0.00     0.033 C 
ATOM     33  C   UNL     1      -1.450   5.399  -7.382  1.00  0.00    -0.006 C 
ATOM     34  C   UNL     1      -2.926   5.431  -6.882  1.00  0.00     0.120 C 
ATOM     35  C   UNL     1      -1.309   4.618  -8.706  1.00  0.00     0.014 C 
ATOM     36  C   UNL     1      -1.051   6.864  -7.725  1.00  0.00     0.014 C 
BRANCH  34  37
ATOM     37  O   UNL     1      -3.820   5.777  -7.942  1.00  0.00    -0.393 OA
ATOM     38  H   UNL     1      -3.798   5.086  -8.622  1.00  0.00     0.210 HD
ENDBRANCH  34  37
ENDBRANCH   5   8
ENDBRANCH   3   4
ENDBRANCH   2   3
ENDBRANCH   1   2
BRANCH   1  39
ATOM     39  C   UNL     1      -1.319  -1.553   1.010  1.00  0.00     0.116 C 
BRANCH  39  40
ATOM     40  N   UNL     1      -1.119  -1.978   2.391  1.00  0.00    -0.352 N 
ATOM     41  C   UNL     1      -1.037  -3.243   2.927  1.00  0.00     0.251 C 
ATOM     42  H   UNL     1      -1.029  -1.245   3.042  1.00  0.00     0.163 HD
ATOM     43  O   UNL     1      -0.873  -3.393   4.136  1.00  0.00    -0.269 OA
BRANCH  41  44
ATOM     44  C   UNL     1      -1.210  -4.422   2.057  1.00  0.00     0.039 A 
ATOM     45  C   UNL     1      -2.227  -5.332   2.360  1.00  0.00     0.014 A 
ATOM     46  C   UNL     1      -0.428  -4.591   0.913  1.00  0.00     0.014 A 
ATOM     47  C   UNL     1      -2.546  -6.341   1.447  1.00  0.00     0.010 A 
ATOM     48  C   UNL     1      -0.790  -5.554  -0.024  1.00  0.00     0.010 A 
ATOM     49  C   UNL     1      -1.874  -6.416   0.217  1.00  0.00    -0.014 A 
BRANCH  49  50
ATOM     50  C   UNL     1      -2.325  -7.326  -0.868  1.00  0.00     0.031 A 
ATOM     51  C   UNL     1      -1.403  -8.389  -1.394  1.00  0.00     0.074 A 
ATOM     52  C   UNL     1      -3.507  -7.095  -1.477  1.00  0.00     0.049 A 
ATOM     53  N   UNL     1      -1.539  -9.152  -2.446  1.00  0.00    -0.248 NA
ATOM     54  C   UNL     1      -0.146  -8.597  -0.656  1.00  0.00     0.031 C 
ATOM     55  C   UNL     1      -4.462  -6.049  -1.105  1.00  0.00     0.029 A 
ATOM     56  N   UNL     1      -4.088  -7.697  -2.567  1.00  0.00    -0.354 N 
ATOM     57  C   UNL     1      -0.367  -9.892  -2.530  1.00  0.00     0.074 A 
ATOM     58  C   UNL     1       0.476  -9.477  -1.429  1.00  0.00     0.031 C 
ATOM     59  C   UNL     1      -5.501  -6.075  -1.956  1.00  0.00     0.029 A 
ATOM     60  C   UNL     1      -5.271  -7.112  -2.957  1.00  0.00     0.049 A 
ATOM     61  H   UNL     1      -3.694  -8.474  -3.027  1.00  0.00     0.167 HD
ATOM     62  C   UNL     1      -0.031 -10.846  -3.431  1.00  0.00     0.034 A 
ATOM     63  C   UNL     1      -6.072  -7.365  -4.011  1.00  0.00     0.034 A 
ATOM     64  C   UNL     1      -0.895 -11.298  -4.487  1.00  0.00     0.049 A 
ATOM     65  C   UNL     1      -5.700  -8.469  -4.964  1.00  0.00     0.074 A 
ATOM     66  C   UNL     1      -0.680 -12.319  -5.396  1.00  0.00     0.029 A 
ATOM     67  N   UNL     1      -2.141 -10.762  -4.773  1.00  0.00    -0.354 N 
ATOM     68  N   UNL     1      -4.651  -9.254  -4.944  1.00  0.00    -0.248 NA
ATOM     69  C   UNL     1      -6.634  -8.744  -6.067  1.00  0.00     0.031 C 
ATOM     70  C   UNL     1      -1.795 -12.396  -6.237  1.00  0.00     0.029 A 
ATOM     71  C   UNL     1      -2.709 -11.431  -5.842  1.00  0.00     0.049 A 
ATOM     72  H   UNL     1      -2.560 -10.015  -4.287  1.00  0.00     0.167 HD
ATOM     73  C   UNL     1      -4.818 -10.141  -6.001  1.00  0.00     0.074 A 
ATOM     74  C   UNL     1      -6.075  -9.804  -6.637  1.00  0.00     0.031 C 
ATOM     75  C   UNL     1      -3.997 -11.136  -6.415  1.00  0.00     0.034 A 
BRANCH  62  76
ATOM     76  C   UNL     1       1.312 -11.509  -3.279  1.00  0.00     0.023 A 
ATOM     77  C   UNL     1       1.514 -12.427  -2.228  1.00  0.00     0.012 A 
ATOM     78  C   UNL     1       2.350 -11.272  -4.201  1.00  0.00     0.148 A 
ATOM     79  C   UNL     1       2.740 -13.072  -2.076  1.00  0.00     0.002 A 
ATOM     80  C   UNL     1       3.556 -11.950  -4.066  1.00  0.00     0.091 A 
ATOM     81  F   UNL     1       2.146 -10.380  -5.181  1.00  0.00    -0.205 F 
ATOM     82  C   UNL     1       3.756 -12.842  -3.000  1.00  0.00     0.022 A 
BRANCH  80  83
ATOM     83  S   UNL     1       4.897 -11.777  -5.249  1.00  0.00     0.127 S 
ATOM     84  O   UNL     1       5.842 -10.947  -4.504  1.00  0.00    -0.237 OA
ATOM     85  O   UNL     1       5.324 -13.164  -5.441  1.00  0.00    -0.237 OA
ATOM     86  O   UNL     1       4.310 -11.158  -6.429  1.00  0.00    -0.744 OA
ENDBRANCH  80  83
ENDBRANCH  62  76
BRANCH  63  87
ATOM     87  C   UNL     1      -7.342  -6.602  -4.183  1.00  0.00     0.023 A 
ATOM     88  C   UNL     1      -8.569  -7.254  -3.952  1.00  0.00     0.012 A 
ATOM     89  C   UNL     1      -7.345  -5.239  -4.536  1.00  0.00     0.148 A 
ATOM     90  C   UNL     1      -9.777  -6.572  -4.099  1.00  0.00     0.002 A 
ATOM     91  C   UNL     1      -8.550  -4.551  -4.629  1.00  0.00     0.091 A 
ATOM     92  F   UNL     1      -6.169  -4.638  -4.764  1.00  0.00    -0.205 F 
ATOM     93  C   UNL     1      -9.768  -5.219  -4.427  1.00  0.00     0.022 A 
BRANCH  91  94
ATOM     94  S   UNL     1      -8.624  -2.779  -4.918  1.00  0.00     0.127 S 
ATOM     95  O   UNL     1      -9.068  -2.720  -6.308  1.00  0.00    -0.237 OA
ATOM     96  O   UNL     1      -9.618  -2.350  -3.934  1.00  0.00    -0.237 OA
ATOM     97  O   UNL     1      -7.278  -2.287  -4.658  1.00  0.00    -0.744 OA
ENDBRANCH  91  94
ENDBRANCH  63  87
BRANCH  75  98
ATOM     98  C   UNL     1      -4.438 -11.981  -7.579  1.00  0.00     0.023 A 
ATOM     99  C   UNL     1      -4.342 -11.472  -8.888  1.00  0.00     0.012 A 
ATOM    100  C   UNL     1      -4.828 -13.320  -7.380  1.00  0.00     0.148 A 
ATOM    101  C   UNL     1      -4.640 -12.282  -9.983  1.00  0.00     0.002 A 
ATOM    102  C   UNL     1      -5.081 -14.133  -8.477  1.00  0.00     0.091 A 
ATOM    103  F   UNL     1      -4.929 -13.776  -6.122  1.00  0.00    -0.205 F 
ATOM    104  C   UNL     1      -4.994 -13.614  -9.779  1.00  0.00     0.022 A 
BRANCH 102 105
ATOM    105  S   UNL     1      -5.450 -15.884  -8.316  1.00  0.00     0.127 S 
ATOM    106  O   UNL     1      -6.860 -15.928  -8.700  1.00  0.00    -0.237 OA
ATOM    107  O   UNL     1      -4.535 -16.484  -9.288  1.00  0.00    -0.237 OA
ATOM    108  O   UNL     1      -5.170 -16.230  -6.929  1.00  0.00    -0.744 OA
ENDBRANCH 102 105
ENDBRANCH  75  98
ENDBRANCH  49  50
ENDBRANCH  41  44
ENDBRANCH  39  40
ENDBRANCH   1  39
TORSDOF 15
