REMARK SMILES Cc1ccc(C(N)=O)c(NCc2ccc(C(=O)NCCCCNC(=O)c3ccc(-c4c5nc(c(-c6cccc(S(=O)(=O)[O-])c6F)c6ccc([nH]6)c(-c6cccc(S(=O)(=O)[O-])c6F)c6nc(c(-c7cccc(S(=O)(=O)[O-])c7F)c7ccc4[nH]7)C=C6)C=C5)cc3)o2)n1
REMARK SMILES IDX 20 1 19 2 18 3 16 4 17 5 15 7 12 8 13 9 89 10 14 11 11 12
REMARK SMILES IDX 10 13 9 15 1 16 2 17 3 18 90 19 4 20 5 21 6 22 7 23 8 24
REMARK SMILES IDX 21 27 22 28 23 29 24 30 25 32 26 33 27 34 88 35 28 36 87 37
REMARK SMILES IDX 29 38 30 39 31 40 81 41 32 42 86 43 80 44 82 45 33 46 85 47
REMARK SMILES IDX 79 48 78 49 34 51 66 52 46 53 65 54 47 55 50 56 64 57 83 58
REMARK SMILES IDX 48 59 49 60 63 62 84 63 51 64 35 65 36 66 44 67 37 68 39 69
REMARK SMILES IDX 45 70 38 71 40 72 41 73 42 74 43 75 67 76 68 77 76 78 69 79
REMARK SMILES IDX 71 80 77 81 70 82 72 83 73 84 74 85 75 86 52 87 53 88 61 89
REMARK SMILES IDX 54 90 56 91 62 92 55 93 57 94 58 95 59 96 60 97
REMARK H PARENT 18 6 10 14 7 25 7 26 23 31 82 50 50 61
REMARK Flexibility Score: inf
ROOT
ATOM      1  C   UNL     1      -2.702   7.084  -5.965  1.00  0.00     0.023 C 
ENDROOT
BRANCH   1   2
ATOM      2  C   UNL     1      -1.264   7.035  -5.451  1.00  0.00     0.116 C 
BRANCH   2   3
ATOM      3  N   UNL     1      -1.121   7.788  -4.225  1.00  0.00    -0.349 N 
ATOM      4  C   UNL     1      -1.063   7.376  -2.913  1.00  0.00     0.286 C 
ATOM      5  O   UNL     1      -0.851   8.258  -2.079  1.00  0.00    -0.266 OA
ATOM      6  H   UNL     1      -1.055   8.763  -4.350  1.00  0.00     0.163 HD
BRANCH   4   7
ATOM      7  C   UNL     1      -1.224   5.977  -2.551  1.00  0.00     0.191 A 
ATOM      8  C   UNL     1      -1.040   4.291  -1.124  1.00  0.00     0.124 A 
ATOM      9  C   UNL     1      -1.552   3.760  -2.286  1.00  0.00     0.048 A 
ATOM     10  O   UNL     1      -0.828   5.625  -1.280  1.00  0.00    -0.454 OA
ATOM     11  C   UNL     1      -1.727   4.846  -3.173  1.00  0.00     0.056 A 
BRANCH   8  12
ATOM     12  C   UNL     1      -0.731   3.714   0.215  1.00  0.00     0.190 C 
BRANCH  12  13
ATOM     13  N   UNL     1      -1.524   2.530   0.516  1.00  0.00    -0.362 N 
ATOM     14  H   UNL     1      -2.434   2.632   0.876  1.00  0.00     0.162 HD
BRANCH  13  15
ATOM     15  C   UNL     1      -1.010   1.263   0.302  1.00  0.00     0.139 A 
ATOM     16  C   UNL     1       2.396  -0.107  -0.030  1.00  0.00     0.067 C 
ATOM     17  C   UNL     1       0.900  -0.069   0.039  1.00  0.00     0.040 A 
ATOM     18  C   UNL     1       0.146  -1.226  -0.065  1.00  0.00     0.024 A 
ATOM     19  N   UNL     1       0.336   1.151   0.203  1.00  0.00    -0.236 NA
ATOM     20  C   UNL     1      -1.237  -1.118   0.004  1.00  0.00     0.019 A 
ATOM     21  C   UNL     1      -1.835   0.137   0.179  1.00  0.00     0.081 A 
BRANCH  21  22
ATOM     22  C   UNL     1      -3.322   0.175   0.192  1.00  0.00     0.252 C 
ATOM     23  N   UNL     1      -3.941   1.337  -0.172  1.00  0.00    -0.365 N 
ATOM     24  O   UNL     1      -3.983  -0.818   0.477  1.00  0.00    -0.269 OA
ATOM     25  H   UNL     1      -3.404   2.130  -0.400  1.00  0.00     0.159 HD
ATOM     26  H   UNL     1      -4.923   1.382  -0.206  1.00  0.00     0.159 HD
ENDBRANCH  21  22
ENDBRANCH  13  15
ENDBRANCH  12  13
ENDBRANCH   8  12
ENDBRANCH   4   7
ENDBRANCH   2   3
ENDBRANCH   1   2
BRANCH   1  27
ATOM     27  C   UNL     1      -3.033   8.362  -6.743  1.00  0.00     0.023 C 
BRANCH  27  28
ATOM     28  C   UNL     1      -2.185   8.592  -7.990  1.00  0.00     0.116 C 
BRANCH  28  29
ATOM     29  N   UNL     1      -2.253   7.493  -8.945  1.00  0.00    -0.352 N 
ATOM     30  C   UNL     1      -2.221   7.564 -10.318  1.00  0.00     0.251 C 
ATOM     31  H   UNL     1      -2.333   6.591  -8.560  1.00  0.00     0.163 HD
ATOM     32  O   UNL     1      -2.405   6.561 -11.000  1.00  0.00    -0.269 OA
BRANCH  30  33
ATOM     33  C   UNL     1      -1.996   8.877 -10.955  1.00  0.00     0.039 A 
ATOM     34  C   UNL     1      -2.898   9.328 -11.920  1.00  0.00     0.014 A 
ATOM     35  C   UNL     1      -0.935   9.684 -10.538  1.00  0.00     0.014 A 
ATOM     36  C   UNL     1      -2.774  10.626 -12.420  1.00  0.00     0.010 A 
ATOM     37  C   UNL     1      -0.862  11.000 -10.978  1.00  0.00     0.010 A 
ATOM     38  C   UNL     1      -1.779  11.484 -11.925  1.00  0.00    -0.014 A 
BRANCH  38  39
ATOM     39  C   UNL     1      -1.670  12.896 -12.372  1.00  0.00     0.031 A 
ATOM     40  C   UNL     1      -0.418  13.366 -13.061  1.00  0.00     0.074 A 
ATOM     41  C   UNL     1      -2.645  13.775 -12.065  1.00  0.00     0.049 A 
ATOM     42  N   UNL     1      -0.079  14.575 -13.421  1.00  0.00    -0.248 NA
ATOM     43  C   UNL     1       0.602  12.344 -13.357  1.00  0.00     0.031 C 
ATOM     44  C   UNL     1      -3.878  13.455 -11.341  1.00  0.00     0.029 A 
ATOM     45  N   UNL     1      -2.736  15.126 -12.291  1.00  0.00    -0.354 N 
ATOM     46  C   UNL     1       1.205  14.469 -13.943  1.00  0.00     0.074 A 
ATOM     47  C   UNL     1       1.597  13.083 -13.824  1.00  0.00     0.031 C 
ATOM     48  C   UNL     1      -4.598  14.577 -11.182  1.00  0.00     0.029 A 
ATOM     49  C   UNL     1      -3.865  15.701 -11.754  1.00  0.00     0.049 A 
ATOM     50  H   UNL     1      -2.057  15.636 -12.790  1.00  0.00     0.167 HD
ATOM     51  C   UNL     1       1.978  15.433 -14.497  1.00  0.00     0.034 A 
ATOM     52  C   UNL     1      -4.255  16.991 -11.710  1.00  0.00     0.034 A 
ATOM     53  C   UNL     1       1.567  16.802 -14.648  1.00  0.00     0.049 A 
ATOM     54  C   UNL     1      -3.387  18.039 -12.353  1.00  0.00     0.074 A 
ATOM     55  C   UNL     1       2.243  17.838 -15.267  1.00  0.00     0.029 A 
ATOM     56  N   UNL     1       0.378  17.329 -14.169  1.00  0.00    -0.354 N 
ATOM     57  N   UNL     1      -2.237  17.896 -12.965  1.00  0.00    -0.248 NA
ATOM     58  C   UNL     1      -3.885  19.422 -12.330  1.00  0.00     0.031 C 
ATOM     59  C   UNL     1       1.477  19.000 -15.133  1.00  0.00     0.029 A 
ATOM     60  C   UNL     1       0.303  18.677 -14.471  1.00  0.00     0.049 A 
ATOM     61  H   UNL     1      -0.312  16.819 -13.685  1.00  0.00     0.167 HD
ATOM     62  C   UNL     1      -1.899  19.157 -13.443  1.00  0.00     0.074 A 
ATOM     63  C   UNL     1      -2.971  20.051 -13.056  1.00  0.00     0.031 C 
ATOM     64  C   UNL     1      -0.799  19.541 -14.135  1.00  0.00     0.034 A 
BRANCH  51  65
ATOM     65  C   UNL     1       3.333  15.033 -15.018  1.00  0.00     0.023 A 
ATOM     66  C   UNL     1       3.429  14.224 -16.169  1.00  0.00     0.012 A 
ATOM     67  C   UNL     1       4.511  15.504 -14.406  1.00  0.00     0.148 A 
ATOM     68  C   UNL     1       4.673  13.858 -16.680  1.00  0.00     0.002 A 
ATOM     69  C   UNL     1       5.747  15.177 -14.950  1.00  0.00     0.091 A 
ATOM     70  F   UNL     1       4.401  16.255 -13.301  1.00  0.00    -0.205 F 
ATOM     71  C   UNL     1       5.830  14.343 -16.078  1.00  0.00     0.022 A 
BRANCH  69  72
ATOM     72  S   UNL     1       7.293  15.819 -14.300  1.00  0.00     0.127 S 
ATOM     73  O   UNL     1       7.899  14.614 -13.736  1.00  0.00    -0.237 OA
ATOM     74  O   UNL     1       7.947  16.322 -15.508  1.00  0.00    -0.237 OA
ATOM     75  O   UNL     1       6.928  16.845 -13.333  1.00  0.00    -0.744 OA
ENDBRANCH  69  72
ENDBRANCH  51  65
BRANCH  52  76
ATOM     76  C   UNL     1      -5.554  17.359 -11.078  1.00  0.00     0.023 A 
ATOM     77  C   UNL     1      -6.613  17.816 -11.887  1.00  0.00     0.012 A 
ATOM     78  C   UNL     1      -5.752  17.247  -9.688  1.00  0.00     0.148 A 
ATOM     79  C   UNL     1      -7.832  18.192 -11.320  1.00  0.00     0.002 A 
ATOM     80  C   UNL     1      -6.987  17.568  -9.136  1.00  0.00     0.091 A 
ATOM     81  F   UNL     1      -4.730  16.817  -8.934  1.00  0.00    -0.205 F 
ATOM     82  C   UNL     1      -8.021  18.059  -9.947  1.00  0.00     0.022 A 
BRANCH  80  83
ATOM     83  S   UNL     1      -7.364  17.308  -7.400  1.00  0.00     0.127 S 
ATOM     84  O   UNL     1      -7.479  18.679  -6.910  1.00  0.00    -0.237 OA
ATOM     85  O   UNL     1      -8.627  16.571  -7.474  1.00  0.00    -0.237 OA
ATOM     86  O   UNL     1      -6.250  16.536  -6.866  1.00  0.00    -0.744 OA
ENDBRANCH  80  83
ENDBRANCH  52  76
BRANCH  64  87
ATOM     87  C   UNL     1      -0.715  20.974 -14.589  1.00  0.00     0.023 A 
ATOM     88  C   UNL     1      -0.464  22.002 -13.659  1.00  0.00     0.012 A 
ATOM     89  C   UNL     1      -0.791  21.285 -15.962  1.00  0.00     0.148 A 
ATOM     90  C   UNL     1      -0.319  23.321 -14.087  1.00  0.00     0.002 A 
ATOM     91  C   UNL     1      -0.591  22.593 -16.385  1.00  0.00     0.091 A 
ATOM     92  F   UNL     1      -1.048  20.294 -16.828  1.00  0.00    -0.205 F 
ATOM     93  C   UNL     1      -0.368  23.614 -15.448  1.00  0.00     0.022 A 
BRANCH  91  94
ATOM     94  S   UNL     1      -0.534  23.045 -18.122  1.00  0.00     0.127 S 
ATOM     95  O   UNL     1      -1.764  23.822 -18.268  1.00  0.00    -0.237 OA
ATOM     96  O   UNL     1       0.698  23.832 -18.195  1.00  0.00    -0.237 OA
ATOM     97  O   UNL     1      -0.498  21.793 -18.865  1.00  0.00    -0.744 OA
ENDBRANCH  91  94
ENDBRANCH  64  87
ENDBRANCH  38  39
ENDBRANCH  30  33
ENDBRANCH  28  29
ENDBRANCH  27  28
ENDBRANCH   1  27
TORSDOF 18
