REMARK SMILES COc1cc(/C=C2/C(=O)NN(c3ccc(Cl)c(Cl)c3)C2=O)ccc1OCC(=O)NCCCCNC(=O)c1ccc(-c2c3nc(c(-c4cccc(S(=O)(=O)[O-])c4F)c4ccc([nH]4)c(-c4cccc(S(=O)(=O)[O-])c4F)c4nc(c(-c5cccc(S(=O)(=O)[O-])c5F)c5ccc2[nH]5)C=C4)C=C3)cc1
REMARK SMILES IDX 31 1 30 2 29 3 27 4 28 5 26 7 25 8 24 9 3 10 4 11 5 12 23 13
REMARK SMILES IDX 22 14 2 15 1 16 6 17 7 18 8 19 20 20 9 21 10 22 11 23 21 24
REMARK SMILES IDX 12 26 13 27 19 28 14 29 17 30 15 31 18 32 16 33 32 34 33 35
REMARK SMILES IDX 34 36 35 37 36 39 37 40 38 41 99 42 39 43 98 44 40 45 41 46
REMARK SMILES IDX 42 47 92 48 43 49 97 50 91 51 93 52 44 53 96 54 90 55 89 56
REMARK SMILES IDX 45 58 77 59 57 60 76 61 58 62 61 63 75 64 94 65 59 66 60 67
REMARK SMILES IDX 74 69 95 70 62 71 46 72 47 73 55 74 48 75 50 76 56 77 49 78
REMARK SMILES IDX 51 79 52 80 53 81 54 82 78 83 79 84 87 85 80 86 82 87 88 88
REMARK SMILES IDX 81 89 83 90 84 91 85 92 86 93 63 94 64 95 72 96 65 97 67 98
REMARK SMILES IDX 73 99 66 100 68 101 69 102 70 103 71 104
REMARK H PARENT 29 6 10 25 34 38 93 57 61 68
REMARK Flexibility Score: inf
ROOT
ATOM      1  C   UNL     1       2.930  -2.365   3.552  1.00  0.00     0.023 C 
ENDROOT
BRANCH   1   2
ATOM      2  C   UNL     1       3.412  -2.331   2.104  1.00  0.00     0.116 C 
BRANCH   2   3
ATOM      3  N   UNL     1       2.334  -2.211   1.144  1.00  0.00    -0.353 N 
ATOM      4  C   UNL     1       2.138  -1.231   0.214  1.00  0.00     0.257 C 
ATOM      5  O   UNL     1       1.335  -1.451  -0.696  1.00  0.00    -0.271 OA
ATOM      6  H   UNL     1       1.658  -2.927   1.165  1.00  0.00     0.163 HD
BRANCH   4   7
ATOM      7  C   UNL     1       2.964   0.059   0.270  1.00  0.00     0.329 C 
BRANCH   7   8
ATOM      8  O   UNL     1       3.165   0.655   1.537  1.00  0.00    -0.480 OA
BRANCH   8   9
ATOM      9  C   UNL     1       2.125   1.228   2.212  1.00  0.00     0.161 A 
ATOM     10  C   UNL     1       0.901   1.689   1.713  1.00  0.00     0.161 A 
ATOM     11  C   UNL     1      -0.003   2.351   2.563  1.00  0.00     0.058 A 
ATOM     12  C   UNL     1       0.309   2.551   3.913  1.00  0.00    -0.021 A 
ATOM     13  C   UNL     1       2.405   1.398   3.573  1.00  0.00     0.051 A 
ATOM     14  C   UNL     1       1.504   2.038   4.423  1.00  0.00     0.012 A 
BRANCH  10  15
ATOM     15  O   UNL     1       0.645   1.675   0.368  1.00  0.00    -0.493 OA
ATOM     16  C   UNL     1      -0.468   0.846   0.031  1.00  0.00     0.278 C 
ENDBRANCH  10  15
BRANCH  12  17
ATOM     17  C   UNL     1      -0.504   3.430   4.759  1.00  0.00     0.028 C 
ATOM     18  C   UNL     1      -0.151   4.702   5.002  1.00  0.00     0.109 C 
ATOM     19  C   UNL     1      -0.863   5.591   5.948  1.00  0.00     0.275 C 
ATOM     20  C   UNL     1       1.005   5.456   4.444  1.00  0.00     0.282 C 
ATOM     21  O   UNL     1      -1.915   5.382   6.524  1.00  0.00    -0.267 OA
ATOM     22  N   UNL     1      -0.083   6.727   6.022  1.00  0.00    -0.256 N 
ATOM     23  N   UNL     1       0.975   6.681   5.118  1.00  0.00    -0.217 N 
ATOM     24  O   UNL     1       1.808   5.070   3.612  1.00  0.00    -0.267 OA
ATOM     25  H   UNL     1      -0.254   7.477   6.638  1.00  0.00     0.192 HD
BRANCH  23  26
ATOM     26  C   UNL     1       1.870   7.747   4.910  1.00  0.00     0.068 A 
ATOM     27  C   UNL     1       2.244   8.582   5.968  1.00  0.00     0.030 A 
ATOM     28  C   UNL     1       2.410   7.977   3.637  1.00  0.00     0.050 A 
ATOM     29  C   UNL     1       3.174   9.607   5.760  1.00  0.00     0.024 A 
ATOM     30  C   UNL     1       3.300   9.033   3.416  1.00  0.00     0.061 A 
ATOM     31  C   UNL     1       3.696   9.841   4.484  1.00  0.00     0.059 A 
ATOM     32  Cl  UNL     1       3.851   9.295   1.799  1.00  0.00    -0.083 Cl
ATOM     33  Cl  UNL     1       4.821  11.138   4.296  1.00  0.00    -0.083 Cl
ENDBRANCH  23  26
ENDBRANCH  12  17
ENDBRANCH   8   9
ENDBRANCH   7   8
ENDBRANCH   4   7
ENDBRANCH   2   3
ENDBRANCH   1   2
BRANCH   1  34
ATOM     34  C   UNL     1       1.948  -3.484   3.898  1.00  0.00     0.023 C 
BRANCH  34  35
ATOM     35  C   UNL     1       2.332  -4.876   3.415  1.00  0.00     0.116 C 
BRANCH  35  36
ATOM     36  N   UNL     1       3.647  -5.298   3.875  1.00  0.00    -0.352 N 
ATOM     37  C   UNL     1       4.023  -6.477   4.470  1.00  0.00     0.251 C 
ATOM     38  H   UNL     1       4.371  -4.644   3.741  1.00  0.00     0.163 HD
ATOM     39  O   UNL     1       5.165  -6.609   4.899  1.00  0.00    -0.269 OA
BRANCH  37  40
ATOM     40  C   UNL     1       3.039  -7.570   4.622  1.00  0.00     0.039 A 
ATOM     41  C   UNL     1       2.927  -8.206   5.860  1.00  0.00     0.014 A 
ATOM     42  C   UNL     1       2.214  -7.949   3.559  1.00  0.00     0.014 A 
ATOM     43  C   UNL     1       1.941  -9.176   6.051  1.00  0.00     0.010 A 
ATOM     44  C   UNL     1       1.180  -8.855   3.776  1.00  0.00     0.010 A 
ATOM     45  C   UNL     1       1.032  -9.481   5.024  1.00  0.00    -0.014 A 
BRANCH  45  46
ATOM     46  C   UNL     1      -0.078 -10.445   5.238  1.00  0.00     0.031 A 
ATOM     47  C   UNL     1      -0.156 -11.706   4.417  1.00  0.00     0.074 A 
ATOM     48  C   UNL     1      -1.053 -10.156   6.125  1.00  0.00     0.049 A 
ATOM     49  N   UNL     1      -1.078 -12.633   4.416  1.00  0.00    -0.248 NA
ATOM     50  C   UNL     1       0.935 -11.947   3.456  1.00  0.00     0.031 C 
ATOM     51  C   UNL     1      -1.128  -8.937   6.936  1.00  0.00     0.029 A 
ATOM     52  N   UNL     1      -2.182 -10.854   6.477  1.00  0.00    -0.354 N 
ATOM     53  C   UNL     1      -0.693 -13.553   3.448  1.00  0.00     0.074 A 
ATOM     54  C   UNL     1       0.523 -13.050   2.848  1.00  0.00     0.031 C 
ATOM     55  C   UNL     1      -2.236  -8.978   7.693  1.00  0.00     0.029 A 
ATOM     56  C   UNL     1      -2.972 -10.202   7.397  1.00  0.00     0.049 A 
ATOM     57  H   UNL     1      -2.405 -11.739   6.107  1.00  0.00     0.167 HD
ATOM     58  C   UNL     1      -1.276 -14.728   3.112  1.00  0.00     0.034 A 
ATOM     59  C   UNL     1      -4.162 -10.545   7.929  1.00  0.00     0.034 A 
ATOM     60  C   UNL     1      -2.469 -15.241   3.729  1.00  0.00     0.049 A 
ATOM     61  C   UNL     1      -4.788 -11.857   7.529  1.00  0.00     0.074 A 
ATOM     62  C   UNL     1      -3.110 -16.444   3.490  1.00  0.00     0.029 A 
ATOM     63  N   UNL     1      -3.202 -14.583   4.703  1.00  0.00    -0.354 N 
ATOM     64  N   UNL     1      -4.335 -12.773   6.708  1.00  0.00    -0.248 NA
ATOM     65  C   UNL     1      -6.072 -12.198   8.158  1.00  0.00     0.031 C 
ATOM     66  C   UNL     1      -4.245 -16.503   4.305  1.00  0.00     0.029 A 
ATOM     67  C   UNL     1      -4.289 -15.354   5.077  1.00  0.00     0.049 A 
ATOM     68  H   UNL     1      -2.982 -13.698   5.075  1.00  0.00     0.167 HD
ATOM     69  C   UNL     1      -5.253 -13.817   6.761  1.00  0.00     0.074 A 
ATOM     70  C   UNL     1      -6.274 -13.429   7.710  1.00  0.00     0.031 C 
ATOM     71  C   UNL     1      -5.259 -14.985   6.074  1.00  0.00     0.034 A 
BRANCH  58  72
ATOM     72  C   UNL     1      -0.597 -15.579   2.070  1.00  0.00     0.023 A 
ATOM     73  C   UNL     1       0.610 -16.232   2.392  1.00  0.00     0.012 A 
ATOM     74  C   UNL     1      -1.190 -15.803   0.812  1.00  0.00     0.148 A 
ATOM     75  C   UNL     1       1.231 -17.074   1.471  1.00  0.00     0.002 A 
ATOM     76  C   UNL     1      -0.589 -16.680  -0.084  1.00  0.00     0.091 A 
ATOM     77  F   UNL     1      -2.330 -15.162   0.519  1.00  0.00    -0.205 F 
ATOM     78  C   UNL     1       0.626 -17.307   0.240  1.00  0.00     0.022 A 
BRANCH  76  79
ATOM     79  S   UNL     1      -1.324 -17.114  -1.665  1.00  0.00     0.127 S 
ATOM     80  O   UNL     1      -0.347 -16.565  -2.604  1.00  0.00    -0.237 OA
ATOM     81  O   UNL     1      -1.350 -18.575  -1.598  1.00  0.00    -0.237 OA
ATOM     82  O   UNL     1      -2.633 -16.478  -1.691  1.00  0.00    -0.744 OA
ENDBRANCH  76  79
ENDBRANCH  58  72
BRANCH  59  83
ATOM     83  C   UNL     1      -4.835  -9.664   8.927  1.00  0.00     0.023 A 
ATOM     84  C   UNL     1      -4.999 -10.114  10.253  1.00  0.00     0.012 A 
ATOM     85  C   UNL     1      -5.344  -8.402   8.566  1.00  0.00     0.148 A 
ATOM     86  C   UNL     1      -5.708  -9.352  11.182  1.00  0.00     0.002 A 
ATOM     87  C   UNL     1      -5.996  -7.621   9.513  1.00  0.00     0.091 A 
ATOM     88  F   UNL     1      -5.189  -7.992   7.299  1.00  0.00    -0.205 F 
ATOM     89  C   UNL     1      -6.201  -8.104  10.815  1.00  0.00     0.022 A 
BRANCH  87  90
ATOM     90  S   UNL     1      -6.549  -5.949   9.161  1.00  0.00     0.127 S 
ATOM     91  O   UNL     1      -7.997  -6.124   9.076  1.00  0.00    -0.237 OA
ATOM     92  O   UNL     1      -6.084  -5.220  10.341  1.00  0.00    -0.237 OA
ATOM     93  O   UNL     1      -5.881  -5.570   7.923  1.00  0.00    -0.744 OA
ENDBRANCH  87  90
ENDBRANCH  59  83
BRANCH  71  94
ATOM     94  C   UNL     1      -6.365 -15.965   6.369  1.00  0.00     0.023 A 
ATOM     95  C   UNL     1      -7.682 -15.694   5.949  1.00  0.00     0.012 A 
ATOM     96  C   UNL     1      -6.080 -17.190   7.005  1.00  0.00     0.148 A 
ATOM     97  C   UNL     1      -8.706 -16.608   6.194  1.00  0.00     0.002 A 
ATOM     98  C   UNL     1      -7.094 -18.120   7.195  1.00  0.00     0.091 A 
ATOM     99  F   UNL     1      -4.823 -17.422   7.410  1.00  0.00    -0.205 F 
ATOM    100  C   UNL     1      -8.410 -17.825   6.805  1.00  0.00     0.022 A 
BRANCH  98 101
ATOM    101  S   UNL     1      -6.790 -19.752   7.882  1.00  0.00     0.127 S 
ATOM    102  O   UNL     1      -7.450 -19.654   9.183  1.00  0.00    -0.237 OA
ATOM    103  O   UNL     1      -7.466 -20.621   6.918  1.00  0.00    -0.237 OA
ATOM    104  O   UNL     1      -5.343 -19.907   7.928  1.00  0.00    -0.744 OA
ENDBRANCH  98 101
ENDBRANCH  71  94
ENDBRANCH  45  46
ENDBRANCH  37  40
ENDBRANCH  35  36
ENDBRANCH  34  35
ENDBRANCH   1  34
TORSDOF 19
