REMARK SMILES CN1C(=O)C[C@@H](C(=O)NCCCCNC(=O)c2ccc(-c3c4nc(c(-c5cccc(S(=O)(=O)[O-])c5F)c5ccc([nH]5)c(-c5cccc(S(=O)(=O)[O-])c5F)c5nc(c(-c6cccc(S(=O)(=O)[O-])c6F)c6ccc3[nH]6)C=C5)C=C4)cc2)C12CCN(C(=O)c1cccc3ccccc13)CC2
REMARK SMILES IDX 12 1 11 2 10 3 9 4 7 5 8 6 6 8 1 9 2 10 3 11 80 12 4 13 5 14
REMARK SMILES IDX 81 15 97 16 82 17 96 18 83 19 84 20 85 21 86 22 87 23 95 24
REMARK SMILES IDX 88 25 90 26 94 27 89 28 91 29 93 30 92 31 13 32 14 33 15 34
REMARK SMILES IDX 16 36 17 37 18 38 79 39 19 40 78 41 20 42 21 43 22 44 72 45
REMARK SMILES IDX 23 46 77 47 71 48 73 49 24 50 76 51 70 52 69 53 25 55 57 56
REMARK SMILES IDX 37 57 56 58 38 59 41 60 55 61 74 62 39 63 40 64 54 66 75 67
REMARK SMILES IDX 42 68 26 69 27 70 35 71 28 72 30 73 36 74 29 75 31 76 32 77
REMARK SMILES IDX 33 78 34 79 58 80 59 81 67 82 60 83 62 84 68 85 61 86 63 87
REMARK SMILES IDX 64 88 65 89 66 90 43 91 44 92 52 93 45 94 47 95 53 96 46 97
REMARK SMILES IDX 48 98 49 99 50 100 51 101
REMARK H PARENT 9 7 14 35 73 54 41 65
REMARK Flexibility Score: inf
ROOT
ATOM      1  C   UNL     1      -2.896   2.562   2.475  1.00  0.00     0.023 C 
ENDROOT
BRANCH   1   2
ATOM      2  C   UNL     1      -1.690   1.765   1.999  1.00  0.00     0.023 C 
BRANCH   2   3
ATOM      3  C   UNL     1      -1.092   0.825   3.054  1.00  0.00     0.116 C 
BRANCH   3   4
ATOM      4  N   UNL     1      -1.943  -0.290   3.438  1.00  0.00    -0.356 N 
ATOM      5  C   UNL     1      -1.830  -1.637   3.296  1.00  0.00     0.226 C 
ATOM      6  O   UNL     1      -2.703  -2.323   3.840  1.00  0.00    -0.275 OA
ATOM      7  H   UNL     1      -2.770  -0.012   3.894  1.00  0.00     0.163 HD
BRANCH   5   8
ATOM      8  C   UNL     1      -0.746  -2.352   2.482  1.00  0.00     0.113 C 
ATOM      9  C   UNL     1       0.883  -0.228  -0.126  1.00  0.00     0.147 C 
ATOM     10  N   UNL     1       0.539  -1.124   0.963  1.00  0.00    -0.339 N 
ATOM     11  C   UNL     1       1.345  -1.254   2.089  1.00  0.00     0.223 C 
ATOM     12  C   UNL     1      -0.641  -2.006   0.980  1.00  0.00     0.058 C 
ATOM     13  O   UNL     1       2.410  -0.702   2.291  1.00  0.00    -0.275 OA
ATOM     14  C   UNL     1       0.652  -2.160   3.069  1.00  0.00     0.116 C 
ATOM     15  C   UNL     1      -1.930  -1.376   0.418  1.00  0.00     0.051 C 
ATOM     16  C   UNL     1      -0.303  -3.252   0.103  1.00  0.00     0.051 C 
ATOM     17  C   UNL     1      -3.084  -2.369   0.309  1.00  0.00     0.122 C 
ATOM     18  C   UNL     1      -1.506  -4.152  -0.198  1.00  0.00     0.122 C 
ATOM     19  N   UNL     1      -2.670  -3.379  -0.630  1.00  0.00    -0.338 N 
ATOM     20  C   UNL     1      -3.172  -3.514  -1.919  1.00  0.00     0.254 C 
ATOM     21  O   UNL     1      -2.587  -4.175  -2.779  1.00  0.00    -0.269 OA
BRANCH  20  22
ATOM     22  C   UNL     1      -4.529  -3.010  -2.284  1.00  0.00     0.047 A 
ATOM     23  C   UNL     1      -5.474  -4.040  -2.433  1.00  0.00     0.014 A 
ATOM     24  C   UNL     1      -4.841  -1.678  -2.692  1.00  0.00    -0.006 A 
ATOM     25  C   UNL     1      -6.692  -3.796  -3.055  1.00  0.00     0.001 A 
ATOM     26  C   UNL     1      -6.069  -1.468  -3.375  1.00  0.00    -0.018 A 
ATOM     27  C   UNL     1      -4.050  -0.528  -2.458  1.00  0.00     0.009 A 
ATOM     28  C   UNL     1      -6.963  -2.531  -3.565  1.00  0.00     0.009 A 
ATOM     29  C   UNL     1      -6.411  -0.194  -3.859  1.00  0.00     0.009 A 
ATOM     30  C   UNL     1      -4.463   0.756  -2.835  1.00  0.00     0.001 A 
ATOM     31  C   UNL     1      -5.627   0.917  -3.568  1.00  0.00     0.001 A 
ENDBRANCH  20  22
ENDBRANCH   5   8
ENDBRANCH   3   4
ENDBRANCH   2   3
ENDBRANCH   1   2
BRANCH   1  32
ATOM     32  C   UNL     1      -2.591   3.440   3.675  1.00  0.00     0.116 C 
BRANCH  32  33
ATOM     33  N   UNL     1      -1.422   4.287   3.454  1.00  0.00    -0.352 N 
ATOM     34  C   UNL     1      -1.299   5.641   3.636  1.00  0.00     0.251 C 
ATOM     35  H   UNL     1      -0.616   3.825   3.131  1.00  0.00     0.163 HD
ATOM     36  O   UNL     1      -0.320   6.242   3.211  1.00  0.00    -0.269 OA
BRANCH  34  37
ATOM     37  C   UNL     1      -2.380   6.349   4.339  1.00  0.00     0.039 A 
ATOM     38  C   UNL     1      -2.896   7.522   3.793  1.00  0.00     0.014 A 
ATOM     39  C   UNL     1      -2.927   5.791   5.498  1.00  0.00     0.014 A 
ATOM     40  C   UNL     1      -4.014   8.106   4.384  1.00  0.00     0.010 A 
ATOM     41  C   UNL     1      -4.104   6.309   6.012  1.00  0.00     0.010 A 
ATOM     42  C   UNL     1      -4.648   7.482   5.473  1.00  0.00    -0.014 A 
BRANCH  42  43
ATOM     43  C   UNL     1      -5.884   8.043   6.065  1.00  0.00     0.031 A 
ATOM     44  C   UNL     1      -5.900   8.459   7.510  1.00  0.00     0.074 A 
ATOM     45  C   UNL     1      -7.006   8.103   5.323  1.00  0.00     0.049 A 
ATOM     46  N   UNL     1      -6.888   8.946   8.213  1.00  0.00    -0.248 NA
ATOM     47  C   UNL     1      -4.656   8.273   8.278  1.00  0.00     0.031 C 
ATOM     48  C   UNL     1      -7.134   7.638   3.939  1.00  0.00     0.029 A 
ATOM     49  N   UNL     1      -8.260   8.561   5.635  1.00  0.00    -0.354 N 
ATOM     50  C   UNL     1      -6.398   9.091   9.505  1.00  0.00     0.074 A 
ATOM     51  C   UNL     1      -5.041   8.593   9.503  1.00  0.00     0.031 C 
ATOM     52  C   UNL     1      -8.389   7.855   3.516  1.00  0.00     0.029 A 
ATOM     53  C   UNL     1      -9.164   8.439   4.606  1.00  0.00     0.049 A 
ATOM     54  H   UNL     1      -8.492   8.942   6.513  1.00  0.00     0.167 HD
ATOM     55  C   UNL     1      -7.009   9.622  10.588  1.00  0.00     0.034 A 
ATOM     56  C   UNL     1     -10.471   8.759   4.550  1.00  0.00     0.034 A 
ATOM     57  C   UNL     1      -8.346  10.149  10.572  1.00  0.00     0.049 A 
ATOM     58  C   UNL     1     -11.115   9.386   5.756  1.00  0.00     0.074 A 
ATOM     59  C   UNL     1      -9.028  10.794  11.587  1.00  0.00     0.029 A 
ATOM     60  N   UNL     1      -9.209  10.079   9.489  1.00  0.00    -0.354 N 
ATOM     61  N   UNL     1     -10.585   9.670   6.921  1.00  0.00    -0.248 NA
ATOM     62  C   UNL     1     -12.527   9.771   5.627  1.00  0.00     0.031 C 
ATOM     63  C   UNL     1     -10.318  11.081  11.129  1.00  0.00     0.029 A 
ATOM     64  C   UNL     1     -10.424  10.653   9.815  1.00  0.00     0.049 A 
ATOM     65  H   UNL     1      -8.989   9.679   8.616  1.00  0.00     0.167 HD
ATOM     66  C   UNL     1     -11.586  10.297   7.653  1.00  0.00     0.074 A 
ATOM     67  C   UNL     1     -12.746  10.373   6.788  1.00  0.00     0.031 C 
ATOM     68  C   UNL     1     -11.555  10.757   8.928  1.00  0.00     0.034 A 
BRANCH  55  69
ATOM     69  C   UNL     1      -6.220   9.698  11.869  1.00  0.00     0.023 A 
ATOM     70  C   UNL     1      -5.125  10.583  11.967  1.00  0.00     0.012 A 
ATOM     71  C   UNL     1      -6.586   8.928  12.989  1.00  0.00     0.148 A 
ATOM     72  C   UNL     1      -4.384  10.670  13.144  1.00  0.00     0.002 A 
ATOM     73  C   UNL     1      -5.874   9.059  14.176  1.00  0.00     0.091 A 
ATOM     74  F   UNL     1      -7.613   8.075  12.871  1.00  0.00    -0.205 F 
ATOM     75  C   UNL     1      -4.765   9.918  14.251  1.00  0.00     0.022 A 
BRANCH  73  76
ATOM     76  S   UNL     1      -6.335   8.196  15.682  1.00  0.00     0.127 S 
ATOM     77  O   UNL     1      -5.230   7.250  15.830  1.00  0.00    -0.237 OA
ATOM     78  O   UNL     1      -6.345   9.281  16.664  1.00  0.00    -0.237 OA
ATOM     79  O   UNL     1      -7.637   7.599  15.421  1.00  0.00    -0.744 OA
ENDBRANCH  73  76
ENDBRANCH  55  69
BRANCH  56  80
ATOM     80  C   UNL     1     -11.237   8.547   3.290  1.00  0.00     0.023 A 
ATOM     81  C   UNL     1     -11.668   9.661   2.543  1.00  0.00     0.012 A 
ATOM     82  C   UNL     1     -11.516   7.252   2.814  1.00  0.00     0.148 A 
ATOM     83  C   UNL     1     -12.396   9.489   1.365  1.00  0.00     0.002 A 
ATOM     84  C   UNL     1     -12.190   7.087   1.610  1.00  0.00     0.091 A 
ATOM     85  F   UNL     1     -11.101   6.206   3.542  1.00  0.00    -0.205 F 
ATOM     86  C   UNL     1     -12.649   8.203   0.894  1.00  0.00     0.022 A 
BRANCH  84  87
ATOM     87  S   UNL     1     -12.440   5.475   0.859  1.00  0.00     0.127 S 
ATOM     88  O   UNL     1     -13.888   5.315   0.969  1.00  0.00    -0.237 OA
ATOM     89  O   UNL     1     -11.945   5.697  -0.500  1.00  0.00    -0.237 OA
ATOM     90  O   UNL     1     -11.641   4.545   1.645  1.00  0.00    -0.744 OA
ENDBRANCH  84  87
ENDBRANCH  56  80
BRANCH  68  91
ATOM     91  C   UNL     1     -12.800  11.418   9.459  1.00  0.00     0.023 A 
ATOM     92  C   UNL     1     -13.946  10.647   9.734  1.00  0.00     0.012 A 
ATOM     93  C   UNL     1     -12.809  12.798   9.744  1.00  0.00     0.148 A 
ATOM     94  C   UNL     1     -15.097  11.246  10.246  1.00  0.00     0.002 A 
ATOM     95  C   UNL     1     -13.940  13.378  10.305  1.00  0.00     0.091 A 
ATOM     96  F   UNL     1     -11.714  13.518   9.460  1.00  0.00    -0.205 F 
ATOM     97  C   UNL     1     -15.089  12.607  10.542  1.00  0.00     0.022 A 
BRANCH  95  98
ATOM     98  S   UNL     1     -13.987  15.100  10.812  1.00  0.00     0.127 S 
ATOM     99  O   UNL     1     -14.882  15.680   9.812  1.00  0.00    -0.237 OA
ATOM    100  O   UNL     1     -14.554  15.009  12.159  1.00  0.00    -0.237 OA
ATOM    101  O   UNL     1     -12.610  15.571  10.767  1.00  0.00    -0.744 OA
ENDBRANCH  95  98
ENDBRANCH  68  91
ENDBRANCH  42  43
ENDBRANCH  34  37
ENDBRANCH  32  33
ENDBRANCH   1  32
TORSDOF 15
