REMARK SMILES Nc1cc(-c2ccsc2)ccc1C(=O)NCCCCNC(=O)c1ccc(-c2c3nc(c(-c4cccc(S(=O)(=O)[O-])c4F)c4ccc([nH]4)c(-c4cccc(S(=O)(=O)[O-])c4F)c4nc(c(-c5cccc(S(=O)(=O)[O-])c5F)c5ccc2[nH]5)C=C4)C=C3)cc1
REMARK SMILES IDX 18 1 17 2 16 3 15 4 13 5 14 6 12 8 2 9 3 10 4 11 11 12 10 13
REMARK SMILES IDX 1 14 5 17 6 18 9 19 7 20 8 21 19 22 20 23 21 24 22 26 23 27
REMARK SMILES IDX 24 28 85 29 25 30 84 31 26 32 27 33 28 34 78 35 29 36 83 37
REMARK SMILES IDX 77 38 79 39 30 40 82 41 76 42 75 43 31 45 63 46 43 47 62 48
REMARK SMILES IDX 44 49 47 50 61 51 80 52 45 53 46 54 60 56 81 57 48 58 32 59
REMARK SMILES IDX 33 60 41 61 34 62 36 63 42 64 35 65 37 66 38 67 39 68 40 69
REMARK SMILES IDX 64 70 65 71 73 72 66 73 68 74 74 75 67 76 69 77 70 78 71 79
REMARK SMILES IDX 72 80 49 81 50 82 58 83 51 84 53 85 59 86 52 87 54 88 55 89
REMARK SMILES IDX 56 90 57 91
REMARK H PARENT 15 7 1 15 1 16 20 25 79 44 47 55
REMARK Flexibility Score: inf
ROOT
ATOM      1  C   UNL     1       5.148   2.637  -1.704  1.00  0.00     0.023 C 
ENDROOT
BRANCH   1   2
ATOM      2  C   UNL     1       4.131   1.542  -2.030  1.00  0.00     0.023 C 
BRANCH   2   3
ATOM      3  C   UNL     1       3.175   1.147  -0.908  1.00  0.00     0.116 C 
BRANCH   3   4
ATOM      4  N   UNL     1       2.372   2.235  -0.379  1.00  0.00    -0.352 N 
ATOM      5  C   UNL     1       1.117   2.190   0.188  1.00  0.00     0.253 C 
ATOM      6  O   UNL     1       0.604   3.231   0.596  1.00  0.00    -0.269 OA
ATOM      7  H   UNL     1       2.781   3.129  -0.433  1.00  0.00     0.163 HD
BRANCH   5   8
ATOM      8  C   UNL     1       0.328   0.931   0.246  1.00  0.00     0.062 A 
ATOM      9  C   UNL     1       0.803  -0.289   0.758  1.00  0.00     0.045 A 
ATOM     10  C   UNL     1      -0.003  -1.429   0.609  1.00  0.00     0.035 A 
ATOM     11  C   UNL     1      -1.310  -1.354   0.102  1.00  0.00    -0.015 A 
ATOM     12  C   UNL     1      -0.995   1.022  -0.222  1.00  0.00     0.016 A 
ATOM     13  C   UNL     1      -1.812  -0.109  -0.284  1.00  0.00     0.010 A 
BRANCH   9  14
ATOM     14  N   UNL     1       2.055  -0.447   1.344  1.00  0.00    -0.398 N 
ATOM     15  H   UNL     1       2.331  -1.328   1.685  1.00  0.00     0.156 HD
ATOM     16  H   UNL     1       2.664   0.323   1.418  1.00  0.00     0.156 HD
ENDBRANCH   9  14
BRANCH  11  17
ATOM     17  C   UNL     1      -2.130  -2.557  -0.026  1.00  0.00    -0.008 A 
ATOM     18  C   UNL     1      -3.014  -2.894  -1.102  1.00  0.00     0.020 A 
ATOM     19  C   UNL     1      -2.128  -3.551   0.937  1.00  0.00     0.073 A 
ATOM     20  C   UNL     1      -3.616  -4.122  -0.929  1.00  0.00     0.065 A 
ATOM     21  S   UNL     1      -3.143  -4.868   0.533  1.00  0.00    -0.152 S 
ENDBRANCH  11  17
ENDBRANCH   5   8
ENDBRANCH   3   4
ENDBRANCH   2   3
ENDBRANCH   1   2
BRANCH   1  22
ATOM     22  C   UNL     1       5.884   2.516  -0.373  1.00  0.00     0.116 C 
BRANCH  22  23
ATOM     23  N   UNL     1       6.673   1.298  -0.242  1.00  0.00    -0.352 N 
ATOM     24  C   UNL     1       8.030   1.128  -0.087  1.00  0.00     0.251 C 
ATOM     25  H   UNL     1       6.152   0.464  -0.268  1.00  0.00     0.163 HD
ATOM     26  O   UNL     1       8.500  -0.009  -0.074  1.00  0.00    -0.269 OA
BRANCH  24  27
ATOM     27  C   UNL     1       8.931   2.297   0.023  1.00  0.00     0.039 A 
ATOM     28  C   UNL     1      10.100   2.322  -0.746  1.00  0.00     0.014 A 
ATOM     29  C   UNL     1       8.628   3.373   0.859  1.00  0.00     0.014 A 
ATOM     30  C   UNL     1      10.906   3.464  -0.751  1.00  0.00     0.010 A 
ATOM     31  C   UNL     1       9.384   4.542   0.786  1.00  0.00     0.010 A 
ATOM     32  C   UNL     1      10.527   4.605  -0.025  1.00  0.00    -0.014 A 
BRANCH  32  33
ATOM     33  C   UNL     1      11.286   5.881  -0.127  1.00  0.00     0.031 A 
ATOM     34  C   UNL     1      11.915   6.496   1.095  1.00  0.00     0.074 A 
ATOM     35  C   UNL     1      11.319   6.545  -1.301  1.00  0.00     0.049 A 
ATOM     36  N   UNL     1      12.542   7.638   1.214  1.00  0.00    -0.248 NA
ATOM     37  C   UNL     1      11.798   5.745   2.356  1.00  0.00     0.031 C 
ATOM     38  C   UNL     1      10.674   6.106  -2.541  1.00  0.00     0.029 A 
ATOM     39  N   UNL     1      11.892   7.748  -1.637  1.00  0.00    -0.354 N 
ATOM     40  C   UNL     1      12.855   7.763   2.562  1.00  0.00     0.074 A 
ATOM     41  C   UNL     1      12.320   6.595   3.228  1.00  0.00     0.031 C 
ATOM     42  C   UNL     1      10.891   7.020  -3.500  1.00  0.00     0.029 A 
ATOM     43  C   UNL     1      11.662   8.126  -2.940  1.00  0.00     0.049 A 
ATOM     44  H   UNL     1      12.418   8.289  -1.005  1.00  0.00     0.167 HD
ATOM     45  C   UNL     1      13.552   8.742   3.188  1.00  0.00     0.034 A 
ATOM     46  C   UNL     1      12.023   9.238  -3.610  1.00  0.00     0.034 A 
ATOM     47  C   UNL     1      14.131   9.875   2.518  1.00  0.00     0.049 A 
ATOM     48  C   UNL     1      12.842  10.285  -2.905  1.00  0.00     0.074 A 
ATOM     49  C   UNL     1      14.939  10.866   3.046  1.00  0.00     0.029 A 
ATOM     50  N   UNL     1      13.961  10.173   1.175  1.00  0.00    -0.354 N 
ATOM     51  N   UNL     1      13.274  10.300  -1.667  1.00  0.00    -0.248 NA
ATOM     52  C   UNL     1      13.257  11.452  -3.698  1.00  0.00     0.031 C 
ATOM     53  C   UNL     1      15.243  11.774   2.026  1.00  0.00     0.029 A 
ATOM     54  C   UNL     1      14.642  11.335   0.857  1.00  0.00     0.049 A 
ATOM     55  H   UNL     1      13.434   9.636   0.540  1.00  0.00     0.167 HD
ATOM     56  C   UNL     1      14.037  11.455  -1.542  1.00  0.00     0.074 A 
ATOM     57  C   UNL     1      14.028  12.104  -2.837  1.00  0.00     0.031 C 
ATOM     58  C   UNL     1      14.673  11.943  -0.449  1.00  0.00     0.034 A 
BRANCH  45  59
ATOM     59  C   UNL     1      13.782   8.598   4.670  1.00  0.00     0.023 A 
ATOM     60  C   UNL     1      14.675   7.614   5.141  1.00  0.00     0.012 A 
ATOM     61  C   UNL     1      13.163   9.465   5.592  1.00  0.00     0.148 A 
ATOM     62  C   UNL     1      14.920   7.468   6.505  1.00  0.00     0.002 A 
ATOM     63  C   UNL     1      13.447   9.343   6.948  1.00  0.00     0.091 A 
ATOM     64  F   UNL     1      12.301  10.382   5.130  1.00  0.00    -0.205 F 
ATOM     65  C   UNL     1      14.315   8.338   7.407  1.00  0.00     0.022 A 
BRANCH  63  66
ATOM     66  S   UNL     1      12.780  10.466   8.182  1.00  0.00     0.127 S 
ATOM     67  O   UNL     1      11.803   9.614   8.858  1.00  0.00    -0.237 OA
ATOM     68  O   UNL     1      13.965  10.786   8.980  1.00  0.00    -0.237 OA
ATOM     69  O   UNL     1      12.226  11.591   7.442  1.00  0.00    -0.744 OA
ENDBRANCH  63  66
ENDBRANCH  45  59
BRANCH  46  70
ATOM     70  C   UNL     1      11.676   9.385  -5.053  1.00  0.00     0.023 A 
ATOM     71  C   UNL     1      12.698   9.299  -6.019  1.00  0.00     0.012 A 
ATOM     72  C   UNL     1      10.347   9.578  -5.476  1.00  0.00     0.148 A 
ATOM     73  C   UNL     1      12.408   9.434  -7.377  1.00  0.00     0.002 A 
ATOM     74  C   UNL     1      10.057   9.657  -6.833  1.00  0.00     0.091 A 
ATOM     75  F   UNL     1       9.390   9.670  -4.542  1.00  0.00    -0.205 F 
ATOM     76  C   UNL     1      11.088   9.602  -7.785  1.00  0.00     0.022 A 
BRANCH  74  77
ATOM     77  S   UNL     1       8.374   9.741  -7.456  1.00  0.00     0.127 S 
ATOM     78  O   UNL     1       8.302  11.118  -7.937  1.00  0.00    -0.237 OA
ATOM     79  O   UNL     1       8.388   8.722  -8.506  1.00  0.00    -0.237 OA
ATOM     80  O   UNL     1       7.520   9.420  -6.321  1.00  0.00    -0.744 OA
ENDBRANCH  74  77
ENDBRANCH  46  70
BRANCH  58  81
ATOM     81  C   UNL     1      15.445  13.227  -0.603  1.00  0.00     0.023 A 
ATOM     82  C   UNL     1      14.754  14.448  -0.732  1.00  0.00     0.012 A 
ATOM     83  C   UNL     1      16.853  13.233  -0.541  1.00  0.00     0.148 A 
ATOM     84  C   UNL     1      15.452  15.651  -0.828  1.00  0.00     0.002 A 
ATOM     85  C   UNL     1      17.541  14.440  -0.589  1.00  0.00     0.091 A 
ATOM     86  F   UNL     1      17.494  12.059  -0.438  1.00  0.00    -0.205 F 
ATOM     87  C   UNL     1      16.843  15.649  -0.744  1.00  0.00     0.022 A 
BRANCH  85  88
ATOM     88  S   UNL     1      19.324  14.540  -0.393  1.00  0.00     0.127 S 
ATOM     89  O   UNL     1      19.758  14.833  -1.757  1.00  0.00    -0.237 OA
ATOM     90  O   UNL     1      19.472  15.652   0.546  1.00  0.00    -0.237 OA
ATOM     91  O   UNL     1      19.741  13.247   0.134  1.00  0.00    -0.744 OA
ENDBRANCH  85  88
ENDBRANCH  58  81
ENDBRANCH  32  33
ENDBRANCH  24  27
ENDBRANCH  22  23
ENDBRANCH   1  22
TORSDOF 16
