REMARK SMILES CC(C)C[C@H](NC(=O)[C@@H](NC(=O)[C@H](C)NC(=O)CNC(=O)OCc1ccccc1)C(C)C)C(=O)NCCCCNC(=O)c1ccc(-c2c3nc(c(-c4cccc(S(=O)(=O)[O-])c4F)c4ccc([nH]4)c(-c4cccc(S(=O)(=O)[O-])c4F)c4nc(c(-c5cccc(S(=O)(=O)[O-])c5F)c5ccc2[nH]5)C=C4)C=C3)cc1
REMARK SMILES IDX 5 1 4 2 2 3 1 4 3 5 33 6 34 7 35 8 36 10 37 11 38 12 39 13
REMARK SMILES IDX 40 14 41 15 42 17 43 18 44 19 105 20 45 21 104 22 46 23
REMARK SMILES IDX 47 24 48 25 98 26 49 27 103 28 97 29 99 30 50 31 102 32
REMARK SMILES IDX 96 33 95 34 51 36 83 37 63 38 82 39 64 40 67 41 81 42 100 43
REMARK SMILES IDX 65 44 66 45 80 47 101 48 68 49 52 50 53 51 61 52 54 53 56 54
REMARK SMILES IDX 62 55 55 56 57 57 58 58 59 59 60 60 84 61 85 62 93 63 86 64
REMARK SMILES IDX 88 65 94 66 87 67 89 68 90 69 91 70 92 71 69 72 70 73 78 74
REMARK SMILES IDX 71 75 73 76 79 77 72 78 74 79 75 80 76 81 77 82 6 83 7 84
REMARK SMILES IDX 8 86 9 87 10 88 11 89 12 91 13 92 14 93 15 94 16 95 17 97
REMARK SMILES IDX 18 98 19 99 20 100 21 102 22 103 23 104 24 105 25 106 29 107
REMARK SMILES IDX 26 108 28 109 27 110 30 111 31 112 32 113
REMARK H PARENT 35 9 40 16 99 35 67 46 6 85 10 90 15 96 19 101
REMARK Flexibility Score: inf
ROOT
ATOM      1  C   UNL     1      -3.362   2.069  -0.787  1.00  0.00     0.171 C 
ENDROOT
BRANCH   1   2
ATOM      2  C   UNL     1      -4.330   3.010  -1.559  1.00  0.00     0.038 C 
BRANCH   2   3
ATOM      3  C   UNL     1      -3.768   3.931  -2.698  1.00  0.00    -0.015 C 
ATOM      4  C   UNL     1      -4.221   3.398  -4.020  1.00  0.00     0.007 C 
ATOM      5  C   UNL     1      -4.266   5.372  -2.699  1.00  0.00     0.007 C 
ENDBRANCH   2   3
ENDBRANCH   1   2
BRANCH   1   6
ATOM      6  C   UNL     1      -3.728   0.536  -0.592  1.00  0.00     0.242 C 
ATOM      7  O   UNL     1      -4.914   0.195  -0.532  1.00  0.00    -0.273 OA
ATOM      8  N   UNL     1      -2.743  -0.424  -0.338  1.00  0.00    -0.354 N 
ATOM      9  H   UNL     1      -3.050  -1.352  -0.222  1.00  0.00     0.163 HD
BRANCH   8  10
ATOM     10  C   UNL     1      -1.314  -0.194  -0.228  1.00  0.00     0.116 C 
BRANCH  10  11
ATOM     11  C   UNL     1      -0.253  -1.286  -0.145  1.00  0.00     0.023 C 
BRANCH  11  12
ATOM     12  C   UNL     1      -0.266  -2.459  -1.121  1.00  0.00     0.023 C 
BRANCH  12  13
ATOM     13  C   UNL     1      -0.536  -2.220  -2.602  1.00  0.00     0.116 C 
BRANCH  13  14
ATOM     14  N   UNL     1       0.487  -1.507  -3.362  1.00  0.00    -0.352 N 
ATOM     15  C   UNL     1       1.201  -1.915  -4.473  1.00  0.00     0.251 C 
ATOM     16  H   UNL     1       0.700  -0.603  -3.035  1.00  0.00     0.163 HD
ATOM     17  O   UNL     1       1.921  -1.125  -5.078  1.00  0.00    -0.269 OA
BRANCH  15  18
ATOM     18  C   UNL     1       1.196  -3.338  -4.862  1.00  0.00     0.039 A 
ATOM     19  C   UNL     1       2.420  -4.011  -4.835  1.00  0.00     0.014 A 
ATOM     20  C   UNL     1       0.011  -4.031  -5.105  1.00  0.00     0.014 A 
ATOM     21  C   UNL     1       2.440  -5.403  -4.898  1.00  0.00     0.010 A 
ATOM     22  C   UNL     1       0.024  -5.423  -5.067  1.00  0.00     0.010 A 
ATOM     23  C   UNL     1       1.235  -6.122  -4.932  1.00  0.00    -0.014 A 
BRANCH  23  24
ATOM     24  C   UNL     1       1.231  -7.598  -4.762  1.00  0.00     0.031 A 
ATOM     25  C   UNL     1       0.684  -8.487  -5.842  1.00  0.00     0.074 A 
ATOM     26  C   UNL     1       1.648  -8.134  -3.594  1.00  0.00     0.049 A 
ATOM     27  N   UNL     1       0.576  -9.789  -5.859  1.00  0.00    -0.248 NA
ATOM     28  C   UNL     1       0.168  -7.826  -7.053  1.00  0.00     0.031 C 
ATOM     29  C   UNL     1       2.123  -7.374  -2.434  1.00  0.00     0.029 A 
ATOM     30  N   UNL     1       1.722  -9.441  -3.181  1.00  0.00    -0.354 N 
ATOM     31  C   UNL     1      -0.051 -10.102  -7.058  1.00  0.00     0.074 A 
ATOM     32  C   UNL     1      -0.331  -8.851  -7.727  1.00  0.00     0.031 C 
ATOM     33  C   UNL     1       2.454  -8.227  -1.451  1.00  0.00     0.029 A 
ATOM     34  C   UNL     1       2.183  -9.591  -1.892  1.00  0.00     0.049 A 
ATOM     35  H   UNL     1       1.470 -10.202  -3.753  1.00  0.00     0.167 HD
ATOM     36  C   UNL     1      -0.341 -11.320  -7.571  1.00  0.00     0.034 A 
ATOM     37  C   UNL     1       2.360 -10.700  -1.146  1.00  0.00     0.034 A 
ATOM     38  C   UNL     1      -0.027 -12.563  -6.919  1.00  0.00     0.049 A 
ATOM     39  C   UNL     1       2.057 -12.043  -1.754  1.00  0.00     0.074 A 
ATOM     40  C   UNL     1      -0.196 -13.850  -7.398  1.00  0.00     0.029 A 
ATOM     41  N   UNL     1       0.504 -12.677  -5.644  1.00  0.00    -0.354 N 
ATOM     42  N   UNL     1       1.621 -12.325  -2.957  1.00  0.00    -0.248 NA
ATOM     43  C   UNL     1       2.302 -13.224  -0.913  1.00  0.00     0.031 C 
ATOM     44  C   UNL     1       0.199 -14.743  -6.397  1.00  0.00     0.029 A 
ATOM     45  C   UNL     1       0.653 -14.012  -5.311  1.00  0.00     0.049 A 
ATOM     46  H   UNL     1       0.740 -11.920  -5.061  1.00  0.00     0.167 HD
ATOM     47  C   UNL     1       1.579 -13.712  -3.033  1.00  0.00     0.074 A 
ATOM     48  C   UNL     1       2.052 -14.214  -1.759  1.00  0.00     0.031 C 
ATOM     49  C   UNL     1       1.173 -14.499  -4.060  1.00  0.00     0.034 A 
BRANCH  36  50
ATOM     50  C   UNL     1      -0.998 -11.371  -8.924  1.00  0.00     0.023 A 
ATOM     51  C   UNL     1      -0.264 -11.010 -10.073  1.00  0.00     0.012 A 
ATOM     52  C   UNL     1      -2.323 -11.828  -9.066  1.00  0.00     0.148 A 
ATOM     53  C   UNL     1      -0.848 -11.068 -11.337  1.00  0.00     0.002 A 
ATOM     54  C   UNL     1      -2.882 -11.930 -10.334  1.00  0.00     0.091 A 
ATOM     55  F   UNL     1      -3.011 -12.146  -7.961  1.00  0.00    -0.205 F 
ATOM     56  C   UNL     1      -2.152 -11.538 -11.469  1.00  0.00     0.022 A 
BRANCH  54  57
ATOM     57  S   UNL     1      -4.522 -12.604 -10.618  1.00  0.00     0.127 S 
ATOM     58  O   UNL     1      -5.257 -11.416 -11.051  1.00  0.00    -0.237 OA
ATOM     59  O   UNL     1      -4.271 -13.584 -11.676  1.00  0.00    -0.237 OA
ATOM     60  O   UNL     1      -4.949 -13.174  -9.349  1.00  0.00    -0.744 OA
ENDBRANCH  54  57
ENDBRANCH  36  50
BRANCH  37  61
ATOM     61  C   UNL     1       2.908 -10.596   0.238  1.00  0.00     0.023 A 
ATOM     62  C   UNL     1       4.199 -11.090   0.512  1.00  0.00     0.012 A 
ATOM     63  C   UNL     1       2.165 -10.006   1.280  1.00  0.00     0.148 A 
ATOM     64  C   UNL     1       4.724 -11.034   1.804  1.00  0.00     0.002 A 
ATOM     65  C   UNL     1       2.717  -9.902   2.551  1.00  0.00     0.091 A 
ATOM     66  F   UNL     1       0.935  -9.551   1.003  1.00  0.00    -0.205 F 
ATOM     67  C   UNL     1       3.988 -10.433   2.821  1.00  0.00     0.022 A 
BRANCH  65  68
ATOM     68  S   UNL     1       1.898  -9.028   3.889  1.00  0.00     0.127 S 
ATOM     69  O   UNL     1       1.551 -10.121   4.794  1.00  0.00    -0.237 OA
ATOM     70  O   UNL     1       2.962  -8.145   4.369  1.00  0.00    -0.237 OA
ATOM     71  O   UNL     1       0.773  -8.333   3.276  1.00  0.00    -0.744 OA
ENDBRANCH  65  68
ENDBRANCH  37  61
BRANCH  49  72
ATOM     72  C   UNL     1       1.264 -15.992  -3.877  1.00  0.00     0.023 A 
ATOM     73  C   UNL     1       0.375 -16.652  -3.006  1.00  0.00     0.012 A 
ATOM     74  C   UNL     1       2.184 -16.749  -4.630  1.00  0.00     0.148 A 
ATOM     75  C   UNL     1       0.424 -18.038  -2.861  1.00  0.00     0.002 A 
ATOM     76  C   UNL     1       2.190 -18.134  -4.521  1.00  0.00     0.091 A 
ATOM     77  F   UNL     1       3.033 -16.101  -5.440  1.00  0.00    -0.205 F 
ATOM     78  C   UNL     1       1.321 -18.779  -3.627  1.00  0.00     0.022 A 
BRANCH  76  79
ATOM     79  S   UNL     1       3.240 -19.176  -5.540  1.00  0.00     0.127 S 
ATOM     80  O   UNL     1       4.208 -19.670  -4.563  1.00  0.00    -0.237 OA
ATOM     81  O   UNL     1       2.296 -20.182  -6.027  1.00  0.00    -0.237 OA
ATOM     82  O   UNL     1       3.785 -18.308  -6.575  1.00  0.00    -0.744 OA
ENDBRANCH  76  79
ENDBRANCH  49  72
ENDBRANCH  23  24
ENDBRANCH  15  18
ENDBRANCH  13  14
ENDBRANCH  12  13
ENDBRANCH  11  12
ENDBRANCH  10  11
ENDBRANCH   8  10
ENDBRANCH   1   6
BRANCH   1  83
ATOM     83  N   UNL     1      -2.002   2.364  -1.109  1.00  0.00    -0.343 N 
ATOM     84  C   UNL     1      -1.298   2.123  -2.236  1.00  0.00     0.243 C 
ATOM     85  H   UNL     1      -1.497   2.816  -0.395  1.00  0.00     0.164 HD
ATOM     86  O   UNL     1      -0.124   2.509  -2.163  1.00  0.00    -0.273 OA
BRANCH  84  87
ATOM     87  C   UNL     1      -1.841   1.336  -3.514  1.00  0.00     0.174 C 
BRANCH  87  88
ATOM     88  N   UNL     1      -3.041   0.373  -3.474  1.00  0.00    -0.342 N 
ATOM     89  C   UNL     1      -4.271  -0.060  -3.845  1.00  0.00     0.242 C 
ATOM     90  H   UNL     1      -2.761  -0.300  -2.812  1.00  0.00     0.164 HD
ATOM     91  O   UNL     1      -4.469  -1.189  -3.348  1.00  0.00    -0.273 OA
BRANCH  89  92
ATOM     92  C   UNL     1      -5.511   0.617  -4.591  1.00  0.00     0.168 C 
ATOM     93  C   UNL     1      -6.594  -0.465  -4.821  1.00  0.00     0.041 C 
BRANCH  92  94
ATOM     94  N   UNL     1      -5.291   1.289  -5.880  1.00  0.00    -0.343 N 
ATOM     95  C   UNL     1      -5.875   2.365  -6.492  1.00  0.00     0.240 C 
ATOM     96  H   UNL     1      -4.574   0.879  -6.415  1.00  0.00     0.164 HD
ATOM     97  O   UNL     1      -5.479   2.593  -7.645  1.00  0.00    -0.273 OA
BRANCH  95  98
ATOM     98  C   UNL     1      -6.835   3.404  -5.829  1.00  0.00     0.219 C 
BRANCH  98  99
ATOM     99  N   UNL     1      -7.983   2.903  -5.099  1.00  0.00    -0.312 N 
ATOM    100  C   UNL     1      -8.319   2.917  -3.785  1.00  0.00     0.407 C 
ATOM    101  H   UNL     1      -8.653   2.466  -5.672  1.00  0.00     0.167 HD
ATOM    102  O   UNL     1      -9.374   2.370  -3.442  1.00  0.00    -0.225 OA
BRANCH 100 103
ATOM    103  O   UNL     1      -7.473   3.540  -2.932  1.00  0.00    -0.445 OA
BRANCH 103 104
ATOM    104  C   UNL     1      -7.784   3.347  -1.530  1.00  0.00     0.270 C 
BRANCH 104 105
ATOM    105  C   UNL     1      -8.557   4.473  -0.880  1.00  0.00    -0.011 A 
ATOM    106  C   UNL     1      -8.233   4.896   0.423  1.00  0.00     0.007 A 
ATOM    107  C   UNL     1      -9.680   5.029  -1.500  1.00  0.00     0.007 A 
ATOM    108  C   UNL     1      -9.008   5.858   1.076  1.00  0.00     0.000 A 
ATOM    109  C   UNL     1     -10.454   5.989  -0.847  1.00  0.00     0.000 A 
ATOM    110  C   UNL     1     -10.120   6.404   0.440  1.00  0.00     0.000 A 
ENDBRANCH 104 105
ENDBRANCH 103 104
ENDBRANCH 100 103
ENDBRANCH  98  99
ENDBRANCH  95  98
ENDBRANCH  92  94
ENDBRANCH  89  92
ENDBRANCH  87  88
BRANCH  87 111
ATOM    111  C   UNL     1      -1.454   2.004  -4.875  1.00  0.00     0.015 C 
ATOM    112  C   UNL     1      -0.464   3.182  -4.757  1.00  0.00     0.010 C 
ATOM    113  C   UNL     1      -0.854   0.977  -5.836  1.00  0.00     0.010 C 
ENDBRANCH  87 111
ENDBRANCH  84  87
ENDBRANCH   1  83
TORSDOF 27
