REMARK SMILES NC(=O)C[C@H](NC(=O)C1(c2ccccc2)CCN(C(=O)[C@@H]2CCC[NH2+]2)CC1)C(=O)NCCCCNC(=O)c1ccc(-c2c3nc(c(-c4cccc(S(=O)(=O)[O-])c4F)c4ccc([nH]4)c(-c4cccc(S(=O)(=O)[O-])c4F)c4nc(c(-c5cccc(S(=O)(=O)[O-])c5F)c5ccc2[nH]5)C=C4)C=C3)cc1
REMARK SMILES IDX 32 1 31 2 30 3 28 4 29 5 5 7 4 8 2 9 1 10 3 13 6 14 7 15
REMARK SMILES IDX 8 17 9 18 16 19 27 20 17 21 26 22 18 23 19 24 20 25 10 26
REMARK SMILES IDX 11 27 15 28 12 29 14 30 13 31 21 32 22 33 25 34 23 35 24 36
REMARK SMILES IDX 33 39 34 40 35 41 36 42 37 44 38 45 39 46 100 47 40 48 99 49
REMARK SMILES IDX 41 50 42 51 43 52 93 53 44 54 98 55 92 56 94 57 45 58 97 59
REMARK SMILES IDX 91 60 90 61 46 63 78 64 58 65 77 66 59 67 62 68 76 69 95 70
REMARK SMILES IDX 60 71 61 72 75 74 96 75 63 76 47 77 48 78 56 79 49 80 51 81
REMARK SMILES IDX 57 82 50 83 52 84 53 85 54 86 55 87 79 88 80 89 88 90 81 91
REMARK SMILES IDX 83 92 89 93 82 94 84 95 85 96 86 97 87 98 64 99 65 100
REMARK SMILES IDX 73 101 66 102 68 103 74 104 67 105 69 106 70 107 71 108
REMARK SMILES IDX 72 109
REMARK H PARENT 30 6 1 11 1 12 6 16 25 37 25 38 35 43 94 62 62 73
REMARK Flexibility Score: inf
ROOT
ATOM      1  C   UNL     1       3.189   4.888   1.596  1.00  0.00     0.023 C 
ENDROOT
BRANCH   1   2
ATOM      2  C   UNL     1       3.660   3.442   1.644  1.00  0.00     0.116 C 
BRANCH   2   3
ATOM      3  N   UNL     1       3.620   2.859   2.967  1.00  0.00    -0.354 N 
ATOM      4  C   UNL     1       3.181   1.637   3.374  1.00  0.00     0.243 C 
ATOM      5  O   UNL     1       3.634   1.194   4.435  1.00  0.00    -0.273 OA
ATOM      6  H   UNL     1       3.964   3.437   3.686  1.00  0.00     0.163 HD
BRANCH   4   7
ATOM      7  C   UNL     1       2.243   0.754   2.524  1.00  0.00     0.180 C 
BRANCH   7   8
ATOM      8  C   UNL     1       2.988  -0.183   1.573  1.00  0.00     0.134 C 
BRANCH   8   9
ATOM      9  C   UNL     1       3.656   0.489   0.405  1.00  0.00     0.220 C 
ATOM     10  N   UNL     1       2.841   0.827  -0.634  1.00  0.00    -0.370 N 
ATOM     11  H   UNL     1       3.216   1.270  -1.430  1.00  0.00     0.159 HD
ATOM     12  H   UNL     1       1.878   0.628  -0.590  1.00  0.00     0.159 HD
ATOM     13  O   UNL     1       4.851   0.750   0.371  1.00  0.00    -0.275 OA
ENDBRANCH   8   9
ENDBRANCH   7   8
BRANCH   7  14
ATOM     14  N   UNL     1       1.110   1.458   1.916  1.00  0.00    -0.343 N 
ATOM     15  C   UNL     1      -0.187   1.626   2.271  1.00  0.00     0.231 C 
ATOM     16  H   UNL     1       1.341   1.904   1.070  1.00  0.00     0.164 HD
ATOM     17  O   UNL     1      -0.757   2.527   1.639  1.00  0.00    -0.274 OA
BRANCH  15  18
ATOM     18  C   UNL     1      -0.969   0.776   3.327  1.00  0.00     0.077 C 
ATOM     19  C   UNL     1      -0.745  -0.757   3.181  1.00  0.00     0.043 C 
ATOM     20  C   UNL     1      -2.502   0.991   3.013  1.00  0.00     0.043 C 
ATOM     21  C   UNL     1      -1.194  -1.296   1.823  1.00  0.00     0.121 C 
ATOM     22  C   UNL     1      -2.941   0.393   1.675  1.00  0.00     0.121 C 
ATOM     23  N   UNL     1      -2.609  -1.021   1.612  1.00  0.00    -0.337 N 
ATOM     24  C   UNL     1      -3.470  -2.084   1.372  1.00  0.00     0.280 C 
ATOM     25  O   UNL     1      -3.032  -3.240   1.293  1.00  0.00    -0.268 OA
BRANCH  18  26
ATOM     26  C   UNL     1      -0.648   1.298   4.754  1.00  0.00    -0.032 A 
ATOM     27  C   UNL     1      -1.396   2.335   5.350  1.00  0.00     0.005 A 
ATOM     28  C   UNL     1       0.428   0.796   5.507  1.00  0.00     0.005 A 
ATOM     29  C   UNL     1      -1.077   2.847   6.613  1.00  0.00     0.000 A 
ATOM     30  C   UNL     1       0.778   1.339   6.750  1.00  0.00     0.000 A 
ATOM     31  C   UNL     1       0.024   2.363   7.305  1.00  0.00     0.000 A 
ENDBRANCH  18  26
BRANCH  24  32
ATOM     32  C   UNL     1      -4.985  -1.870   1.182  1.00  0.00     0.272 C 
ATOM     33  C   UNL     1      -5.401  -1.085  -0.049  1.00  0.00     0.081 C 
ATOM     34  N   UNL     1      -5.652  -1.250   2.351  1.00  0.00    -0.336 N 
ATOM     35  C   UNL     1      -6.751  -0.525   0.353  1.00  0.00     0.068 C 
ATOM     36  C   UNL     1      -6.621  -0.275   1.846  1.00  0.00     0.261 C 
ATOM     37  H   UNL     1      -4.962  -0.782   2.938  1.00  0.00     0.346 HD
ATOM     38  H   UNL     1      -6.121  -1.961   2.912  1.00  0.00     0.346 HD
ENDBRANCH  24  32
ENDBRANCH  15  18
ENDBRANCH   7  14
ENDBRANCH   4   7
ENDBRANCH   2   3
ENDBRANCH   1   2
BRANCH   1  39
ATOM     39  C   UNL     1       4.090   5.889   2.313  1.00  0.00     0.023 C 
BRANCH  39  40
ATOM     40  C   UNL     1       5.580   5.763   2.019  1.00  0.00     0.116 C 
BRANCH  40  41
ATOM     41  N   UNL     1       5.899   5.772   0.598  1.00  0.00    -0.352 N 
ATOM     42  C   UNL     1       6.924   6.419  -0.050  1.00  0.00     0.251 C 
ATOM     43  H   UNL     1       5.300   5.243   0.024  1.00  0.00     0.163 HD
ATOM     44  O   UNL     1       6.997   6.386  -1.275  1.00  0.00    -0.269 OA
BRANCH  42  45
ATOM     45  C   UNL     1       7.910   7.185   0.739  1.00  0.00     0.039 A 
ATOM     46  C   UNL     1       8.222   8.489   0.347  1.00  0.00     0.014 A 
ATOM     47  C   UNL     1       8.489   6.633   1.883  1.00  0.00     0.014 A 
ATOM     48  C   UNL     1       9.072   9.261   1.140  1.00  0.00     0.010 A 
ATOM     49  C   UNL     1       9.263   7.432   2.717  1.00  0.00     0.010 A 
ATOM     50  C   UNL     1       9.577   8.748   2.347  1.00  0.00    -0.014 A 
BRANCH  50  51
ATOM     51  C   UNL     1      10.458   9.560   3.223  1.00  0.00     0.031 A 
ATOM     52  C   UNL     1      11.868   9.107   3.490  1.00  0.00     0.074 A 
ATOM     53  C   UNL     1       9.969  10.655   3.839  1.00  0.00     0.049 A 
ATOM     54  N   UNL     1      12.776   9.648   4.261  1.00  0.00    -0.248 NA
ATOM     55  C   UNL     1      12.306   7.864   2.834  1.00  0.00     0.031 C 
ATOM     56  C   UNL     1       8.593  11.145   3.733  1.00  0.00     0.029 A 
ATOM     57  N   UNL     1      10.570  11.541   4.697  1.00  0.00    -0.354 N 
ATOM     58  C   UNL     1      13.870   8.792   4.215  1.00  0.00     0.074 A 
ATOM     59  C   UNL     1      13.499   7.674   3.377  1.00  0.00     0.031 C 
ATOM     60  C   UNL     1       8.459  12.248   4.488  1.00  0.00     0.029 A 
ATOM     61  C   UNL     1       9.730  12.533   5.146  1.00  0.00     0.049 A 
ATOM     62  H   UNL     1      11.514  11.473   4.967  1.00  0.00     0.167 HD
ATOM     63  C   UNL     1      15.089   8.940   4.785  1.00  0.00     0.034 A 
ATOM     64  C   UNL     1       9.962  13.560   5.988  1.00  0.00     0.034 A 
ATOM     65  C   UNL     1      15.475  10.084   5.563  1.00  0.00     0.049 A 
ATOM     66  C   UNL     1      11.349  13.746   6.543  1.00  0.00     0.074 A 
ATOM     67  C   UNL     1      16.711  10.376   6.112  1.00  0.00     0.029 A 
ATOM     68  N   UNL     1      14.630  11.130   5.899  1.00  0.00    -0.354 N 
ATOM     69  N   UNL     1      12.419  13.011   6.356  1.00  0.00    -0.248 NA
ATOM     70  C   UNL     1      11.575  14.929   7.386  1.00  0.00     0.031 C 
ATOM     71  C   UNL     1      16.610  11.598   6.787  1.00  0.00     0.029 A 
ATOM     72  C   UNL     1      15.317  12.074   6.641  1.00  0.00     0.049 A 
ATOM     73  H   UNL     1      13.680  11.193   5.646  1.00  0.00     0.167 HD
ATOM     74  C   UNL     1      13.452  13.663   7.019  1.00  0.00     0.074 A 
ATOM     75  C   UNL     1      12.883  14.863   7.598  1.00  0.00     0.031 C 
ATOM     76  C   UNL     1      14.751  13.297   7.150  1.00  0.00     0.034 A 
BRANCH  63  77
ATOM     77  C   UNL     1      16.116   7.868   4.524  1.00  0.00     0.023 A 
ATOM     78  C   UNL     1      16.678   7.747   3.236  1.00  0.00     0.012 A 
ATOM     79  C   UNL     1      16.555   7.013   5.552  1.00  0.00     0.148 A 
ATOM     80  C   UNL     1      17.631   6.767   2.965  1.00  0.00     0.002 A 
ATOM     81  C   UNL     1      17.541   6.069   5.286  1.00  0.00     0.091 A 
ATOM     82  F   UNL     1      15.994   7.127   6.764  1.00  0.00    -0.205 F 
ATOM     83  C   UNL     1      18.070   5.935   3.992  1.00  0.00     0.022 A 
BRANCH  81  84
ATOM     84  S   UNL     1      18.232   5.006   6.559  1.00  0.00     0.127 S 
ATOM     85  O   UNL     1      17.655   3.709   6.206  1.00  0.00    -0.237 OA
ATOM     86  O   UNL     1      19.669   5.122   6.311  1.00  0.00    -0.237 OA
ATOM     87  O   UNL     1      17.790   5.563   7.830  1.00  0.00    -0.744 OA
ENDBRANCH  81  84
ENDBRANCH  63  77
BRANCH  64  88
ATOM     88  C   UNL     1       8.883  14.547   6.277  1.00  0.00     0.023 A 
ATOM     89  C   UNL     1       8.980  15.848   5.743  1.00  0.00     0.012 A 
ATOM     90  C   UNL     1       7.756  14.205   7.049  1.00  0.00     0.148 A 
ATOM     91  C   UNL     1       7.994  16.800   6.002  1.00  0.00     0.002 A 
ATOM     92  C   UNL     1       6.751  15.144   7.259  1.00  0.00     0.091 A 
ATOM     93  F   UNL     1       7.686  12.967   7.557  1.00  0.00    -0.205 F 
ATOM     94  C   UNL     1       6.877  16.446   6.752  1.00  0.00     0.022 A 
BRANCH  92  95
ATOM     95  S   UNL     1       5.218  14.738   8.103  1.00  0.00     0.127 S 
ATOM     96  O   UNL     1       5.387  15.427   9.379  1.00  0.00    -0.237 OA
ATOM     97  O   UNL     1       4.216  15.326   7.213  1.00  0.00    -0.237 OA
ATOM     98  O   UNL     1       5.180  13.283   8.166  1.00  0.00    -0.744 OA
ENDBRANCH  92  95
ENDBRANCH  64  88
BRANCH  76  99
ATOM     99  C   UNL     1      15.667  14.223   7.903  1.00  0.00     0.023 A 
ATOM    100  C   UNL     1      15.571  14.320   9.305  1.00  0.00     0.012 A 
ATOM    101  C   UNL     1      16.676  14.938   7.227  1.00  0.00     0.148 A 
ATOM    102  C   UNL     1      16.444  15.139  10.019  1.00  0.00     0.002 A 
ATOM    103  C   UNL     1      17.573  15.714   7.951  1.00  0.00     0.091 A 
ATOM    104  F   UNL     1      16.738  14.850   5.890  1.00  0.00    -0.205 F 
ATOM    105  C   UNL     1      17.451  15.825   9.345  1.00  0.00     0.022 A 
BRANCH 103 106
ATOM    106  S   UNL     1      18.958  16.550   7.170  1.00  0.00     0.127 S 
ATOM    107  O   UNL     1      18.488  17.934   7.130  1.00  0.00    -0.237 OA
ATOM    108  O   UNL     1      20.047  16.304   8.117  1.00  0.00    -0.237 OA
ATOM    109  O   UNL     1      19.132  15.906   5.875  1.00  0.00    -0.744 OA
ENDBRANCH 103 106
ENDBRANCH  76  99
ENDBRANCH  50  51
ENDBRANCH  42  45
ENDBRANCH  40  41
ENDBRANCH  39  40
ENDBRANCH   1  39
TORSDOF 20
