REMARK SMILES C[C@H](Nc1ncccc1C(=O)NCCCCNC(=O)c1ccc(-c2c3nc(c(-c4cccc(S(=O)(=O)[O-])c4F)c4ccc([nH]4)c(-c4cccc(S(=O)(=O)[O-])c4F)c4nc(c(-c5cccc(S(=O)(=O)[O-])c5F)c5ccc2[nH]5)C=C4)C=C3)cc1)c1ccc(Cl)cc1
REMARK SMILES IDX 14 1 13 2 12 3 10 4 11 5 9 7 4 8 5 9 6 10 8 11 7 12 3 13
REMARK SMILES IDX 2 15 1 16 83 17 84 18 89 19 85 20 88 21 86 22 87 23 15 24
REMARK SMILES IDX 16 25 17 26 18 27 19 29 20 30 21 31 82 32 22 33 81 34 23 35
REMARK SMILES IDX 24 36 25 37 75 38 26 39 80 40 74 41 76 42 27 43 79 44 73 45
REMARK SMILES IDX 72 46 28 48 60 49 40 50 59 51 41 52 44 53 58 54 77 55 42 56
REMARK SMILES IDX 43 57 57 59 78 60 45 61 29 62 30 63 38 64 31 65 33 66 39 67
REMARK SMILES IDX 32 68 34 69 35 70 36 71 37 72 61 73 62 74 70 75 63 76 65 77
REMARK SMILES IDX 71 78 64 79 66 80 67 81 68 82 69 83 46 84 47 85 55 86 48 87
REMARK SMILES IDX 50 88 56 89 49 90 51 91 52 92 53 93 54 94
REMARK H PARENT 12 6 3 14 17 28 76 47 44 58
REMARK Flexibility Score: inf
ROOT
ATOM      1  C   UNL     1       6.318   0.013  -3.337  1.00  0.00     0.023 C 
ENDROOT
BRANCH   1   2
ATOM      2  C   UNL     1       6.216   0.652  -1.955  1.00  0.00     0.116 C 
BRANCH   2   3
ATOM      3  N   UNL     1       4.912   1.234  -1.722  1.00  0.00    -0.352 N 
ATOM      4  C   UNL     1       3.748   0.867  -1.094  1.00  0.00     0.255 C 
ATOM      5  O   UNL     1       2.939   1.793  -1.013  1.00  0.00    -0.269 OA
ATOM      6  H   UNL     1       4.840   2.131  -2.121  1.00  0.00     0.163 HD
BRANCH   4   7
ATOM      7  C   UNL     1       3.434  -0.476  -0.496  1.00  0.00     0.082 A 
ATOM      8  C   UNL     1       2.176  -0.739   0.083  1.00  0.00     0.139 A 
ATOM      9  N   UNL     1       1.956  -1.829   0.872  1.00  0.00    -0.239 NA
ATOM     10  C   UNL     1       2.934  -2.737   1.023  1.00  0.00     0.113 A 
ATOM     11  C   UNL     1       4.383  -1.503  -0.389  1.00  0.00     0.019 A 
ATOM     12  C   UNL     1       4.143  -2.639   0.381  1.00  0.00     0.021 A 
BRANCH   8  13
ATOM     13  N   UNL     1       0.998  -0.063  -0.088  1.00  0.00    -0.363 N 
ATOM     14  H   UNL     1       0.468   0.112   0.724  1.00  0.00     0.162 HD
BRANCH  13  15
ATOM     15  C   UNL     1       0.445   0.426  -1.348  1.00  0.00     0.108 C 
ATOM     16  C   UNL     1       0.862  -0.399  -2.572  1.00  0.00     0.036 C 
BRANCH  15  17
ATOM     17  C   UNL     1      -1.081   0.423  -1.221  1.00  0.00    -0.026 A 
ATOM     18  C   UNL     1      -1.782   1.638  -1.164  1.00  0.00     0.007 A 
ATOM     19  C   UNL     1      -1.806  -0.780  -1.149  1.00  0.00     0.007 A 
ATOM     20  C   UNL     1      -3.175   1.651  -1.061  1.00  0.00     0.021 A 
ATOM     21  C   UNL     1      -3.199  -0.766  -1.047  1.00  0.00     0.021 A 
ATOM     22  C   UNL     1      -3.877   0.449  -1.007  1.00  0.00     0.041 A 
ATOM     23  Cl  UNL     1      -5.594   0.464  -0.885  1.00  0.00    -0.084 Cl
ENDBRANCH  15  17
ENDBRANCH  13  15
ENDBRANCH   8  13
ENDBRANCH   4   7
ENDBRANCH   2   3
ENDBRANCH   1   2
BRANCH   1  24
ATOM     24  C   UNL     1       6.460   1.018  -4.490  1.00  0.00     0.023 C 
BRANCH  24  25
ATOM     25  C   UNL     1       7.576   2.053  -4.336  1.00  0.00     0.116 C 
BRANCH  25  26
ATOM     26  N   UNL     1       8.864   1.468  -3.995  1.00  0.00    -0.352 N 
ATOM     27  C   UNL     1      10.127   1.933  -4.280  1.00  0.00     0.251 C 
ATOM     28  H   UNL     1       8.827   0.624  -3.491  1.00  0.00     0.163 HD
ATOM     29  O   UNL     1      11.105   1.259  -3.985  1.00  0.00    -0.269 OA
BRANCH  27  30
ATOM     30  C   UNL     1      10.291   3.225  -4.979  1.00  0.00     0.039 A 
ATOM     31  C   UNL     1      11.141   3.278  -6.087  1.00  0.00     0.014 A 
ATOM     32  C   UNL     1       9.606   4.368  -4.561  1.00  0.00     0.014 A 
ATOM     33  C   UNL     1      11.253   4.465  -6.815  1.00  0.00     0.010 A 
ATOM     34  C   UNL     1       9.671   5.532  -5.324  1.00  0.00     0.010 A 
ATOM     35  C   UNL     1      10.493   5.592  -6.459  1.00  0.00    -0.014 A 
BRANCH  35  36
ATOM     36  C   UNL     1      10.527   6.823  -7.289  1.00  0.00     0.031 A 
ATOM     37  C   UNL     1      11.055   8.114  -6.726  1.00  0.00     0.074 A 
ATOM     38  C   UNL     1      10.005   6.792  -8.532  1.00  0.00     0.049 A 
ATOM     39  N   UNL     1      11.154   9.283  -7.304  1.00  0.00    -0.248 NA
ATOM     40  C   UNL     1      11.507   8.100  -5.325  1.00  0.00     0.031 C 
ATOM     41  C   UNL     1       9.370   5.627  -9.155  1.00  0.00     0.029 A 
ATOM     42  N   UNL     1       9.902   7.773  -9.487  1.00  0.00    -0.354 N 
ATOM     43  C   UNL     1      11.645  10.149  -6.334  1.00  0.00     0.074 A 
ATOM     44  C   UNL     1      11.797   9.378  -5.120  1.00  0.00     0.031 C 
ATOM     45  C   UNL     1       8.950   5.960 -10.386  1.00  0.00     0.029 A 
ATOM     46  C   UNL     1       9.265   7.362 -10.635  1.00  0.00     0.049 A 
ATOM     47  H   UNL     1      10.252   8.685  -9.362  1.00  0.00     0.167 HD
ATOM     48  C   UNL     1      11.968  11.458  -6.452  1.00  0.00     0.034 A 
ATOM     49  C   UNL     1       8.971   8.039 -11.763  1.00  0.00     0.034 A 
ATOM     50  C   UNL     1      11.866  12.207  -7.676  1.00  0.00     0.049 A 
ATOM     51  C   UNL     1       9.412   9.472 -11.890  1.00  0.00     0.074 A 
ATOM     52  C   UNL     1      12.269  13.507  -7.925  1.00  0.00     0.029 A 
ATOM     53  N   UNL     1      11.316  11.727  -8.854  1.00  0.00    -0.354 N 
ATOM     54  N   UNL     1      10.052  10.217 -11.022  1.00  0.00    -0.248 NA
ATOM     55  C   UNL     1       9.132  10.143 -13.167  1.00  0.00     0.031 C 
ATOM     56  C   UNL     1      11.946  13.819  -9.250  1.00  0.00     0.029 A 
ATOM     57  C   UNL     1      11.362  12.706  -9.831  1.00  0.00     0.049 A 
ATOM     58  H   UNL     1      10.947  10.822  -8.978  1.00  0.00     0.167 HD
ATOM     59  C   UNL     1      10.279  11.432 -11.659  1.00  0.00     0.074 A 
ATOM     60  C   UNL     1       9.735  11.311 -12.995  1.00  0.00     0.031 C 
ATOM     61  C   UNL     1      10.868  12.554 -11.175  1.00  0.00     0.034 A 
BRANCH  48  62
ATOM     62  C   UNL     1      12.530  12.159  -5.243  1.00  0.00     0.023 A 
ATOM     63  C   UNL     1      13.844  11.867  -4.823  1.00  0.00     0.012 A 
ATOM     64  C   UNL     1      11.799  13.162  -4.579  1.00  0.00     0.148 A 
ATOM     65  C   UNL     1      14.413  12.545  -3.746  1.00  0.00     0.002 A 
ATOM     66  C   UNL     1      12.387  13.864  -3.533  1.00  0.00     0.091 A 
ATOM     67  F   UNL     1      10.545  13.412  -4.982  1.00  0.00    -0.205 F 
ATOM     68  C   UNL     1      13.690  13.550  -3.109  1.00  0.00     0.022 A 
BRANCH  66  69
ATOM     69  S   UNL     1      11.573  15.230  -2.697  1.00  0.00     0.127 S 
ATOM     70  O   UNL     1      11.340  14.666  -1.369  1.00  0.00    -0.237 OA
ATOM     71  O   UNL     1      12.598  16.273  -2.746  1.00  0.00    -0.237 OA
ATOM     72  O   UNL     1      10.373  15.518  -3.470  1.00  0.00    -0.744 OA
ENDBRANCH  66  69
ENDBRANCH  48  62
BRANCH  49  73
ATOM     73  C   UNL     1       8.285   7.348 -12.892  1.00  0.00     0.023 A 
ATOM     74  C   UNL     1       8.998   7.087 -14.079  1.00  0.00     0.012 A 
ATOM     75  C   UNL     1       6.942   6.937 -12.795  1.00  0.00     0.148 A 
ATOM     76  C   UNL     1       8.374   6.465 -15.162  1.00  0.00     0.002 A 
ATOM     77  C   UNL     1       6.344   6.267 -13.856  1.00  0.00     0.091 A 
ATOM     78  F   UNL     1       6.274   7.206 -11.664  1.00  0.00    -0.205 F 
ATOM     79  C   UNL     1       7.052   6.047 -15.048  1.00  0.00     0.022 A 
BRANCH  77  80
ATOM     80  S   UNL     1       4.691   5.574 -13.736  1.00  0.00     0.127 S 
ATOM     81  O   UNL     1       3.905   6.539 -14.499  1.00  0.00    -0.237 OA
ATOM     82  O   UNL     1       4.857   4.269 -14.378  1.00  0.00    -0.237 OA
ATOM     83  O   UNL     1       4.406   5.502 -12.309  1.00  0.00    -0.744 OA
ENDBRANCH  77  80
ENDBRANCH  49  73
BRANCH  61  84
ATOM     84  C   UNL     1      10.984  13.735 -12.102  1.00  0.00     0.023 A 
ATOM     85  C   UNL     1       9.833  14.474 -12.440  1.00  0.00     0.012 A 
ATOM     86  C   UNL     1      12.239  14.149 -12.588  1.00  0.00     0.148 A 
ATOM     87  C   UNL     1       9.924  15.585 -13.276  1.00  0.00     0.002 A 
ATOM     88  C   UNL     1      12.329  15.287 -13.381  1.00  0.00     0.091 A 
ATOM     89  F   UNL     1      13.321  13.422 -12.272  1.00  0.00    -0.205 F 
ATOM     90  C   UNL     1      11.172  15.998 -13.737  1.00  0.00     0.022 A 
BRANCH  88  91
ATOM     91  S   UNL     1      13.906  15.944 -13.937  1.00  0.00     0.127 S 
ATOM     92  O   UNL     1      13.925  15.529 -15.338  1.00  0.00    -0.237 OA
ATOM     93  O   UNL     1      13.738  17.383 -13.729  1.00  0.00    -0.237 OA
ATOM     94  O   UNL     1      14.916  15.328 -13.085  1.00  0.00    -0.744 OA
ENDBRANCH  88  91
ENDBRANCH  61  84
ENDBRANCH  35  36
ENDBRANCH  27  30
ENDBRANCH  25  26
ENDBRANCH  24  25
ENDBRANCH   1  24
TORSDOF 17
