REMARK SMILES Cc1ccc(S(=O)(=O)Nc2ccc(C(=O)CCC(=O)NCCCCNC(=O)c3ccc(-c4c5nc(c(-c6cccc(S(=O)(=O)[O-])c6F)c6ccc([nH]6)c(-c6cccc(S(=O)(=O)[O-])c6F)c6nc(c(-c7cccc(S(=O)(=O)[O-])c7F)c7ccc4[nH]7)C=C6)C=C5)cc3)cc2)c(C)c1
REMARK SMILES IDX 21 1 20 2 18 3 19 4 17 6 16 7 14 8 15 9 13 10 10 11 11 12
REMARK SMILES IDX 92 13 12 14 91 15 9 16 6 18 7 19 8 20 5 21 1 22 2 23 3 24
REMARK SMILES IDX 95 25 4 26 93 27 94 28 22 29 23 30 24 31 25 32 26 33 27 35
REMARK SMILES IDX 28 36 29 37 90 38 30 39 89 40 31 41 32 42 33 43 83 44 34 45
REMARK SMILES IDX 88 46 82 47 84 48 35 49 87 50 81 51 80 52 36 54 68 55 48 56
REMARK SMILES IDX 67 57 49 58 52 59 66 60 85 61 50 62 51 63 65 65 86 66 53 67
REMARK SMILES IDX 37 68 38 69 46 70 39 71 41 72 47 73 40 74 42 75 43 76 44 77
REMARK SMILES IDX 45 78 69 79 70 80 78 81 71 82 73 83 79 84 72 85 74 86 75 87
REMARK SMILES IDX 76 88 77 89 54 90 55 91 63 92 56 93 58 94 64 95 57 96 59 97
REMARK SMILES IDX 60 98 61 99 62 100
REMARK H PARENT 20 5 9 17 25 34 84 53 52 64
REMARK Flexibility Score: inf
ROOT
ATOM      1  C   UNL     1       2.762  -3.855  -1.780  1.00  0.00     0.116 C 
ENDROOT
BRANCH   1   2
ATOM      2  N   UNL     1       2.596  -3.340  -0.430  1.00  0.00    -0.356 N 
ATOM      3  C   UNL     1       3.373  -3.473   0.673  1.00  0.00     0.220 C 
ATOM      4  O   UNL     1       3.312  -2.610   1.549  1.00  0.00    -0.275 OA
ATOM      5  H   UNL     1       1.781  -2.804  -0.294  1.00  0.00     0.163 HD
BRANCH   3   6
ATOM      6  C   UNL     1       4.179  -4.723   0.873  1.00  0.00     0.108 C 
BRANCH   6   7
ATOM      7  C   UNL     1       3.591  -5.506   2.052  1.00  0.00     0.091 C 
BRANCH   7   8
ATOM      8  C   UNL     1       2.338  -6.280   1.673  1.00  0.00     0.163 C 
ATOM      9  O   UNL     1       2.450  -7.398   1.165  1.00  0.00    -0.294 OA
BRANCH   8  10
ATOM     10  C   UNL     1       0.972  -5.655   1.776  1.00  0.00     0.018 A 
ATOM     11  C   UNL     1      -1.409  -4.278   1.135  1.00  0.00     0.049 A 
ATOM     12  C   UNL     1      -1.283  -5.648   0.870  1.00  0.00     0.027 A 
ATOM     13  C   UNL     1      -0.426  -3.666   1.910  1.00  0.00     0.027 A 
ATOM     14  C   UNL     1      -0.101  -6.334   1.186  1.00  0.00     0.014 A 
ATOM     15  C   UNL     1       0.750  -4.359   2.251  1.00  0.00     0.014 A 
BRANCH  11  16
ATOM     16  N   UNL     1      -2.317  -3.560   0.296  1.00  0.00    -0.280 N 
ATOM     17  H   UNL     1      -2.668  -4.040  -0.489  1.00  0.00     0.180 HD
BRANCH  16  18
ATOM     18  S   UNL     1      -2.847  -1.980   0.514  1.00  0.00     0.262 S 
ATOM     19  O   UNL     1      -3.056  -1.773   1.932  1.00  0.00    -0.201 OA
ATOM     20  O   UNL     1      -3.891  -1.811  -0.468  1.00  0.00    -0.201 OA
BRANCH  18  21
ATOM     21  C   UNL     1      -1.538  -0.865   0.011  1.00  0.00     0.090 A 
ATOM     22  C   UNL     1       1.991   1.589  -0.225  1.00  0.00     0.044 C 
ATOM     23  C   UNL     1       0.731   0.775  -0.241  1.00  0.00    -0.051 A 
ATOM     24  C   UNL     1       0.728  -0.514  -0.767  1.00  0.00     0.005 A 
ATOM     25  C   UNL     1      -0.471   1.300   0.235  1.00  0.00     0.008 A 
ATOM     26  C   UNL     1      -0.386  -1.347  -0.610  1.00  0.00     0.023 A 
ATOM     27  C   UNL     1      -1.627   0.503   0.332  1.00  0.00    -0.030 A 
ATOM     28  C   UNL     1      -2.916   1.199   0.677  1.00  0.00     0.046 C 
ENDBRANCH  18  21
ENDBRANCH  16  18
ENDBRANCH  11  16
ENDBRANCH   8  10
ENDBRANCH   7   8
ENDBRANCH   6   7
ENDBRANCH   3   6
ENDBRANCH   1   2
BRANCH   1  29
ATOM     29  C   UNL     1       2.022  -5.160  -2.081  1.00  0.00     0.023 C 
BRANCH  29  30
ATOM     30  C   UNL     1       0.519  -5.112  -1.817  1.00  0.00     0.023 C 
BRANCH  30  31
ATOM     31  C   UNL     1      -0.373  -4.523  -2.906  1.00  0.00     0.116 C 
BRANCH  31  32
ATOM     32  N   UNL     1      -0.767  -5.540  -3.863  1.00  0.00    -0.352 N 
ATOM     33  C   UNL     1      -1.996  -6.086  -4.155  1.00  0.00     0.251 C 
ATOM     34  H   UNL     1      -0.025  -5.903  -4.399  1.00  0.00     0.163 HD
ATOM     35  O   UNL     1      -2.009  -7.146  -4.782  1.00  0.00    -0.269 OA
BRANCH  33  36
ATOM     36  C   UNL     1      -3.294  -5.459  -3.767  1.00  0.00     0.039 A 
ATOM     37  C   UNL     1      -4.420  -6.291  -3.658  1.00  0.00     0.014 A 
ATOM     38  C   UNL     1      -3.473  -4.080  -3.630  1.00  0.00     0.014 A 
ATOM     39  C   UNL     1      -5.696  -5.754  -3.425  1.00  0.00     0.010 A 
ATOM     40  C   UNL     1      -4.734  -3.552  -3.318  1.00  0.00     0.010 A 
ATOM     41  C   UNL     1      -5.869  -4.374  -3.248  1.00  0.00    -0.014 A 
BRANCH  41  42
ATOM     42  C   UNL     1      -7.222  -3.775  -3.038  1.00  0.00     0.031 A 
ATOM     43  C   UNL     1      -7.787  -2.789  -4.037  1.00  0.00     0.074 A 
ATOM     44  C   UNL     1      -7.929  -4.063  -1.926  1.00  0.00     0.049 A 
ATOM     45  N   UNL     1      -8.910  -2.116  -3.994  1.00  0.00    -0.248 NA
ATOM     46  C   UNL     1      -6.975  -2.508  -5.233  1.00  0.00     0.031 C 
ATOM     47  C   UNL     1      -7.492  -4.957  -0.852  1.00  0.00     0.029 A 
ATOM     48  N   UNL     1      -9.156  -3.611  -1.498  1.00  0.00    -0.354 N 
ATOM     49  C   UNL     1      -8.912  -1.295  -5.118  1.00  0.00     0.074 A 
ATOM     50  C   UNL     1      -7.673  -1.546  -5.821  1.00  0.00     0.031 C 
ATOM     51  C   UNL     1      -8.429  -4.983   0.110  1.00  0.00     0.029 A 
ATOM     52  C   UNL     1      -9.521  -4.086  -0.259  1.00  0.00     0.049 A 
ATOM     53  H   UNL     1      -9.720  -3.003  -2.029  1.00  0.00     0.167 HD
ATOM     54  C   UNL     1      -9.864  -0.428  -5.543  1.00  0.00     0.034 A 
ATOM     55  C   UNL     1     -10.602  -3.823   0.503  1.00  0.00     0.034 A 
ATOM     56  C   UNL     1     -11.127  -0.225  -4.885  1.00  0.00     0.049 A 
ATOM     57  C   UNL     1     -11.661  -2.884  -0.015  1.00  0.00     0.074 A 
ATOM     58  C   UNL     1     -12.197   0.549  -5.300  1.00  0.00     0.029 A 
ATOM     59  N   UNL     1     -11.492  -0.792  -3.675  1.00  0.00    -0.354 N 
ATOM     60  N   UNL     1     -11.714  -2.248  -1.160  1.00  0.00    -0.248 NA
ATOM     61  C   UNL     1     -12.828  -2.654   0.851  1.00  0.00     0.031 C 
ATOM     62  C   UNL     1     -13.199   0.470  -4.329  1.00  0.00     0.029 A 
ATOM     63  C   UNL     1     -12.764  -0.376  -3.322  1.00  0.00     0.049 A 
ATOM     64  H   UNL     1     -10.929  -1.402  -3.144  1.00  0.00     0.167 HD
ATOM     65  C   UNL     1     -12.934  -1.580  -1.169  1.00  0.00     0.074 A 
ATOM     66  C   UNL     1     -13.600  -1.906   0.074  1.00  0.00     0.031 C 
ATOM     67  C   UNL     1     -13.450  -0.759  -2.116  1.00  0.00     0.034 A 
BRANCH  54  68
ATOM     68  C   UNL     1      -9.611   0.343  -6.815  1.00  0.00     0.023 A 
ATOM     69  C   UNL     1      -9.675  -0.322  -8.056  1.00  0.00     0.012 A 
ATOM     70  C   UNL     1      -9.408   1.738  -6.788  1.00  0.00     0.148 A 
ATOM     71  C   UNL     1      -9.514   0.383  -9.249  1.00  0.00     0.002 A 
ATOM     72  C   UNL     1      -9.291   2.440  -7.982  1.00  0.00     0.091 A 
ATOM     73  F   UNL     1      -9.337   2.350  -5.598  1.00  0.00    -0.205 F 
ATOM     74  C   UNL     1      -9.334   1.763  -9.212  1.00  0.00     0.022 A 
BRANCH  72  75
ATOM     75  S   UNL     1      -9.138   4.229  -8.049  1.00  0.00     0.127 S 
ATOM     76  O   UNL     1      -7.766   4.390  -8.529  1.00  0.00    -0.237 OA
ATOM     77  O   UNL     1     -10.169   4.590  -9.022  1.00  0.00    -0.237 OA
ATOM     78  O   UNL     1      -9.384   4.707  -6.696  1.00  0.00    -0.744 OA
ENDBRANCH  72  75
ENDBRANCH  54  68
BRANCH  55  79
ATOM     79  C   UNL     1     -10.781  -4.504   1.819  1.00  0.00     0.023 A 
ATOM     80  C   UNL     1     -11.813  -5.452   1.967  1.00  0.00     0.012 A 
ATOM     81  C   UNL     1      -9.948  -4.222   2.919  1.00  0.00     0.148 A 
ATOM     82  C   UNL     1     -12.039  -6.075   3.195  1.00  0.00     0.002 A 
ATOM     83  C   UNL     1     -10.143  -4.888   4.124  1.00  0.00     0.091 A 
ATOM     84  F   UNL     1      -8.982  -3.305   2.767  1.00  0.00    -0.205 F 
ATOM     85  C   UNL     1     -11.199  -5.800   4.270  1.00  0.00     0.022 A 
BRANCH  83  86
ATOM     86  S   UNL     1      -9.030  -4.694   5.521  1.00  0.00     0.127 S 
ATOM     87  O   UNL     1      -9.826  -3.870   6.426  1.00  0.00    -0.237 OA
ATOM     88  O   UNL     1      -8.841  -6.079   5.954  1.00  0.00    -0.237 OA
ATOM     89  O   UNL     1      -7.831  -4.070   4.977  1.00  0.00    -0.744 OA
ENDBRANCH  83  86
ENDBRANCH  55  79
BRANCH  67  90
ATOM     90  C   UNL     1     -14.824  -0.187  -1.881  1.00  0.00     0.023 A 
ATOM     91  C   UNL     1     -15.011   0.820  -0.912  1.00  0.00     0.012 A 
ATOM     92  C   UNL     1     -15.916  -0.593  -2.674  1.00  0.00     0.148 A 
ATOM     93  C   UNL     1     -16.268   1.389  -0.714  1.00  0.00     0.002 A 
ATOM     94  C   UNL     1     -17.155   0.014  -2.505  1.00  0.00     0.091 A 
ATOM     95  F   UNL     1     -15.725  -1.564  -3.578  1.00  0.00    -0.205 F 
ATOM     96  C   UNL     1     -17.336   0.996  -1.517  1.00  0.00     0.022 A 
BRANCH  94  97
ATOM     97  S   UNL     1     -18.561  -0.358  -3.561  1.00  0.00     0.127 S 
ATOM     98  O   UNL     1     -19.412  -1.135  -2.661  1.00  0.00    -0.237 OA
ATOM     99  O   UNL     1     -19.072   0.976  -3.881  1.00  0.00    -0.237 OA
ATOM    100  O   UNL     1     -18.025  -1.088  -4.701  1.00  0.00    -0.744 OA
ENDBRANCH  94  97
ENDBRANCH  67  90
ENDBRANCH  41  42
ENDBRANCH  33  36
ENDBRANCH  31  32
ENDBRANCH  30  31
ENDBRANCH  29  30
ENDBRANCH   1  29
TORSDOF 20
