REMARK SMILES O=C(C[C@H]1CN(c2nc(C3CC3)ns2)CCO1)NCCCCNC(=O)c1ccc(-c2c3nc(c(-c4cccc(S(=O)(=O)[O-])c4F)c4ccc([nH]4)c(-c4cccc(S(=O)(=O)[O-])c4F)c4nc(c(-c5cccc(S(=O)(=O)[O-])c5F)c5ccc2[nH]5)C=C4)C=C3)cc1
REMARK SMILES IDX 20 1 19 2 18 3 1 4 2 5 3 7 4 8 5 9 17 10 6 11 16 12 15 13
REMARK SMILES IDX 7 14 8 15 14 16 9 17 13 18 10 19 11 20 12 21 21 22 22 23
REMARK SMILES IDX 23 24 24 25 25 27 26 28 27 29 88 30 28 31 87 32 29 33 30 34
REMARK SMILES IDX 31 35 81 36 32 37 86 38 80 39 82 40 33 41 85 42 79 43 78 44
REMARK SMILES IDX 34 46 66 47 46 48 65 49 47 50 50 51 64 52 83 53 48 54 49 55
REMARK SMILES IDX 63 57 84 58 51 59 35 60 36 61 44 62 37 63 39 64 45 65 38 66
REMARK SMILES IDX 40 67 41 68 42 69 43 70 67 71 68 72 76 73 69 74 71 75 77 76
REMARK SMILES IDX 70 77 72 78 73 79 74 80 75 81 52 82 53 83 61 84 54 85 56 86
REMARK SMILES IDX 62 87 55 88 57 89 58 90 59 91 60 92
REMARK H PARENT 18 6 23 26 82 45 50 56
REMARK Flexibility Score: inf
ROOT
ATOM      1  C   UNL     1       8.279   5.269   2.325  1.00  0.00     0.023 C 
ENDROOT
BRANCH   1   2
ATOM      2  C   UNL     1       7.674   3.878   2.199  1.00  0.00     0.116 C 
BRANCH   2   3
ATOM      3  N   UNL     1       6.832   3.685   1.036  1.00  0.00    -0.356 N 
ATOM      4  O   UNL     1       7.578   1.578   0.497  1.00  0.00    -0.275 OA
ATOM      5  C   UNL     1       6.742   2.472   0.389  1.00  0.00     0.222 C 
ATOM      6  H   UNL     1       6.307   4.446   0.697  1.00  0.00     0.163 HD
BRANCH   5   7
ATOM      7  C   UNL     1       5.554   2.320  -0.540  1.00  0.00     0.133 C 
BRANCH   7   8
ATOM      8  C   UNL     1       4.203   1.937   0.089  1.00  0.00     0.147 C 
ATOM      9  C   UNL     1       4.229   1.087   1.367  1.00  0.00     0.151 C 
ATOM     10  O   UNL     1       3.290   3.046   0.214  1.00  0.00    -0.374 OA
ATOM     11  N   UNL     1       4.491   1.916   2.539  1.00  0.00    -0.342 N 
ATOM     12  C   UNL     1       3.485   3.856   1.377  1.00  0.00     0.182 C 
ATOM     13  C   UNL     1       3.621   3.075   2.703  1.00  0.00     0.147 C 
BRANCH  11  14
ATOM     14  C   UNL     1       5.439   1.523   3.429  1.00  0.00     0.205 A 
ATOM     15  N   UNL     1       6.516   0.845   3.094  1.00  0.00    -0.203 NA
ATOM     16  S   UNL     1       5.452   1.852   5.131  1.00  0.00     0.004 S 
ATOM     17  C   UNL     1       7.351   0.695   4.187  1.00  0.00     0.147 A 
ATOM     18  N   UNL     1       6.924   1.102   5.384  1.00  0.00    -0.174 NA
BRANCH  17  19
ATOM     19  C   UNL     1       8.742   0.062   4.054  1.00  0.00     0.059 C 
ATOM     20  C   UNL     1       9.102  -0.697   2.791  1.00  0.00     0.012 C 
ATOM     21  C   UNL     1       9.745   0.617   3.061  1.00  0.00     0.012 C 
ENDBRANCH  17  19
ENDBRANCH  11  14
ENDBRANCH   7   8
ENDBRANCH   5   7
ENDBRANCH   2   3
ENDBRANCH   1   2
BRANCH   1  22
ATOM     22  C   UNL     1       7.266   6.406   2.446  1.00  0.00     0.023 C 
BRANCH  22  23
ATOM     23  C   UNL     1       6.307   6.315   3.631  1.00  0.00     0.116 C 
BRANCH  23  24
ATOM     24  N   UNL     1       6.956   6.507   4.918  1.00  0.00    -0.352 N 
ATOM     25  C   UNL     1       6.774   7.499   5.854  1.00  0.00     0.251 C 
ATOM     26  H   UNL     1       7.625   5.825   5.155  1.00  0.00     0.163 HD
ATOM     27  O   UNL     1       7.521   7.561   6.831  1.00  0.00    -0.269 OA
BRANCH  25  28
ATOM     28  C   UNL     1       5.709   8.513   5.681  1.00  0.00     0.039 A 
ATOM     29  C   UNL     1       6.023   9.860   5.880  1.00  0.00     0.014 A 
ATOM     30  C   UNL     1       4.407   8.148   5.326  1.00  0.00     0.014 A 
ATOM     31  C   UNL     1       5.057  10.842   5.644  1.00  0.00     0.010 A 
ATOM     32  C   UNL     1       3.470   9.132   5.013  1.00  0.00     0.010 A 
ATOM     33  C   UNL     1       3.783  10.491   5.166  1.00  0.00    -0.014 A 
BRANCH  33  34
ATOM     34  C   UNL     1       2.787  11.535   4.799  1.00  0.00     0.031 A 
ATOM     35  C   UNL     1       1.464  11.621   5.514  1.00  0.00     0.074 A 
ATOM     36  C   UNL     1       3.041  12.366   3.768  1.00  0.00     0.049 A 
ATOM     37  N   UNL     1       0.464  12.437   5.301  1.00  0.00    -0.248 NA
ATOM     38  C   UNL     1       1.224  10.650   6.594  1.00  0.00     0.031 C 
ATOM     39  C   UNL     1       4.249  12.341   2.940  1.00  0.00     0.029 A 
ATOM     40  N   UNL     1       2.288  13.377   3.221  1.00  0.00    -0.354 N 
ATOM     41  C   UNL     1      -0.532  12.062   6.195  1.00  0.00     0.074 A 
ATOM     42  C   UNL     1      -0.030  10.920   6.927  1.00  0.00     0.031 C 
ATOM     43  C   UNL     1       4.158  13.292   1.998  1.00  0.00     0.029 A 
ATOM     44  C   UNL     1       2.873  13.972   2.127  1.00  0.00     0.049 A 
ATOM     45  H   UNL     1       1.412  13.649   3.578  1.00  0.00     0.167 HD
ATOM     46  C   UNL     1      -1.743  12.632   6.410  1.00  0.00     0.034 A 
ATOM     47  C   UNL     1       2.425  14.946   1.310  1.00  0.00     0.034 A 
ATOM     48  C   UNL     1      -2.232  13.785   5.702  1.00  0.00     0.049 A 
ATOM     49  C   UNL     1       1.086  15.576   1.582  1.00  0.00     0.074 A 
ATOM     50  C   UNL     1      -3.412  14.480   5.902  1.00  0.00     0.029 A 
ATOM     51  N   UNL     1      -1.579  14.406   4.649  1.00  0.00    -0.354 N 
ATOM     52  N   UNL     1       0.224  15.304   2.531  1.00  0.00    -0.248 NA
ATOM     53  C   UNL     1       0.673  16.672   0.693  1.00  0.00     0.031 C 
ATOM     54  C   UNL     1      -3.488  15.500   4.948  1.00  0.00     0.029 A 
ATOM     55  C   UNL     1      -2.336  15.467   4.180  1.00  0.00     0.049 A 
ATOM     56  H   UNL     1      -0.705  14.133   4.287  1.00  0.00     0.167 HD
ATOM     57  C   UNL     1      -0.814  16.216   2.377  1.00  0.00     0.074 A 
ATOM     58  C   UNL     1      -0.462  17.063   1.255  1.00  0.00     0.031 C 
ATOM     59  C   UNL     1      -1.959  16.334   3.093  1.00  0.00     0.034 A 
BRANCH  46  60
ATOM     60  C   UNL     1      -2.613  12.039   7.490  1.00  0.00     0.023 A 
ATOM     61  C   UNL     1      -2.244  12.187   8.843  1.00  0.00     0.012 A 
ATOM     62  C   UNL     1      -3.821  11.388   7.173  1.00  0.00     0.148 A 
ATOM     63  C   UNL     1      -3.040  11.661   9.860  1.00  0.00     0.002 A 
ATOM     64  C   UNL     1      -4.634  10.909   8.194  1.00  0.00     0.091 A 
ATOM     65  F   UNL     1      -4.149  11.241   5.881  1.00  0.00    -0.205 F 
ATOM     66  C   UNL     1      -4.239  11.033   9.536  1.00  0.00     0.022 A 
BRANCH  64  67
ATOM     67  S   UNL     1      -6.236  10.157   7.887  1.00  0.00     0.127 S 
ATOM     68  O   UNL     1      -5.976   8.761   8.236  1.00  0.00    -0.237 OA
ATOM     69  O   UNL     1      -7.097  10.871   8.830  1.00  0.00    -0.237 OA
ATOM     70  O   UNL     1      -6.534  10.404   6.483  1.00  0.00    -0.744 OA
ENDBRANCH  64  67
ENDBRANCH  46  60
BRANCH  47  71
ATOM     71  C   UNL     1       3.274  15.416   0.178  1.00  0.00     0.023 A 
ATOM     72  C   UNL     1       3.841  16.705   0.220  1.00  0.00     0.012 A 
ATOM     73  C   UNL     1       3.540  14.584  -0.926  1.00  0.00     0.148 A 
ATOM     74  C   UNL     1       4.630  17.169  -0.834  1.00  0.00     0.002 A 
ATOM     75  C   UNL     1       4.375  15.030  -1.944  1.00  0.00     0.091 A 
ATOM     76  F   UNL     1       2.983  13.365  -0.950  1.00  0.00    -0.205 F 
ATOM     77  C   UNL     1       4.905  16.328  -1.910  1.00  0.00     0.022 A 
BRANCH  75  78
ATOM     78  S   UNL     1       4.891  13.970  -3.298  1.00  0.00     0.127 S 
ATOM     79  O   UNL     1       4.210  14.583  -4.435  1.00  0.00    -0.237 OA
ATOM     80  O   UNL     1       6.344  14.146  -3.280  1.00  0.00    -0.237 OA
ATOM     81  O   UNL     1       4.445  12.629  -2.943  1.00  0.00    -0.744 OA
ENDBRANCH  75  78
ENDBRANCH  47  71
BRANCH  59  82
ATOM     82  C   UNL     1      -2.908  17.445   2.721  1.00  0.00     0.023 A 
ATOM     83  C   UNL     1      -3.647  17.372   1.523  1.00  0.00     0.012 A 
ATOM     84  C   UNL     1      -3.117  18.529   3.596  1.00  0.00     0.148 A 
ATOM     85  C   UNL     1      -4.553  18.378   1.187  1.00  0.00     0.002 A 
ATOM     86  C   UNL     1      -4.059  19.500   3.280  1.00  0.00     0.091 A 
ATOM     87  F   UNL     1      -2.392  18.591   4.722  1.00  0.00    -0.205 F 
ATOM     88  C   UNL     1      -4.768  19.434   2.069  1.00  0.00     0.022 A 
BRANCH  86  89
ATOM     89  S   UNL     1      -4.475  20.843   4.398  1.00  0.00     0.127 S 
ATOM     90  O   UNL     1      -3.910  21.997   3.700  1.00  0.00    -0.237 OA
ATOM     91  O   UNL     1      -5.937  20.793   4.411  1.00  0.00    -0.237 OA
ATOM     92  O   UNL     1      -3.846  20.517   5.671  1.00  0.00    -0.744 OA
ENDBRANCH  86  89
ENDBRANCH  59  82
ENDBRANCH  33  34
ENDBRANCH  25  28
ENDBRANCH  23  24
ENDBRANCH  22  23
ENDBRANCH   1  22
TORSDOF 17
