REMARK SMILES C[C@@H](C(=O)NCCCCNC(=O)c1ccc(-c2c3nc(c(-c4cccc(S(=O)(=O)[O-])c4F)c4ccc([nH]4)c(-c4cccc(S(=O)(=O)[O-])c4F)c4nc(c(-c5cccc(S(=O)(=O)[O-])c5F)c5ccc2[nH]5)C=C4)C=C3)cc1)c1ccc(N[C@H]2CCC[C@@H]2O)cc1F
REMARK SMILES IDX 7 1 6 2 5 3 3 4 4 5 2 7 1 8 76 9 77 10 88 11 78 12 87 13
REMARK SMILES IDX 89 14 79 15 80 16 81 18 82 19 85 20 83 21 84 22 86 23 8 25
REMARK SMILES IDX 9 26 10 27 11 28 12 30 13 31 14 32 75 33 15 34 74 35 16 36
REMARK SMILES IDX 17 37 18 38 68 39 19 40 73 41 67 42 69 43 20 44 72 45 66 46
REMARK SMILES IDX 65 47 21 49 53 50 33 51 52 52 34 53 37 54 51 55 70 56 35 57
REMARK SMILES IDX 36 58 50 60 71 61 38 62 22 63 23 64 31 65 24 66 26 67 32 68
REMARK SMILES IDX 25 69 27 70 28 71 29 72 30 73 54 74 55 75 63 76 56 77 58 78
REMARK SMILES IDX 64 79 57 80 59 81 60 82 61 83 62 84 39 85 40 86 48 87 41 88
REMARK SMILES IDX 43 89 49 90 42 91 44 92 45 93 46 94 47 95
REMARK H PARENT 5 6 80 17 86 24 10 29 69 48 37 59
REMARK Flexibility Score: inf
ROOT
ATOM      1  C   UNL     1       4.201   0.791  -0.812  1.00  0.00     0.023 C 
ENDROOT
BRANCH   1   2
ATOM      2  C   UNL     1       3.329   1.742   0.012  1.00  0.00     0.116 C 
BRANCH   2   3
ATOM      3  N   UNL     1       2.228   2.259  -0.776  1.00  0.00    -0.356 N 
ATOM      4  C   UNL     1       0.915   1.883  -0.809  1.00  0.00     0.227 C 
ATOM      5  O   UNL     1       0.210   2.390  -1.683  1.00  0.00    -0.274 OA
ATOM      6  H   UNL     1       2.463   2.998  -1.383  1.00  0.00     0.163 HD
BRANCH   4   7
ATOM      7  C   UNL     1       0.360   0.900   0.244  1.00  0.00     0.108 C 
ATOM      8  C   UNL     1       0.851  -0.515  -0.075  1.00  0.00     0.023 C 
BRANCH   7   9
ATOM      9  C   UNL     1      -1.157   1.030   0.397  1.00  0.00     0.000 A 
ATOM     10  C   UNL     1      -1.713   2.290   0.676  1.00  0.00     0.009 A 
ATOM     11  C   UNL     1      -2.055  -0.031   0.272  1.00  0.00     0.129 A 
ATOM     12  C   UNL     1      -3.103   2.477   0.755  1.00  0.00     0.026 A 
ATOM     13  C   UNL     1      -3.436   0.157   0.367  1.00  0.00     0.065 A 
ATOM     14  F   UNL     1      -1.634  -1.283   0.052  1.00  0.00    -0.207 F 
ATOM     15  C   UNL     1      -3.995   1.421   0.575  1.00  0.00     0.037 A 
BRANCH  15  16
ATOM     16  N   UNL     1      -5.368   1.530   0.598  1.00  0.00    -0.380 N 
ATOM     17  H   UNL     1      -5.855   0.675   0.587  1.00  0.00     0.160 HD
BRANCH  16  18
ATOM     18  C   UNL     1      -6.209   2.721   0.636  1.00  0.00     0.107 C 
ATOM     19  C   UNL     1      -6.072   3.551   1.916  1.00  0.00     0.027 C 
ATOM     20  C   UNL     1      -6.003   3.695  -0.537  1.00  0.00     0.136 C 
ATOM     21  C   UNL     1      -6.006   5.009   1.456  1.00  0.00     0.005 C 
ATOM     22  C   UNL     1      -6.535   5.003   0.030  1.00  0.00     0.034 C 
BRANCH  20  23
ATOM     23  O   UNL     1      -6.749   3.324  -1.689  1.00  0.00    -0.391 OA
ATOM     24  H   UNL     1      -7.691   3.272  -1.462  1.00  0.00     0.211 HD
ENDBRANCH  20  23
ENDBRANCH  16  18
ENDBRANCH  15  16
ENDBRANCH   7   9
ENDBRANCH   4   7
ENDBRANCH   2   3
ENDBRANCH   1   2
BRANCH   1  25
ATOM     25  C   UNL     1       4.990   1.457  -1.940  1.00  0.00     0.023 C 
BRANCH  25  26
ATOM     26  C   UNL     1       5.992   2.511  -1.490  1.00  0.00     0.116 C 
BRANCH  26  27
ATOM     27  N   UNL     1       7.004   1.986  -0.585  1.00  0.00    -0.352 N 
ATOM     28  C   UNL     1       8.348   2.285  -0.552  1.00  0.00     0.251 C 
ATOM     29  H   UNL     1       6.690   1.337   0.085  1.00  0.00     0.163 HD
ATOM     30  O   UNL     1       9.107   1.679   0.198  1.00  0.00    -0.269 OA
BRANCH  28  31
ATOM     31  C   UNL     1       8.862   3.326  -1.462  1.00  0.00     0.039 A 
ATOM     32  C   UNL     1       9.915   3.017  -2.326  1.00  0.00     0.014 A 
ATOM     33  C   UNL     1       8.240   4.575  -1.512  1.00  0.00     0.014 A 
ATOM     34  C   UNL     1      10.297   3.941  -3.301  1.00  0.00     0.010 A 
ATOM     35  C   UNL     1       8.576   5.464  -2.524  1.00  0.00     0.010 A 
ATOM     36  C   UNL     1       9.603   5.154  -3.431  1.00  0.00    -0.014 A 
BRANCH  36  37
ATOM     37  C   UNL     1       9.899   6.122  -4.515  1.00  0.00     0.031 A 
ATOM     38  C   UNL     1      10.371   7.504  -4.164  1.00  0.00     0.074 A 
ATOM     39  C   UNL     1       9.588   5.814  -5.789  1.00  0.00     0.049 A 
ATOM     40  N   UNL     1      10.501   8.552  -4.933  1.00  0.00    -0.248 NA
ATOM     41  C   UNL     1      10.697   7.750  -2.749  1.00  0.00     0.031 C 
ATOM     42  C   UNL     1       9.037   4.534  -6.239  1.00  0.00     0.029 A 
ATOM     43  N   UNL     1       9.638   6.576  -6.930  1.00  0.00    -0.354 N 
ATOM     44  C   UNL     1      10.861   9.595  -4.090  1.00  0.00     0.074 A 
ATOM     45  C   UNL     1      10.913   9.057  -2.748  1.00  0.00     0.031 C 
ATOM     46  C   UNL     1       8.777   4.607  -7.554  1.00  0.00     0.029 A 
ATOM     47  C   UNL     1       9.114   5.945  -8.034  1.00  0.00     0.049 A 
ATOM     48  H   UNL     1      10.013   7.486  -6.956  1.00  0.00     0.167 HD
ATOM     49  C   UNL     1      11.147  10.879  -4.407  1.00  0.00     0.034 A 
ATOM     50  C   UNL     1       8.907   6.397  -9.287  1.00  0.00     0.034 A 
ATOM     51  C   UNL     1      11.165  11.389  -5.750  1.00  0.00     0.049 A 
ATOM     52  C   UNL     1       9.319   7.801  -9.635  1.00  0.00     0.074 A 
ATOM     53  C   UNL     1      11.560  12.638  -6.191  1.00  0.00     0.029 A 
ATOM     54  N   UNL     1      10.771  10.673  -6.870  1.00  0.00    -0.354 N 
ATOM     55  N   UNL     1       9.823   8.727  -8.855  1.00  0.00    -0.248 NA
ATOM     56  C   UNL     1       9.172   8.213 -11.039  1.00  0.00     0.031 C 
ATOM     57  C   UNL     1      11.402  12.679  -7.581  1.00  0.00     0.029 A 
ATOM     58  C   UNL     1      10.914  11.453  -8.004  1.00  0.00     0.049 A 
ATOM     59  H   UNL     1      10.440   9.746  -6.861  1.00  0.00     0.167 HD
ATOM     60  C   UNL     1      10.083   9.818  -9.675  1.00  0.00     0.074 A 
ATOM     61  C   UNL     1       9.694   9.434 -11.017  1.00  0.00     0.031 C 
ATOM     62  C   UNL     1      10.584  11.034  -9.343  1.00  0.00     0.034 A 
BRANCH  49  63
ATOM     63  C   UNL     1      11.524  11.802  -3.280  1.00  0.00     0.023 A 
ATOM     64  C   UNL     1      12.780  11.657  -2.656  1.00  0.00     0.012 A 
ATOM     65  C   UNL     1      10.655  12.824  -2.854  1.00  0.00     0.148 A 
ATOM     66  C   UNL     1      13.148  12.486  -1.598  1.00  0.00     0.002 A 
ATOM     67  C   UNL     1      11.046  13.674  -1.824  1.00  0.00     0.091 A 
ATOM     68  F   UNL     1       9.452  12.931  -3.436  1.00  0.00    -0.205 F 
ATOM     69  C   UNL     1      12.286  13.500  -1.188  1.00  0.00     0.022 A 
BRANCH  67  70
ATOM     70  S   UNL     1      10.021  15.049  -1.290  1.00  0.00     0.127 S 
ATOM     71  O   UNL     1       9.323  14.472  -0.143  1.00  0.00    -0.237 OA
ATOM     72  O   UNL     1      11.012  16.071  -0.949  1.00  0.00    -0.237 OA
ATOM     73  O   UNL     1       9.191  15.382  -2.440  1.00  0.00    -0.744 OA
ENDBRANCH  67  70
ENDBRANCH  49  63
BRANCH  50  74
ATOM     74  C   UNL     1       8.342   5.476 -10.311  1.00  0.00     0.023 A 
ATOM     75  C   UNL     1       9.192   4.946 -11.301  1.00  0.00     0.012 A 
ATOM     76  C   UNL     1       6.997   5.059 -10.263  1.00  0.00     0.148 A 
ATOM     77  C   UNL     1       8.710   4.029 -12.236  1.00  0.00     0.002 A 
ATOM     78  C   UNL     1       6.536   4.107 -11.165  1.00  0.00     0.091 A 
ATOM     79  F   UNL     1       6.205   5.582  -9.317  1.00  0.00    -0.205 F 
ATOM     80  C   UNL     1       7.387   3.601 -12.161  1.00  0.00     0.022 A 
BRANCH  78  81
ATOM     81  S   UNL     1       4.890   3.394 -11.062  1.00  0.00     0.127 S 
ATOM     82  O   UNL     1       4.253   3.936 -12.259  1.00  0.00    -0.237 OA
ATOM     83  O   UNL     1       5.181   1.960 -11.114  1.00  0.00    -0.237 OA
ATOM     84  O   UNL     1       4.343   3.850  -9.791  1.00  0.00    -0.744 OA
ENDBRANCH  78  81
ENDBRANCH  50  74
BRANCH  62  85
ATOM     85  C   UNL     1      10.778  12.040 -10.444  1.00  0.00     0.023 A 
ATOM     86  C   UNL     1       9.664  12.728 -10.961  1.00  0.00     0.012 A 
ATOM     87  C   UNL     1      12.071  12.382 -10.885  1.00  0.00     0.148 A 
ATOM     88  C   UNL     1       9.832  13.734 -11.912  1.00  0.00     0.002 A 
ATOM     89  C   UNL     1      12.235  13.413 -11.803  1.00  0.00     0.091 A 
ATOM     90  F   UNL     1      13.116  11.699 -10.395  1.00  0.00    -0.205 F 
ATOM     91  C   UNL     1      11.117  14.085 -12.322  1.00  0.00     0.022 A 
BRANCH  89  92
ATOM     92  S   UNL     1      13.857  13.992 -12.315  1.00  0.00     0.127 S 
ATOM     93  O   UNL     1      13.959  13.440 -13.664  1.00  0.00    -0.237 OA
ATOM     94  O   UNL     1      13.701  15.447 -12.262  1.00  0.00    -0.237 OA
ATOM     95  O   UNL     1      14.799  13.453 -11.343  1.00  0.00    -0.744 OA
ENDBRANCH  89  92
ENDBRANCH  62  85
ENDBRANCH  36  37
ENDBRANCH  28  31
ENDBRANCH  26  27
ENDBRANCH  25  26
ENDBRANCH   1  25
TORSDOF 18
