REMARK SMILES CCC([NH3+])(CC)C(=O)N1Cc2nc[nH]c2C[C@H]1C(=O)NCCCCNC(=O)c1ccc(-c2c3nc(c(-c4cccc(S(=O)(=O)[O-])c4F)c4ccc([nH]4)c(-c4cccc(S(=O)(=O)[O-])c4F)c4nc(c(-c5cccc(S(=O)(=O)[O-])c5F)c5ccc2[nH]5)C=C4)C=C3)cc1
REMARK SMILES IDX 22 1 21 2 20 3 18 4 19 5 17 7 9 8 10 9 11 10 16 11 12 12
REMARK SMILES IDX 15 13 13 14 14 15 7 17 8 18 3 19 2 20 1 21 4 22 5 26 6 27
REMARK SMILES IDX 23 28 24 29 25 30 26 31 27 33 28 34 29 35 90 36 30 37 89 38
REMARK SMILES IDX 31 39 32 40 33 41 83 42 34 43 88 44 82 45 84 46 35 47 87 48
REMARK SMILES IDX 81 49 80 50 36 52 68 53 48 54 67 55 49 56 52 57 66 58 85 59
REMARK SMILES IDX 50 60 51 61 65 63 86 64 53 65 37 66 38 67 46 68 39 69 41 70
REMARK SMILES IDX 47 71 40 72 42 73 43 74 44 75 45 76 69 77 70 78 78 79 71 80
REMARK SMILES IDX 73 81 79 82 72 83 74 84 75 85 76 86 77 87 54 88 55 89 63 90
REMARK SMILES IDX 56 91 58 92 64 93 57 94 59 95 60 96 61 97 62 98
REMARK H PARENT 20 6 14 16 4 23 4 24 4 25 25 32 84 51 52 62
REMARK Flexibility Score: inf
ROOT
ATOM      1  C   UNL     1       5.426   2.793   4.769  1.00  0.00     0.023 C 
ENDROOT
BRANCH   1   2
ATOM      2  C   UNL     1       5.007   1.913   5.955  1.00  0.00     0.116 C 
BRANCH   2   3
ATOM      3  N   UNL     1       3.567   1.740   6.011  1.00  0.00    -0.354 N 
ATOM      4  C   UNL     1       2.712   0.811   5.516  1.00  0.00     0.243 C 
ATOM      5  O   UNL     1       1.513   1.134   5.533  1.00  0.00    -0.273 OA
ATOM      6  H   UNL     1       3.112   2.451   6.518  1.00  0.00     0.163 HD
BRANCH   4   7
ATOM      7  C   UNL     1       3.095  -0.530   4.843  1.00  0.00     0.181 C 
ATOM      8  N   UNL     1       3.369  -0.485   3.371  1.00  0.00    -0.319 N 
ATOM      9  C   UNL     1       4.755  -0.179   2.947  1.00  0.00     0.178 C 
ATOM     10  C   UNL     1       5.743  -0.771   3.887  1.00  0.00     0.081 A 
ATOM     11  C   UNL     1       4.054  -1.461   5.639  1.00  0.00     0.091 C 
ATOM     12  N   UNL     1       7.103  -0.659   3.767  1.00  0.00    -0.240 NA
ATOM     13  C   UNL     1       5.419  -1.353   5.088  1.00  0.00     0.042 A 
ATOM     14  C   UNL     1       7.590  -1.201   4.865  1.00  0.00     0.197 A 
ATOM     15  N   UNL     1       6.600  -1.674   5.688  1.00  0.00    -0.348 N 
ATOM     16  H   UNL     1       6.718  -2.151   6.541  1.00  0.00     0.167 HD
BRANCH   8  17
ATOM     17  C   UNL     1       2.496  -0.863   2.356  1.00  0.00     0.284 C 
ATOM     18  O   UNL     1       2.973  -1.303   1.299  1.00  0.00    -0.268 OA
BRANCH  17  19
ATOM     19  C   UNL     1       0.925  -0.694   2.460  1.00  0.00     0.173 C 
BRANCH  19  20
ATOM     20  C   UNL     1       0.298  -0.932   1.040  1.00  0.00     0.075 C 
ATOM     21  C   UNL     1       0.670   0.075  -0.051  1.00  0.00     0.011 C 
ENDBRANCH  19  20
BRANCH  19  22
ATOM     22  N   UNL     1       0.582   0.694   2.845  1.00  0.00    -0.345 N 
ATOM     23  H   UNL     1      -0.432   0.788   2.908  1.00  0.00     0.345 HD
ATOM     24  H   UNL     1       0.940   1.340   2.142  1.00  0.00     0.345 HD
ATOM     25  H   UNL     1       1.001   0.909   3.749  1.00  0.00     0.345 HD
ENDBRANCH  19  22
BRANCH  19  26
ATOM     26  C   UNL     1       0.221  -1.665   3.441  1.00  0.00     0.075 C 
ATOM     27  C   UNL     1       0.713  -3.105   3.372  1.00  0.00     0.011 C 
ENDBRANCH  19  26
ENDBRANCH  17  19
ENDBRANCH   8  17
ENDBRANCH   4   7
ENDBRANCH   2   3
ENDBRANCH   1   2
BRANCH   1  28
ATOM     28  C   UNL     1       5.795   4.238   5.125  1.00  0.00     0.023 C 
BRANCH  28  29
ATOM     29  C   UNL     1       7.089   4.386   5.919  1.00  0.00     0.116 C 
BRANCH  29  30
ATOM     30  N   UNL     1       8.281   3.980   5.172  1.00  0.00    -0.352 N 
ATOM     31  C   UNL     1       9.543   3.753   5.687  1.00  0.00     0.251 C 
ATOM     32  H   UNL     1       8.172   3.856   4.201  1.00  0.00     0.163 HD
ATOM     33  O   UNL     1      10.548   3.794   4.984  1.00  0.00    -0.269 OA
BRANCH  31  34
ATOM     34  C   UNL     1       9.644   3.451   7.122  1.00  0.00     0.039 A 
ATOM     35  C   UNL     1      10.463   4.208   7.963  1.00  0.00     0.014 A 
ATOM     36  C   UNL     1       8.788   2.472   7.624  1.00  0.00     0.014 A 
ATOM     37  C   UNL     1      10.338   4.044   9.340  1.00  0.00     0.010 A 
ATOM     38  C   UNL     1       8.586   2.397   8.982  1.00  0.00     0.010 A 
ATOM     39  C   UNL     1       9.372   3.160   9.848  1.00  0.00    -0.014 A 
BRANCH  39  40
ATOM     40  C   UNL     1       9.082   3.135  11.282  1.00  0.00     0.031 A 
ATOM     41  C   UNL     1       8.733   4.450  11.899  1.00  0.00     0.074 A 
ATOM     42  C   UNL     1       8.896   1.988  11.970  1.00  0.00     0.049 A 
ATOM     43  N   UNL     1       9.388   5.096  12.809  1.00  0.00    -0.248 NA
ATOM     44  C   UNL     1       7.573   5.184  11.370  1.00  0.00     0.031 C 
ATOM     45  C   UNL     1       8.877   0.617  11.443  1.00  0.00     0.029 A 
ATOM     46  N   UNL     1       8.520   1.817  13.268  1.00  0.00    -0.354 N 
ATOM     47  C   UNL     1       8.601   6.202  13.135  1.00  0.00     0.074 A 
ATOM     48  C   UNL     1       7.610   6.304  12.096  1.00  0.00     0.031 C 
ATOM     49  C   UNL     1       8.247  -0.191  12.321  1.00  0.00     0.029 A 
ATOM     50  C   UNL     1       7.995   0.557  13.536  1.00  0.00     0.049 A 
ATOM     51  H   UNL     1       8.611   2.519  13.952  1.00  0.00     0.167 HD
ATOM     52  C   UNL     1       8.678   6.795  14.361  1.00  0.00     0.034 A 
ATOM     53  C   UNL     1       7.358   0.163  14.663  1.00  0.00     0.034 A 
ATOM     54  C   UNL     1       9.853   6.365  15.077  1.00  0.00     0.049 A 
ATOM     55  C   UNL     1       7.756   1.094  15.739  1.00  0.00     0.074 A 
ATOM     56  C   UNL     1      11.214   6.391  14.851  1.00  0.00     0.029 A 
ATOM     57  N   UNL     1       9.658   5.463  16.094  1.00  0.00    -0.354 N 
ATOM     58  N   UNL     1       8.971   1.176  16.205  1.00  0.00    -0.248 NA
ATOM     59  C   UNL     1       6.893   2.223  16.035  1.00  0.00     0.031 C 
ATOM     60  C   UNL     1      11.698   5.166  15.400  1.00  0.00     0.029 A 
ATOM     61  C   UNL     1      10.616   4.497  15.977  1.00  0.00     0.049 A 
ATOM     62  H   UNL     1       8.955   5.505  16.783  1.00  0.00     0.167 HD
ATOM     63  C   UNL     1       9.158   2.531  16.435  1.00  0.00     0.074 A 
ATOM     64  C   UNL     1       7.812   3.099  16.450  1.00  0.00     0.031 C 
ATOM     65  C   UNL     1      10.391   3.103  16.295  1.00  0.00     0.034 A 
BRANCH  52  66
ATOM     66  C   UNL     1       7.529   7.456  15.104  1.00  0.00     0.023 A 
ATOM     67  C   UNL     1       7.837   8.085  16.337  1.00  0.00     0.012 A 
ATOM     68  C   UNL     1       6.160   7.241  14.830  1.00  0.00     0.148 A 
ATOM     69  C   UNL     1       6.849   8.395  17.278  1.00  0.00     0.002 A 
ATOM     70  C   UNL     1       5.175   7.624  15.737  1.00  0.00     0.091 A 
ATOM     71  F   UNL     1       5.791   6.545  13.754  1.00  0.00    -0.205 F 
ATOM     72  C   UNL     1       5.515   8.165  16.978  1.00  0.00     0.022 A 
BRANCH  70  73
ATOM     73  S   UNL     1       3.429   7.394  15.374  1.00  0.00     0.127 S 
ATOM     74  O   UNL     1       3.113   6.231  16.196  1.00  0.00    -0.237 OA
ATOM     75  O   UNL     1       2.857   8.659  15.838  1.00  0.00    -0.237 OA
ATOM     76  O   UNL     1       3.357   7.203  13.931  1.00  0.00    -0.744 OA
ENDBRANCH  70  73
ENDBRANCH  52  66
BRANCH  53  77
ATOM     77  C   UNL     1       6.284  -0.838  14.836  1.00  0.00     0.023 A 
ATOM     78  C   UNL     1       6.070  -1.421  16.099  1.00  0.00     0.012 A 
ATOM     79  C   UNL     1       5.301  -1.019  13.838  1.00  0.00     0.148 A 
ATOM     80  C   UNL     1       4.895  -2.130  16.373  1.00  0.00     0.002 A 
ATOM     81  C   UNL     1       4.138  -1.731  14.112  1.00  0.00     0.091 A 
ATOM     82  F   UNL     1       5.465  -0.418  12.652  1.00  0.00    -0.205 F 
ATOM     83  C   UNL     1       3.924  -2.277  15.384  1.00  0.00     0.022 A 
BRANCH  81  84
ATOM     84  S   UNL     1       2.841  -1.946  12.885  1.00  0.00     0.127 S 
ATOM     85  O   UNL     1       2.544  -3.374  13.002  1.00  0.00    -0.237 OA
ATOM     86  O   UNL     1       1.797  -1.058  13.388  1.00  0.00    -0.237 OA
ATOM     87  O   UNL     1       3.435  -1.567  11.608  1.00  0.00    -0.744 OA
ENDBRANCH  81  84
ENDBRANCH  53  77
BRANCH  65  88
ATOM     88  C   UNL     1      11.591   2.196  16.180  1.00  0.00     0.023 A 
ATOM     89  C   UNL     1      11.756   1.296  15.107  1.00  0.00     0.012 A 
ATOM     90  C   UNL     1      12.655   2.385  17.077  1.00  0.00     0.148 A 
ATOM     91  C   UNL     1      12.947   0.583  14.947  1.00  0.00     0.002 A 
ATOM     92  C   UNL     1      13.855   1.712  16.887  1.00  0.00     0.091 A 
ATOM     93  F   UNL     1      12.486   3.249  18.090  1.00  0.00    -0.205 F 
ATOM     94  C   UNL     1      14.002   0.801  15.829  1.00  0.00     0.022 A 
BRANCH  92  95
ATOM     95  S   UNL     1      15.290   2.051  17.909  1.00  0.00     0.127 S 
ATOM     96  O   UNL     1      15.315   0.890  18.796  1.00  0.00    -0.237 OA
ATOM     97  O   UNL     1      16.375   2.094  16.927  1.00  0.00    -0.237 OA
ATOM     98  O   UNL     1      15.026   3.331  18.555  1.00  0.00    -0.744 OA
ENDBRANCH  92  95
ENDBRANCH  65  88
ENDBRANCH  39  40
ENDBRANCH  31  34
ENDBRANCH  29  30
ENDBRANCH  28  29
ENDBRANCH   1  28
TORSDOF 19
