REMARK SMILES Cc1cccc(OC2(C(=O)NCCCCNC(=O)c3ccc(-c4c5nc(c(-c6cccc(S(=O)(=O)[O-])c6F)c6ccc([nH]6)c(-c6cccc(S(=O)(=O)[O-])c6F)c6nc(c(-c7cccc(S(=O)(=O)[O-])c7F)c7ccc4[nH]7)C=C6)C=C5)cc3)CCN(C(=O)c3cnc[nH]c3=O)CC2)c1
REMARK SMILES IDX 14 1 13 2 12 3 11 4 9 5 10 6 8 8 82 9 95 10 83 11 94 12
REMARK SMILES IDX 84 13 85 14 86 15 7 16 6 17 1 18 2 19 3 20 96 21 4 22 5 23
REMARK SMILES IDX 87 24 88 25 92 26 89 27 91 28 93 29 90 30 15 32 16 33 17 34
REMARK SMILES IDX 18 36 19 37 20 38 81 39 21 40 80 41 22 42 23 43 24 44 74 45
REMARK SMILES IDX 25 46 79 47 73 48 75 49 26 50 78 51 72 52 71 53 27 55 59 56
REMARK SMILES IDX 39 57 58 58 40 59 43 60 57 61 76 62 41 63 42 64 56 66 77 67
REMARK SMILES IDX 44 68 28 69 29 70 37 71 30 72 32 73 38 74 31 75 33 76 34 77
REMARK SMILES IDX 35 78 36 79 60 80 61 81 69 82 62 83 64 84 70 85 63 86 65 87
REMARK SMILES IDX 66 88 67 89 68 90 45 91 46 92 54 93 47 94 49 95 55 96 48 97
REMARK SMILES IDX 50 98 51 99 52 100 53 101
REMARK H PARENT 11 7 91 31 16 35 75 54 43 65
REMARK Flexibility Score: inf
ROOT
ATOM      1  C   UNL     1       2.352   5.699  -3.045  1.00  0.00     0.023 C 
ENDROOT
BRANCH   1   2
ATOM      2  C   UNL     1       1.711   6.166  -1.736  1.00  0.00     0.023 C 
BRANCH   2   3
ATOM      3  C   UNL     1       0.173   6.356  -1.645  1.00  0.00     0.116 C 
BRANCH   3   4
ATOM      4  N   UNL     1      -0.732   5.239  -1.968  1.00  0.00    -0.353 N 
ATOM      5  C   UNL     1      -1.370   4.267  -1.228  1.00  0.00     0.264 C 
ATOM      6  O   UNL     1      -2.445   3.872  -1.703  1.00  0.00    -0.270 OA
ATOM      7  H   UNL     1      -0.925   5.172  -2.932  1.00  0.00     0.163 HD
BRANCH   5   8
ATOM      8  C   UNL     1      -0.805   3.615   0.093  1.00  0.00     0.190 C 
ATOM      9  C   UNL     1       0.684   3.886   0.142  1.00  0.00     0.080 C 
ATOM     10  C   UNL     1      -1.482   4.235   1.347  1.00  0.00     0.080 C 
ATOM     11  C   UNL     1       1.427   3.698   1.437  1.00  0.00     0.124 C 
ATOM     12  C   UNL     1      -0.680   3.930   2.630  1.00  0.00     0.124 C 
ATOM     13  N   UNL     1       0.693   4.395   2.466  1.00  0.00    -0.338 N 
ATOM     14  C   UNL     1       1.108   5.661   2.850  1.00  0.00     0.261 C 
ATOM     15  O   UNL     1       1.763   6.415   2.136  1.00  0.00    -0.269 OA
BRANCH   8  16
ATOM     16  O   UNL     1      -1.294   2.257   0.070  1.00  0.00    -0.477 OA
BRANCH  16  17
ATOM     17  C   UNL     1      -0.654   1.071   0.001  1.00  0.00     0.121 A 
ATOM     18  C   UNL     1       2.731  -0.641  -0.024  1.00  0.00     0.044 C 
ATOM     19  C   UNL     1       1.242  -0.459  -0.024  1.00  0.00    -0.047 A 
ATOM     20  C   UNL     1       0.379  -1.553   0.024  1.00  0.00     0.003 A 
ATOM     21  C   UNL     1       0.709   0.837  -0.074  1.00  0.00     0.049 A 
ATOM     22  C   UNL     1      -0.998  -1.343   0.034  1.00  0.00     0.004 A 
ATOM     23  C   UNL     1      -1.505  -0.040   0.033  1.00  0.00     0.046 A 
ENDBRANCH  16  17
ENDBRANCH   8  16
BRANCH  14  24
ATOM     24  C   UNL     1       0.782   6.020   4.238  1.00  0.00     0.123 A 
ATOM     25  C   UNL     1       0.176   7.179   4.529  1.00  0.00     0.132 A 
ATOM     26  C   UNL     1       1.151   5.143   5.364  1.00  0.00     0.263 A 
ATOM     27  N   UNL     1      -0.184   7.579   5.795  1.00  0.00    -0.246 NA
ATOM     28  N   UNL     1       0.767   5.592   6.594  1.00  0.00    -0.312 N 
ATOM     29  O   UNL     1       1.769   4.091   5.239  1.00  0.00    -0.269 OA
ATOM     30  C   UNL     1       0.123   6.780   6.760  1.00  0.00     0.199 A 
ATOM     31  H   UNL     1       0.962   5.039   7.385  1.00  0.00     0.171 HD
ENDBRANCH  14  24
ENDBRANCH   5   8
ENDBRANCH   3   4
ENDBRANCH   2   3
ENDBRANCH   1   2
BRANCH   1  32
ATOM     32  C   UNL     1       2.650   6.793  -4.060  1.00  0.00     0.116 C 
BRANCH  32  33
ATOM     33  N   UNL     1       3.352   7.926  -3.445  1.00  0.00    -0.352 N 
ATOM     34  C   UNL     1       3.337   9.282  -3.678  1.00  0.00     0.251 C 
ATOM     35  H   UNL     1       3.959   7.661  -2.716  1.00  0.00     0.163 HD
ATOM     36  O   UNL     1       4.285   9.952  -3.256  1.00  0.00    -0.269 OA
BRANCH  34  37
ATOM     37  C   UNL     1       2.190   9.927  -4.337  1.00  0.00     0.039 A 
ATOM     38  C   UNL     1       2.188  11.268  -4.736  1.00  0.00     0.014 A 
ATOM     39  C   UNL     1       1.005   9.213  -4.381  1.00  0.00     0.014 A 
ATOM     40  C   UNL     1       0.965  11.881  -5.014  1.00  0.00     0.010 A 
ATOM     41  C   UNL     1      -0.098   9.699  -4.988  1.00  0.00     0.010 A 
ATOM     42  C   UNL     1      -0.170  11.079  -5.042  1.00  0.00    -0.014 A 
BRANCH  42  43
ATOM     43  C   UNL     1      -1.551  11.491  -4.933  1.00  0.00     0.031 A 
ATOM     44  C   UNL     1      -2.267  11.850  -6.145  1.00  0.00     0.074 A 
ATOM     45  C   UNL     1      -2.170  11.065  -3.805  1.00  0.00     0.049 A 
ATOM     46  N   UNL     1      -3.470  12.288  -6.160  1.00  0.00    -0.248 NA
ATOM     47  C   UNL     1      -1.653  11.744  -7.460  1.00  0.00     0.031 C 
ATOM     48  C   UNL     1      -3.551  10.647  -3.608  1.00  0.00     0.029 A 
ATOM     49  N   UNL     1      -1.612  10.867  -2.552  1.00  0.00    -0.354 N 
ATOM     50  C   UNL     1      -3.897  12.224  -7.466  1.00  0.00     0.074 A 
ATOM     51  C   UNL     1      -2.694  12.038  -8.239  1.00  0.00     0.031 C 
ATOM     52  C   UNL     1      -3.778  10.494  -2.287  1.00  0.00     0.029 A 
ATOM     53  C   UNL     1      -2.603  10.992  -1.585  1.00  0.00     0.049 A 
ATOM     54  H   UNL     1      -0.664  10.669  -2.375  1.00  0.00     0.167 HD
ATOM     55  C   UNL     1      -5.239  12.155  -7.691  1.00  0.00     0.034 A 
ATOM     56  C   UNL     1      -2.581  12.107  -0.785  1.00  0.00     0.034 A 
ATOM     57  C   UNL     1      -5.970  12.263  -6.407  1.00  0.00     0.049 A 
ATOM     58  C   UNL     1      -3.707  13.078  -1.116  1.00  0.00     0.074 A 
ATOM     59  C   UNL     1      -6.548  11.321  -5.569  1.00  0.00     0.029 A 
ATOM     60  N   UNL     1      -5.853  13.428  -5.651  1.00  0.00    -0.354 N 
ATOM     61  N   UNL     1      -4.500  12.966  -2.148  1.00  0.00    -0.248 NA
ATOM     62  C   UNL     1      -4.042  14.240  -0.299  1.00  0.00     0.031 C 
ATOM     63  C   UNL     1      -6.670  11.902  -4.272  1.00  0.00     0.029 A 
ATOM     64  C   UNL     1      -6.205  13.207  -4.325  1.00  0.00     0.049 A 
ATOM     65  H   UNL     1      -5.559  14.296  -6.010  1.00  0.00     0.167 HD
ATOM     66  C   UNL     1      -5.322  14.053  -2.239  1.00  0.00     0.074 A 
ATOM     67  C   UNL     1      -5.057  14.775  -1.003  1.00  0.00     0.031 C 
ATOM     68  C   UNL     1      -6.102  14.291  -3.343  1.00  0.00     0.034 A 
BRANCH  55  69
ATOM     69  C   UNL     1      -5.899  11.705  -8.988  1.00  0.00     0.023 A 
ATOM     70  C   UNL     1      -7.276  11.397  -8.928  1.00  0.00     0.012 A 
ATOM     71  C   UNL     1      -5.288  11.510 -10.253  1.00  0.00     0.148 A 
ATOM     72  C   UNL     1      -7.983  10.872 -10.017  1.00  0.00     0.002 A 
ATOM     73  C   UNL     1      -5.981  10.959 -11.335  1.00  0.00     0.091 A 
ATOM     74  F   UNL     1      -4.036  11.900 -10.465  1.00  0.00    -0.205 F 
ATOM     75  C   UNL     1      -7.331  10.634 -11.218  1.00  0.00     0.022 A 
BRANCH  73  76
ATOM     76  S   UNL     1      -5.189  10.608 -12.920  1.00  0.00     0.127 S 
ATOM     77  O   UNL     1      -5.484   9.185 -13.101  1.00  0.00    -0.237 OA
ATOM     78  O   UNL     1      -5.907  11.498 -13.831  1.00  0.00    -0.237 OA
ATOM     79  O   UNL     1      -3.772  10.906 -12.753  1.00  0.00    -0.744 OA
ENDBRANCH  73  76
ENDBRANCH  55  69
BRANCH  56  80
ATOM     80  C   UNL     1      -1.164  12.489  -0.428  1.00  0.00     0.023 A 
ATOM     81  C   UNL     1      -0.404  11.507   0.261  1.00  0.00     0.012 A 
ATOM     82  C   UNL     1      -0.475  13.485  -1.146  1.00  0.00     0.148 A 
ATOM     83  C   UNL     1       0.974  11.391   0.055  1.00  0.00     0.002 A 
ATOM     84  C   UNL     1       0.907  13.375  -1.327  1.00  0.00     0.091 A 
ATOM     85  F   UNL     1      -1.175  14.486  -1.695  1.00  0.00    -0.205 F 
ATOM     86  C   UNL     1       1.621  12.296  -0.781  1.00  0.00     0.022 A 
BRANCH  84  87
ATOM     87  S   UNL     1       1.798  14.558  -2.349  1.00  0.00     0.127 S 
ATOM     88  O   UNL     1       2.111  15.606  -1.381  1.00  0.00    -0.237 OA
ATOM     89  O   UNL     1       2.957  13.797  -2.813  1.00  0.00    -0.237 OA
ATOM     90  O   UNL     1       0.862  14.915  -3.406  1.00  0.00    -0.744 OA
ENDBRANCH  84  87
ENDBRANCH  56  80
BRANCH  68  91
ATOM     91  C   UNL     1      -6.839  15.591  -3.617  1.00  0.00     0.023 A 
ATOM     92  C   UNL     1      -6.484  16.806  -3.001  1.00  0.00     0.012 A 
ATOM     93  C   UNL     1      -7.832  15.663  -4.630  1.00  0.00     0.148 A 
ATOM     94  C   UNL     1      -7.126  18.010  -3.310  1.00  0.00     0.002 A 
ATOM     95  C   UNL     1      -8.366  16.883  -5.030  1.00  0.00     0.091 A 
ATOM     96  F   UNL     1      -8.288  14.540  -5.204  1.00  0.00    -0.205 F 
ATOM     97  C   UNL     1      -8.048  18.055  -4.343  1.00  0.00     0.022 A 
BRANCH  95  98
ATOM     98  S   UNL     1      -9.337  17.021  -6.537  1.00  0.00     0.127 S 
ATOM     99  O   UNL     1     -10.704  16.973  -6.023  1.00  0.00    -0.237 OA
ATOM    100  O   UNL     1      -8.926  18.328  -7.054  1.00  0.00    -0.237 OA
ATOM    101  O   UNL     1      -8.921  15.897  -7.365  1.00  0.00    -0.744 OA
ENDBRANCH  95  98
ENDBRANCH  68  91
ENDBRANCH  42  43
ENDBRANCH  34  37
ENDBRANCH  32  33
ENDBRANCH   1  32
TORSDOF 17
