REMARK SMILES Cc1nn(CC(F)F)c2c1c(C(F)(F)F)cc(=O)n2CC(=O)NCCCCNC(=O)c1ccc(-c2c3nc(c(-c4cccc(S(=O)(=O)[O-])c4F)c4ccc([nH]4)c(-c4cccc(S(=O)(=O)[O-])c4F)c4nc(c(-c5cccc(S(=O)(=O)[O-])c5F)c5ccc2[nH]5)C=C4)C=C3)cc1
REMARK SMILES IDX 25 1 24 2 23 3 21 4 22 5 20 7 19 8 1 9 2 10 3 11 10 12 4 13
REMARK SMILES IDX 9 14 11 15 16 16 17 17 18 18 5 19 6 20 7 21 8 22 12 23 13 24
REMARK SMILES IDX 14 25 15 26 26 27 27 28 28 29 29 30 30 32 31 33 32 34 93 35
REMARK SMILES IDX 33 36 92 37 34 38 35 39 36 40 86 41 37 42 91 43 85 44 87 45
REMARK SMILES IDX 38 46 90 47 84 48 83 49 39 51 71 52 51 53 70 54 52 55 55 56
REMARK SMILES IDX 69 57 88 58 53 59 54 60 68 62 89 63 56 64 40 65 41 66 49 67
REMARK SMILES IDX 42 68 44 69 50 70 43 71 45 72 46 73 47 74 48 75 72 76 73 77
REMARK SMILES IDX 81 78 74 79 76 80 82 81 75 82 77 83 78 84 79 85 80 86 57 87
REMARK SMILES IDX 58 88 66 89 59 90 61 91 67 92 60 93 62 94 63 95 64 96 65 97
REMARK H PARENT 23 6 28 31 87 50 55 61
REMARK Flexibility Score: inf
ROOT
ATOM      1  C   UNL     1       1.946  -1.728  -5.945  1.00  0.00     0.023 C 
ENDROOT
BRANCH   1   2
ATOM      2  C   UNL     1       1.000  -2.852  -6.354  1.00  0.00     0.116 C 
BRANCH   2   3
ATOM      3  N   UNL     1       1.243  -4.075  -5.622  1.00  0.00    -0.355 N 
ATOM      4  C   UNL     1       0.384  -4.788  -4.846  1.00  0.00     0.240 C 
ATOM      5  O   UNL     1       0.684  -5.963  -4.604  1.00  0.00    -0.273 OA
ATOM      6  H   UNL     1       2.154  -4.442  -5.695  1.00  0.00     0.163 HD
BRANCH   4   7
ATOM      7  C   UNL     1      -0.963  -4.221  -4.384  1.00  0.00     0.227 C 
BRANCH   7   8
ATOM      8  N   UNL     1      -0.950  -2.896  -3.759  1.00  0.00    -0.283 N 
ATOM      9  C   UNL     1       1.028  -0.233   0.037  1.00  0.00     0.069 C 
ATOM     10  C   UNL     1       0.515  -1.279  -0.887  1.00  0.00     0.069 A 
ATOM     11  N   UNL     1       0.795  -2.550  -0.578  1.00  0.00    -0.175 NA
ATOM     12  C   UNL     1      -0.241  -1.220  -2.081  1.00  0.00     0.053 A 
ATOM     13  N   UNL     1       0.308  -3.288  -1.595  1.00  0.00    -0.243 N 
ATOM     14  C   UNL     1      -0.321  -2.525  -2.554  1.00  0.00     0.142 A 
ATOM     15  C   UNL     1      -0.863  -0.181  -2.837  1.00  0.00     0.074 A 
ATOM     16  C   UNL     1      -1.559  -0.495  -3.942  1.00  0.00     0.085 A 
ATOM     17  C   UNL     1      -1.672  -1.894  -4.425  1.00  0.00     0.253 A 
ATOM     18  O   UNL     1      -2.373  -2.087  -5.419  1.00  0.00    -0.269 OA
BRANCH  13  19
ATOM     19  C   UNL     1       0.518  -4.711  -1.479  1.00  0.00     0.219 C 
BRANCH  19  20
ATOM     20  C   UNL     1      -0.658  -5.433  -0.873  1.00  0.00     0.363 C 
ATOM     21  F   UNL     1      -1.799  -5.199  -1.567  1.00  0.00    -0.208 F 
ATOM     22  F   UNL     1      -0.445  -6.775  -0.951  1.00  0.00    -0.208 F 
ENDBRANCH  19  20
ENDBRANCH  13  19
BRANCH  15  23
ATOM     23  C   UNL     1      -0.749   1.234  -2.372  1.00  0.00     0.417 C 
ATOM     24  F   UNL     1      -1.281   1.411  -1.135  1.00  0.00    -0.166 F 
ATOM     25  F   UNL     1       0.536   1.664  -2.333  1.00  0.00    -0.166 F 
ATOM     26  F   UNL     1      -1.413   2.098  -3.188  1.00  0.00    -0.166 F 
ENDBRANCH  15  23
ENDBRANCH   7   8
ENDBRANCH   4   7
ENDBRANCH   2   3
ENDBRANCH   1   2
BRANCH   1  27
ATOM     27  C   UNL     1       3.421  -1.963  -6.302  1.00  0.00     0.023 C 
BRANCH  27  28
ATOM     28  C   UNL     1       3.679  -2.388  -7.750  1.00  0.00     0.116 C 
BRANCH  28  29
ATOM     29  N   UNL     1       3.094  -1.499  -8.732  1.00  0.00    -0.352 N 
ATOM     30  C   UNL     1       3.530  -0.411  -9.436  1.00  0.00     0.251 C 
ATOM     31  H   UNL     1       2.162  -1.735  -8.944  1.00  0.00     0.163 HD
ATOM     32  O   UNL     1       2.766  -0.015 -10.322  1.00  0.00    -0.269 OA
BRANCH  30  33
ATOM     33  C   UNL     1       4.787   0.342  -9.176  1.00  0.00     0.039 A 
ATOM     34  C   UNL     1       5.740   0.018  -8.212  1.00  0.00     0.014 A 
ATOM     35  C   UNL     1       4.973   1.513  -9.939  1.00  0.00     0.014 A 
ATOM     36  C   UNL     1       6.801   0.881  -7.959  1.00  0.00     0.010 A 
ATOM     37  C   UNL     1       6.038   2.375  -9.696  1.00  0.00     0.010 A 
ATOM     38  C   UNL     1       6.929   2.077  -8.674  1.00  0.00    -0.014 A 
BRANCH  38  39
ATOM     39  C   UNL     1       8.097   2.906  -8.397  1.00  0.00     0.031 A 
ATOM     40  C   UNL     1       9.394   2.215  -8.636  1.00  0.00     0.074 A 
ATOM     41  C   UNL     1       8.050   4.200  -8.020  1.00  0.00     0.049 A 
ATOM     42  N   UNL     1      10.252   1.823  -7.751  1.00  0.00    -0.248 NA
ATOM     43  C   UNL     1       9.695   1.771 -10.006  1.00  0.00     0.031 C 
ATOM     44  C   UNL     1       6.886   5.089  -7.988  1.00  0.00     0.029 A 
ATOM     45  N   UNL     1       9.079   5.032  -7.684  1.00  0.00    -0.354 N 
ATOM     46  C   UNL     1      11.319   1.301  -8.477  1.00  0.00     0.074 A 
ATOM     47  C   UNL     1      10.853   1.132  -9.830  1.00  0.00     0.031 C 
ATOM     48  C   UNL     1       7.308   6.371  -7.889  1.00  0.00     0.029 A 
ATOM     49  C   UNL     1       8.748   6.386  -7.710  1.00  0.00     0.049 A 
ATOM     50  H   UNL     1       9.976   4.705  -7.445  1.00  0.00     0.167 HD
ATOM     51  C   UNL     1      12.584   1.285  -7.976  1.00  0.00     0.034 A 
ATOM     52  C   UNL     1       9.614   7.430  -7.649  1.00  0.00     0.034 A 
ATOM     53  C   UNL     1      12.610   1.478  -6.553  1.00  0.00     0.049 A 
ATOM     54  C   UNL     1      10.854   6.918  -7.020  1.00  0.00     0.074 A 
ATOM     55  C   UNL     1      12.066   0.829  -5.464  1.00  0.00     0.029 A 
ATOM     56  N   UNL     1      12.992   2.719  -6.105  1.00  0.00    -0.354 N 
ATOM     57  N   UNL     1      10.933   6.539  -5.776  1.00  0.00    -0.248 NA
ATOM     58  C   UNL     1      11.928   6.468  -7.888  1.00  0.00     0.031 C 
ATOM     59  C   UNL     1      11.713   1.870  -4.557  1.00  0.00     0.029 A 
ATOM     60  C   UNL     1      12.112   3.082  -5.124  1.00  0.00     0.049 A 
ATOM     61  H   UNL     1      13.756   3.247  -6.430  1.00  0.00     0.167 HD
ATOM     62  C   UNL     1      11.794   5.453  -5.806  1.00  0.00     0.074 A 
ATOM     63  C   UNL     1      12.459   5.526  -7.104  1.00  0.00     0.031 C 
ATOM     64  C   UNL     1      11.678   4.441  -4.899  1.00  0.00     0.034 A 
BRANCH  51  65
ATOM     65  C   UNL     1      13.818   1.494  -8.816  1.00  0.00     0.023 A 
ATOM     66  C   UNL     1      15.072   1.202  -8.240  1.00  0.00     0.012 A 
ATOM     67  C   UNL     1      13.815   2.234 -10.021  1.00  0.00     0.148 A 
ATOM     68  C   UNL     1      16.264   1.646  -8.823  1.00  0.00     0.002 A 
ATOM     69  C   UNL     1      15.003   2.605 -10.637  1.00  0.00     0.091 A 
ATOM     70  F   UNL     1      12.664   2.711 -10.505  1.00  0.00    -0.205 F 
ATOM     71  C   UNL     1      16.230   2.337 -10.029  1.00  0.00     0.022 A 
BRANCH  69  72
ATOM     72  S   UNL     1      15.005   3.472 -12.210  1.00  0.00     0.127 S 
ATOM     73  O   UNL     1      15.375   4.825 -11.791  1.00  0.00    -0.237 OA
ATOM     74  O   UNL     1      16.045   2.747 -12.946  1.00  0.00    -0.237 OA
ATOM     75  O   UNL     1      13.669   3.307 -12.746  1.00  0.00    -0.744 OA
ENDBRANCH  69  72
ENDBRANCH  51  65
BRANCH  52  76
ATOM     76  C   UNL     1       9.577   8.776  -8.280  1.00  0.00     0.023 A 
ATOM     77  C   UNL     1      10.518   9.750  -7.873  1.00  0.00     0.012 A 
ATOM     78  C   UNL     1       8.854   9.019  -9.468  1.00  0.00     0.148 A 
ATOM     79  C   UNL     1      10.779  10.884  -8.653  1.00  0.00     0.002 A 
ATOM     80  C   UNL     1       9.107  10.157 -10.233  1.00  0.00     0.091 A 
ATOM     81  F   UNL     1       7.990   8.094  -9.902  1.00  0.00    -0.205 F 
ATOM     82  C   UNL     1      10.082  11.081  -9.840  1.00  0.00     0.022 A 
BRANCH  80  83
ATOM     83  S   UNL     1       8.246  10.479 -11.780  1.00  0.00     0.127 S 
ATOM     84  O   UNL     1       7.910  11.898 -11.653  1.00  0.00    -0.237 OA
ATOM     85  O   UNL     1       9.277  10.181 -12.770  1.00  0.00    -0.237 OA
ATOM     86  O   UNL     1       7.090   9.591 -11.780  1.00  0.00    -0.744 OA
ENDBRANCH  80  83
ENDBRANCH  52  76
BRANCH  64  87
ATOM     87  C   UNL     1      10.813   4.660  -3.688  1.00  0.00     0.023 A 
ATOM     88  C   UNL     1       9.410   4.771  -3.773  1.00  0.00     0.012 A 
ATOM     89  C   UNL     1      11.419   4.533  -2.428  1.00  0.00     0.148 A 
ATOM     90  C   UNL     1       8.627   4.752  -2.615  1.00  0.00     0.002 A 
ATOM     91  C   UNL     1      10.636   4.473  -1.284  1.00  0.00     0.091 A 
ATOM     92  F   UNL     1      12.755   4.420  -2.379  1.00  0.00    -0.205 F 
ATOM     93  C   UNL     1       9.239   4.586  -1.373  1.00  0.00     0.022 A 
BRANCH  91  94
ATOM     94  S   UNL     1      11.345   4.143   0.330  1.00  0.00     0.127 S 
ATOM     95  O   UNL     1      11.094   5.397   1.037  1.00  0.00    -0.237 OA
ATOM     96  O   UNL     1      10.545   3.008   0.791  1.00  0.00    -0.237 OA
ATOM     97  O   UNL     1      12.751   3.831   0.101  1.00  0.00    -0.744 OA
ENDBRANCH  91  94
ENDBRANCH  64  87
ENDBRANCH  38  39
ENDBRANCH  30  33
ENDBRANCH  28  29
ENDBRANCH  27  28
ENDBRANCH   1  27
TORSDOF 18
