REMARK SMILES COc1cc([C@H]2CC(c3ccc(S(C)(=O)=O)cc3)=NN2c2ccc(C(=O)NCCCCNC(=O)c3ccc(-c4c5nc(c(-c6cccc(S(=O)(=O)[O-])c6F)c6ccc([nH]6)c(-c6cccc(S(=O)(=O)[O-])c6F)c6nc(c(-c7cccc(S(=O)(=O)[O-])c7F)c7ccc4[nH]7)C=C6)C=C5)cc3)cc2)cc(OC)c1OC
REMARK SMILES IDX 29 1 28 2 27 3 25 4 26 5 24 7 21 8 22 9 99 10 23 11 98 12
REMARK SMILES IDX 20 13 6 14 7 15 8 16 19 17 5 18 3 19 4 20 104 21 101 22
REMARK SMILES IDX 100 23 2 24 1 25 105 26 106 27 102 28 103 29 9 30 10 31
REMARK SMILES IDX 18 32 11 33 17 34 12 35 13 36 14 37 15 38 16 39 30 40 31 41
REMARK SMILES IDX 32 42 33 43 34 45 35 46 36 47 97 48 37 49 96 50 38 51 39 52
REMARK SMILES IDX 40 53 90 54 41 55 95 56 89 57 91 58 42 59 94 60 88 61 87 62
REMARK SMILES IDX 43 64 75 65 55 66 74 67 56 68 59 69 73 70 92 71 57 72 58 73
REMARK SMILES IDX 72 75 93 76 60 77 44 78 45 79 53 80 46 81 48 82 54 83 47 84
REMARK SMILES IDX 49 85 50 86 51 87 52 88 76 89 77 90 85 91 78 92 80 93 86 94
REMARK SMILES IDX 79 95 81 96 82 97 83 98 84 99 61 100 62 101 70 102 63 103
REMARK SMILES IDX 65 104 71 105 64 106 66 107 67 108 68 109 69 110
REMARK H PARENT 27 6 32 44 91 63 59 74
REMARK Flexibility Score: inf
ROOT
ATOM      1  C   UNL     1      -1.523  -2.221   8.631  1.00  0.00     0.023 C 
ENDROOT
BRANCH   1   2
ATOM      2  C   UNL     1      -0.199  -1.796   7.990  1.00  0.00     0.116 C 
BRANCH   2   3
ATOM      3  N   UNL     1       0.882  -2.633   8.465  1.00  0.00    -0.352 N 
ATOM      4  C   UNL     1       1.451  -3.772   7.956  1.00  0.00     0.251 C 
ATOM      5  O   UNL     1       2.382  -4.273   8.589  1.00  0.00    -0.269 OA
ATOM      6  H   UNL     1       1.285  -2.328   9.310  1.00  0.00     0.163 HD
BRANCH   4   7
ATOM      7  C   UNL     1       1.035  -4.400   6.668  1.00  0.00     0.039 A 
ATOM      8  C   UNL     1       0.449  -5.640   4.188  1.00  0.00     0.060 A 
ATOM      9  C   UNL     1       1.691  -5.819   4.806  1.00  0.00     0.029 A 
ATOM     10  C   UNL     1      -0.510  -4.874   4.848  1.00  0.00     0.029 A 
ATOM     11  C   UNL     1       1.990  -5.192   6.018  1.00  0.00     0.016 A 
ATOM     12  C   UNL     1      -0.232  -4.293   6.090  1.00  0.00     0.016 A 
BRANCH   8  13
ATOM     13  N   UNL     1       0.192  -6.252   2.975  1.00  0.00    -0.257 N 
ATOM     14  C   UNL     1      -0.377  -5.585   1.801  1.00  0.00     0.144 C 
ATOM     15  C   UNL     1      -0.594  -6.766   0.835  1.00  0.00     0.091 C 
ATOM     16  C   UNL     1      -0.357  -7.914   1.779  1.00  0.00     0.071 C 
ATOM     17  N   UNL     1       0.093  -7.604   2.951  1.00  0.00    -0.176 NA
BRANCH  14  18
ATOM     18  C   UNL     1       0.561  -4.502   1.291  1.00  0.00    -0.015 A 
ATOM     19  C   UNL     1       1.120  -2.142   0.968  1.00  0.00     0.164 A 
ATOM     20  C   UNL     1       0.201  -3.148   1.327  1.00  0.00     0.056 A 
ATOM     21  C   UNL     1       2.438  -2.457   0.587  1.00  0.00     0.203 A 
ATOM     22  C   UNL     1       2.797  -3.820   0.538  1.00  0.00     0.164 A 
ATOM     23  C   UNL     1       1.863  -4.813   0.879  1.00  0.00     0.056 A 
BRANCH  19  24
ATOM     24  O   UNL     1       0.703  -0.844   1.130  1.00  0.00    -0.493 OA
ATOM     25  C   UNL     1      -0.085  -0.396   0.028  1.00  0.00     0.278 C 
ENDBRANCH  19  24
BRANCH  21  26
ATOM     26  O   UNL     1       3.421  -1.567   0.252  1.00  0.00    -0.490 OA
ATOM     27  C   UNL     1       3.188  -0.171   0.250  1.00  0.00     0.278 C 
ENDBRANCH  21  26
BRANCH  22  28
ATOM     28  O   UNL     1       4.002  -4.372   0.173  1.00  0.00    -0.493 OA
ATOM     29  C   UNL     1       5.158  -3.548   0.170  1.00  0.00     0.278 C 
ENDBRANCH  22  28
ENDBRANCH  14  18
BRANCH  16  30
ATOM     30  C   UNL     1      -0.643  -9.305   1.411  1.00  0.00    -0.002 A 
ATOM     31  C   UNL     1      -1.519 -10.040   2.219  1.00  0.00     0.011 A 
ATOM     32  C   UNL     1       0.005  -9.901   0.328  1.00  0.00     0.011 A 
ATOM     33  C   UNL     1      -1.769 -11.381   1.930  1.00  0.00     0.021 A 
ATOM     34  C   UNL     1      -0.224 -11.252   0.052  1.00  0.00     0.021 A 
ATOM     35  C   UNL     1      -1.108 -11.984   0.855  1.00  0.00     0.067 A 
BRANCH  35  36
ATOM     36  S   UNL     1      -1.419 -13.698   0.498  1.00  0.00     0.175 S 
ATOM     37  C   UNL     1      -0.870 -14.562   1.946  1.00  0.00     0.163 C 
ATOM     38  O   UNL     1      -2.863 -13.847   0.397  1.00  0.00    -0.224 OA
ATOM     39  O   UNL     1      -0.556 -14.085  -0.597  1.00  0.00    -0.224 OA
ENDBRANCH  35  36
ENDBRANCH  16  30
ENDBRANCH   8  13
ENDBRANCH   4   7
ENDBRANCH   2   3
ENDBRANCH   1   2
BRANCH   1  40
ATOM     40  C   UNL     1      -1.726  -1.702  10.057  1.00  0.00     0.023 C 
BRANCH  40  41
ATOM     41  C   UNL     1      -1.794  -0.184  10.179  1.00  0.00     0.116 C 
BRANCH  41  42
ATOM     42  N   UNL     1      -2.832   0.407   9.349  1.00  0.00    -0.352 N 
ATOM     43  C   UNL     1      -3.530   1.571   9.547  1.00  0.00     0.251 C 
ATOM     44  H   UNL     1      -3.064  -0.097   8.535  1.00  0.00     0.163 HD
ATOM     45  O   UNL     1      -4.458   1.858   8.796  1.00  0.00    -0.269 OA
BRANCH  43  46
ATOM     46  C   UNL     1      -3.187   2.454  10.682  1.00  0.00     0.039 A 
ATOM     47  C   UNL     1      -4.224   2.979  11.456  1.00  0.00     0.014 A 
ATOM     48  C   UNL     1      -1.859   2.775  10.977  1.00  0.00     0.014 A 
ATOM     49  C   UNL     1      -3.928   3.799  12.546  1.00  0.00     0.010 A 
ATOM     50  C   UNL     1      -1.562   3.534  12.106  1.00  0.00     0.010 A 
ATOM     51  C   UNL     1      -2.593   4.072  12.889  1.00  0.00    -0.014 A 
BRANCH  51  52
ATOM     52  C   UNL     1      -2.270   4.939  14.049  1.00  0.00     0.031 A 
ATOM     53  C   UNL     1      -1.578   6.260  13.840  1.00  0.00     0.074 A 
ATOM     54  C   UNL     1      -2.541   4.508  15.297  1.00  0.00     0.049 A 
ATOM     55  N   UNL     1      -1.232   7.156  14.727  1.00  0.00    -0.248 NA
ATOM     56  C   UNL     1      -1.197   6.610  12.460  1.00  0.00     0.031 C 
ATOM     57  C   UNL     1      -3.109   3.201  15.639  1.00  0.00     0.029 A 
ATOM     58  N   UNL     1      -2.353   5.115  16.513  1.00  0.00    -0.354 N 
ATOM     59  C   UNL     1      -0.558   8.149  14.024  1.00  0.00     0.074 A 
ATOM     60  C   UNL     1      -0.519   7.734  12.640  1.00  0.00     0.031 C 
ATOM     61  C   UNL     1      -3.222   3.106  16.974  1.00  0.00     0.029 A 
ATOM     62  C   UNL     1      -2.730   4.337  17.584  1.00  0.00     0.049 A 
ATOM     63  H   UNL     1      -1.982   6.021  16.611  1.00  0.00     0.167 HD
ATOM     64  C   UNL     1      -0.048   9.315  14.484  1.00  0.00     0.034 A 
ATOM     65  C   UNL     1      -2.691   4.593  18.906  1.00  0.00     0.034 A 
ATOM     66  C   UNL     1      -0.156   9.758  15.847  1.00  0.00     0.049 A 
ATOM     67  C   UNL     1      -2.220   5.946  19.372  1.00  0.00     0.074 A 
ATOM     68  C   UNL     1       0.211  10.978  16.387  1.00  0.00     0.029 A 
ATOM     69  N   UNL     1      -0.668   8.998  16.886  1.00  0.00    -0.354 N 
ATOM     70  N   UNL     1      -1.784   6.959  18.663  1.00  0.00    -0.248 NA
ATOM     71  C   UNL     1      -2.287   6.211  20.817  1.00  0.00     0.031 C 
ATOM     72  C   UNL     1      -0.065  10.950  17.757  1.00  0.00     0.029 A 
ATOM     73  C   UNL     1      -0.621   9.719  18.066  1.00  0.00     0.049 A 
ATOM     74  H   UNL     1      -1.014   8.080  16.798  1.00  0.00     0.167 HD
ATOM     75  C   UNL     1      -1.558   7.989  19.569  1.00  0.00     0.074 A 
ATOM     76  C   UNL     1      -1.937   7.488  20.874  1.00  0.00     0.031 C 
ATOM     77  C   UNL     1      -1.061   9.230  19.346  1.00  0.00     0.034 A 
BRANCH  64  78
ATOM     78  C   UNL     1       0.616  10.237  13.496  1.00  0.00     0.023 A 
ATOM     79  C   UNL     1      -0.176  10.957  12.579  1.00  0.00     0.012 A 
ATOM     80  C   UNL     1       2.006  10.459  13.535  1.00  0.00     0.148 A 
ATOM     81  C   UNL     1       0.407  11.869  11.700  1.00  0.00     0.002 A 
ATOM     82  C   UNL     1       2.575  11.400  12.685  1.00  0.00     0.091 A 
ATOM     83  F   UNL     1       2.742   9.750  14.402  1.00  0.00    -0.205 F 
ATOM     84  C   UNL     1       1.779  12.099  11.761  1.00  0.00     0.022 A 
BRANCH  82  85
ATOM     85  S   UNL     1       4.318  11.830  12.735  1.00  0.00     0.127 S 
ATOM     86  O   UNL     1       4.784  11.323  11.445  1.00  0.00    -0.237 OA
ATOM     87  O   UNL     1       4.271  13.289  12.836  1.00  0.00    -0.237 OA
ATOM     88  O   UNL     1       4.867  11.155  13.902  1.00  0.00    -0.744 OA
ENDBRANCH  82  85
ENDBRANCH  64  78
BRANCH  65  89
ATOM     89  C   UNL     1      -3.185   3.582  19.882  1.00  0.00     0.023 A 
ATOM     90  C   UNL     1      -4.380   3.826  20.588  1.00  0.00     0.012 A 
ATOM     91  C   UNL     1      -2.484   2.384  20.116  1.00  0.00     0.148 A 
ATOM     92  C   UNL     1      -4.842   2.918  21.541  1.00  0.00     0.002 A 
ATOM     93  C   UNL     1      -2.980   1.457  21.027  1.00  0.00     0.091 A 
ATOM     94  F   UNL     1      -1.341   2.172  19.447  1.00  0.00    -0.205 F 
ATOM     95  C   UNL     1      -4.148   1.730  21.755  1.00  0.00     0.022 A 
BRANCH  93  96
ATOM     96  S   UNL     1      -2.213  -0.151  21.254  1.00  0.00     0.127 S 
ATOM     97  O   UNL     1      -1.437   0.056  22.473  1.00  0.00    -0.237 OA
ATOM     98  O   UNL     1      -3.375  -1.029  21.405  1.00  0.00    -0.237 OA
ATOM     99  O   UNL     1      -1.449  -0.384  20.036  1.00  0.00    -0.744 OA
ENDBRANCH  93  96
ENDBRANCH  65  89
BRANCH  77 100
ATOM    100  C   UNL     1      -0.927  10.150  20.531  1.00  0.00     0.023 A 
ATOM    101  C   UNL     1       0.074   9.908  21.492  1.00  0.00     0.012 A 
ATOM    102  C   UNL     1      -1.750  11.285  20.660  1.00  0.00     0.148 A 
ATOM    103  C   UNL     1       0.228  10.759  22.585  1.00  0.00     0.002 A 
ATOM    104  C   UNL     1      -1.559  12.156  21.726  1.00  0.00     0.091 A 
ATOM    105  F   UNL     1      -2.712  11.490  19.748  1.00  0.00    -0.205 F 
ATOM    106  C   UNL     1      -0.581  11.889  22.697  1.00  0.00     0.022 A 
BRANCH 104 107
ATOM    107  S   UNL     1      -2.493  13.683  21.883  1.00  0.00     0.127 S 
ATOM    108  O   UNL     1      -3.518  13.309  22.856  1.00  0.00    -0.237 OA
ATOM    109  O   UNL     1      -1.488  14.620  22.387  1.00  0.00    -0.237 OA
ATOM    110  O   UNL     1      -2.974  13.988  20.542  1.00  0.00    -0.744 OA
ENDBRANCH 104 107
ENDBRANCH  77 100
ENDBRANCH  51  52
ENDBRANCH  43  46
ENDBRANCH  41  42
ENDBRANCH  40  41
ENDBRANCH   1  40
TORSDOF 21
