REMARK SMILES C#CC[C@@]1(C(=O)NCCCCNC(=O)c2ccc(-c3c4nc(c(-c5cccc(S(=O)(=O)[O-])c5F)c5ccc([nH]5)c(-c5cccc(S(=O)(=O)[O-])c5F)c5nc(c(-c6cccc(S(=O)(=O)[O-])c6F)c6ccc3[nH]6)C=C5)C=C4)cc2)CCCN1C(=O)OC(C)(C)C
REMARK SMILES IDX 9 1 8 2 7 3 5 4 6 5 4 7 78 8 81 9 79 10 80 11 3 12 2 13 1 14
REMARK SMILES IDX 82 15 83 16 84 17 85 18 86 19 87 20 88 21 10 22 11 23 12 24
REMARK SMILES IDX 13 25 14 27 15 28 16 29 77 30 17 31 76 32 18 33 19 34 20 35
REMARK SMILES IDX 70 36 21 37 75 38 69 39 71 40 22 41 74 42 68 43 67 44 23 46
REMARK SMILES IDX 55 47 35 48 54 49 36 50 39 51 53 52 72 53 37 54 38 55 52 57
REMARK SMILES IDX 73 58 40 59 24 60 25 61 33 62 26 63 28 64 34 65 27 66 29 67
REMARK SMILES IDX 30 68 31 69 32 70 56 71 57 72 65 73 58 74 60 75 66 76 59 77
REMARK SMILES IDX 61 78 62 79 63 80 64 81 41 82 42 83 50 84 43 85 45 86 51 87
REMARK SMILES IDX 44 88 46 89 47 90 48 91 49 92
REMARK H PARENT 7 6 12 26 71 45 39 56
REMARK Flexibility Score: inf
ROOT
ATOM      1  C   UNL     1       1.643   0.746   0.867  1.00  0.00     0.023 C 
ENDROOT
BRANCH   1   2
ATOM      2  C   UNL     1       0.344   1.543   0.919  1.00  0.00     0.116 C 
BRANCH   2   3
ATOM      3  N   UNL     1      -0.622   0.995  -0.001  1.00  0.00    -0.354 N 
ATOM      4  C   UNL     1      -1.684   0.169   0.114  1.00  0.00     0.247 C 
ATOM      5  O   UNL     1      -2.268  -0.020  -0.964  1.00  0.00    -0.272 OA
ATOM      6  H   UNL     1      -0.473   1.293  -0.927  1.00  0.00     0.163 HD
BRANCH   4   7
ATOM      7  C   UNL     1      -2.199  -0.521   1.425  1.00  0.00     0.136 C 
ATOM      8  C   UNL     1      -1.553  -0.067   2.757  1.00  0.00     0.042 C 
ATOM      9  N   UNL     1      -1.937  -2.001   1.567  1.00  0.00    -0.292 N 
ATOM     10  C   UNL     1      -1.981  -1.117   3.769  1.00  0.00     0.025 C 
ATOM     11  C   UNL     1      -1.815  -2.390   2.967  1.00  0.00     0.124 C 
BRANCH   7  12
ATOM     12  C   UNL     1      -3.737  -0.245   1.421  1.00  0.00     0.128 C 
BRANCH  12  13
ATOM     13  C   UNL     1      -4.117   1.117   1.978  1.00  0.00    -0.104 C 
ATOM     14  C   UNL     1      -4.442   2.285   2.457  1.00  0.00     0.004 C 
ENDBRANCH  12  13
ENDBRANCH   7  12
BRANCH   9  15
ATOM     15  C   UNL     1      -1.925  -3.027   0.646  1.00  0.00     0.411 C 
ATOM     16  O   UNL     1      -1.784  -4.194   0.991  1.00  0.00    -0.224 OA
BRANCH  15  17
ATOM     17  O   UNL     1      -1.998  -2.618  -0.636  1.00  0.00    -0.444 OA
BRANCH  17  18
ATOM     18  C   UNL     1      -1.759  -3.558  -1.721  1.00  0.00     0.106 C 
ATOM     19  C   UNL     1      -0.313  -4.074  -1.692  1.00  0.00     0.056 C 
ATOM     20  C   UNL     1      -2.772  -4.711  -1.717  1.00  0.00     0.056 C 
ATOM     21  C   UNL     1      -1.956  -2.749  -3.011  1.00  0.00     0.056 C 
ENDBRANCH  17  18
ENDBRANCH  15  17
ENDBRANCH   9  15
ENDBRANCH   4   7
ENDBRANCH   2   3
ENDBRANCH   1   2
BRANCH   1  22
ATOM     22  C   UNL     1       2.492   1.056  -0.370  1.00  0.00     0.023 C 
BRANCH  22  23
ATOM     23  C   UNL     1       2.818   2.533  -0.566  1.00  0.00     0.116 C 
BRANCH  23  24
ATOM     24  N   UNL     1       3.406   3.149   0.617  1.00  0.00    -0.352 N 
ATOM     25  C   UNL     1       4.343   4.151   0.670  1.00  0.00     0.251 C 
ATOM     26  H   UNL     1       3.093   2.804   1.484  1.00  0.00     0.163 HD
ATOM     27  O   UNL     1       4.842   4.485   1.739  1.00  0.00    -0.269 OA
BRANCH  25  28
ATOM     28  C   UNL     1       4.760   4.789  -0.591  1.00  0.00     0.039 A 
ATOM     29  C   UNL     1       6.118   4.836  -0.908  1.00  0.00     0.014 A 
ATOM     30  C   UNL     1       3.799   5.265  -1.486  1.00  0.00     0.014 A 
ATOM     31  C   UNL     1       6.510   5.312  -2.159  1.00  0.00     0.010 A 
ATOM     32  C   UNL     1       4.187   5.662  -2.759  1.00  0.00     0.010 A 
ATOM     33  C   UNL     1       5.546   5.695  -3.107  1.00  0.00    -0.014 A 
BRANCH  33  34
ATOM     34  C   UNL     1       5.941   6.123  -4.471  1.00  0.00     0.031 A 
ATOM     35  C   UNL     1       5.622   7.514  -4.947  1.00  0.00     0.074 A 
ATOM     36  C   UNL     1       6.513   5.234  -5.308  1.00  0.00     0.049 A 
ATOM     37  N   UNL     1       5.850   8.056  -6.115  1.00  0.00    -0.248 NA
ATOM     38  C   UNL     1       4.933   8.405  -3.998  1.00  0.00     0.031 C 
ATOM     39  C   UNL     1       6.796   3.833  -4.990  1.00  0.00     0.029 A 
ATOM     40  N   UNL     1       6.935   5.370  -6.607  1.00  0.00    -0.354 N 
ATOM     41  C   UNL     1       5.300   9.331  -6.055  1.00  0.00     0.074 A 
ATOM     42  C   UNL     1       4.697   9.471  -4.748  1.00  0.00     0.031 C 
ATOM     43  C   UNL     1       7.350   3.241  -6.061  1.00  0.00     0.029 A 
ATOM     44  C   UNL     1       7.430   4.208  -7.151  1.00  0.00     0.049 A 
ATOM     45  H   UNL     1       6.888   6.220  -7.103  1.00  0.00     0.167 HD
ATOM     46  C   UNL     1       5.318  10.306  -6.993  1.00  0.00     0.034 A 
ATOM     47  C   UNL     1       7.884   3.946  -8.393  1.00  0.00     0.034 A 
ATOM     48  C   UNL     1       5.952  10.174  -8.276  1.00  0.00     0.049 A 
ATOM     49  C   UNL     1       7.924   5.060  -9.404  1.00  0.00     0.074 A 
ATOM     50  C   UNL     1       6.111  11.136  -9.258  1.00  0.00     0.029 A 
ATOM     51  N   UNL     1       6.515   9.006  -8.764  1.00  0.00    -0.354 N 
ATOM     52  N   UNL     1       7.553   6.311  -9.270  1.00  0.00    -0.248 NA
ATOM     53  C   UNL     1       8.479   4.738 -10.726  1.00  0.00     0.031 C 
ATOM     54  C   UNL     1       6.735  10.537 -10.357  1.00  0.00     0.029 A 
ATOM     55  C   UNL     1       7.006   9.215 -10.041  1.00  0.00     0.049 A 
ATOM     56  H   UNL     1       6.559   8.152  -8.275  1.00  0.00     0.167 HD
ATOM     57  C   UNL     1       7.865   6.932 -10.473  1.00  0.00     0.074 A 
ATOM     58  C   UNL     1       8.475   5.925 -11.317  1.00  0.00     0.031 C 
ATOM     59  C   UNL     1       7.655   8.217 -10.851  1.00  0.00     0.034 A 
BRANCH  46  60
ATOM     60  C   UNL     1       4.664  11.620  -6.653  1.00  0.00     0.023 A 
ATOM     61  C   UNL     1       5.250  12.469  -5.692  1.00  0.00     0.012 A 
ATOM     62  C   UNL     1       3.504  12.043  -7.331  1.00  0.00     0.148 A 
ATOM     63  C   UNL     1       4.673  13.700  -5.384  1.00  0.00     0.002 A 
ATOM     64  C   UNL     1       2.963  13.293  -7.056  1.00  0.00     0.091 A 
ATOM     65  F   UNL     1       2.949  11.213  -8.227  1.00  0.00    -0.205 F 
ATOM     66  C   UNL     1       3.538  14.116  -6.074  1.00  0.00     0.022 A 
BRANCH  64  67
ATOM     67  S   UNL     1       1.553  13.957  -7.948  1.00  0.00     0.127 S 
ATOM     68  O   UNL     1       0.524  13.964  -6.908  1.00  0.00    -0.237 OA
ATOM     69  O   UNL     1       2.035  15.282  -8.338  1.00  0.00    -0.237 OA
ATOM     70  O   UNL     1       1.311  13.045  -9.057  1.00  0.00    -0.744 OA
ENDBRANCH  64  67
ENDBRANCH  46  60
BRANCH  47  71
ATOM     71  C   UNL     1       8.382   2.584  -8.737  1.00  0.00     0.023 A 
ATOM     72  C   UNL     1       9.754   2.387  -8.989  1.00  0.00     0.012 A 
ATOM     73  C   UNL     1       7.507   1.484  -8.809  1.00  0.00     0.148 A 
ATOM     74  C   UNL     1      10.239   1.128  -9.346  1.00  0.00     0.002 A 
ATOM     75  C   UNL     1       8.005   0.221  -9.107  1.00  0.00     0.091 A 
ATOM     76  F   UNL     1       6.204   1.693  -8.575  1.00  0.00    -0.205 F 
ATOM     77  C   UNL     1       9.367   0.044  -9.396  1.00  0.00     0.022 A 
BRANCH  75  78
ATOM     78  S   UNL     1       6.979  -1.252  -9.065  1.00  0.00     0.127 S 
ATOM     79  O   UNL     1       6.907  -1.607 -10.480  1.00  0.00    -0.237 OA
ATOM     80  O   UNL     1       7.784  -2.156  -8.243  1.00  0.00    -0.237 OA
ATOM     81  O   UNL     1       5.724  -0.841  -8.451  1.00  0.00    -0.744 OA
ENDBRANCH  75  78
ENDBRANCH  47  71
BRANCH  59  82
ATOM     82  C   UNL     1       8.131   8.632 -12.219  1.00  0.00     0.023 A 
ATOM     83  C   UNL     1       7.465   8.169 -13.371  1.00  0.00     0.012 A 
ATOM     84  C   UNL     1       9.198   9.543 -12.356  1.00  0.00     0.148 A 
ATOM     85  C   UNL     1       7.877   8.577 -14.639  1.00  0.00     0.002 A 
ATOM     86  C   UNL     1       9.566   9.988 -13.619  1.00  0.00     0.091 A 
ATOM     87  F   UNL     1       9.829   9.959 -11.248  1.00  0.00    -0.205 F 
ATOM     88  C   UNL     1       8.917   9.495 -14.762  1.00  0.00     0.022 A 
BRANCH  86  89
ATOM     89  S   UNL     1      10.825  11.245 -13.868  1.00  0.00     0.127 S 
ATOM     90  O   UNL     1      11.907  10.468 -14.470  1.00  0.00    -0.237 OA
ATOM     91  O   UNL     1      10.158  12.173 -14.782  1.00  0.00    -0.237 OA
ATOM     92  O   UNL     1      11.111  11.796 -12.550  1.00  0.00    -0.744 OA
ENDBRANCH  86  89
ENDBRANCH  59  82
ENDBRANCH  33  34
ENDBRANCH  25  28
ENDBRANCH  23  24
ENDBRANCH  22  23
ENDBRANCH   1  22
TORSDOF 19
