REMARK SMILES O=C(CCS(=O)(=O)c1ccc2[nH]c(=O)oc2c1)NCCCCNC(=O)c1ccc(-c2c3nc(c(-c4cccc(S(=O)(=O)[O-])c4F)c4ccc([nH]4)c(-c4cccc(S(=O)(=O)[O-])c4F)c4nc(c(-c5cccc(S(=O)(=O)[O-])c5F)c5ccc2[nH]5)C=C4)C=C3)cc1
REMARK SMILES IDX 20 1 19 2 18 3 1 4 2 5 3 7 4 8 5 9 6 10 7 11 8 12 9 13 17 14
REMARK SMILES IDX 10 15 16 16 11 17 15 18 12 19 13 20 14 22 21 23 22 24 23 25
REMARK SMILES IDX 24 26 25 28 26 29 27 30 88 31 28 32 87 33 29 34 30 35 31 36
REMARK SMILES IDX 81 37 32 38 86 39 80 40 82 41 33 42 85 43 79 44 78 45 34 47
REMARK SMILES IDX 66 48 46 49 65 50 47 51 50 52 64 53 83 54 48 55 49 56 63 58
REMARK SMILES IDX 84 59 51 60 35 61 36 62 44 63 37 64 39 65 45 66 38 67 40 68
REMARK SMILES IDX 41 69 42 70 43 71 67 72 68 73 76 74 69 75 71 76 77 77 70 78
REMARK SMILES IDX 72 79 73 80 74 81 75 82 52 83 53 84 61 85 54 86 56 87 62 88
REMARK SMILES IDX 55 89 57 90 58 91 59 92 60 93
REMARK H PARENT 18 6 12 21 23 27 82 46 50 57
REMARK Flexibility Score: inf
ROOT
ATOM      1  C   UNL     1       2.628  -0.228   3.901  1.00  0.00     0.023 C 
ENDROOT
BRANCH   1   2
ATOM      2  C   UNL     1       1.926  -0.305   2.525  1.00  0.00     0.116 C 
BRANCH   2   3
ATOM      3  N   UNL     1       2.722  -0.682   1.362  1.00  0.00    -0.356 N 
ATOM      4  O   UNL     1       1.279   0.290  -0.145  1.00  0.00    -0.275 OA
ATOM      5  C   UNL     1       2.338  -0.288   0.091  1.00  0.00     0.221 C 
ATOM      6  H   UNL     1       3.538  -1.221   1.482  1.00  0.00     0.163 HD
BRANCH   5   7
ATOM      7  C   UNL     1       3.354  -0.503  -1.008  1.00  0.00     0.116 C 
BRANCH   7   8
ATOM      8  C   UNL     1       3.846   0.827  -1.586  1.00  0.00     0.152 C 
BRANCH   8   9
ATOM      9  S   UNL     1       5.100   1.657  -0.618  1.00  0.00     0.179 S 
ATOM     10  O   UNL     1       5.638   0.709   0.340  1.00  0.00    -0.224 OA
ATOM     11  O   UNL     1       5.971   2.351  -1.546  1.00  0.00    -0.224 OA
BRANCH   9  12
ATOM     12  C   UNL     1       4.279   2.919   0.339  1.00  0.00     0.071 A 
ATOM     13  C   UNL     1       4.567   4.289   0.225  1.00  0.00     0.023 A 
ATOM     14  C   UNL     1       3.419   2.486   1.333  1.00  0.00     0.069 A 
ATOM     15  C   UNL     1       3.970   5.213   1.112  1.00  0.00     0.031 A 
ATOM     16  C   UNL     1       2.799   3.393   2.148  1.00  0.00     0.157 A 
ATOM     17  C   UNL     1       3.089   4.724   2.056  1.00  0.00     0.087 A 
ATOM     18  O   UNL     1       1.927   3.077   3.170  1.00  0.00    -0.408 OA
ATOM     19  N   UNL     1       2.392   5.314   3.072  1.00  0.00    -0.287 N 
ATOM     20  C   UNL     1       1.684   4.333   3.728  1.00  0.00     0.417 A 
ATOM     21  H   UNL     1       2.395   6.273   3.296  1.00  0.00     0.173 HD
ATOM     22  O   UNL     1       0.915   4.506   4.666  1.00  0.00    -0.224 OA
ENDBRANCH   9  12
ENDBRANCH   8   9
ENDBRANCH   7   8
ENDBRANCH   5   7
ENDBRANCH   2   3
ENDBRANCH   1   2
BRANCH   1  23
ATOM     23  C   UNL     1       4.140   0.035   4.066  1.00  0.00     0.023 C 
BRANCH  23  24
ATOM     24  C   UNL     1       4.743   1.436   4.306  1.00  0.00     0.116 C 
BRANCH  24  25
ATOM     25  N   UNL     1       4.056   2.331   5.222  1.00  0.00    -0.352 N 
ATOM     26  C   UNL     1       4.567   3.430   5.889  1.00  0.00     0.251 C 
ATOM     27  H   UNL     1       3.107   2.129   5.389  1.00  0.00     0.163 HD
ATOM     28  O   UNL     1       3.825   4.141   6.564  1.00  0.00    -0.269 OA
BRANCH  26  29
ATOM     29  C   UNL     1       6.017   3.744   5.856  1.00  0.00     0.039 A 
ATOM     30  C   UNL     1       6.692   3.865   7.077  1.00  0.00     0.014 A 
ATOM     31  C   UNL     1       6.715   3.937   4.661  1.00  0.00     0.014 A 
ATOM     32  C   UNL     1       8.076   4.073   7.100  1.00  0.00     0.010 A 
ATOM     33  C   UNL     1       8.107   4.109   4.686  1.00  0.00     0.010 A 
ATOM     34  C   UNL     1       8.809   4.144   5.904  1.00  0.00    -0.014 A 
BRANCH  34  35
ATOM     35  C   UNL     1      10.302   4.144   5.928  1.00  0.00     0.031 A 
ATOM     36  C   UNL     1      11.104   5.319   5.435  1.00  0.00     0.074 A 
ATOM     37  C   UNL     1      10.948   3.032   6.342  1.00  0.00     0.049 A 
ATOM     38  N   UNL     1      12.404   5.463   5.377  1.00  0.00    -0.248 NA
ATOM     39  C   UNL     1      10.350   6.476   4.931  1.00  0.00     0.031 C 
ATOM     40  C   UNL     1      10.297   1.798   6.789  1.00  0.00     0.029 A 
ATOM     41  N   UNL     1      12.290   2.747   6.435  1.00  0.00    -0.354 N 
ATOM     42  C   UNL     1      12.629   6.709   4.803  1.00  0.00     0.074 A 
ATOM     43  C   UNL     1      11.326   7.274   4.516  1.00  0.00     0.031 C 
ATOM     44  C   UNL     1      11.235   0.895   7.112  1.00  0.00     0.029 A 
ATOM     45  C   UNL     1      12.555   1.464   6.861  1.00  0.00     0.049 A 
ATOM     46  H   UNL     1      12.995   3.398   6.217  1.00  0.00     0.167 HD
ATOM     47  C   UNL     1      13.807   7.332   4.551  1.00  0.00     0.034 A 
ATOM     48  C   UNL     1      13.723   0.809   7.020  1.00  0.00     0.034 A 
ATOM     49  C   UNL     1      15.103   6.777   4.850  1.00  0.00     0.049 A 
ATOM     50  C   UNL     1      15.014   1.529   6.739  1.00  0.00     0.074 A 
ATOM     51  C   UNL     1      16.347   7.369   4.704  1.00  0.00     0.029 A 
ATOM     52  N   UNL     1      15.329   5.497   5.331  1.00  0.00    -0.354 N 
ATOM     53  N   UNL     1      15.202   2.765   6.345  1.00  0.00    -0.248 NA
ATOM     54  C   UNL     1      16.258   0.775   6.959  1.00  0.00     0.031 C 
ATOM     55  C   UNL     1      17.325   6.432   5.054  1.00  0.00     0.029 A 
ATOM     56  C   UNL     1      16.690   5.273   5.467  1.00  0.00     0.049 A 
ATOM     57  H   UNL     1      14.625   4.842   5.545  1.00  0.00     0.167 HD
ATOM     58  C   UNL     1      16.580   2.948   6.308  1.00  0.00     0.074 A 
ATOM     59  C   UNL     1      17.180   1.703   6.740  1.00  0.00     0.031 C 
ATOM     60  C   UNL     1      17.283   4.048   5.941  1.00  0.00     0.034 A 
BRANCH  47  61
ATOM     61  C   UNL     1      13.759   8.711   3.937  1.00  0.00     0.023 A 
ATOM     62  C   UNL     1      13.303   9.803   4.703  1.00  0.00     0.012 A 
ATOM     63  C   UNL     1      14.235   8.938   2.630  1.00  0.00     0.148 A 
ATOM     64  C   UNL     1      13.282  11.090   4.165  1.00  0.00     0.002 A 
ATOM     65  C   UNL     1      14.255  10.230   2.117  1.00  0.00     0.091 A 
ATOM     66  F   UNL     1      14.656   7.887   1.912  1.00  0.00    -0.205 F 
ATOM     67  C   UNL     1      13.766  11.305   2.878  1.00  0.00     0.022 A 
BRANCH  65  68
ATOM     68  S   UNL     1      14.934  10.625   0.501  1.00  0.00     0.127 S 
ATOM     69  O   UNL     1      13.730  11.005  -0.238  1.00  0.00    -0.237 OA
ATOM     70  O   UNL     1      15.835  11.736   0.810  1.00  0.00    -0.237 OA
ATOM     71  O   UNL     1      15.595   9.415   0.034  1.00  0.00    -0.744 OA
ENDBRANCH  65  68
ENDBRANCH  47  61
BRANCH  48  72
ATOM     72  C   UNL     1      13.732  -0.599   7.513  1.00  0.00     0.023 A 
ATOM     73  C   UNL     1      14.251  -0.885   8.792  1.00  0.00     0.012 A 
ATOM     74  C   UNL     1      13.227  -1.653   6.728  1.00  0.00     0.148 A 
ATOM     75  C   UNL     1      14.301  -2.197   9.263  1.00  0.00     0.002 A 
ATOM     76  C   UNL     1      13.226  -2.951   7.227  1.00  0.00     0.091 A 
ATOM     77  F   UNL     1      12.747  -1.364   5.510  1.00  0.00    -0.205 F 
ATOM     78  C   UNL     1      13.781  -3.228   8.486  1.00  0.00     0.022 A 
BRANCH  76  79
ATOM     79  S   UNL     1      12.463  -4.321   6.352  1.00  0.00     0.127 S 
ATOM     80  O   UNL     1      13.624  -5.134   5.998  1.00  0.00    -0.237 OA
ATOM     81  O   UNL     1      11.601  -4.894   7.386  1.00  0.00    -0.237 OA
ATOM     82  O   UNL     1      11.745  -3.726   5.233  1.00  0.00    -0.744 OA
ENDBRANCH  76  79
ENDBRANCH  48  72
BRANCH  60  83
ATOM     83  C   UNL     1      18.787   3.983   6.034  1.00  0.00     0.023 A 
ATOM     84  C   UNL     1      19.521   3.186   5.133  1.00  0.00     0.012 A 
ATOM     85  C   UNL     1      19.478   4.771   6.977  1.00  0.00     0.148 A 
ATOM     86  C   UNL     1      20.914   3.144   5.195  1.00  0.00     0.002 A 
ATOM     87  C   UNL     1      20.868   4.767   6.996  1.00  0.00     0.091 A 
ATOM     88  F   UNL     1      18.764   5.510   7.838  1.00  0.00    -0.205 F 
ATOM     89  C   UNL     1      21.587   3.943   6.116  1.00  0.00     0.022 A 
BRANCH  87  90
ATOM     90  S   UNL     1      21.822   5.837   8.079  1.00  0.00     0.127 S 
ATOM     91  O   UNL     1      22.403   4.873   9.013  1.00  0.00    -0.237 OA
ATOM     92  O   UNL     1      22.779   6.440   7.152  1.00  0.00    -0.237 OA
ATOM     93  O   UNL     1      20.870   6.773   8.663  1.00  0.00    -0.744 OA
ENDBRANCH  87  90
ENDBRANCH  60  83
ENDBRANCH  34  35
ENDBRANCH  26  29
ENDBRANCH  24  25
ENDBRANCH  23  24
ENDBRANCH   1  23
TORSDOF 17
