REMARK SMILES CCC[NH2+][C@]1(C(=O)NCCCCNC(=O)c2ccc(-c3c4nc(c(-c5cccc(S(=O)(=O)[O-])c5F)c5ccc([nH]5)c(-c5cccc(S(=O)(=O)[O-])c5F)c5nc(c(-c6cccc(S(=O)(=O)[O-])c6F)c6ccc3[nH]6)C=C5)C=C4)cc2)CCC[C@H](OC(C)(C)C)C1
REMARK SMILES IDX 10 1 9 2 8 3 6 4 7 5 5 7 79 8 88 9 80 10 82 11 81 12 4 13
REMARK SMILES IDX 3 16 2 17 1 18 83 19 84 20 85 21 86 22 87 23 11 24 12 25
REMARK SMILES IDX 13 26 14 27 15 29 16 30 17 31 78 32 18 33 77 34 19 35 20 36
REMARK SMILES IDX 21 37 71 38 22 39 76 40 70 41 72 42 23 43 75 44 69 45 68 46
REMARK SMILES IDX 24 48 56 49 36 50 55 51 37 52 40 53 54 54 73 55 38 56 39 57
REMARK SMILES IDX 53 59 74 60 41 61 25 62 26 63 34 64 27 65 29 66 35 67 28 68
REMARK SMILES IDX 30 69 31 70 32 71 33 72 57 73 58 74 66 75 59 76 61 77 67 78
REMARK SMILES IDX 60 79 62 80 63 81 64 82 65 83 42 84 43 85 51 86 44 87 46 88
REMARK SMILES IDX 52 89 45 90 47 91 48 92 49 93 50 94
REMARK H PARENT 8 6 4 14 4 15 13 28 72 47 40 58
REMARK Flexibility Score: inf
ROOT
ATOM      1  C   UNL     1      -2.134   4.674   0.199  1.00  0.00     0.023 C 
ENDROOT
BRANCH   1   2
ATOM      2  C   UNL     1      -0.946   3.843   0.688  1.00  0.00     0.116 C 
BRANCH   2   3
ATOM      3  N   UNL     1      -0.491   2.944  -0.347  1.00  0.00    -0.351 N 
ATOM      4  C   UNL     1       0.197   3.158  -1.496  1.00  0.00     0.281 C 
ATOM      5  O   UNL     1       0.325   2.158  -2.221  1.00  0.00    -0.268 OA
ATOM      6  H   UNL     1      -0.724   2.001  -0.189  1.00  0.00     0.163 HD
BRANCH   4   7
ATOM      7  C   UNL     1       0.922   4.509  -1.907  1.00  0.00     0.178 C 
ATOM      8  C   UNL     1       0.274   5.845  -1.475  1.00  0.00     0.079 C 
ATOM      9  C   UNL     1       2.337   4.430  -1.260  1.00  0.00     0.111 C 
ATOM     10  C   UNL     1       1.136   7.086  -1.700  1.00  0.00     0.010 C 
ATOM     11  C   UNL     1       3.214   5.678  -1.478  1.00  0.00     0.125 C 
ATOM     12  C   UNL     1       2.483   6.933  -1.000  1.00  0.00     0.032 C 
BRANCH   7  13
ATOM     13  N   UNL     1       1.094   4.411  -3.394  1.00  0.00    -0.334 N 
ATOM     14  H   UNL     1       1.942   4.919  -3.644  1.00  0.00     0.347 HD
ATOM     15  H   UNL     1       1.130   3.413  -3.601  1.00  0.00     0.347 HD
BRANCH  13  16
ATOM     16  C   UNL     1       0.000   4.942  -4.200  1.00  0.00     0.261 C 
BRANCH  16  17
ATOM     17  C   UNL     1       0.140   4.534  -5.670  1.00  0.00     0.058 C 
ATOM     18  C   UNL     1      -0.414   3.145  -5.947  1.00  0.00     0.010 C 
ENDBRANCH  16  17
ENDBRANCH  13  16
ENDBRANCH   7  13
BRANCH  11  19
ATOM     19  O   UNL     1       3.484   5.871  -2.862  1.00  0.00    -0.372 OA
BRANCH  19  20
ATOM     20  C   UNL     1       4.770   5.558  -3.387  1.00  0.00     0.060 C 
ATOM     21  C   UNL     1       5.755   6.656  -2.977  1.00  0.00     0.042 C 
ATOM     22  C   UNL     1       5.278   4.171  -2.983  1.00  0.00     0.042 C 
ATOM     23  C   UNL     1       4.584   5.589  -4.911  1.00  0.00     0.042 C 
ENDBRANCH  19  20
ENDBRANCH  11  19
ENDBRANCH   4   7
ENDBRANCH   2   3
ENDBRANCH   1   2
BRANCH   1  24
ATOM     24  C   UNL     1      -3.501   4.110   0.562  1.00  0.00     0.023 C 
BRANCH  24  25
ATOM     25  C   UNL     1      -3.809   4.123   2.049  1.00  0.00     0.116 C 
BRANCH  25  26
ATOM     26  N   UNL     1      -3.714   5.444   2.660  1.00  0.00    -0.352 N 
ATOM     27  C   UNL     1      -4.429   5.925   3.734  1.00  0.00     0.251 C 
ATOM     28  H   UNL     1      -3.063   6.064   2.258  1.00  0.00     0.163 HD
ATOM     29  O   UNL     1      -4.301   7.081   4.110  1.00  0.00    -0.269 OA
BRANCH  27  30
ATOM     30  C   UNL     1      -5.394   5.016   4.383  1.00  0.00     0.039 A 
ATOM     31  C   UNL     1      -6.732   5.402   4.469  1.00  0.00     0.014 A 
ATOM     32  C   UNL     1      -4.987   3.740   4.779  1.00  0.00     0.014 A 
ATOM     33  C   UNL     1      -7.684   4.471   4.884  1.00  0.00     0.010 A 
ATOM     34  C   UNL     1      -5.946   2.792   5.104  1.00  0.00     0.010 A 
ATOM     35  C   UNL     1      -7.303   3.148   5.163  1.00  0.00    -0.014 A 
BRANCH  35  36
ATOM     36  C   UNL     1      -8.301   2.112   5.520  1.00  0.00     0.031 A 
ATOM     37  C   UNL     1      -8.225   1.440   6.863  1.00  0.00     0.074 A 
ATOM     38  C   UNL     1      -9.197   1.701   4.601  1.00  0.00     0.049 A 
ATOM     39  N   UNL     1      -8.944   0.455   7.332  1.00  0.00    -0.248 NA
ATOM     40  C   UNL     1      -7.176   1.908   7.784  1.00  0.00     0.031 C 
ATOM     41  C   UNL     1      -9.300   2.206   3.229  1.00  0.00     0.029 A 
ATOM     42  N   UNL     1     -10.174   0.740   4.673  1.00  0.00    -0.354 N 
ATOM     43  C   UNL     1      -8.406   0.156   8.577  1.00  0.00     0.074 A 
ATOM     44  C   UNL     1      -7.275   1.035   8.775  1.00  0.00     0.031 C 
ATOM     45  C   UNL     1     -10.290   1.557   2.594  1.00  0.00     0.029 A 
ATOM     46  C   UNL     1     -10.877   0.578   3.502  1.00  0.00     0.049 A 
ATOM     47  H   UNL     1     -10.355   0.216   5.487  1.00  0.00     0.167 HD
ATOM     48  C   UNL     1      -8.838  -0.742   9.493  1.00  0.00     0.034 A 
ATOM     49  C   UNL     1     -11.886  -0.264   3.200  1.00  0.00     0.034 A 
ATOM     50  C   UNL     1     -10.009  -1.555   9.323  1.00  0.00     0.049 A 
ATOM     51  C   UNL     1     -12.406  -1.187   4.269  1.00  0.00     0.074 A 
ATOM     52  C   UNL     1     -10.598  -2.415  10.232  1.00  0.00     0.029 A 
ATOM     53  N   UNL     1     -10.774  -1.602   8.169  1.00  0.00    -0.354 N 
ATOM     54  N   UNL     1     -11.993  -1.333   5.504  1.00  0.00    -0.248 NA
ATOM     55  C   UNL     1     -13.557  -2.032   3.917  1.00  0.00     0.031 C 
ATOM     56  C   UNL     1     -11.723  -2.984   9.624  1.00  0.00     0.029 A 
ATOM     57  C   UNL     1     -11.835  -2.473   8.341  1.00  0.00     0.049 A 
ATOM     58  H   UNL     1     -10.591  -1.091   7.348  1.00  0.00     0.167 HD
ATOM     59  C   UNL     1     -12.851  -2.258   6.088  1.00  0.00     0.074 A 
ATOM     60  C   UNL     1     -13.820  -2.623   5.075  1.00  0.00     0.031 C 
ATOM     61  C   UNL     1     -12.827  -2.773   7.341  1.00  0.00     0.034 A 
BRANCH  48  62
ATOM     62  C   UNL     1      -8.082  -0.828  10.791  1.00  0.00     0.023 A 
ATOM     63  C   UNL     1      -8.200   0.220  11.728  1.00  0.00     0.012 A 
ATOM     64  C   UNL     1      -7.293  -1.950  11.105  1.00  0.00     0.148 A 
ATOM     65  C   UNL     1      -7.514   0.171  12.940  1.00  0.00     0.002 A 
ATOM     66  C   UNL     1      -6.646  -2.012  12.334  1.00  0.00     0.091 A 
ATOM     67  F   UNL     1      -7.170  -2.923  10.191  1.00  0.00    -0.205 F 
ATOM     68  C   UNL     1      -6.747  -0.949  13.247  1.00  0.00     0.022 A 
BRANCH  66  69
ATOM     69  S   UNL     1      -5.691  -3.443  12.851  1.00  0.00     0.127 S 
ATOM     70  O   UNL     1      -4.322  -2.953  12.704  1.00  0.00    -0.237 OA
ATOM     71  O   UNL     1      -6.129  -3.625  14.235  1.00  0.00    -0.237 OA
ATOM     72  O   UNL     1      -6.073  -4.522  11.950  1.00  0.00    -0.744 OA
ENDBRANCH  66  69
ENDBRANCH  48  62
BRANCH  49  73
ATOM     73  C   UNL     1     -12.532  -0.199   1.858  1.00  0.00     0.023 A 
ATOM     74  C   UNL     1     -13.826   0.347   1.747  1.00  0.00     0.012 A 
ATOM     75  C   UNL     1     -11.869  -0.635   0.695  1.00  0.00     0.148 A 
ATOM     76  C   UNL     1     -14.459   0.432   0.507  1.00  0.00     0.002 A 
ATOM     77  C   UNL     1     -12.486  -0.501  -0.544  1.00  0.00     0.091 A 
ATOM     78  F   UNL     1     -10.644  -1.165   0.821  1.00  0.00    -0.205 F 
ATOM     79  C   UNL     1     -13.787   0.018  -0.639  1.00  0.00     0.022 A 
BRANCH  77  80
ATOM     80  S   UNL     1     -11.640  -0.888  -2.082  1.00  0.00     0.127 S 
ATOM     81  O   UNL     1     -12.250  -2.163  -2.446  1.00  0.00    -0.237 OA
ATOM     82  O   UNL     1     -12.018   0.242  -2.932  1.00  0.00    -0.237 OA
ATOM     83  O   UNL     1     -10.224  -0.931  -1.742  1.00  0.00    -0.744 OA
ENDBRANCH  77  80
ENDBRANCH  49  73
BRANCH  61  84
ATOM     84  C   UNL     1     -13.895  -3.768   7.708  1.00  0.00     0.023 A 
ATOM     85  C   UNL     1     -13.815  -5.085   7.215  1.00  0.00     0.012 A 
ATOM     86  C   UNL     1     -14.919  -3.425   8.611  1.00  0.00     0.148 A 
ATOM     87  C   UNL     1     -14.753  -6.041   7.599  1.00  0.00     0.002 A 
ATOM     88  C   UNL     1     -15.825  -4.395   9.023  1.00  0.00     0.091 A 
ATOM     89  F   UNL     1     -14.989  -2.160   9.051  1.00  0.00    -0.205 F 
ATOM     90  C   UNL     1     -15.749  -5.700   8.512  1.00  0.00     0.022 A 
BRANCH  88  91
ATOM     91  S   UNL     1     -17.079  -4.064  10.266  1.00  0.00     0.127 S 
ATOM     92  O   UNL     1     -18.282  -3.928   9.448  1.00  0.00    -0.237 OA
ATOM     93  O   UNL     1     -17.034  -5.274  11.088  1.00  0.00    -0.237 OA
ATOM     94  O   UNL     1     -16.646  -2.855  10.955  1.00  0.00    -0.744 OA
ENDBRANCH  88  91
ENDBRANCH  61  84
ENDBRANCH  35  36
ENDBRANCH  27  30
ENDBRANCH  25  26
ENDBRANCH  24  25
ENDBRANCH   1  24
TORSDOF 19
