REMARK SMILES CCc1ccc(-c2cc(Cl)cc3c2O[C@H](C(F)(F)F)C(C(=O)NCCCCNC(=O)c2ccc(-c4c5nc(c(-c6cccc(S(=O)(=O)[O-])c6F)c6ccc([nH]6)c(-c6cccc(S(=O)(=O)[O-])c6F)c6nc(c(-c7cccc(S(=O)(=O)[O-])c7F)c7ccc4[nH]7)C=C6)C=C5)cc2)=C3)cc1
REMARK SMILES IDX 26 1 25 2 24 3 23 4 21 5 22 6 20 8 7 9 8 10 13 11 9 12 12 13
REMARK SMILES IDX 14 14 10 15 11 16 94 17 15 18 6 19 3 20 4 21 96 22 5 23
REMARK SMILES IDX 95 24 2 25 1 26 16 27 17 28 18 29 19 30 27 31 28 32 29 33
REMARK SMILES IDX 30 35 31 36 32 37 93 38 33 39 92 40 34 41 35 42 36 43 86 44
REMARK SMILES IDX 37 45 91 46 85 47 87 48 38 49 90 50 84 51 83 52 39 54 71 55
REMARK SMILES IDX 51 56 70 57 52 58 55 59 69 60 88 61 53 62 54 63 68 65 89 66
REMARK SMILES IDX 56 67 40 68 41 69 49 70 42 71 44 72 50 73 43 74 45 75 46 76
REMARK SMILES IDX 47 77 48 78 72 79 73 80 81 81 74 82 76 83 82 84 75 85 77 86
REMARK SMILES IDX 78 87 79 88 80 89 57 90 58 91 66 92 59 93 61 94 67 95 60 96
REMARK SMILES IDX 62 97 63 98 64 99 65 100
REMARK H PARENT 23 7 28 34 87 53 55 64
REMARK Flexibility Score: inf
ROOT
ATOM      1  C   UNL     1       6.098  14.497   3.750  1.00  0.00     0.023 C 
ENDROOT
BRANCH   1   2
ATOM      2  C   UNL     1       4.921  13.816   4.465  1.00  0.00     0.023 C 
BRANCH   2   3
ATOM      3  C   UNL     1       3.822  13.269   3.543  1.00  0.00     0.116 C 
BRANCH   3   4
ATOM      4  N   UNL     1       4.380  12.270   2.657  1.00  0.00    -0.352 N 
ATOM      5  C   UNL     1       3.932  11.021   2.392  1.00  0.00     0.251 C 
ATOM      6  O   UNL     1       4.751  10.141   2.147  1.00  0.00    -0.270 OA
ATOM      7  H   UNL     1       5.198  12.537   2.180  1.00  0.00     0.163 HD
BRANCH   5   8
ATOM      8  C   UNL     1       2.457  10.790   2.309  1.00  0.00     0.067 C 
ATOM      9  C   UNL     1       2.531   6.791   1.511  1.00  0.00     0.026 A 
ATOM     10  C   UNL     1       3.506   6.593   0.497  1.00  0.00     0.033 A 
ATOM     11  C   UNL     1       2.130   8.121   1.736  1.00  0.00     0.135 A 
ATOM     12  C   UNL     1       3.920   7.612  -0.357  1.00  0.00     0.042 A 
ATOM     13  C   UNL     1       2.473   9.117   0.786  1.00  0.00     0.019 A 
ATOM     14  O   UNL     1       1.456   8.531   2.879  1.00  0.00    -0.475 OA
ATOM     15  Cl  UNL     1       5.116   7.291  -1.547  1.00  0.00    -0.084 Cl
ATOM     16  C   UNL     1       3.348   8.865  -0.266  1.00  0.00     0.032 A 
ATOM     17  C   UNL     1       2.046  10.509   1.056  1.00  0.00     0.025 C 
ATOM     18  C   UNL     1       1.906   9.865   3.390  1.00  0.00     0.314 C 
BRANCH   9  19
ATOM     19  C   UNL     1       1.910   5.535   2.017  1.00  0.00    -0.015 A 
ATOM     20  C   UNL     1       0.942   2.852   1.830  1.00  0.00    -0.048 A 
ATOM     21  C   UNL     1       2.241   3.114   2.275  1.00  0.00     0.004 A 
ATOM     22  C   UNL     1       0.095   3.943   1.597  1.00  0.00     0.004 A 
ATOM     23  C   UNL     1       2.710   4.434   2.388  1.00  0.00     0.009 A 
ATOM     24  C   UNL     1       0.567   5.265   1.701  1.00  0.00     0.009 A 
BRANCH  20  25
ATOM     25  C   UNL     1       0.476   1.435   1.576  1.00  0.00     0.032 C 
ATOM     26  C   UNL     1       1.082   0.796   0.328  1.00  0.00     0.009 C 
ENDBRANCH  20  25
ENDBRANCH   9  19
BRANCH  18  27
ATOM     27  C   UNL     1       0.767  10.606   4.127  1.00  0.00     0.429 C 
ATOM     28  F   UNL     1      -0.454  10.088   3.860  1.00  0.00    -0.167 F 
ATOM     29  F   UNL     1       0.942  10.566   5.470  1.00  0.00    -0.167 F 
ATOM     30  F   UNL     1       0.702  11.924   3.796  1.00  0.00    -0.167 F 
ENDBRANCH  18  27
ENDBRANCH   5   8
ENDBRANCH   3   4
ENDBRANCH   2   3
ENDBRANCH   1   2
BRANCH   1  31
ATOM     31  C   UNL     1       5.712  15.641   2.821  1.00  0.00     0.116 C 
BRANCH  31  32
ATOM     32  N   UNL     1       5.128  16.759   3.548  1.00  0.00    -0.352 N 
ATOM     33  C   UNL     1       5.526  18.073   3.574  1.00  0.00     0.251 C 
ATOM     34  H   UNL     1       4.339  16.543   4.096  1.00  0.00     0.163 HD
ATOM     35  O   UNL     1       5.035  18.846   4.395  1.00  0.00    -0.269 OA
BRANCH  33  36
ATOM     36  C   UNL     1       6.561  18.548   2.631  1.00  0.00     0.039 A 
ATOM     37  C   UNL     1       7.614  19.329   3.113  1.00  0.00     0.014 A 
ATOM     38  C   UNL     1       6.499  18.212   1.275  1.00  0.00     0.014 A 
ATOM     39  C   UNL     1       8.642  19.716   2.248  1.00  0.00     0.010 A 
ATOM     40  C   UNL     1       7.560  18.535   0.433  1.00  0.00     0.010 A 
ATOM     41  C   UNL     1       8.643  19.291   0.909  1.00  0.00    -0.014 A 
BRANCH  41  42
ATOM     42  C   UNL     1       9.769  19.612  -0.008  1.00  0.00     0.031 A 
ATOM     43  C   UNL     1       9.529  20.442  -1.241  1.00  0.00     0.074 A 
ATOM     44  C   UNL     1      10.989  19.085   0.223  1.00  0.00     0.049 A 
ATOM     45  N   UNL     1      10.362  20.757  -2.199  1.00  0.00    -0.248 NA
ATOM     46  C   UNL     1       8.167  20.967  -1.437  1.00  0.00     0.031 C 
ATOM     47  C   UNL     1      11.337  18.211   1.346  1.00  0.00     0.029 A 
ATOM     48  N   UNL     1      12.159  19.186  -0.490  1.00  0.00    -0.354 N 
ATOM     49  C   UNL     1       9.624  21.489  -3.121  1.00  0.00     0.074 A 
ATOM     50  C   UNL     1       8.265  21.539  -2.629  1.00  0.00     0.031 C 
ATOM     51  C   UNL     1      12.630  17.860   1.248  1.00  0.00     0.029 A 
ATOM     52  C   UNL     1      13.195  18.452   0.041  1.00  0.00     0.049 A 
ATOM     53  H   UNL     1      12.247  19.731  -1.305  1.00  0.00     0.167 HD
ATOM     54  C   UNL     1      10.043  22.094  -4.258  1.00  0.00     0.034 A 
ATOM     55  C   UNL     1      14.455  18.268  -0.402  1.00  0.00     0.034 A 
ATOM     56  C   UNL     1      11.403  22.076  -4.727  1.00  0.00     0.049 A 
ATOM     57  C   UNL     1      14.896  18.961  -1.664  1.00  0.00     0.074 A 
ATOM     58  C   UNL     1      11.939  22.711  -5.833  1.00  0.00     0.029 A 
ATOM     59  N   UNL     1      12.440  21.386  -4.120  1.00  0.00    -0.354 N 
ATOM     60  N   UNL     1      14.216  19.764  -2.446  1.00  0.00    -0.248 NA
ATOM     61  C   UNL     1      16.288  18.751  -2.087  1.00  0.00     0.031 C 
ATOM     62  C   UNL     1      13.298  22.388  -5.906  1.00  0.00     0.029 A 
ATOM     63  C   UNL     1      13.613  21.577  -4.829  1.00  0.00     0.049 A 
ATOM     64  H   UNL     1      12.355  20.840  -3.304  1.00  0.00     0.167 HD
ATOM     65  C   UNL     1      15.108  20.190  -3.423  1.00  0.00     0.074 A 
ATOM     66  C   UNL     1      16.383  19.571  -3.124  1.00  0.00     0.031 C 
ATOM     67  C   UNL     1      14.890  21.009  -4.481  1.00  0.00     0.034 A 
BRANCH  54  68
ATOM     68  C   UNL     1       9.031  22.885  -5.047  1.00  0.00     0.023 A 
ATOM     69  C   UNL     1       8.555  24.107  -4.530  1.00  0.00     0.012 A 
ATOM     70  C   UNL     1       8.608  22.463  -6.322  1.00  0.00     0.148 A 
ATOM     71  C   UNL     1       7.648  24.881  -5.253  1.00  0.00     0.002 A 
ATOM     72  C   UNL     1       7.739  23.262  -7.058  1.00  0.00     0.091 A 
ATOM     73  F   UNL     1       9.059  21.291  -6.791  1.00  0.00    -0.205 F 
ATOM     74  C   UNL     1       7.250  24.464  -6.520  1.00  0.00     0.022 A 
BRANCH  72  75
ATOM     75  S   UNL     1       7.225  22.858  -8.731  1.00  0.00     0.127 S 
ATOM     76  O   UNL     1       5.804  22.572  -8.541  1.00  0.00    -0.237 OA
ATOM     77  O   UNL     1       7.506  24.102  -9.447  1.00  0.00    -0.237 OA
ATOM     78  O   UNL     1       8.039  21.721  -9.139  1.00  0.00    -0.744 OA
ENDBRANCH  72  75
ENDBRANCH  54  68
BRANCH  55  79
ATOM     79  C   UNL     1      15.417  17.437   0.380  1.00  0.00     0.023 A 
ATOM     80  C   UNL     1      16.517  18.059   1.004  1.00  0.00     0.012 A 
ATOM     81  C   UNL     1      15.258  16.044   0.503  1.00  0.00     0.148 A 
ATOM     82  C   UNL     1      17.464  17.305   1.697  1.00  0.00     0.002 A 
ATOM     83  C   UNL     1      16.175  15.305   1.243  1.00  0.00     0.091 A 
ATOM     84  F   UNL     1      14.214  15.466  -0.107  1.00  0.00    -0.205 F 
ATOM     85  C   UNL     1      17.289  15.930   1.824  1.00  0.00     0.022 A 
BRANCH  83  86
ATOM     86  S   UNL     1      15.959  13.551   1.565  1.00  0.00     0.127 S 
ATOM     87  O   UNL     1      16.985  12.961   0.710  1.00  0.00    -0.237 OA
ATOM     88  O   UNL     1      16.230  13.470   3.001  1.00  0.00    -0.237 OA
ATOM     89  O   UNL     1      14.579  13.255   1.201  1.00  0.00    -0.744 OA
ENDBRANCH  83  86
ENDBRANCH  55  79
BRANCH  67  90
ATOM     90  C   UNL     1      16.062  21.335  -5.370  1.00  0.00     0.023 A 
ATOM     91  C   UNL     1      16.582  20.357  -6.240  1.00  0.00     0.012 A 
ATOM     92  C   UNL     1      16.596  22.639  -5.397  1.00  0.00     0.148 A 
ATOM     93  C   UNL     1      17.637  20.662  -7.099  1.00  0.00     0.002 A 
ATOM     94  C   UNL     1      17.612  22.950  -6.292  1.00  0.00     0.091 A 
ATOM     95  F   UNL     1      16.098  23.551  -4.549  1.00  0.00    -0.205 F 
ATOM     96  C   UNL     1      18.142  21.959  -7.135  1.00  0.00     0.022 A 
BRANCH  94  97
ATOM     97  S   UNL     1      18.257  24.616  -6.479  1.00  0.00     0.127 S 
ATOM     98  O   UNL     1      19.595  24.482  -5.905  1.00  0.00    -0.237 OA
ATOM     99  O   UNL     1      18.231  24.796  -7.931  1.00  0.00    -0.237 OA
ATOM    100  O   UNL     1      17.348  25.485  -5.745  1.00  0.00    -0.744 OA
ENDBRANCH  94  97
ENDBRANCH  67  90
ENDBRANCH  41  42
ENDBRANCH  33  36
ENDBRANCH  31  32
ENDBRANCH   1  31
TORSDOF 17
