REMARK SMILES C[C@@H]1C[C@@]([NH2+]Cc2cccs2)(C(=O)NCCCCNC(=O)c2ccc(-c3c4nc(c(-c5cccc(S(=O)(=O)[O-])c5F)c5ccc([nH]5)c(-c5cccc(S(=O)(=O)[O-])c5F)c5nc(c(-c6cccc(S(=O)(=O)[O-])c6F)c6ccc3[nH]6)C=C5)C=C4)cc2)CS1
REMARK SMILES IDX 16 1 15 2 14 3 12 4 13 5 4 7 1 8 2 9 3 10 86 11 85 12 5 13
REMARK SMILES IDX 6 16 7 17 8 18 11 19 9 20 10 21 17 22 18 23 19 24 20 25
REMARK SMILES IDX 21 27 22 28 23 29 84 30 24 31 83 32 25 33 26 34 27 35 77 36
REMARK SMILES IDX 28 37 82 38 76 39 78 40 29 41 81 42 75 43 74 44 30 46 62 47
REMARK SMILES IDX 42 48 61 49 43 50 46 51 60 52 79 53 44 54 45 55 59 57 80 58
REMARK SMILES IDX 47 59 31 60 32 61 40 62 33 63 35 64 41 65 34 66 36 67 37 68
REMARK SMILES IDX 38 69 39 70 63 71 64 72 72 73 65 74 67 75 73 76 66 77 68 78
REMARK SMILES IDX 69 79 70 80 71 81 48 82 49 83 57 84 50 85 52 86 58 87 51 88
REMARK SMILES IDX 53 89 54 90 55 91 56 92
REMARK H PARENT 14 6 5 14 5 15 19 26 78 45 46 56
REMARK Flexibility Score: inf
ROOT
ATOM      1  C   UNL     1       1.729   4.231  -3.914  1.00  0.00     0.023 C 
ENDROOT
BRANCH   1   2
ATOM      2  C   UNL     1       1.781   4.962  -2.573  1.00  0.00     0.116 C 
BRANCH   2   3
ATOM      3  N   UNL     1       0.456   5.290  -2.081  1.00  0.00    -0.351 N 
ATOM      4  C   UNL     1      -0.225   4.841  -0.988  1.00  0.00     0.282 C 
ATOM      5  O   UNL     1      -1.332   5.347  -0.778  1.00  0.00    -0.268 OA
ATOM      6  H   UNL     1      -0.033   5.946  -2.628  1.00  0.00     0.163 HD
BRANCH   4   7
ATOM      7  C   UNL     1       0.375   3.779  -0.024  1.00  0.00     0.185 C 
ATOM      8  C   UNL     1       1.069   0.007  -0.186  1.00  0.00     0.019 C 
ATOM      9  C   UNL     1       0.158   1.219  -0.122  1.00  0.00     0.050 C 
ATOM     10  C   UNL     1       0.741   2.468  -0.800  1.00  0.00     0.094 C 
ATOM     11  S   UNL     1      -0.177   1.735   1.570  1.00  0.00    -0.151 SA
ATOM     12  C   UNL     1      -0.717   3.360   0.990  1.00  0.00     0.148 C 
BRANCH   7  13
ATOM     13  N   UNL     1       1.640   4.296   0.597  1.00  0.00    -0.328 N 
ATOM     14  H   UNL     1       2.324   4.417  -0.149  1.00  0.00     0.347 HD
ATOM     15  H   UNL     1       1.894   3.603   1.301  1.00  0.00     0.347 HD
BRANCH  13  16
ATOM     16  C   UNL     1       1.546   5.570   1.327  1.00  0.00     0.309 C 
BRANCH  16  17
ATOM     17  C   UNL     1       1.045   5.421   2.736  1.00  0.00     0.059 A 
ATOM     18  C   UNL     1       1.352   4.453   3.676  1.00  0.00     0.021 A 
ATOM     19  S   UNL     1      -0.079   6.558   3.365  1.00  0.00    -0.143 S 
ATOM     20  C   UNL     1       0.557   4.566   4.852  1.00  0.00     0.012 A 
ATOM     21  C   UNL     1      -0.272   5.664   4.809  1.00  0.00     0.065 A 
ENDBRANCH  16  17
ENDBRANCH  13  16
ENDBRANCH   7  13
ENDBRANCH   4   7
ENDBRANCH   2   3
ENDBRANCH   1   2
BRANCH   1  22
ATOM     22  C   UNL     1       1.086   5.021  -5.056  1.00  0.00     0.023 C 
BRANCH  22  23
ATOM     23  C   UNL     1       1.704   6.388  -5.331  1.00  0.00     0.116 C 
BRANCH  23  24
ATOM     24  N   UNL     1       3.116   6.310  -5.676  1.00  0.00    -0.352 N 
ATOM     25  C   UNL     1       3.783   6.851  -6.753  1.00  0.00     0.251 C 
ATOM     26  H   UNL     1       3.675   5.796  -5.049  1.00  0.00     0.163 HD
ATOM     27  O   UNL     1       4.949   6.565  -6.961  1.00  0.00    -0.269 OA
BRANCH  25  28
ATOM     28  C   UNL     1       3.058   7.758  -7.674  1.00  0.00     0.039 A 
ATOM     29  C   UNL     1       3.136   7.524  -9.049  1.00  0.00     0.014 A 
ATOM     30  C   UNL     1       2.280   8.807  -7.179  1.00  0.00     0.014 A 
ATOM     31  C   UNL     1       2.361   8.289  -9.924  1.00  0.00     0.010 A 
ATOM     32  C   UNL     1       1.458   9.523  -8.046  1.00  0.00     0.010 A 
ATOM     33  C   UNL     1       1.479   9.261  -9.425  1.00  0.00    -0.014 A 
BRANCH  33  34
ATOM     34  C   UNL     1       0.524   9.969 -10.316  1.00  0.00     0.031 A 
ATOM     35  C   UNL     1       0.595  11.461 -10.485  1.00  0.00     0.074 A 
ATOM     36  C   UNL     1      -0.483   9.275 -10.884  1.00  0.00     0.049 A 
ATOM     37  N   UNL     1      -0.201  12.252 -11.157  1.00  0.00    -0.248 NA
ATOM     38  C   UNL     1       1.687  12.160  -9.789  1.00  0.00     0.031 C 
ATOM     39  C   UNL     1      -0.712   7.837 -10.726  1.00  0.00     0.029 A 
ATOM     40  N   UNL     1      -1.523   9.689 -11.679  1.00  0.00    -0.354 N 
ATOM     41  C   UNL     1       0.269  13.540 -10.938  1.00  0.00     0.074 A 
ATOM     42  C   UNL     1       1.405  13.429 -10.049  1.00  0.00     0.031 C 
ATOM     43  C   UNL     1      -1.823   7.491 -11.395  1.00  0.00     0.029 A 
ATOM     44  C   UNL     1      -2.404   8.683 -12.003  1.00  0.00     0.049 A 
ATOM     45  H   UNL     1      -1.629  10.618 -11.987  1.00  0.00     0.167 HD
ATOM     46  C   UNL     1      -0.188  14.708 -11.451  1.00  0.00     0.034 A 
ATOM     47  C   UNL     1      -3.559   8.716 -12.696  1.00  0.00     0.034 A 
ATOM     48  C   UNL     1      -1.293  14.811 -12.366  1.00  0.00     0.049 A 
ATOM     49  C   UNL     1      -4.026  10.022 -13.280  1.00  0.00     0.074 A 
ATOM     50  C   UNL     1      -1.762  15.934 -13.025  1.00  0.00     0.029 A 
ATOM     51  N   UNL     1      -2.113  13.758 -12.741  1.00  0.00    -0.354 N 
ATOM     52  N   UNL     1      -3.463  11.203 -13.211  1.00  0.00    -0.248 NA
ATOM     53  C   UNL     1      -5.271   9.994 -14.063  1.00  0.00     0.031 C 
ATOM     54  C   UNL     1      -2.882  15.565 -13.777  1.00  0.00     0.029 A 
ATOM     55  C   UNL     1      -3.097  14.207 -13.606  1.00  0.00     0.049 A 
ATOM     56  H   UNL     1      -2.010  12.827 -12.438  1.00  0.00     0.167 HD
ATOM     57  C   UNL     1      -4.268  12.053 -13.961  1.00  0.00     0.074 A 
ATOM     58  C   UNL     1      -5.343  11.245 -14.498  1.00  0.00     0.031 C 
ATOM     59  C   UNL     1      -4.137  13.387 -14.171  1.00  0.00     0.034 A 
BRANCH  46  60
ATOM     60  C   UNL     1       0.543  15.971 -11.078  1.00  0.00     0.023 A 
ATOM     61  C   UNL     1       1.824  16.215 -11.614  1.00  0.00     0.012 A 
ATOM     62  C   UNL     1      -0.059  16.944 -10.256  1.00  0.00     0.148 A 
ATOM     63  C   UNL     1       2.508  17.392 -11.313  1.00  0.00     0.002 A 
ATOM     64  C   UNL     1       0.612  18.133  -9.995  1.00  0.00     0.091 A 
ATOM     65  F   UNL     1      -1.268  16.685  -9.738  1.00  0.00    -0.205 F 
ATOM     66  C   UNL     1       1.898  18.354 -10.513  1.00  0.00     0.022 A 
BRANCH  64  67
ATOM     67  S   UNL     1      -0.120  19.468  -9.039  1.00  0.00     0.127 S 
ATOM     68  O   UNL     1       0.650  19.397  -7.798  1.00  0.00    -0.237 OA
ATOM     69  O   UNL     1       0.170  20.637  -9.871  1.00  0.00    -0.237 OA
ATOM     70  O   UNL     1      -1.534  19.145  -8.918  1.00  0.00    -0.744 OA
ENDBRANCH  64  67
ENDBRANCH  46  60
BRANCH  47  71
ATOM     71  C   UNL     1      -4.326   7.458 -12.921  1.00  0.00     0.023 A 
ATOM     72  C   UNL     1      -4.372   6.898 -14.212  1.00  0.00     0.012 A 
ATOM     73  C   UNL     1      -4.974   6.795 -11.860  1.00  0.00     0.148 A 
ATOM     74  C   UNL     1      -5.074   5.716 -14.449  1.00  0.00     0.002 A 
ATOM     75  C   UNL     1      -5.623   5.588 -12.093  1.00  0.00     0.091 A 
ATOM     76  F   UNL     1      -4.930   7.351 -10.641  1.00  0.00    -0.205 F 
ATOM     77  C   UNL     1      -5.689   5.055 -13.389  1.00  0.00     0.022 A 
BRANCH  75  78
ATOM     78  S   UNL     1      -6.322   4.601 -10.764  1.00  0.00     0.127 S 
ATOM     79  O   UNL     1      -7.755   4.768 -10.989  1.00  0.00    -0.237 OA
ATOM     80  O   UNL     1      -5.801   3.268 -11.072  1.00  0.00    -0.237 OA
ATOM     81  O   UNL     1      -5.800   5.177  -9.532  1.00  0.00    -0.744 OA
ENDBRANCH  75  78
ENDBRANCH  47  71
BRANCH  59  82
ATOM     82  C   UNL     1      -5.173  14.064 -15.030  1.00  0.00     0.023 A 
ATOM     83  C   UNL     1      -6.468  14.279 -14.519  1.00  0.00     0.012 A 
ATOM     84  C   UNL     1      -4.843  14.556 -16.308  1.00  0.00     0.148 A 
ATOM     85  C   UNL     1      -7.427  14.949 -15.278  1.00  0.00     0.002 A 
ATOM     86  C   UNL     1      -5.789  15.264 -17.039  1.00  0.00     0.091 A 
ATOM     87  F   UNL     1      -3.610  14.325 -16.783  1.00  0.00    -0.205 F 
ATOM     88  C   UNL     1      -7.085  15.451 -16.531  1.00  0.00     0.022 A 
BRANCH  86  89
ATOM     89  S   UNL     1      -5.413  16.027 -18.621  1.00  0.00     0.127 S 
ATOM     90  O   UNL     1      -6.164  15.181 -19.547  1.00  0.00    -0.237 OA
ATOM     91  O   UNL     1      -5.956  17.376 -18.451  1.00  0.00    -0.237 OA
ATOM     92  O   UNL     1      -3.964  15.972 -18.761  1.00  0.00    -0.744 OA
ENDBRANCH  86  89
ENDBRANCH  59  82
ENDBRANCH  33  34
ENDBRANCH  25  28
ENDBRANCH  23  24
ENDBRANCH  22  23
ENDBRANCH   1  22
TORSDOF 17
