REMARK SMILES CC(=O)[C@H]1CC(C)=C(C)C[C@@H]1C(=O)NCCCCNC(=O)c1ccc(-c2c3nc(c(-c4cccc(S(=O)(=O)[O-])c4F)c4ccc([nH]4)c(-c4cccc(S(=O)(=O)[O-])c4F)c4nc(c(-c5cccc(S(=O)(=O)[O-])c5F)c5ccc2[nH]5)C=C4)C=C3)cc1
REMARK SMILES IDX 17 1 16 2 15 3 14 4 12 5 13 6 11 8 4 9 5 10 6 11 10 12 7 13
REMARK SMILES IDX 8 14 9 15 2 16 1 17 3 18 18 19 19 20 20 21 21 23 22 24 23 25
REMARK SMILES IDX 84 26 24 27 83 28 25 29 26 30 27 31 77 32 28 33 82 34 76 35
REMARK SMILES IDX 78 36 29 37 81 38 75 39 74 40 30 42 62 43 42 44 61 45 43 46
REMARK SMILES IDX 46 47 60 48 79 49 44 50 45 51 59 53 80 54 47 55 31 56 32 57
REMARK SMILES IDX 40 58 33 59 35 60 41 61 34 62 36 63 37 64 38 65 39 66 63 67
REMARK SMILES IDX 64 68 72 69 65 70 67 71 73 72 66 73 68 74 69 75 70 76 71 77
REMARK SMILES IDX 48 78 49 79 57 80 50 81 52 82 58 83 51 84 53 85 54 86 55 87
REMARK SMILES IDX 56 88
REMARK H PARENT 14 7 19 22 78 41 46 52
REMARK Flexibility Score: inf
ROOT
ATOM      1  C   UNL     1      -4.658   1.294   1.980  1.00  0.00     0.023 C 
ENDROOT
BRANCH   1   2
ATOM      2  C   UNL     1      -3.650   1.576   0.862  1.00  0.00     0.023 C 
BRANCH   2   3
ATOM      3  C   UNL     1      -3.073   2.990   0.866  1.00  0.00     0.116 C 
BRANCH   3   4
ATOM      4  N   UNL     1      -2.254   3.227   2.042  1.00  0.00    -0.356 N 
ATOM      5  C   UNL     1      -0.912   3.408   2.170  1.00  0.00     0.224 C 
ATOM      6  O   UNL     1      -0.446   3.519   3.306  1.00  0.00    -0.275 OA
ATOM      7  H   UNL     1      -2.755   3.263   2.889  1.00  0.00     0.163 HD
BRANCH   5   8
ATOM      8  C   UNL     1      -0.013   3.458   0.942  1.00  0.00     0.093 C 
ATOM      9  C   UNL     1       0.911   2.226   0.975  1.00  0.00     0.072 C 
ATOM     10  C   UNL     1       2.421   2.478   1.040  1.00  0.00     0.043 C 
ATOM     11  C   UNL     1       2.931   3.875   0.815  1.00  0.00    -0.074 C 
ATOM     12  C   UNL     1       0.629   4.850   0.888  1.00  0.00     0.045 C 
ATOM     13  C   UNL     1       4.435   3.957   0.719  1.00  0.00     0.039 C 
ATOM     14  C   UNL     1       2.120   4.946   0.746  1.00  0.00    -0.074 C 
ATOM     15  C   UNL     1       2.632   6.354   0.568  1.00  0.00     0.039 C 
BRANCH   9  16
ATOM     16  C   UNL     1       0.611   1.290  -0.202  1.00  0.00     0.134 C 
ATOM     17  C   UNL     1       0.920  -0.176  -0.004  1.00  0.00     0.088 C 
ATOM     18  O   UNL     1       0.175   1.691  -1.282  1.00  0.00    -0.300 OA
ENDBRANCH   9  16
ENDBRANCH   5   8
ENDBRANCH   3   4
ENDBRANCH   2   3
ENDBRANCH   1   2
BRANCH   1  19
ATOM     19  C   UNL     1      -5.819   2.279   2.083  1.00  0.00     0.116 C 
BRANCH  19  20
ATOM     20  N   UNL     1      -6.582   2.397   0.849  1.00  0.00    -0.352 N 
ATOM     21  C   UNL     1      -7.945   2.470   0.684  1.00  0.00     0.251 C 
ATOM     22  H   UNL     1      -6.051   2.428   0.021  1.00  0.00     0.163 HD
ATOM     23  O   UNL     1      -8.432   2.456  -0.443  1.00  0.00    -0.269 OA
BRANCH  21  24
ATOM     24  C   UNL     1      -8.820   2.532   1.874  1.00  0.00     0.039 A 
ATOM     25  C   UNL     1      -9.903   1.653   1.961  1.00  0.00     0.014 A 
ATOM     26  C   UNL     1      -8.553   3.428   2.911  1.00  0.00     0.014 A 
ATOM     27  C   UNL     1     -10.677   1.623   3.124  1.00  0.00     0.010 A 
ATOM     28  C   UNL     1      -9.283   3.351   4.094  1.00  0.00     0.010 A 
ATOM     29  C   UNL     1     -10.350   2.446   4.214  1.00  0.00    -0.014 A 
BRANCH  29  30
ATOM     30  C   UNL     1     -11.091   2.362   5.498  1.00  0.00     0.031 A 
ATOM     31  C   UNL     1     -11.866   3.549   6.004  1.00  0.00     0.074 A 
ATOM     32  C   UNL     1     -10.979   1.255   6.259  1.00  0.00     0.049 A 
ATOM     33  N   UNL     1     -12.505   3.693   7.135  1.00  0.00    -0.248 NA
ATOM     34  C   UNL     1     -11.902   4.739   5.137  1.00  0.00     0.031 C 
ATOM     35  C   UNL     1     -10.191   0.069   5.918  1.00  0.00     0.029 A 
ATOM     36  N   UNL     1     -11.503   0.960   7.494  1.00  0.00    -0.354 N 
ATOM     37  C   UNL     1     -12.983   4.998   7.137  1.00  0.00     0.074 A 
ATOM     38  C   UNL     1     -12.537   5.613   5.905  1.00  0.00     0.031 C 
ATOM     39  C   UNL     1     -10.282  -0.823   6.917  1.00  0.00     0.029 A 
ATOM     40  C   UNL     1     -11.111  -0.266   7.981  1.00  0.00     0.049 A 
ATOM     41  H   UNL     1     -12.102   1.568   7.984  1.00  0.00     0.167 HD
ATOM     42  C   UNL     1     -13.748   5.620   8.065  1.00  0.00     0.034 A 
ATOM     43  C   UNL     1     -11.382  -0.870   9.155  1.00  0.00     0.034 A 
ATOM     44  C   UNL     1     -14.237   4.988   9.261  1.00  0.00     0.049 A 
ATOM     45  C   UNL     1     -12.278  -0.175  10.145  1.00  0.00     0.074 A 
ATOM     46  C   UNL     1     -15.103   5.500  10.210  1.00  0.00     0.029 A 
ATOM     47  N   UNL     1     -13.900   3.709   9.673  1.00  0.00    -0.354 N 
ATOM     48  N   UNL     1     -12.861   0.995  10.050  1.00  0.00    -0.248 NA
ATOM     49  C   UNL     1     -12.583  -0.899  11.388  1.00  0.00     0.031 C 
ATOM     50  C   UNL     1     -15.278   4.534  11.207  1.00  0.00     0.029 A 
ATOM     51  C   UNL     1     -14.535   3.415  10.868  1.00  0.00     0.049 A 
ATOM     52  H   UNL     1     -13.299   3.099   9.188  1.00  0.00     0.167 HD
ATOM     53  C   UNL     1     -13.630   1.133  11.200  1.00  0.00     0.074 A 
ATOM     54  C   UNL     1     -13.453  -0.082  11.969  1.00  0.00     0.031 C 
ATOM     55  C   UNL     1     -14.399   2.178  11.592  1.00  0.00     0.034 A 
BRANCH  42  56
ATOM     56  C   UNL     1     -14.158   7.044   7.795  1.00  0.00     0.023 A 
ATOM     57  C   UNL     1     -15.121   7.311   6.802  1.00  0.00     0.012 A 
ATOM     58  C   UNL     1     -13.641   8.107   8.561  1.00  0.00     0.148 A 
ATOM     59  C   UNL     1     -15.541   8.616   6.551  1.00  0.00     0.002 A 
ATOM     60  C   UNL     1     -14.096   9.401   8.334  1.00  0.00     0.091 A 
ATOM     61  F   UNL     1     -12.709   7.837   9.486  1.00  0.00    -0.205 F 
ATOM     62  C   UNL     1     -15.037   9.659   7.323  1.00  0.00     0.022 A 
BRANCH  60  63
ATOM     63  S   UNL     1     -13.565  10.801   9.327  1.00  0.00     0.127 S 
ATOM     64  O   UNL     1     -12.691  11.510   8.394  1.00  0.00    -0.237 OA
ATOM     65  O   UNL     1     -14.832  11.478   9.609  1.00  0.00    -0.237 OA
ATOM     66  O   UNL     1     -12.908  10.236  10.496  1.00  0.00    -0.744 OA
ENDBRANCH  60  63
ENDBRANCH  42  56
BRANCH  43  67
ATOM     67  C   UNL     1     -10.862  -2.240   9.425  1.00  0.00     0.023 A 
ATOM     68  C   UNL     1     -11.760  -3.325   9.438  1.00  0.00     0.012 A 
ATOM     69  C   UNL     1      -9.491  -2.481   9.637  1.00  0.00     0.148 A 
ATOM     70  C   UNL     1     -11.308  -4.621   9.688  1.00  0.00     0.002 A 
ATOM     71  C   UNL     1      -9.040  -3.782   9.832  1.00  0.00     0.091 A 
ATOM     72  F   UNL     1      -8.653  -1.435   9.634  1.00  0.00    -0.205 F 
ATOM     73  C   UNL     1      -9.948  -4.851   9.875  1.00  0.00     0.022 A 
BRANCH  71  74
ATOM     74  S   UNL     1      -7.293  -4.185   9.950  1.00  0.00     0.127 S 
ATOM     75  O   UNL     1      -7.149  -4.485  11.372  1.00  0.00    -0.237 OA
ATOM     76  O   UNL     1      -7.187  -5.343   9.062  1.00  0.00    -0.237 OA
ATOM     77  O   UNL     1      -6.587  -3.002   9.475  1.00  0.00    -0.744 OA
ENDBRANCH  71  74
ENDBRANCH  43  67
BRANCH  55  78
ATOM     78  C   UNL     1     -15.143   2.051  12.896  1.00  0.00     0.023 A 
ATOM     79  C   UNL     1     -14.440   2.147  14.113  1.00  0.00     0.012 A 
ATOM     80  C   UNL     1     -16.546   1.925  12.914  1.00  0.00     0.148 A 
ATOM     81  C   UNL     1     -15.120   2.093  15.329  1.00  0.00     0.002 A 
ATOM     82  C   UNL     1     -17.221   1.918  14.128  1.00  0.00     0.091 A 
ATOM     83  F   UNL     1     -17.194   1.815  11.745  1.00  0.00    -0.205 F 
ATOM     84  C   UNL     1     -16.510   1.991  15.337  1.00  0.00     0.022 A 
BRANCH  82  85
ATOM     85  S   UNL     1     -19.015   1.887  14.231  1.00  0.00     0.127 S 
ATOM     86  O   UNL     1     -19.265   0.515  14.670  1.00  0.00    -0.237 OA
ATOM     87  O   UNL     1     -19.287   2.910  15.241  1.00  0.00    -0.237 OA
ATOM     88  O   UNL     1     -19.497   2.216  12.896  1.00  0.00    -0.744 OA
ENDBRANCH  82  85
ENDBRANCH  55  78
ENDBRANCH  29  30
ENDBRANCH  21  24
ENDBRANCH  19  20
ENDBRANCH   1  19
TORSDOF 15
