REMARK SMILES CC1=C(C)C[C@@H](C(=O)NCC(=O)c2ccccc2)[C@H](C(=O)NCCCCNC(=O)c2ccc(-c3c4nc(c(-c5cccc(S(=O)(=O)[O-])c5F)c5ccc([nH]5)c(-c5cccc(S(=O)(=O)[O-])c5F)c5nc(c(-c6cccc(S(=O)(=O)[O-])c6F)c6ccc3[nH]6)C=C5)C=C4)cc2)C1
REMARK SMILES IDX 24 1 23 2 22 3 20 4 21 5 19 7 1 8 2 9 3 10 93 11 4 12 5 13
REMARK SMILES IDX 6 14 7 15 8 16 9 17 10 19 11 20 12 21 13 22 14 23 18 24
REMARK SMILES IDX 15 25 17 26 16 27 25 28 26 29 27 30 28 31 29 33 30 34 31 35
REMARK SMILES IDX 92 36 32 37 91 38 33 39 34 40 35 41 85 42 36 43 90 44 84 45
REMARK SMILES IDX 86 46 37 47 89 48 83 49 82 50 38 52 70 53 50 54 69 55 51 56
REMARK SMILES IDX 54 57 68 58 87 59 52 60 53 61 67 63 88 64 55 65 39 66 40 67
REMARK SMILES IDX 48 68 41 69 43 70 49 71 42 72 44 73 45 74 46 75 47 76 71 77
REMARK SMILES IDX 72 78 80 79 73 80 75 81 81 82 74 83 76 84 77 85 78 86 79 87
REMARK SMILES IDX 56 88 57 89 65 90 58 91 60 92 66 93 59 94 61 95 62 96 63 97
REMARK SMILES IDX 64 98
REMARK H PARENT 22 6 9 18 27 32 86 51 54 62
REMARK Flexibility Score: inf
ROOT
ATOM      1  C   UNL     1      -0.533   3.138  -3.820  1.00  0.00     0.023 C 
ENDROOT
BRANCH   1   2
ATOM      2  C   UNL     1       0.699   2.729  -3.022  1.00  0.00     0.116 C 
BRANCH   2   3
ATOM      3  N   UNL     1       1.412   3.863  -2.479  1.00  0.00    -0.356 N 
ATOM      4  C   UNL     1       1.604   4.246  -1.189  1.00  0.00     0.224 C 
ATOM      5  O   UNL     1       2.320   5.231  -0.986  1.00  0.00    -0.275 OA
ATOM      6  H   UNL     1       1.825   4.452  -3.151  1.00  0.00     0.163 HD
BRANCH   4   7
ATOM      7  C   UNL     1       0.954   3.521  -0.005  1.00  0.00     0.095 C 
ATOM      8  C   UNL     1       1.009  -0.417   0.070  1.00  0.00     0.039 C 
ATOM      9  C   UNL     1       0.418   0.970   0.025  1.00  0.00    -0.074 C 
ATOM     10  C   UNL     1      -0.900   1.201  -0.144  1.00  0.00    -0.074 C 
ATOM     11  C   UNL     1       1.440   2.076   0.138  1.00  0.00     0.045 C 
ATOM     12  C   UNL     1      -1.929   0.113  -0.332  1.00  0.00     0.039 C 
ATOM     13  C   UNL     1      -1.491   2.590  -0.192  1.00  0.00     0.045 C 
ATOM     14  C   UNL     1      -0.554   3.776   0.047  1.00  0.00     0.095 C 
BRANCH  14  15
ATOM     15  C   UNL     1      -0.955   4.576   1.286  1.00  0.00     0.224 C 
ATOM     16  O   UNL     1      -1.358   5.738   1.170  1.00  0.00    -0.275 OA
ATOM     17  N   UNL     1      -0.906   4.096   2.553  1.00  0.00    -0.348 N 
ATOM     18  H   UNL     1      -1.155   4.763   3.233  1.00  0.00     0.163 HD
BRANCH  17  19
ATOM     19  C   UNL     1      -0.564   2.805   3.113  1.00  0.00     0.197 C 
BRANCH  19  20
ATOM     20  C   UNL     1       0.756   2.585   3.862  1.00  0.00     0.181 C 
ATOM     21  O   UNL     1       0.895   1.575   4.561  1.00  0.00    -0.292 OA
BRANCH  20  22
ATOM     22  C   UNL     1       1.956   3.440   3.641  1.00  0.00     0.019 A 
ATOM     23  C   UNL     1       3.203   2.795   3.609  1.00  0.00     0.012 A 
ATOM     24  C   UNL     1       1.900   4.822   3.450  1.00  0.00     0.012 A 
ATOM     25  C   UNL     1       4.367   3.511   3.328  1.00  0.00     0.001 A 
ATOM     26  C   UNL     1       3.066   5.535   3.155  1.00  0.00     0.001 A 
ATOM     27  C   UNL     1       4.294   4.880   3.086  1.00  0.00     0.000 A 
ENDBRANCH  20  22
ENDBRANCH  19  20
ENDBRANCH  17  19
ENDBRANCH  14  15
ENDBRANCH   4   7
ENDBRANCH   2   3
ENDBRANCH   1   2
BRANCH   1  28
ATOM     28  C   UNL     1      -0.246   3.522  -5.269  1.00  0.00     0.023 C 
BRANCH  28  29
ATOM     29  C   UNL     1       0.481   2.463  -6.091  1.00  0.00     0.116 C 
BRANCH  29  30
ATOM     30  N   UNL     1      -0.168   1.156  -6.085  1.00  0.00    -0.352 N 
ATOM     31  C   UNL     1      -0.155   0.215  -7.090  1.00  0.00     0.251 C 
ATOM     32  H   UNL     1      -0.671   0.921  -5.272  1.00  0.00     0.163 HD
ATOM     33  O   UNL     1      -0.794  -0.826  -6.997  1.00  0.00    -0.269 OA
BRANCH  31  34
ATOM     34  C   UNL     1       0.624   0.521  -8.305  1.00  0.00     0.039 A 
ATOM     35  C   UNL     1      -0.041   0.629  -9.528  1.00  0.00     0.014 A 
ATOM     36  C   UNL     1       1.979   0.837  -8.191  1.00  0.00     0.014 A 
ATOM     37  C   UNL     1       0.642   1.141 -10.633  1.00  0.00     0.010 A 
ATOM     38  C   UNL     1       2.635   1.407  -9.273  1.00  0.00     0.010 A 
ATOM     39  C   UNL     1       1.971   1.574 -10.499  1.00  0.00    -0.014 A 
BRANCH  39  40
ATOM     40  C   UNL     1       2.699   2.227 -11.615  1.00  0.00     0.031 A 
ATOM     41  C   UNL     1       3.934   1.578 -12.172  1.00  0.00     0.074 A 
ATOM     42  C   UNL     1       2.332   3.458 -12.026  1.00  0.00     0.049 A 
ATOM     43  N   UNL     1       4.800   2.051 -13.029  1.00  0.00    -0.248 NA
ATOM     44  C   UNL     1       4.260   0.233 -11.667  1.00  0.00     0.031 C 
ATOM     45  C   UNL     1       1.199   4.225 -11.502  1.00  0.00     0.029 A 
ATOM     46  N   UNL     1       2.900   4.297 -12.952  1.00  0.00    -0.354 N 
ATOM     47  C   UNL     1       5.798   1.091 -13.124  1.00  0.00     0.074 A 
ATOM     48  C   UNL     1       5.444   0.018 -12.221  1.00  0.00     0.031 C 
ATOM     49  C   UNL     1       1.160   5.422 -12.110  1.00  0.00     0.029 A 
ATOM     50  C   UNL     1       2.278   5.521 -13.043  1.00  0.00     0.049 A 
ATOM     51  H   UNL     1       3.679   4.047 -13.499  1.00  0.00     0.167 HD
ATOM     52  C   UNL     1       6.897   1.089 -13.914  1.00  0.00     0.034 A 
ATOM     53  C   UNL     1       2.580   6.603 -13.789  1.00  0.00     0.034 A 
ATOM     54  C   UNL     1       7.203   2.121 -14.864  1.00  0.00     0.049 A 
ATOM     55  C   UNL     1       3.763   6.541 -14.718  1.00  0.00     0.074 A 
ATOM     56  C   UNL     1       8.234   2.164 -15.785  1.00  0.00     0.029 A 
ATOM     57  N   UNL     1       6.473   3.289 -15.022  1.00  0.00    -0.354 N 
ATOM     58  N   UNL     1       4.609   5.558 -14.908  1.00  0.00    -0.248 NA
ATOM     59  C   UNL     1       4.014   7.720 -15.560  1.00  0.00     0.031 C 
ATOM     60  C   UNL     1       8.127   3.360 -16.502  1.00  0.00     0.029 A 
ATOM     61  C   UNL     1       7.027   4.058 -16.029  1.00  0.00     0.049 A 
ATOM     62  H   UNL     1       5.679   3.534 -14.495  1.00  0.00     0.167 HD
ATOM     63  C   UNL     1       5.468   5.983 -15.915  1.00  0.00     0.074 A 
ATOM     64  C   UNL     1       5.031   7.308 -16.305  1.00  0.00     0.031 C 
ATOM     65  C   UNL     1       6.532   5.341 -16.456  1.00  0.00     0.034 A 
BRANCH  52  66
ATOM     66  C   UNL     1       7.809  -0.104 -13.834  1.00  0.00     0.023 A 
ATOM     67  C   UNL     1       7.397  -1.327 -14.403  1.00  0.00     0.012 A 
ATOM     68  C   UNL     1       9.084  -0.010 -13.243  1.00  0.00     0.148 A 
ATOM     69  C   UNL     1       8.225  -2.446 -14.357  1.00  0.00     0.002 A 
ATOM     70  C   UNL     1       9.920  -1.121 -13.237  1.00  0.00     0.091 A 
ATOM     71  F   UNL     1       9.447   1.152 -12.683  1.00  0.00    -0.205 F 
ATOM     72  C   UNL     1       9.489  -2.341 -13.784  1.00  0.00     0.022 A 
BRANCH  70  73
ATOM     73  S   UNL     1      11.593  -1.060 -12.585  1.00  0.00     0.127 S 
ATOM     74  O   UNL     1      11.435  -1.742 -11.301  1.00  0.00    -0.237 OA
ATOM     75  O   UNL     1      12.346  -1.817 -13.587  1.00  0.00    -0.237 OA
ATOM     76  O   UNL     1      11.939   0.352 -12.511  1.00  0.00    -0.744 OA
ENDBRANCH  70  73
ENDBRANCH  52  66
BRANCH  53  77
ATOM     77  C   UNL     1       1.699   7.804 -13.748  1.00  0.00     0.023 A 
ATOM     78  C   UNL     1       0.874   8.084 -14.855  1.00  0.00     0.012 A 
ATOM     79  C   UNL     1       1.642   8.644 -12.620  1.00  0.00     0.148 A 
ATOM     80  C   UNL     1       0.028   9.193 -14.851  1.00  0.00     0.002 A 
ATOM     81  C   UNL     1       0.759   9.720 -12.602  1.00  0.00     0.091 A 
ATOM     82  F   UNL     1       2.445   8.373 -11.582  1.00  0.00    -0.205 F 
ATOM     83  C   UNL     1      -0.038  10.004 -13.722  1.00  0.00     0.022 A 
BRANCH  81  84
ATOM     84  S   UNL     1       0.519  10.736 -11.139  1.00  0.00     0.127 S 
ATOM     85  O   UNL     1       1.260  11.944 -11.489  1.00  0.00    -0.237 OA
ATOM     86  O   UNL     1      -0.936  10.891 -11.109  1.00  0.00    -0.237 OA
ATOM     87  O   UNL     1       1.057   9.953 -10.035  1.00  0.00    -0.744 OA
ENDBRANCH  81  84
ENDBRANCH  53  77
BRANCH  65  88
ATOM     88  C   UNL     1       7.286   6.033 -17.558  1.00  0.00     0.023 A 
ATOM     89  C   UNL     1       8.178   7.075 -17.242  1.00  0.00     0.012 A 
ATOM     90  C   UNL     1       7.195   5.574 -18.887  1.00  0.00     0.148 A 
ATOM     91  C   UNL     1       8.959   7.662 -18.237  1.00  0.00     0.002 A 
ATOM     92  C   UNL     1       8.006   6.135 -19.865  1.00  0.00     0.091 A 
ATOM     93  F   UNL     1       6.324   4.593 -19.167  1.00  0.00    -0.205 F 
ATOM     94  C   UNL     1       8.884   7.184 -19.543  1.00  0.00     0.022 A 
BRANCH  92  95
ATOM     95  S   UNL     1       8.043   5.519 -21.552  1.00  0.00     0.127 S 
ATOM     96  O   UNL     1       7.317   6.567 -22.268  1.00  0.00    -0.237 OA
ATOM     97  O   UNL     1       9.478   5.468 -21.836  1.00  0.00    -0.237 OA
ATOM     98  O   UNL     1       7.390   4.217 -21.516  1.00  0.00    -0.744 OA
ENDBRANCH  92  95
ENDBRANCH  65  88
ENDBRANCH  39  40
ENDBRANCH  31  34
ENDBRANCH  29  30
ENDBRANCH  28  29
ENDBRANCH   1  28
TORSDOF 18
