REMARK SMILES O=C(NCCCCNC(=O)[C@@H]1[C@H](C(=O)NCc2cccnc2)[C@H]2C=C[C@@H]1C2)c1ccc(-c2c3nc(c(-c4cccc(S(=O)(=O)[O-])c4F)c4ccc([nH]4)c(-c4cccc(S(=O)(=O)[O-])c4F)c4nc(c(-c5cccc(S(=O)(=O)[O-])c5F)c5ccc2[nH]5)C=C4)C=C3)cc1
REMARK SMILES IDX 5 1 4 2 3 3 1 4 2 5 28 7 29 8 90 9 30 10 89 11 31 12 32 13
REMARK SMILES IDX 33 14 83 15 34 16 88 17 82 18 84 19 35 20 87 21 81 22 80 23
REMARK SMILES IDX 36 25 68 26 48 27 67 28 49 29 52 30 66 31 85 32 50 33 51 34
REMARK SMILES IDX 65 36 86 37 53 38 37 39 38 40 46 41 39 42 41 43 47 44 40 45
REMARK SMILES IDX 42 46 43 47 44 48 45 49 69 50 70 51 78 52 71 53 73 54 79 55
REMARK SMILES IDX 72 56 74 57 75 58 76 59 77 60 54 61 55 62 63 63 56 64 58 65
REMARK SMILES IDX 64 66 57 67 59 68 60 69 61 70 62 71 6 72 7 73 8 74 9 75
REMARK SMILES IDX 10 77 11 78 12 79 26 80 23 81 25 82 27 83 24 84 13 85 14 86
REMARK SMILES IDX 15 87 16 89 17 90 18 91 22 92 19 93 21 94 20 95
REMARK H PARENT 3 6 84 24 52 35 8 76 15 88
REMARK Flexibility Score: inf
ROOT
ATOM      1  C   UNL     1       4.878   2.034   1.789  1.00  0.00     0.023 C 
ENDROOT
BRANCH   1   2
ATOM      2  C   UNL     1       4.530   0.654   1.245  1.00  0.00     0.116 C 
BRANCH   2   3
ATOM      3  N   UNL     1       3.100   0.441   1.092  1.00  0.00    -0.352 N 
ATOM      4  O   UNL     1       1.158   0.089   0.011  1.00  0.00    -0.269 OA
ATOM      5  C   UNL     1       2.383   0.089  -0.029  1.00  0.00     0.251 C 
ATOM      6  H   UNL     1       2.566   0.568   1.909  1.00  0.00     0.163 HD
BRANCH   5   7
ATOM      7  C   UNL     1       3.092  -0.261  -1.281  1.00  0.00     0.039 A 
ATOM      8  C   UNL     1       4.204  -1.107  -1.263  1.00  0.00     0.014 A 
ATOM      9  C   UNL     1       2.629   0.258  -2.494  1.00  0.00     0.014 A 
ATOM     10  C   UNL     1       4.934  -1.318  -2.427  1.00  0.00     0.010 A 
ATOM     11  C   UNL     1       3.313  -0.029  -3.679  1.00  0.00     0.010 A 
ATOM     12  C   UNL     1       4.487  -0.799  -3.653  1.00  0.00    -0.014 A 
BRANCH  12  13
ATOM     13  C   UNL     1       5.203  -1.156  -4.905  1.00  0.00     0.031 A 
ATOM     14  C   UNL     1       5.863  -0.110  -5.759  1.00  0.00     0.074 A 
ATOM     15  C   UNL     1       5.231  -2.451  -5.279  1.00  0.00     0.049 A 
ATOM     16  N   UNL     1       6.516  -0.261  -6.883  1.00  0.00    -0.248 NA
ATOM     17  C   UNL     1       5.776   1.286  -5.302  1.00  0.00     0.031 C 
ATOM     18  C   UNL     1       4.588  -3.549  -4.552  1.00  0.00     0.029 A 
ATOM     19  N   UNL     1       5.806  -3.064  -6.363  1.00  0.00    -0.354 N 
ATOM     20  C   UNL     1       6.882   1.016  -7.290  1.00  0.00     0.074 A 
ATOM     21  C   UNL     1       6.377   1.935  -6.292  1.00  0.00     0.031 C 
ATOM     22  C   UNL     1       4.812  -4.699  -5.202  1.00  0.00     0.029 A 
ATOM     23  C   UNL     1       5.558  -4.415  -6.421  1.00  0.00     0.049 A 
ATOM     24  H   UNL     1       6.343  -2.583  -7.033  1.00  0.00     0.167 HD
ATOM     25  C   UNL     1       7.582   1.385  -8.391  1.00  0.00     0.034 A 
ATOM     26  C   UNL     1       5.865  -5.324  -7.366  1.00  0.00     0.034 A 
ATOM     27  C   UNL     1       8.098   0.462  -9.368  1.00  0.00     0.049 A 
ATOM     28  C   UNL     1       6.638  -4.883  -8.574  1.00  0.00     0.074 A 
ATOM     29  C   UNL     1       8.884   0.732 -10.475  1.00  0.00     0.029 A 
ATOM     30  N   UNL     1       7.862  -0.905  -9.373  1.00  0.00    -0.354 N 
ATOM     31  N   UNL     1       7.098  -3.692  -8.868  1.00  0.00    -0.248 NA
ATOM     32  C   UNL     1       6.957  -5.915  -9.570  1.00  0.00     0.031 C 
ATOM     33  C   UNL     1       9.088  -0.463 -11.171  1.00  0.00     0.029 A 
ATOM     34  C   UNL     1       8.466  -1.487 -10.476  1.00  0.00     0.049 A 
ATOM     35  H   UNL     1       7.342  -1.390  -8.693  1.00  0.00     0.167 HD
ATOM     36  C   UNL     1       7.785  -3.834 -10.066  1.00  0.00     0.074 A 
ATOM     37  C   UNL     1       7.702  -5.234 -10.430  1.00  0.00     0.031 C 
ATOM     38  C   UNL     1       8.414  -2.888 -10.806  1.00  0.00     0.034 A 
BRANCH  25  39
ATOM     39  C   UNL     1       7.853   2.854  -8.600  1.00  0.00     0.023 A 
ATOM     40  C   UNL     1       8.786   3.520  -7.779  1.00  0.00     0.012 A 
ATOM     41  C   UNL     1       7.247   3.554  -9.664  1.00  0.00     0.148 A 
ATOM     42  C   UNL     1       9.088   4.865  -7.993  1.00  0.00     0.002 A 
ATOM     43  C   UNL     1       7.587   4.882  -9.898  1.00  0.00     0.091 A 
ATOM     44  F   UNL     1       6.352   2.910 -10.425  1.00  0.00    -0.205 F 
ATOM     45  C   UNL     1       8.498   5.542  -9.058  1.00  0.00     0.022 A 
BRANCH  43  46
ATOM     46  S   UNL     1       6.946   5.817 -11.292  1.00  0.00     0.127 S 
ATOM     47  O   UNL     1       6.075   6.783 -10.621  1.00  0.00    -0.237 OA
ATOM     48  O   UNL     1       8.164   6.390 -11.864  1.00  0.00    -0.237 OA
ATOM     49  O   UNL     1       6.266   4.854 -12.146  1.00  0.00    -0.744 OA
ENDBRANCH  43  46
ENDBRANCH  25  39
BRANCH  26  50
ATOM     50  C   UNL     1       5.448  -6.743  -7.191  1.00  0.00     0.023 A 
ATOM     51  C   UNL     1       6.423  -7.735  -6.971  1.00  0.00     0.012 A 
ATOM     52  C   UNL     1       4.087  -7.108  -7.207  1.00  0.00     0.148 A 
ATOM     53  C   UNL     1       6.051  -9.069  -6.802  1.00  0.00     0.002 A 
ATOM     54  C   UNL     1       3.721  -8.427  -6.978  1.00  0.00     0.091 A 
ATOM     55  F   UNL     1       3.176  -6.150  -7.429  1.00  0.00    -0.205 F 
ATOM     56  C   UNL     1       4.702  -9.413  -6.794  1.00  0.00     0.022 A 
BRANCH  54  57
ATOM     57  S   UNL     1       2.006  -8.934  -6.812  1.00  0.00     0.127 S 
ATOM     58  O   UNL     1       1.804  -9.708  -8.034  1.00  0.00    -0.237 OA
ATOM     59  O   UNL     1       2.043  -9.724  -5.581  1.00  0.00    -0.237 OA
ATOM     60  O   UNL     1       1.239  -7.700  -6.710  1.00  0.00    -0.744 OA
ENDBRANCH  54  57
ENDBRANCH  26  50
BRANCH  38  61
ATOM     61  C   UNL     1       9.098  -3.337 -12.070  1.00  0.00     0.023 A 
ATOM     62  C   UNL     1       8.332  -3.716 -13.190  1.00  0.00     0.012 A 
ATOM     63  C   UNL     1      10.504  -3.314 -12.169  1.00  0.00     0.148 A 
ATOM     64  C   UNL     1       8.954  -4.098 -14.378  1.00  0.00     0.002 A 
ATOM     65  C   UNL     1      11.115  -3.645 -13.372  1.00  0.00     0.091 A 
ATOM     66  F   UNL     1      11.215  -2.968 -11.086  1.00  0.00    -0.205 F 
ATOM     67  C   UNL     1      10.344  -4.051 -14.473  1.00  0.00     0.022 A 
BRANCH  65  68
ATOM     68  S   UNL     1      12.890  -3.520 -13.618  1.00  0.00     0.127 S 
ATOM     69  O   UNL     1      13.273  -4.925 -13.745  1.00  0.00    -0.237 OA
ATOM     70  O   UNL     1      12.975  -2.750 -14.860  1.00  0.00    -0.237 OA
ATOM     71  O   UNL     1      13.414  -2.837 -12.444  1.00  0.00    -0.744 OA
ENDBRANCH  65  68
ENDBRANCH  38  61
ENDBRANCH  12  13
ENDBRANCH   5   7
ENDBRANCH   2   3
ENDBRANCH   1   2
BRANCH   1  72
ATOM     72  C   UNL     1       4.322   2.362   3.171  1.00  0.00     0.023 C 
BRANCH  72  73
ATOM     73  C   UNL     1       4.583   1.320   4.254  1.00  0.00     0.116 C 
BRANCH  73  74
ATOM     74  N   UNL     1       5.988   0.966   4.418  1.00  0.00    -0.356 N 
ATOM     75  C   UNL     1       6.743   0.922   5.557  1.00  0.00     0.224 C 
ATOM     76  H   UNL     1       6.461   0.723   3.590  1.00  0.00     0.163 HD
ATOM     77  O   UNL     1       7.776   0.261   5.573  1.00  0.00    -0.275 OA
BRANCH  75  78
ATOM     78  C   UNL     1       6.289   1.679   6.772  1.00  0.00     0.098 C 
ATOM     79  C   UNL     1       6.657   3.183   6.829  1.00  0.00     0.098 C 
ATOM     80  C   UNL     1       6.803   1.137   8.141  1.00  0.00     0.025 C 
ATOM     81  C   UNL     1       7.203   3.339   8.274  1.00  0.00     0.025 C 
ATOM     82  C   UNL     1       5.830   1.686   9.164  1.00  0.00    -0.027 C 
ATOM     83  C   UNL     1       7.965   2.042   8.541  1.00  0.00     0.017 C 
ATOM     84  C   UNL     1       6.048   3.014   9.230  1.00  0.00    -0.027 C 
BRANCH  79  85
ATOM     85  C   UNL     1       7.373   3.874   5.653  1.00  0.00     0.224 C 
ATOM     86  O   UNL     1       6.754   4.775   5.062  1.00  0.00    -0.275 OA
ATOM     87  N   UNL     1       8.608   3.644   5.155  1.00  0.00    -0.352 N 
ATOM     88  H   UNL     1       8.782   4.145   4.326  1.00  0.00     0.163 HD
BRANCH  87  89
ATOM     89  C   UNL     1       9.731   2.830   5.561  1.00  0.00     0.153 C 
BRANCH  89  90
ATOM     90  C   UNL     1      10.231   1.847   4.545  1.00  0.00    -0.010 A 
ATOM     91  C   UNL     1      10.436   2.145   3.200  1.00  0.00     0.009 A 
ATOM     92  C   UNL     1      10.550   0.549   4.959  1.00  0.00     0.116 A 
ATOM     93  C   UNL     1      10.855   1.137   2.331  1.00  0.00     0.020 A 
ATOM     94  N   UNL     1      10.979  -0.441   4.146  1.00  0.00    -0.264 NA
ATOM     95  C   UNL     1      11.091  -0.131   2.841  1.00  0.00     0.111 A 
ENDBRANCH  89  90
ENDBRANCH  87  89
ENDBRANCH  79  85
ENDBRANCH  75  78
ENDBRANCH  73  74
ENDBRANCH  72  73
ENDBRANCH   1  72
TORSDOF 17
