REMARK SMILES O=C(NCCCCNC(=O)[C@@H]1[C@H]2C=C[C@H]3C=C[C@@H]1[C@H]32)c1ccc(-c2c3nc(c(-c4cccc(S(=O)(=O)[O-])c4F)c4ccc([nH]4)c(-c4cccc(S(=O)(=O)[O-])c4F)c4nc(c(-c5cccc(S(=O)(=O)[O-])c5F)c5ccc2[nH]5)C=C4)C=C3)cc1
REMARK SMILES IDX 4 1 3 2 1 3 2 4 20 6 21 7 82 8 22 9 81 10 23 11 24 12 25 13
REMARK SMILES IDX 75 14 26 15 80 16 74 17 76 18 27 19 79 20 73 21 72 22 28 24
REMARK SMILES IDX 60 25 40 26 59 27 41 28 44 29 58 30 77 31 42 32 43 33 57 35
REMARK SMILES IDX 78 36 45 37 29 38 30 39 38 40 31 41 33 42 39 43 32 44 34 45
REMARK SMILES IDX 35 46 36 47 37 48 61 49 62 50 70 51 63 52 65 53 71 54 64 55
REMARK SMILES IDX 66 56 67 57 68 58 69 59 46 60 47 61 55 62 48 63 50 64 56 65
REMARK SMILES IDX 49 66 51 67 52 68 53 69 54 70 5 71 6 72 7 73 8 74 9 75 10 77
REMARK SMILES IDX 11 78 18 79 12 80 17 81 19 82 13 83 16 84 15 85 14 86
REMARK H PARENT 3 5 76 23 44 34 8 76
REMARK Flexibility Score: inf
ROOT
ATOM      1  C   UNL     1       4.309   0.902  -1.290  1.00  0.00     0.116 C 
ENDROOT
BRANCH   1   2
ATOM      2  N   UNL     1       2.906   0.763  -0.933  1.00  0.00    -0.352 N 
ATOM      3  O   UNL     1       1.052  -0.152  -0.050  1.00  0.00    -0.269 OA
ATOM      4  C   UNL     1       2.280  -0.136  -0.102  1.00  0.00     0.251 C 
ATOM      5  H   UNL     1       2.307   1.419  -1.357  1.00  0.00     0.163 HD
BRANCH   4   6
ATOM      6  C   UNL     1       3.073  -1.099   0.694  1.00  0.00     0.039 A 
ATOM      7  C   UNL     1       4.224  -0.692   1.366  1.00  0.00     0.014 A 
ATOM      8  C   UNL     1       2.654  -2.430   0.781  1.00  0.00     0.014 A 
ATOM      9  C   UNL     1       5.054  -1.640   1.951  1.00  0.00     0.010 A 
ATOM     10  C   UNL     1       3.430  -3.364   1.480  1.00  0.00     0.010 A 
ATOM     11  C   UNL     1       4.659  -2.986   2.039  1.00  0.00    -0.014 A 
BRANCH  11  12
ATOM     12  C   UNL     1       5.516  -3.929   2.807  1.00  0.00     0.031 A 
ATOM     13  C   UNL     1       6.144  -5.139   2.168  1.00  0.00     0.074 A 
ATOM     14  C   UNL     1       5.761  -3.652   4.104  1.00  0.00     0.049 A 
ATOM     15  N   UNL     1       6.978  -6.001   2.694  1.00  0.00    -0.248 NA
ATOM     16  C   UNL     1       5.791  -5.430   0.770  1.00  0.00     0.031 C 
ATOM     17  C   UNL     1       5.161  -2.542   4.853  1.00  0.00     0.029 A 
ATOM     18  N   UNL     1       6.580  -4.260   5.020  1.00  0.00    -0.354 N 
ATOM     19  C   UNL     1       7.233  -6.946   1.706  1.00  0.00     0.074 A 
ATOM     20  C   UNL     1       6.447  -6.563   0.552  1.00  0.00     0.031 C 
ATOM     21  C   UNL     1       5.662  -2.524   6.095  1.00  0.00     0.029 A 
ATOM     22  C   UNL     1       6.567  -3.655   6.255  1.00  0.00     0.049 A 
ATOM     23  H   UNL     1       7.125  -5.054   4.813  1.00  0.00     0.167 HD
ATOM     24  C   UNL     1       8.059  -8.020   1.751  1.00  0.00     0.034 A 
ATOM     25  C   UNL     1       7.193  -3.980   7.401  1.00  0.00     0.034 A 
ATOM     26  C   UNL     1       8.852  -8.387   2.897  1.00  0.00     0.049 A 
ATOM     27  C   UNL     1       8.116  -5.163   7.410  1.00  0.00     0.074 A 
ATOM     28  C   UNL     1       9.748  -9.435   3.023  1.00  0.00     0.029 A 
ATOM     29  N   UNL     1       8.841  -7.727   4.117  1.00  0.00    -0.354 N 
ATOM     30  N   UNL     1       8.435  -5.968   6.425  1.00  0.00    -0.248 NA
ATOM     31  C   UNL     1       8.792  -5.464   8.678  1.00  0.00     0.031 C 
ATOM     32  C   UNL     1      10.261  -9.423   4.325  1.00  0.00     0.029 A 
ATOM     33  C   UNL     1       9.710  -8.348   5.002  1.00  0.00     0.049 A 
ATOM     34  H   UNL     1       8.296  -6.934   4.324  1.00  0.00     0.167 HD
ATOM     35  C   UNL     1       9.360  -6.860   6.951  1.00  0.00     0.074 A 
ATOM     36  C   UNL     1       9.585  -6.466   8.327  1.00  0.00     0.031 C 
ATOM     37  C   UNL     1       9.953  -7.925   6.357  1.00  0.00     0.034 A 
BRANCH  24  38
ATOM     38  C   UNL     1       8.193  -8.864   0.507  1.00  0.00     0.023 A 
ATOM     39  C   UNL     1       8.906  -8.358  -0.599  1.00  0.00     0.012 A 
ATOM     40  C   UNL     1       7.702 -10.185   0.465  1.00  0.00     0.148 A 
ATOM     41  C   UNL     1       9.110  -9.143  -1.735  1.00  0.00     0.002 A 
ATOM     42  C   UNL     1       7.945 -10.975  -0.654  1.00  0.00     0.091 A 
ATOM     43  F   UNL     1       7.015 -10.645   1.520  1.00  0.00    -0.205 F 
ATOM     44  C   UNL     1       8.640 -10.453  -1.757  1.00  0.00     0.022 A 
BRANCH  42  45
ATOM     45  S   UNL     1       7.454 -12.701  -0.755  1.00  0.00     0.127 S 
ATOM     46  O   UNL     1       6.439 -12.657  -1.807  1.00  0.00    -0.237 OA
ATOM     47  O   UNL     1       8.704 -13.354  -1.142  1.00  0.00    -0.237 OA
ATOM     48  O   UNL     1       6.961 -13.059   0.568  1.00  0.00    -0.744 OA
ENDBRANCH  42  45
ENDBRANCH  24  38
BRANCH  25  49
ATOM     49  C   UNL     1       6.972  -3.164   8.627  1.00  0.00     0.023 A 
ATOM     50  C   UNL     1       8.027  -2.408   9.171  1.00  0.00     0.012 A 
ATOM     51  C   UNL     1       5.707  -3.121   9.245  1.00  0.00     0.148 A 
ATOM     52  C   UNL     1       7.837  -1.655  10.330  1.00  0.00     0.002 A 
ATOM     53  C   UNL     1       5.506  -2.316  10.358  1.00  0.00     0.091 A 
ATOM     54  F   UNL     1       4.718  -3.861   8.723  1.00  0.00    -0.205 F 
ATOM     55  C   UNL     1       6.574  -1.600  10.917  1.00  0.00     0.022 A 
BRANCH  53  56
ATOM     56  S   UNL     1       3.878  -2.073  11.075  1.00  0.00     0.127 S 
ATOM     57  O   UNL     1       3.963  -2.877  12.290  1.00  0.00    -0.237 OA
ATOM     58  O   UNL     1       3.854  -0.626  11.292  1.00  0.00    -0.237 OA
ATOM     59  O   UNL     1       2.936  -2.539  10.066  1.00  0.00    -0.744 OA
ENDBRANCH  53  56
ENDBRANCH  25  49
BRANCH  37  60
ATOM     60  C   UNL     1      10.920  -8.723   7.191  1.00  0.00     0.023 A 
ATOM     61  C   UNL     1      10.440  -9.515   8.255  1.00  0.00     0.012 A 
ATOM     62  C   UNL     1      12.299  -8.708   6.910  1.00  0.00     0.148 A 
ATOM     63  C   UNL     1      11.323 -10.237   9.057  1.00  0.00     0.002 A 
ATOM     64  C   UNL     1      13.168  -9.473   7.679  1.00  0.00     0.091 A 
ATOM     65  F   UNL     1      12.740  -7.935   5.907  1.00  0.00    -0.205 F 
ATOM     66  C   UNL     1      12.684 -10.223   8.764  1.00  0.00     0.022 A 
BRANCH  64  67
ATOM     67  S   UNL     1      14.923  -9.589   7.319  1.00  0.00     0.127 S 
ATOM     68  O   UNL     1      15.503  -8.791   8.398  1.00  0.00    -0.237 OA
ATOM     69  O   UNL     1      15.167 -11.028   7.426  1.00  0.00    -0.237 OA
ATOM     70  O   UNL     1      15.093  -9.047   5.978  1.00  0.00    -0.744 OA
ENDBRANCH  64  67
ENDBRANCH  37  60
ENDBRANCH  11  12
ENDBRANCH   4   6
ENDBRANCH   1   2
BRANCH   1  71
ATOM     71  C   UNL     1       4.636   0.381  -2.683  1.00  0.00     0.023 C 
BRANCH  71  72
ATOM     72  C   UNL     1       4.078   1.231  -3.825  1.00  0.00     0.023 C 
BRANCH  72  73
ATOM     73  C   UNL     1       4.623   2.662  -3.889  1.00  0.00     0.116 C 
BRANCH  73  74
ATOM     74  N   UNL     1       6.037   2.708  -4.211  1.00  0.00    -0.356 N 
ATOM     75  C   UNL     1       6.995   3.663  -3.955  1.00  0.00     0.224 C 
ATOM     76  H   UNL     1       6.369   1.919  -4.697  1.00  0.00     0.163 HD
ATOM     77  O   UNL     1       8.033   3.560  -4.629  1.00  0.00    -0.275 OA
BRANCH  75  78
ATOM     78  C   UNL     1       6.832   4.763  -2.885  1.00  0.00     0.093 C 
ATOM     79  C   UNL     1       5.698   5.820  -3.010  1.00  0.00     0.029 C 
ATOM     80  C   UNL     1       6.318   4.369  -1.477  1.00  0.00     0.029 C 
ATOM     81  C   UNL     1       6.097   7.247  -2.867  1.00  0.00    -0.026 C 
ATOM     82  C   UNL     1       5.183   5.408  -1.611  1.00  0.00     0.015 C 
ATOM     83  C   UNL     1       7.112   4.796  -0.302  1.00  0.00    -0.026 C 
ATOM     84  C   UNL     1       6.012   7.639  -1.587  1.00  0.00    -0.023 C 
ATOM     85  C   UNL     1       5.551   6.557  -0.653  1.00  0.00     0.038 C 
ATOM     86  C   UNL     1       6.679   5.980   0.153  1.00  0.00    -0.023 C 
ENDBRANCH  75  78
ENDBRANCH  73  74
ENDBRANCH  72  73
ENDBRANCH  71  72
ENDBRANCH   1  71
TORSDOF 14
