REMARK SMILES CC[C@H](NC(=O)N1CCO[C@@H](CC(=O)NCCCCNC(=O)c2ccc(-c3c4nc(c(-c5cccc(S(=O)(=O)[O-])c5F)c5ccc([nH]5)c(-c5cccc(S(=O)(=O)[O-])c5F)c5nc(c(-c6cccc(S(=O)(=O)[O-])c6F)c6ccc3[nH]6)C=C5)C=C4)cc2)C1)c1cccs1
REMARK SMILES IDX 17 1 16 2 15 3 13 4 14 5 12 7 11 8 7 9 8 10 86 11 9 12 10 13
REMARK SMILES IDX 5 14 4 15 6 17 3 18 2 19 1 20 87 21 88 22 91 23 89 24 90 25
REMARK SMILES IDX 18 26 19 27 20 28 21 29 22 31 23 32 24 33 85 34 25 35 84 36
REMARK SMILES IDX 26 37 27 38 28 39 78 40 29 41 83 42 77 43 79 44 30 45 82 46
REMARK SMILES IDX 76 47 75 48 31 50 63 51 43 52 62 53 44 54 47 55 61 56 80 57
REMARK SMILES IDX 45 58 46 59 60 61 81 62 48 63 32 64 33 65 41 66 34 67 36 68
REMARK SMILES IDX 42 69 35 70 37 71 38 72 39 73 40 74 64 75 65 76 73 77 66 78
REMARK SMILES IDX 68 79 74 80 67 81 69 82 70 83 71 84 72 85 49 86 50 87 58 88
REMARK SMILES IDX 51 89 53 90 59 91 52 92 54 93 55 94 56 95 57 96
REMARK H PARENT 15 6 4 16 20 30 79 49 47 60
REMARK Flexibility Score: inf
ROOT
ATOM      1  C   UNL     1       0.929   4.944  -2.235  1.00  0.00     0.023 C 
ENDROOT
BRANCH   1   2
ATOM      2  C   UNL     1       1.492   5.706  -3.439  1.00  0.00     0.116 C 
BRANCH   2   3
ATOM      3  N   UNL     1       2.902   5.396  -3.616  1.00  0.00    -0.356 N 
ATOM      4  C   UNL     1       3.504   4.541  -4.494  1.00  0.00     0.222 C 
ATOM      5  O   UNL     1       4.688   4.249  -4.328  1.00  0.00    -0.275 OA
ATOM      6  H   UNL     1       3.515   5.876  -3.013  1.00  0.00     0.163 HD
BRANCH   4   7
ATOM      7  C   UNL     1       2.728   3.983  -5.669  1.00  0.00     0.133 C 
BRANCH   7   8
ATOM      8  C   UNL     1       2.114   2.587  -5.483  1.00  0.00     0.147 C 
ATOM      9  N   UNL     1       0.663   1.196  -3.931  1.00  0.00    -0.320 N 
ATOM     10  C   UNL     1      -0.300   1.077  -5.022  1.00  0.00     0.150 C 
ATOM     11  C   UNL     1       1.518   2.367  -4.087  1.00  0.00     0.154 C 
ATOM     12  C   UNL     1       0.356   1.254  -6.392  1.00  0.00     0.182 C 
ATOM     13  O   UNL     1       1.067   2.495  -6.481  1.00  0.00    -0.374 OA
BRANCH   9  14
ATOM     14  C   UNL     1       0.170   0.985  -2.658  1.00  0.00     0.318 C 
ATOM     15  N   UNL     1      -0.222  -0.265  -2.301  1.00  0.00    -0.330 N 
ATOM     16  H   UNL     1      -1.120  -0.363  -1.909  1.00  0.00     0.166 HD
ATOM     17  O   UNL     1       0.016   1.891  -1.841  1.00  0.00    -0.249 OA
BRANCH  15  18
ATOM     18  C   UNL     1       0.583  -1.474  -2.452  1.00  0.00     0.124 C 
BRANCH  18  19
ATOM     19  C   UNL     1       0.295  -2.533  -1.350  1.00  0.00     0.027 C 
ATOM     20  C   UNL     1       0.064  -1.999   0.060  1.00  0.00     0.006 C 
ENDBRANCH  18  19
BRANCH  18  21
ATOM     21  C   UNL     1       0.304  -2.067  -3.813  1.00  0.00     0.027 A 
ATOM     22  C   UNL     1      -0.862  -2.656  -4.274  1.00  0.00     0.017 A 
ATOM     23  S   UNL     1       1.507  -2.053  -5.037  1.00  0.00    -0.147 S 
ATOM     24  C   UNL     1      -0.820  -2.931  -5.668  1.00  0.00     0.012 A 
ATOM     25  C   UNL     1       0.388  -2.576  -6.223  1.00  0.00     0.065 A 
ENDBRANCH  18  21
ENDBRANCH  15  18
ENDBRANCH   9  14
ENDBRANCH   7   8
ENDBRANCH   4   7
ENDBRANCH   2   3
ENDBRANCH   1   2
BRANCH   1  26
ATOM     26  C   UNL     1       1.060   5.630  -0.892  1.00  0.00     0.023 C 
BRANCH  26  27
ATOM     27  C   UNL     1       0.218   6.878  -0.760  1.00  0.00     0.116 C 
BRANCH  27  28
ATOM     28  N   UNL     1      -1.215   6.653  -0.908  1.00  0.00    -0.352 N 
ATOM     29  C   UNL     1      -2.236   7.312  -0.252  1.00  0.00     0.251 C 
ATOM     30  H   UNL     1      -1.485   5.953  -1.546  1.00  0.00     0.163 HD
ATOM     31  O   UNL     1      -3.401   6.998  -0.406  1.00  0.00    -0.269 OA
BRANCH  29  32
ATOM     32  C   UNL     1      -1.851   8.384   0.692  1.00  0.00     0.039 A 
ATOM     33  C   UNL     1      -2.281   8.306   2.016  1.00  0.00     0.014 A 
ATOM     34  C   UNL     1      -0.938   9.361   0.291  1.00  0.00     0.014 A 
ATOM     35  C   UNL     1      -1.735   9.177   2.960  1.00  0.00     0.010 A 
ATOM     36  C   UNL     1      -0.305  10.132   1.252  1.00  0.00     0.010 A 
ATOM     37  C   UNL     1      -0.715  10.070   2.592  1.00  0.00    -0.014 A 
BRANCH  37  38
ATOM     38  C   UNL     1      -0.089  10.989   3.575  1.00  0.00     0.031 A 
ATOM     39  C   UNL     1      -0.160  12.477   3.338  1.00  0.00     0.074 A 
ATOM     40  C   UNL     1       0.617  10.498   4.614  1.00  0.00     0.049 A 
ATOM     41  N   UNL     1       0.386  13.447   4.021  1.00  0.00    -0.248 NA
ATOM     42  C   UNL     1      -0.901  12.933   2.147  1.00  0.00     0.031 C 
ATOM     43  C   UNL     1       0.854   9.077   4.889  1.00  0.00     0.029 A 
ATOM     44  N   UNL     1       1.291  11.143   5.621  1.00  0.00    -0.354 N 
ATOM     45  C   UNL     1       0.107  14.610   3.313  1.00  0.00     0.074 A 
ATOM     46  C   UNL     1      -0.615  14.225   2.124  1.00  0.00     0.031 C 
ATOM     47  C   UNL     1       1.607   8.961   5.996  1.00  0.00     0.029 A 
ATOM     48  C   UNL     1       1.926  10.293   6.498  1.00  0.00     0.049 A 
ATOM     49  H   UNL     1       1.318  12.123   5.707  1.00  0.00     0.167 HD
ATOM     50  C   UNL     1       0.386  15.892   3.644  1.00  0.00     0.034 A 
ATOM     51  C   UNL     1       2.674  10.563   7.587  1.00  0.00     0.034 A 
ATOM     52  C   UNL     1       1.011  16.275   4.877  1.00  0.00     0.049 A 
ATOM     53  C   UNL     1       2.861  12.002   7.996  1.00  0.00     0.074 A 
ATOM     54  C   UNL     1       1.227  17.548   5.372  1.00  0.00     0.029 A 
ATOM     55  N   UNL     1       1.508  15.386   5.816  1.00  0.00    -0.354 N 
ATOM     56  N   UNL     1       2.431  13.090   7.405  1.00  0.00    -0.248 NA
ATOM     57  C   UNL     1       3.594  12.249   9.246  1.00  0.00     0.031 C 
ATOM     58  C   UNL     1       1.865  17.428   6.610  1.00  0.00     0.029 A 
ATOM     59  C   UNL     1       2.026  16.081   6.892  1.00  0.00     0.049 A 
ATOM     60  H   UNL     1       1.494  14.405   5.730  1.00  0.00     0.167 HD
ATOM     61  C   UNL     1       2.801  14.145   8.232  1.00  0.00     0.074 A 
ATOM     62  C   UNL     1       3.472  13.562   9.376  1.00  0.00     0.031 C 
ATOM     63  C   UNL     1       2.619  15.476   8.055  1.00  0.00     0.034 A 
BRANCH  50  64
ATOM     64  C   UNL     1      -0.054  16.977   2.700  1.00  0.00     0.023 A 
ATOM     65  C   UNL     1      -1.426  17.280   2.577  1.00  0.00     0.012 A 
ATOM     66  C   UNL     1       0.890  17.743   1.990  1.00  0.00     0.148 A 
ATOM     67  C   UNL     1      -1.854  18.308   1.739  1.00  0.00     0.002 A 
ATOM     68  C   UNL     1       0.460  18.798   1.194  1.00  0.00     0.091 A 
ATOM     69  F   UNL     1       2.187  17.424   2.103  1.00  0.00    -0.205 F 
ATOM     70  C   UNL     1      -0.911  19.074   1.059  1.00  0.00     0.022 A 
BRANCH  68  71
ATOM     71  S   UNL     1       1.594  19.898   0.341  1.00  0.00     0.127 S 
ATOM     72  O   UNL     1       1.317  19.580  -1.059  1.00  0.00    -0.237 OA
ATOM     73  O   UNL     1       1.124  21.215   0.772  1.00  0.00    -0.237 OA
ATOM     74  O   UNL     1       2.928  19.543   0.806  1.00  0.00    -0.744 OA
ENDBRANCH  68  71
ENDBRANCH  50  64
BRANCH  51  75
ATOM     75  C   UNL     1       3.228   9.456   8.418  1.00  0.00     0.023 A 
ATOM     76  C   UNL     1       2.704   9.230   9.707  1.00  0.00     0.012 A 
ATOM     77  C   UNL     1       4.264   8.628   7.947  1.00  0.00     0.148 A 
ATOM     78  C   UNL     1       3.232   8.233  10.528  1.00  0.00     0.002 A 
ATOM     79  C   UNL     1       4.750   7.600   8.750  1.00  0.00     0.091 A 
ATOM     80  F   UNL     1       4.762   8.863   6.725  1.00  0.00    -0.205 F 
ATOM     81  C   UNL     1       4.249   7.413  10.047  1.00  0.00     0.022 A 
BRANCH  79  82
ATOM     82  S   UNL     1       5.967   6.420   8.156  1.00  0.00     0.127 S 
ATOM     83  O   UNL     1       7.189   6.903   8.793  1.00  0.00    -0.237 OA
ATOM     84  O   UNL     1       5.455   5.156   8.687  1.00  0.00    -0.237 OA
ATOM     85  O   UNL     1       5.920   6.518   6.704  1.00  0.00    -0.744 OA
ENDBRANCH  79  82
ENDBRANCH  51  75
BRANCH  63  86
ATOM     86  C   UNL     1       3.097  16.400   9.142  1.00  0.00     0.023 A 
ATOM     87  C   UNL     1       4.476  16.630   9.311  1.00  0.00     0.012 A 
ATOM     88  C   UNL     1       2.173  17.107   9.935  1.00  0.00     0.148 A 
ATOM     89  C   UNL     1       4.929  17.527  10.276  1.00  0.00     0.002 A 
ATOM     90  C   UNL     1       2.630  18.036  10.861  1.00  0.00     0.091 A 
ATOM     91  F   UNL     1       0.865  16.859   9.771  1.00  0.00    -0.205 F 
ATOM     92  C   UNL     1       4.008  18.239  11.041  1.00  0.00     0.022 A 
BRANCH  90  93
ATOM     93  S   UNL     1       1.508  19.068  11.810  1.00  0.00     0.127 S 
ATOM     94  O   UNL     1       1.545  18.421  13.121  1.00  0.00    -0.237 OA
ATOM     95  O   UNL     1       2.163  20.376  11.757  1.00  0.00    -0.237 OA
ATOM     96  O   UNL     1       0.229  19.009  11.115  1.00  0.00    -0.744 OA
ENDBRANCH  90  93
ENDBRANCH  63  86
ENDBRANCH  37  38
ENDBRANCH  29  32
ENDBRANCH  27  28
ENDBRANCH  26  27
ENDBRANCH   1  26
TORSDOF 19
