REMARK SMILES O=C(Cn1cnc(-c2ccccc2)c1-c1ccccc1)NCCCCNC(=O)c1ccc(-c2c3nc(c(-c4cccc(S(=O)(=O)[O-])c4F)c4ccc([nH]4)c(-c4cccc(S(=O)(=O)[O-])c4F)c4nc(c(-c5cccc(S(=O)(=O)[O-])c5F)c5ccc2[nH]5)C=C4)C=C3)cc1
REMARK SMILES IDX 24 1 23 2 22 3 21 4 1 5 2 6 3 8 4 9 5 10 14 11 6 12 7 13
REMARK SMILES IDX 15 14 16 15 20 16 17 17 19 18 18 19 8 20 9 21 13 22 10 23
REMARK SMILES IDX 12 24 11 25 25 26 26 27 27 28 28 30 29 31 30 32 91 33 31 34
REMARK SMILES IDX 90 35 32 36 33 37 34 38 84 39 35 40 89 41 83 42 85 43 36 44
REMARK SMILES IDX 88 45 82 46 81 47 37 49 69 50 49 51 68 52 50 53 53 54 67 55
REMARK SMILES IDX 86 56 51 57 52 58 66 60 87 61 54 62 38 63 39 64 47 65 40 66
REMARK SMILES IDX 42 67 48 68 41 69 43 70 44 71 45 72 46 73 70 74 71 75 79 76
REMARK SMILES IDX 72 77 74 78 80 79 73 80 75 81 76 82 77 83 78 84 55 85 56 86
REMARK SMILES IDX 64 87 57 88 59 89 65 90 58 91 60 92 61 93 62 94 63 95
REMARK H PARENT 21 7 26 29 85 48 53 59
REMARK Flexibility Score: inf
ROOT
ATOM      1  C   UNL     1       3.352  -4.327  -0.306  1.00  0.00     0.023 C 
ENDROOT
BRANCH   1   2
ATOM      2  C   UNL     1       1.954  -3.680  -0.359  1.00  0.00     0.023 C 
BRANCH   2   3
ATOM      3  C   UNL     1       1.736  -2.347   0.386  1.00  0.00     0.116 C 
BRANCH   3   4
ATOM      4  N   UNL     1       2.367  -1.177  -0.215  1.00  0.00    -0.355 N 
ATOM      5  O   UNL     1       0.755   0.296   0.502  1.00  0.00    -0.273 OA
ATOM      6  C   UNL     1       1.858   0.105  -0.009  1.00  0.00     0.239 C 
ATOM      7  H   UNL     1       3.167  -1.295  -0.777  1.00  0.00     0.163 HD
BRANCH   6   8
ATOM      8  C   UNL     1       2.707   1.269  -0.519  1.00  0.00     0.223 C 
BRANCH   8   9
ATOM      9  N   UNL     1       3.580   1.861   0.482  1.00  0.00    -0.321 N 
ATOM     10  C   UNL     1       3.502   3.131   0.989  1.00  0.00     0.201 A 
ATOM     11  C   UNL     1       4.697   1.285   1.024  1.00  0.00     0.076 A 
ATOM     12  N   UNL     1       4.455   3.369   1.865  1.00  0.00    -0.236 NA
ATOM     13  C   UNL     1       5.189   2.215   1.927  1.00  0.00     0.096 A 
BRANCH  11  14
ATOM     14  C   UNL     1       5.117  -0.084   0.867  1.00  0.00     0.000 A 
ATOM     15  C   UNL     1       4.853  -0.954   1.920  1.00  0.00     0.010 A 
ATOM     16  C   UNL     1       5.953  -0.463  -0.187  1.00  0.00     0.010 A 
ATOM     17  C   UNL     1       5.518  -2.159   1.961  1.00  0.00     0.001 A 
ATOM     18  C   UNL     1       6.586  -1.701  -0.148  1.00  0.00     0.001 A 
ATOM     19  C   UNL     1       6.394  -2.533   0.946  1.00  0.00     0.000 A 
ENDBRANCH  11  14
BRANCH  13  20
ATOM     20  C   UNL     1       6.219   1.877   2.904  1.00  0.00     0.002 A 
ATOM     21  C   UNL     1       5.886   1.833   4.253  1.00  0.00     0.010 A 
ATOM     22  C   UNL     1       7.459   1.347   2.501  1.00  0.00     0.010 A 
ATOM     23  C   UNL     1       6.758   1.225   5.157  1.00  0.00     0.001 A 
ATOM     24  C   UNL     1       8.326   0.744   3.419  1.00  0.00     0.001 A 
ATOM     25  C   UNL     1       7.966   0.670   4.753  1.00  0.00     0.000 A 
ENDBRANCH  13  20
ENDBRANCH   8   9
ENDBRANCH   6   8
ENDBRANCH   3   4
ENDBRANCH   2   3
ENDBRANCH   1   2
BRANCH   1  26
ATOM     26  C   UNL     1       3.833  -4.770   1.081  1.00  0.00     0.116 C 
BRANCH  26  27
ATOM     27  N   UNL     1       3.686  -6.177   1.434  1.00  0.00    -0.352 N 
ATOM     28  C   UNL     1       4.394  -6.876   2.419  1.00  0.00     0.251 C 
ATOM     29  H   UNL     1       3.018  -6.691   0.925  1.00  0.00     0.163 HD
ATOM     30  O   UNL     1       4.409  -8.097   2.405  1.00  0.00    -0.269 OA
BRANCH  28  31
ATOM     31  C   UNL     1       5.135  -6.138   3.490  1.00  0.00     0.039 A 
ATOM     32  C   UNL     1       6.357  -6.594   4.003  1.00  0.00     0.014 A 
ATOM     33  C   UNL     1       4.593  -4.971   4.011  1.00  0.00     0.014 A 
ATOM     34  C   UNL     1       7.070  -5.806   4.931  1.00  0.00     0.010 A 
ATOM     35  C   UNL     1       5.338  -4.154   4.847  1.00  0.00     0.010 A 
ATOM     36  C   UNL     1       6.582  -4.545   5.325  1.00  0.00    -0.014 A 
BRANCH  36  37
ATOM     37  C   UNL     1       7.422  -3.549   6.040  1.00  0.00     0.031 A 
ATOM     38  C   UNL     1       8.798  -3.423   5.465  1.00  0.00     0.074 A 
ATOM     39  C   UNL     1       6.974  -2.634   6.947  1.00  0.00     0.049 A 
ATOM     40  N   UNL     1       9.912  -3.821   5.987  1.00  0.00    -0.248 NA
ATOM     41  C   UNL     1       8.943  -2.953   4.077  1.00  0.00     0.031 C 
ATOM     42  C   UNL     1       5.581  -2.411   7.359  1.00  0.00     0.029 A 
ATOM     43  N   UNL     1       7.623  -1.615   7.611  1.00  0.00    -0.354 N 
ATOM     44  C   UNL     1      10.913  -3.373   5.119  1.00  0.00     0.074 A 
ATOM     45  C   UNL     1      10.257  -3.083   3.875  1.00  0.00     0.031 C 
ATOM     46  C   UNL     1       5.454  -1.207   7.960  1.00  0.00     0.029 A 
ATOM     47  C   UNL     1       6.771  -0.644   8.174  1.00  0.00     0.049 A 
ATOM     48  H   UNL     1       8.603  -1.570   7.685  1.00  0.00     0.167 HD
ATOM     49  C   UNL     1      12.120  -2.970   5.609  1.00  0.00     0.034 A 
ATOM     50  C   UNL     1       7.107   0.542   8.761  1.00  0.00     0.034 A 
ATOM     51  C   UNL     1      12.228  -3.316   7.003  1.00  0.00     0.049 A 
ATOM     52  C   UNL     1       8.519   0.395   9.176  1.00  0.00     0.074 A 
ATOM     53  C   UNL     1      12.407  -4.454   7.754  1.00  0.00     0.029 A 
ATOM     54  N   UNL     1      11.738  -2.341   7.830  1.00  0.00    -0.354 N 
ATOM     55  N   UNL     1       8.892  -0.398  10.139  1.00  0.00    -0.248 NA
ATOM     56  C   UNL     1       9.597   0.936   8.356  1.00  0.00     0.031 C 
ATOM     57  C   UNL     1      11.838  -4.172   9.030  1.00  0.00     0.029 A 
ATOM     58  C   UNL     1      11.384  -2.855   9.044  1.00  0.00     0.049 A 
ATOM     59  H   UNL     1      11.652  -1.392   7.582  1.00  0.00     0.167 HD
ATOM     60  C   UNL     1      10.138  -0.829   9.736  1.00  0.00     0.074 A 
ATOM     61  C   UNL     1      10.602   0.165   8.781  1.00  0.00     0.031 C 
ATOM     62  C   UNL     1      10.510  -2.124   9.933  1.00  0.00     0.034 A 
BRANCH  49  63
ATOM     63  C   UNL     1      13.010  -1.859   5.063  1.00  0.00     0.023 A 
ATOM     64  C   UNL     1      14.241  -1.643   5.733  1.00  0.00     0.012 A 
ATOM     65  C   UNL     1      12.596  -0.846   4.172  1.00  0.00     0.148 A 
ATOM     66  C   UNL     1      14.976  -0.461   5.580  1.00  0.00     0.002 A 
ATOM     67  C   UNL     1      13.361   0.302   3.973  1.00  0.00     0.091 A 
ATOM     68  F   UNL     1      11.396  -0.914   3.594  1.00  0.00    -0.205 F 
ATOM     69  C   UNL     1      14.536   0.515   4.698  1.00  0.00     0.022 A 
BRANCH  67  70
ATOM     70  S   UNL     1      12.856   1.589   2.822  1.00  0.00     0.127 S 
ATOM     71  O   UNL     1      12.508   2.674   3.734  1.00  0.00    -0.237 OA
ATOM     72  O   UNL     1      14.082   1.792   2.050  1.00  0.00    -0.237 OA
ATOM     73  O   UNL     1      11.755   1.018   2.056  1.00  0.00    -0.744 OA
ENDBRANCH  67  70
ENDBRANCH  49  63
BRANCH  50  74
ATOM     74  C   UNL     1       6.415   1.859   8.984  1.00  0.00     0.023 A 
ATOM     75  C   UNL     1       7.059   2.818   9.805  1.00  0.00     0.012 A 
ATOM     76  C   UNL     1       5.357   2.327   8.174  1.00  0.00     0.148 A 
ATOM     77  C   UNL     1       6.770   4.186   9.719  1.00  0.00     0.002 A 
ATOM     78  C   UNL     1       5.105   3.699   8.053  1.00  0.00     0.091 A 
ATOM     79  F   UNL     1       4.657   1.445   7.449  1.00  0.00    -0.205 F 
ATOM     80  C   UNL     1       5.821   4.631   8.811  1.00  0.00     0.022 A 
BRANCH  78  81
ATOM     81  S   UNL     1       3.964   4.363   6.826  1.00  0.00     0.127 S 
ATOM     82  O   UNL     1       3.314   5.451   7.558  1.00  0.00    -0.237 OA
ATOM     83  O   UNL     1       4.883   4.796   5.780  1.00  0.00    -0.237 OA
ATOM     84  O   UNL     1       3.080   3.254   6.490  1.00  0.00    -0.744 OA
ENDBRANCH  78  81
ENDBRANCH  50  74
BRANCH  62  85
ATOM     85  C   UNL     1       9.850  -2.868  11.054  1.00  0.00     0.023 A 
ATOM     86  C   UNL     1       8.473  -3.160  11.099  1.00  0.00     0.012 A 
ATOM     87  C   UNL     1      10.683  -3.337  12.081  1.00  0.00     0.148 A 
ATOM     88  C   UNL     1       7.937  -3.884  12.168  1.00  0.00     0.002 A 
ATOM     89  C   UNL     1      10.157  -4.098  13.112  1.00  0.00     0.091 A 
ATOM     90  F   UNL     1      11.988  -3.028  12.031  1.00  0.00    -0.205 F 
ATOM     91  C   UNL     1       8.781  -4.365  13.168  1.00  0.00     0.022 A 
BRANCH  89  92
ATOM     92  S   UNL     1      11.228  -4.824  14.351  1.00  0.00     0.127 S 
ATOM     93  O   UNL     1      11.061  -3.905  15.475  1.00  0.00    -0.237 OA
ATOM     94  O   UNL     1      10.634  -6.147  14.546  1.00  0.00    -0.237 OA
ATOM     95  O   UNL     1      12.557  -4.856  13.753  1.00  0.00    -0.744 OA
ENDBRANCH  89  92
ENDBRANCH  62  85
ENDBRANCH  36  37
ENDBRANCH  28  31
ENDBRANCH  26  27
ENDBRANCH   1  26
TORSDOF 17
