REMARK SMILES Cc1c(Cl)ccc2c1C=C(C(=O)NCCCCNC(=O)c1ccc(-c3c4nc(c(-c5cccc(S(=O)(=O)[O-])c5F)c5ccc([nH]5)c(-c5cccc(S(=O)(=O)[O-])c5F)c5nc(c(-c6cccc(S(=O)(=O)[O-])c6F)c6ccc3[nH]6)C=C5)C=C4)cc1)[C@@H](C(F)(F)F)O2
REMARK SMILES IDX 16 1 15 2 14 3 13 4 11 5 12 6 10 8 1 9 2 10 3 11 8 12 4 13
REMARK SMILES IDX 5 14 7 15 9 16 6 17 89 18 84 19 85 20 86 21 87 22 88 23
REMARK SMILES IDX 17 24 18 25 19 26 20 28 21 29 22 30 83 31 23 32 82 33 24 34
REMARK SMILES IDX 25 35 26 36 76 37 27 38 81 39 75 40 77 41 28 42 80 43 74 44
REMARK SMILES IDX 73 45 29 47 61 48 41 49 60 50 42 51 45 52 59 53 78 54 43 55
REMARK SMILES IDX 44 56 58 58 79 59 46 60 30 61 31 62 39 63 32 64 34 65 40 66
REMARK SMILES IDX 33 67 35 68 36 69 37 70 38 71 62 72 63 73 71 74 64 75 66 76
REMARK SMILES IDX 72 77 65 78 67 79 68 80 69 81 70 82 47 83 48 84 56 85 49 86
REMARK SMILES IDX 51 87 57 88 50 89 52 90 53 91 54 92 55 93
REMARK H PARENT 13 7 18 27 77 46 45 57
REMARK Flexibility Score: inf
ROOT
ATOM      1  C   UNL     1       0.459   7.954   4.579  1.00  0.00     0.023 C 
ENDROOT
BRANCH   1   2
ATOM      2  C   UNL     1       0.194   6.461   4.792  1.00  0.00     0.023 C 
BRANCH   2   3
ATOM      3  C   UNL     1      -0.875   5.882   3.870  1.00  0.00     0.116 C 
BRANCH   3   4
ATOM      4  N   UNL     1      -0.333   5.527   2.571  1.00  0.00    -0.352 N 
ATOM      5  C   UNL     1      -0.009   4.394   1.909  1.00  0.00     0.251 C 
ATOM      6  O   UNL     1       0.451   4.559   0.775  1.00  0.00    -0.270 OA
ATOM      7  H   UNL     1      -0.152   6.327   2.026  1.00  0.00     0.163 HD
BRANCH   5   8
ATOM      8  C   UNL     1      -0.174   3.005   2.434  1.00  0.00     0.067 C 
ATOM      9  C   UNL     1       0.984  -0.204  -0.223  1.00  0.00     0.047 C 
ATOM     10  C   UNL     1       0.510  -0.451   1.188  1.00  0.00    -0.021 A 
ATOM     11  C   UNL     1       0.419  -1.763   1.699  1.00  0.00     0.044 A 
ATOM     12  C   UNL     1       0.197   0.627   2.051  1.00  0.00     0.022 A 
ATOM     13  Cl  UNL     1       0.853  -3.153   0.762  1.00  0.00    -0.084 Cl
ATOM     14  C   UNL     1      -0.011  -2.001   3.007  1.00  0.00     0.024 A 
ATOM     15  C   UNL     1      -0.249   0.365   3.354  1.00  0.00     0.128 A 
ATOM     16  C   UNL     1       0.357   2.033   1.668  1.00  0.00     0.026 C 
ATOM     17  C   UNL     1      -0.349  -0.937   3.834  1.00  0.00     0.048 A 
ATOM     18  O   UNL     1      -0.565   1.349   4.247  1.00  0.00    -0.475 OA
ATOM     19  C   UNL     1      -0.908   2.648   3.691  1.00  0.00     0.314 C 
BRANCH  19  20
ATOM     20  C   UNL     1      -2.437   2.751   3.543  1.00  0.00     0.429 C 
ATOM     21  F   UNL     1      -3.034   2.702   4.762  1.00  0.00    -0.167 F 
ATOM     22  F   UNL     1      -2.829   3.911   2.971  1.00  0.00    -0.167 F 
ATOM     23  F   UNL     1      -2.956   1.746   2.801  1.00  0.00    -0.167 F 
ENDBRANCH  19  20
ENDBRANCH   5   8
ENDBRANCH   3   4
ENDBRANCH   2   3
ENDBRANCH   1   2
BRANCH   1  24
ATOM     24  C   UNL     1      -0.767   8.859   4.700  1.00  0.00     0.116 C 
BRANCH  24  25
ATOM     25  N   UNL     1      -1.517   8.650   5.932  1.00  0.00    -0.352 N 
ATOM     26  C   UNL     1      -2.142   9.595   6.708  1.00  0.00     0.251 C 
ATOM     27  H   UNL     1      -1.584   7.719   6.246  1.00  0.00     0.163 HD
ATOM     28  O   UNL     1      -2.670   9.291   7.772  1.00  0.00    -0.269 OA
BRANCH  26  29
ATOM     29  C   UNL     1      -2.134  10.992   6.243  1.00  0.00     0.039 A 
ATOM     30  C   UNL     1      -1.502  11.960   7.025  1.00  0.00     0.014 A 
ATOM     31  C   UNL     1      -2.675  11.309   4.994  1.00  0.00     0.014 A 
ATOM     32  C   UNL     1      -1.360  13.253   6.524  1.00  0.00     0.010 A 
ATOM     33  C   UNL     1      -2.497  12.588   4.481  1.00  0.00     0.010 A 
ATOM     34  C   UNL     1      -1.835  13.566   5.240  1.00  0.00    -0.014 A 
BRANCH  34  35
ATOM     35  C   UNL     1      -1.660  14.920   4.670  1.00  0.00     0.031 A 
ATOM     36  C   UNL     1      -2.854  15.811   4.503  1.00  0.00     0.074 A 
ATOM     37  C   UNL     1      -0.447  15.310   4.236  1.00  0.00     0.049 A 
ATOM     38  N   UNL     1      -2.922  17.000   3.966  1.00  0.00    -0.248 NA
ATOM     39  C   UNL     1      -4.145  15.292   4.987  1.00  0.00     0.031 C 
ATOM     40  C   UNL     1       0.775  14.504   4.297  1.00  0.00     0.029 A 
ATOM     41  N   UNL     1      -0.047  16.477   3.636  1.00  0.00    -0.354 N 
ATOM     42  C   UNL     1      -4.261  17.359   4.020  1.00  0.00     0.074 A 
ATOM     43  C   UNL     1      -4.977  16.257   4.623  1.00  0.00     0.031 C 
ATOM     44  C   UNL     1       1.788  15.202   3.757  1.00  0.00     0.029 A 
ATOM     45  C   UNL     1       1.286  16.494   3.298  1.00  0.00     0.049 A 
ATOM     46  H   UNL     1      -0.656  17.230   3.463  1.00  0.00     0.167 HD
ATOM     47  C   UNL     1      -4.838  18.519   3.632  1.00  0.00     0.034 A 
ATOM     48  C   UNL     1       2.018  17.447   2.688  1.00  0.00     0.034 A 
ATOM     49  C   UNL     1      -4.118  19.634   3.087  1.00  0.00     0.049 A 
ATOM     50  C   UNL     1       1.357  18.738   2.292  1.00  0.00     0.074 A 
ATOM     51  C   UNL     1      -4.603  20.882   2.740  1.00  0.00     0.029 A 
ATOM     52  N   UNL     1      -2.760  19.637   2.814  1.00  0.00    -0.354 N 
ATOM     53  N   UNL     1       0.112  19.111   2.467  1.00  0.00    -0.248 NA
ATOM     54  C   UNL     1       2.201  19.748   1.637  1.00  0.00     0.031 C 
ATOM     55  C   UNL     1      -3.533  21.644   2.260  1.00  0.00     0.029 A 
ATOM     56  C   UNL     1      -2.386  20.866   2.303  1.00  0.00     0.049 A 
ATOM     57  H   UNL     1      -2.151  18.878   2.962  1.00  0.00     0.167 HD
ATOM     58  C   UNL     1       0.027  20.403   1.962  1.00  0.00     0.074 A 
ATOM     59  C   UNL     1       1.350  20.756   1.489  1.00  0.00     0.031 C 
ATOM     60  C   UNL     1      -1.054  21.216   1.884  1.00  0.00     0.034 A 
BRANCH  47  61
ATOM     61  C   UNL     1      -6.314  18.669   3.861  1.00  0.00     0.023 A 
ATOM     62  C   UNL     1      -6.771  18.995   5.153  1.00  0.00     0.012 A 
ATOM     63  C   UNL     1      -7.235  18.543   2.805  1.00  0.00     0.148 A 
ATOM     64  C   UNL     1      -8.129  19.180   5.397  1.00  0.00     0.002 A 
ATOM     65  C   UNL     1      -8.587  18.753   3.051  1.00  0.00     0.091 A 
ATOM     66  F   UNL     1      -6.774  18.211   1.591  1.00  0.00    -0.205 F 
ATOM     67  C   UNL     1      -9.035  19.067   4.346  1.00  0.00     0.022 A 
BRANCH  65  68
ATOM     68  S   UNL     1      -9.835  18.670   1.763  1.00  0.00     0.127 S 
ATOM     69  O   UNL     1     -10.608  17.499   2.177  1.00  0.00    -0.237 OA
ATOM     70  O   UNL     1     -10.529  19.948   1.926  1.00  0.00    -0.237 OA
ATOM     71  O   UNL     1      -9.112  18.523   0.508  1.00  0.00    -0.744 OA
ENDBRANCH  65  68
ENDBRANCH  47  61
BRANCH  48  72
ATOM     72  C   UNL     1       3.478  17.241   2.496  1.00  0.00     0.023 A 
ATOM     73  C   UNL     1       4.377  17.903   3.353  1.00  0.00     0.012 A 
ATOM     74  C   UNL     1       3.977  16.359   1.518  1.00  0.00     0.148 A 
ATOM     75  C   UNL     1       5.751  17.701   3.234  1.00  0.00     0.002 A 
ATOM     76  C   UNL     1       5.346  16.136   1.427  1.00  0.00     0.091 A 
ATOM     77  F   UNL     1       3.100  15.744   0.713  1.00  0.00    -0.205 F 
ATOM     78  C   UNL     1       6.236  16.812   2.278  1.00  0.00     0.022 A 
BRANCH  76  79
ATOM     79  S   UNL     1       6.064  14.940   0.294  1.00  0.00     0.127 S 
ATOM     80  O   UNL     1       6.843  15.799  -0.594  1.00  0.00    -0.237 OA
ATOM     81  O   UNL     1       6.857  14.109   1.201  1.00  0.00    -0.237 OA
ATOM     82  O   UNL     1       4.937  14.255  -0.324  1.00  0.00    -0.744 OA
ENDBRANCH  76  79
ENDBRANCH  48  72
BRANCH  60  83
ATOM     83  C   UNL     1      -0.873  22.572   1.264  1.00  0.00     0.023 A 
ATOM     84  C   UNL     1      -0.878  22.688  -0.139  1.00  0.00     0.012 A 
ATOM     85  C   UNL     1      -0.836  23.732   2.061  1.00  0.00     0.148 A 
ATOM     86  C   UNL     1      -0.847  23.943  -0.742  1.00  0.00     0.002 A 
ATOM     87  C   UNL     1      -0.836  24.981   1.452  1.00  0.00     0.091 A 
ATOM     88  F   UNL     1      -0.819  23.591   3.395  1.00  0.00    -0.205 F 
ATOM     89  C   UNL     1      -0.839  25.088   0.051  1.00  0.00     0.022 A 
BRANCH  87  90
ATOM     90  S   UNL     1      -0.905  26.512   2.389  1.00  0.00     0.127 S 
ATOM     91  O   UNL     1       0.436  27.054   2.174  1.00  0.00    -0.237 OA
ATOM     92  O   UNL     1      -1.976  27.244   1.711  1.00  0.00    -0.237 OA
ATOM     93  O   UNL     1      -1.209  26.131   3.762  1.00  0.00    -0.744 OA
ENDBRANCH  87  90
ENDBRANCH  60  83
ENDBRANCH  34  35
ENDBRANCH  26  29
ENDBRANCH  24  25
ENDBRANCH   1  24
TORSDOF 15
