REMARK SMILES NC(=O)C[C@@H](NC(=O)c1ccc(CO)cc1)C(=O)NCCCCNC(=O)c1ccc(-c2c3nc(c(-c4cccc(S(=O)(=O)[O-])c4F)c4ccc([nH]4)c(-c4cccc(S(=O)(=O)[O-])c4F)c4nc(c(-c5cccc(S(=O)(=O)[O-])c5F)c5ccc2[nH]5)C=C4)C=C3)cc1
REMARK SMILES IDX 21 1 20 2 19 3 17 4 18 5 5 7 4 8 2 9 1 10 3 13 6 14 7 15
REMARK SMILES IDX 8 17 9 18 10 19 16 20 11 21 15 22 12 23 13 24 14 25 22 27
REMARK SMILES IDX 23 28 24 29 25 30 26 32 27 33 28 34 89 35 29 36 88 37 30 38
REMARK SMILES IDX 31 39 32 40 82 41 33 42 87 43 81 44 83 45 34 46 86 47 80 48
REMARK SMILES IDX 79 49 35 51 67 52 47 53 66 54 48 55 51 56 65 57 84 58 49 59
REMARK SMILES IDX 50 60 64 62 85 63 52 64 36 65 37 66 45 67 38 68 40 69 46 70
REMARK SMILES IDX 39 71 41 72 42 73 43 74 44 75 68 76 69 77 77 78 70 79 72 80
REMARK SMILES IDX 78 81 71 82 73 83 74 84 75 85 76 86 53 87 54 88 62 89 55 90
REMARK SMILES IDX 57 91 63 92 56 93 58 94 59 95 60 96 61 97
REMARK H PARENT 19 6 1 11 1 12 6 16 14 26 24 31 83 50 51 61
REMARK Flexibility Score: inf
ROOT
ATOM      1  C   UNL     1       3.027  -3.790  -3.066  1.00  0.00     0.023 C 
ENDROOT
BRANCH   1   2
ATOM      2  C   UNL     1       3.280  -2.292  -2.930  1.00  0.00     0.116 C 
BRANCH   2   3
ATOM      3  N   UNL     1       2.743  -1.569  -4.066  1.00  0.00    -0.354 N 
ATOM      4  C   UNL     1       2.088  -0.378  -4.117  1.00  0.00     0.243 C 
ATOM      5  O   UNL     1       1.603  -0.030  -5.197  1.00  0.00    -0.273 OA
ATOM      6  H   UNL     1       2.874  -2.009  -4.937  1.00  0.00     0.163 HD
BRANCH   4   7
ATOM      7  C   UNL     1       1.805   0.444  -2.846  1.00  0.00     0.180 C 
BRANCH   7   8
ATOM      8  C   UNL     1       0.595  -0.250  -2.193  1.00  0.00     0.134 C 
BRANCH   8   9
ATOM      9  C   UNL     1       0.108   0.442  -0.952  1.00  0.00     0.220 C 
ATOM     10  N   UNL     1       0.776   0.111   0.192  1.00  0.00    -0.370 N 
ATOM     11  H   UNL     1       0.518   0.521   1.049  1.00  0.00     0.159 HD
ATOM     12  H   UNL     1       1.516  -0.537   0.160  1.00  0.00     0.159 HD
ATOM     13  O   UNL     1      -0.812   1.249  -0.940  1.00  0.00    -0.275 OA
ENDBRANCH   8   9
ENDBRANCH   7   8
BRANCH   7  14
ATOM     14  N   UNL     1       2.930   0.636  -1.908  1.00  0.00    -0.340 N 
ATOM     15  C   UNL     1       4.205   1.111  -2.126  1.00  0.00     0.251 C 
ATOM     16  H   UNL     1       2.737   0.384  -0.976  1.00  0.00     0.164 HD
ATOM     17  O   UNL     1       4.849   1.544  -1.174  1.00  0.00    -0.269 OA
BRANCH  15  18
ATOM     18  C   UNL     1       4.867   0.927  -3.433  1.00  0.00     0.039 A 
ATOM     19  C   UNL     1       5.968   0.063  -3.469  1.00  0.00     0.014 A 
ATOM     20  C   UNL     1       4.381   1.494  -4.610  1.00  0.00     0.014 A 
ATOM     21  C   UNL     1       6.486  -0.348  -4.695  1.00  0.00     0.007 A 
ATOM     22  C   UNL     1       4.899   1.071  -5.839  1.00  0.00     0.007 A 
ATOM     23  C   UNL     1       5.925   0.115  -5.893  1.00  0.00    -0.023 A 
BRANCH  23  24
ATOM     24  C   UNL     1       6.372  -0.471  -7.207  1.00  0.00     0.191 C 
BRANCH  24  25
ATOM     25  O   UNL     1       7.781  -0.377  -7.325  1.00  0.00    -0.392 OA
ATOM     26  H   UNL     1       8.047   0.555  -7.288  1.00  0.00     0.211 HD
ENDBRANCH  24  25
ENDBRANCH  23  24
ENDBRANCH  15  18
ENDBRANCH   7  14
ENDBRANCH   4   7
ENDBRANCH   2   3
ENDBRANCH   1   2
BRANCH   1  27
ATOM     27  C   UNL     1       3.834  -4.465  -4.179  1.00  0.00     0.023 C 
BRANCH  27  28
ATOM     28  C   UNL     1       5.349  -4.325  -4.056  1.00  0.00     0.116 C 
BRANCH  28  29
ATOM     29  N   UNL     1       5.863  -4.870  -2.808  1.00  0.00    -0.352 N 
ATOM     30  C   UNL     1       6.898  -5.754  -2.621  1.00  0.00     0.251 C 
ATOM     31  H   UNL     1       5.409  -4.565  -1.989  1.00  0.00     0.163 HD
ATOM     32  O   UNL     1       7.108  -6.238  -1.512  1.00  0.00    -0.269 OA
BRANCH  30  33
ATOM     33  C   UNL     1       7.734  -6.136  -3.776  1.00  0.00     0.039 A 
ATOM     34  C   UNL     1       7.919  -7.491  -4.061  1.00  0.00     0.014 A 
ATOM     35  C   UNL     1       8.287  -5.152  -4.600  1.00  0.00     0.014 A 
ATOM     36  C   UNL     1       8.603  -7.861  -5.221  1.00  0.00     0.010 A 
ATOM     37  C   UNL     1       8.914  -5.523  -5.785  1.00  0.00     0.010 A 
ATOM     38  C   UNL     1       9.073  -6.880  -6.109  1.00  0.00    -0.014 A 
BRANCH  38  39
ATOM     39  C   UNL     1       9.704  -7.249  -7.402  1.00  0.00     0.031 A 
ATOM     40  C   UNL     1      11.143  -6.906  -7.667  1.00  0.00     0.074 A 
ATOM     41  C   UNL     1       8.949  -7.798  -8.374  1.00  0.00     0.049 A 
ATOM     42  N   UNL     1      11.844  -7.087  -8.756  1.00  0.00    -0.248 NA
ATOM     43  C   UNL     1      11.884  -6.252  -6.577  1.00  0.00     0.031 C 
ATOM     44  C   UNL     1       7.519  -8.098  -8.266  1.00  0.00     0.029 A 
ATOM     45  N   UNL     1       9.270  -8.169  -9.656  1.00  0.00    -0.354 N 
ATOM     46  C   UNL     1      13.093  -6.537  -8.498  1.00  0.00     0.074 A 
ATOM     47  C   UNL     1      13.047  -5.993  -7.158  1.00  0.00     0.031 C 
ATOM     48  C   UNL     1       7.087  -8.601  -9.434  1.00  0.00     0.029 A 
ATOM     49  C   UNL     1       8.198  -8.637 -10.380  1.00  0.00     0.049 A 
ATOM     50  H   UNL     1      10.181  -8.105 -10.023  1.00  0.00     0.167 HD
ATOM     51  C   UNL     1      14.190  -6.515  -9.292  1.00  0.00     0.034 A 
ATOM     52  C   UNL     1       8.117  -9.041 -11.662  1.00  0.00     0.034 A 
ATOM     53  C   UNL     1      14.247  -7.101 -10.603  1.00  0.00     0.049 A 
ATOM     54  C   UNL     1       9.361  -9.050 -12.508  1.00  0.00     0.074 A 
ATOM     55  C   UNL     1      15.340  -7.224 -11.443  1.00  0.00     0.029 A 
ATOM     56  N   UNL     1      13.166  -7.655 -11.269  1.00  0.00    -0.354 N 
ATOM     57  N   UNL     1      10.580  -8.692 -12.182  1.00  0.00    -0.248 NA
ATOM     58  C   UNL     1       9.229  -9.550 -13.884  1.00  0.00     0.031 C 
ATOM     59  C   UNL     1      14.915  -7.840 -12.625  1.00  0.00     0.029 A 
ATOM     60  C   UNL     1      13.561  -8.113 -12.515  1.00  0.00     0.049 A 
ATOM     61  H   UNL     1      12.251  -7.715 -10.910  1.00  0.00     0.167 HD
ATOM     62  C   UNL     1      11.365  -8.952 -13.300  1.00  0.00     0.074 A 
ATOM     63  C   UNL     1      10.488  -9.518 -14.304  1.00  0.00     0.031 C 
ATOM     64  C   UNL     1      12.689  -8.726 -13.484  1.00  0.00     0.034 A 
BRANCH  51  65
ATOM     65  C   UNL     1      15.441  -5.888  -8.736  1.00  0.00     0.023 A 
ATOM     66  C   UNL     1      16.167  -6.567  -7.736  1.00  0.00     0.012 A 
ATOM     67  C   UNL     1      15.931  -4.667  -9.238  1.00  0.00     0.148 A 
ATOM     68  C   UNL     1      17.343  -6.025  -7.220  1.00  0.00     0.002 A 
ATOM     69  C   UNL     1      17.126  -4.153  -8.748  1.00  0.00     0.091 A 
ATOM     70  F   UNL     1      15.215  -4.025 -10.173  1.00  0.00    -0.205 F 
ATOM     71  C   UNL     1      17.827  -4.825  -7.733  1.00  0.00     0.022 A 
BRANCH  69  72
ATOM     72  S   UNL     1      17.870  -2.652  -9.397  1.00  0.00     0.127 S 
ATOM     73  O   UNL     1      17.602  -1.700  -8.321  1.00  0.00    -0.237 OA
ATOM     74  O   UNL     1      19.276  -3.037  -9.534  1.00  0.00    -0.237 OA
ATOM     75  O   UNL     1      17.192  -2.384 -10.658  1.00  0.00    -0.744 OA
ENDBRANCH  69  72
ENDBRANCH  51  65
BRANCH  52  76
ATOM     76  C   UNL     1       6.820  -9.541 -12.200  1.00  0.00     0.023 A 
ATOM     77  C   UNL     1       6.667 -10.916 -12.460  1.00  0.00     0.012 A 
ATOM     78  C   UNL     1       5.730  -8.676 -12.415  1.00  0.00     0.148 A 
ATOM     79  C   UNL     1       5.460 -11.418 -12.950  1.00  0.00     0.002 A 
ATOM     80  C   UNL     1       4.514  -9.190 -12.852  1.00  0.00     0.091 A 
ATOM     81  F   UNL     1       5.899  -7.367 -12.176  1.00  0.00    -0.205 F 
ATOM     82  C   UNL     1       4.381 -10.558 -13.135  1.00  0.00     0.022 A 
BRANCH  80  83
ATOM     83  S   UNL     1       3.036  -8.176 -12.985  1.00  0.00     0.127 S 
ATOM     84  O   UNL     1       2.901  -8.033 -14.432  1.00  0.00    -0.237 OA
ATOM     85  O   UNL     1       2.026  -9.025 -12.352  1.00  0.00    -0.237 OA
ATOM     86  O   UNL     1       3.334  -6.955 -12.249  1.00  0.00    -0.744 OA
ENDBRANCH  80  83
ENDBRANCH  52  76
BRANCH  64  87
ATOM     87  C   UNL     1      13.287  -9.108 -14.812  1.00  0.00     0.023 A 
ATOM     88  C   UNL     1      13.026  -8.313 -15.946  1.00  0.00     0.012 A 
ATOM     89  C   UNL     1      14.174 -10.197 -14.918  1.00  0.00     0.148 A 
ATOM     90  C   UNL     1      13.620  -8.612 -17.171  1.00  0.00     0.002 A 
ATOM     91  C   UNL     1      14.797 -10.461 -16.132  1.00  0.00     0.091 A 
ATOM     92  F   UNL     1      14.393 -10.952 -13.832  1.00  0.00    -0.205 F 
ATOM     93  C   UNL     1      14.514  -9.676 -17.261  1.00  0.00     0.022 A 
BRANCH  91  94
ATOM     94  S   UNL     1      16.032 -11.753 -16.318  1.00  0.00     0.127 S 
ATOM     95  O   UNL     1      15.290 -12.769 -17.063  1.00  0.00    -0.237 OA
ATOM     96  O   UNL     1      17.078 -11.077 -17.085  1.00  0.00    -0.237 OA
ATOM     97  O   UNL     1      16.423 -12.129 -14.966  1.00  0.00    -0.744 OA
ENDBRANCH  91  94
ENDBRANCH  64  87
ENDBRANCH  38  39
ENDBRANCH  30  33
ENDBRANCH  28  29
ENDBRANCH  27  28
ENDBRANCH   1  27
TORSDOF 20
