REMARK SMILES C[C@H]([NH2+][C@@H](C)[C@@H](C)C(=O)NCCCCNC(=O)c1ccc(-c2c3nc(c(-c4cccc(S(=O)(=O)[O-])c4F)c4ccc([nH]4)c(-c4cccc(S(=O)(=O)[O-])c4F)c4nc(c(-c5cccc(S(=O)(=O)[O-])c5F)c5ccc2[nH]5)C=C4)C=C3)cc1)c1cccc(Br)c1
REMARK SMILES IDX 12 1 11 2 10 3 8 4 9 5 6 7 7 8 4 9 5 10 3 11 2 14 1 15 81 16
REMARK SMILES IDX 82 17 87 18 83 19 85 20 84 21 86 22 13 23 14 24 15 25 16 26
REMARK SMILES IDX 17 28 18 29 19 30 80 31 20 32 79 33 21 34 22 35 23 36 73 37
REMARK SMILES IDX 24 38 78 39 72 40 74 41 25 42 77 43 71 44 70 45 26 47 58 48
REMARK SMILES IDX 38 49 57 50 39 51 42 52 56 53 75 54 40 55 41 56 55 58 76 59
REMARK SMILES IDX 43 60 27 61 28 62 36 63 29 64 31 65 37 66 30 67 32 68 33 69
REMARK SMILES IDX 34 70 35 71 59 72 60 73 68 74 61 75 63 76 69 77 62 78 64 79
REMARK SMILES IDX 65 80 66 81 67 82 44 83 45 84 53 85 46 86 48 87 54 88 47 89
REMARK SMILES IDX 49 90 50 91 51 92 52 93
REMARK H PARENT 10 6 3 12 3 13 15 27 74 46 42 57
REMARK Flexibility Score: inf
ROOT
ATOM      1  C   UNL     1       0.544  -1.353   4.568  1.00  0.00     0.023 C 
ENDROOT
BRANCH   1   2
ATOM      2  C   UNL     1      -0.719  -0.834   3.891  1.00  0.00     0.116 C 
BRANCH   2   3
ATOM      3  N   UNL     1      -0.787   0.613   3.956  1.00  0.00    -0.356 N 
ATOM      4  C   UNL     1      -0.830   1.534   2.955  1.00  0.00     0.228 C 
ATOM      5  O   UNL     1      -0.863   2.729   3.255  1.00  0.00    -0.275 OA
ATOM      6  H   UNL     1      -0.807   0.987   4.866  1.00  0.00     0.163 HD
BRANCH   4   7
ATOM      7  C   UNL     1      -0.866   1.104   1.492  1.00  0.00     0.133 C 
ATOM      8  C   UNL     1      -2.156   0.313   1.281  1.00  0.00     0.024 C 
BRANCH   7   9
ATOM      9  C   UNL     1       0.476   0.457   1.037  1.00  0.00     0.192 C 
ATOM     10  C   UNL     1       1.635   1.438   1.317  1.00  0.00     0.076 C 
BRANCH   9  11
ATOM     11  N   UNL     1       0.597   0.158  -0.395  1.00  0.00    -0.337 N 
ATOM     12  H   UNL     1      -0.046   0.787  -0.875  1.00  0.00     0.347 HD
ATOM     13  H   UNL     1       1.598   0.266  -0.558  1.00  0.00     0.347 HD
BRANCH  11  14
ATOM     14  C   UNL     1       0.332  -1.188  -0.922  1.00  0.00     0.210 C 
ATOM     15  C   UNL     1       1.040  -2.282  -0.104  1.00  0.00     0.081 C 
BRANCH  14  16
ATOM     16  C   UNL     1      -1.140  -1.446  -1.234  1.00  0.00     0.010 A 
ATOM     17  C   UNL     1      -1.886  -0.480  -1.939  1.00  0.00     0.010 A 
ATOM     18  C   UNL     1      -1.806  -2.622  -0.843  1.00  0.00     0.025 A 
ATOM     19  C   UNL     1      -3.262  -0.624  -2.136  1.00  0.00     0.002 A 
ATOM     20  C   UNL     1      -3.178  -2.771  -1.062  1.00  0.00     0.018 A 
ATOM     21  C   UNL     1      -3.914  -1.766  -1.681  1.00  0.00     0.016 A 
ATOM     22  Br  UNL     1      -4.052  -4.345  -0.482  1.00  0.00    -0.051 Br
ENDBRANCH  14  16
ENDBRANCH  11  14
ENDBRANCH   9  11
ENDBRANCH   7   9
ENDBRANCH   4   7
ENDBRANCH   2   3
ENDBRANCH   1   2
BRANCH   1  23
ATOM     23  C   UNL     1       0.499  -1.269   6.093  1.00  0.00     0.023 C 
BRANCH  23  24
ATOM     24  C   UNL     1      -0.664  -2.019   6.730  1.00  0.00     0.116 C 
BRANCH  24  25
ATOM     25  N   UNL     1      -0.669  -3.441   6.409  1.00  0.00    -0.352 N 
ATOM     26  C   UNL     1      -1.035  -4.476   7.236  1.00  0.00     0.251 C 
ATOM     27  H   UNL     1      -0.378  -3.687   5.501  1.00  0.00     0.163 HD
ATOM     28  O   UNL     1      -0.888  -5.646   6.899  1.00  0.00    -0.269 OA
BRANCH  26  29
ATOM     29  C   UNL     1      -1.584  -4.129   8.558  1.00  0.00     0.039 A 
ATOM     30  C   UNL     1      -0.915  -4.551   9.708  1.00  0.00     0.014 A 
ATOM     31  C   UNL     1      -2.686  -3.274   8.634  1.00  0.00     0.014 A 
ATOM     32  C   UNL     1      -1.322  -4.061  10.950  1.00  0.00     0.010 A 
ATOM     33  C   UNL     1      -3.041  -2.735   9.862  1.00  0.00     0.010 A 
ATOM     34  C   UNL     1      -2.366  -3.125  11.031  1.00  0.00    -0.014 A 
BRANCH  34  35
ATOM     35  C   UNL     1      -2.797  -2.539  12.322  1.00  0.00     0.031 A 
ATOM     36  C   UNL     1      -4.198  -2.787  12.807  1.00  0.00     0.074 A 
ATOM     37  C   UNL     1      -1.989  -1.685  12.979  1.00  0.00     0.049 A 
ATOM     38  N   UNL     1      -4.832  -2.246  13.812  1.00  0.00    -0.248 NA
ATOM     39  C   UNL     1      -5.006  -3.742  12.028  1.00  0.00     0.031 C 
ATOM     40  C   UNL     1      -0.638  -1.305  12.563  1.00  0.00     0.029 A 
ATOM     41  N   UNL     1      -2.206  -0.947  14.116  1.00  0.00    -0.354 N 
ATOM     42  C   UNL     1      -6.127  -2.746  13.752  1.00  0.00     0.074 A 
ATOM     43  C   UNL     1      -6.195  -3.612  12.596  1.00  0.00     0.031 C 
ATOM     44  C   UNL     1      -0.151  -0.399  13.426  1.00  0.00     0.029 A 
ATOM     45  C   UNL     1      -1.164  -0.109  14.437  1.00  0.00     0.049 A 
ATOM     46  H   UNL     1      -3.030  -1.011  14.651  1.00  0.00     0.167 HD
ATOM     47  C   UNL     1      -7.159  -2.527  14.599  1.00  0.00     0.034 A 
ATOM     48  C   UNL     1      -1.044   0.797  15.427  1.00  0.00     0.034 A 
ATOM     49  C   UNL     1      -7.062  -1.720  15.783  1.00  0.00     0.049 A 
ATOM     50  C   UNL     1      -2.179   0.966  16.402  1.00  0.00     0.074 A 
ATOM     51  C   UNL     1      -8.015  -1.513  16.764  1.00  0.00     0.029 A 
ATOM     52  N   UNL     1      -5.943  -0.988  16.149  1.00  0.00    -0.354 N 
ATOM     53  N   UNL     1      -3.346   0.369  16.419  1.00  0.00    -0.248 NA
ATOM     54  C   UNL     1      -1.968   1.902  17.516  1.00  0.00     0.031 C 
ATOM     55  C   UNL     1      -7.473  -0.649  17.721  1.00  0.00     0.029 A 
ATOM     56  C   UNL     1      -6.178  -0.331  17.343  1.00  0.00     0.049 A 
ATOM     57  H   UNL     1      -5.105  -0.943  15.635  1.00  0.00     0.167 HD
ATOM     58  C   UNL     1      -3.993   0.824  17.562  1.00  0.00     0.074 A 
ATOM     59  C   UNL     1      -3.082   1.740  18.219  1.00  0.00     0.031 C 
ATOM     60  C   UNL     1      -5.232   0.521  18.019  1.00  0.00     0.034 A 
BRANCH  47  61
ATOM     61  C   UNL     1      -8.460  -3.221  14.301  1.00  0.00     0.023 A 
ATOM     62  C   UNL     1      -8.558  -4.618  14.474  1.00  0.00     0.012 A 
ATOM     63  C   UNL     1      -9.591  -2.498  13.877  1.00  0.00     0.148 A 
ATOM     64  C   UNL     1      -9.746  -5.288  14.187  1.00  0.00     0.002 A 
ATOM     65  C   UNL     1     -10.786  -3.167  13.638  1.00  0.00     0.091 A 
ATOM     66  F   UNL     1      -9.474  -1.175  13.691  1.00  0.00    -0.205 F 
ATOM     67  C   UNL     1     -10.861  -4.563  13.779  1.00  0.00     0.022 A 
BRANCH  65  68
ATOM     68  S   UNL     1     -12.295  -2.304  13.186  1.00  0.00     0.127 S 
ATOM     69  O   UNL     1     -12.365  -2.563  11.749  1.00  0.00    -0.237 OA
ATOM     70  O   UNL     1     -13.305  -3.005  13.981  1.00  0.00    -0.237 OA
ATOM     71  O   UNL     1     -12.086  -0.915  13.569  1.00  0.00    -0.744 OA
ENDBRANCH  65  68
ENDBRANCH  47  61
BRANCH  48  72
ATOM     72  C   UNL     1       0.230   1.552  15.587  1.00  0.00     0.023 A 
ATOM     73  C   UNL     1       1.089   1.229  16.656  1.00  0.00     0.012 A 
ATOM     74  C   UNL     1       0.623   2.542  14.666  1.00  0.00     0.148 A 
ATOM     75  C   UNL     1       2.305   1.894  16.819  1.00  0.00     0.002 A 
ATOM     76  C   UNL     1       1.858   3.166  14.805  1.00  0.00     0.091 A 
ATOM     77  F   UNL     1      -0.212   2.840  13.661  1.00  0.00    -0.205 F 
ATOM     78  C   UNL     1       2.694   2.854  15.888  1.00  0.00     0.022 A 
BRANCH  76  79
ATOM     79  S   UNL     1       2.502   4.318  13.586  1.00  0.00     0.127 S 
ATOM     80  O   UNL     1       2.468   5.580  14.320  1.00  0.00    -0.237 OA
ATOM     81  O   UNL     1       3.842   3.781  13.344  1.00  0.00    -0.237 OA
ATOM     82  O   UNL     1       1.603   4.226  12.444  1.00  0.00    -0.744 OA
ENDBRANCH  76  79
ENDBRANCH  48  72
BRANCH  60  83
ATOM     83  C   UNL     1      -5.675   1.139  19.318  1.00  0.00     0.023 A 
ATOM     84  C   UNL     1      -6.062   2.492  19.354  1.00  0.00     0.012 A 
ATOM     85  C   UNL     1      -5.813   0.346  20.474  1.00  0.00     0.148 A 
ATOM     86  C   UNL     1      -6.562   3.053  20.528  1.00  0.00     0.002 A 
ATOM     87  C   UNL     1      -6.355   0.899  21.628  1.00  0.00     0.091 A 
ATOM     88  F   UNL     1      -5.420  -0.935  20.422  1.00  0.00    -0.205 F 
ATOM     89  C   UNL     1      -6.722   2.254  21.659  1.00  0.00     0.022 A 
BRANCH  87  90
ATOM     90  S   UNL     1      -6.688  -0.079  23.098  1.00  0.00     0.127 S 
ATOM     91  O   UNL     1      -5.633   0.375  24.002  1.00  0.00    -0.237 OA
ATOM     92  O   UNL     1      -8.035   0.358  23.465  1.00  0.00    -0.237 OA
ATOM     93  O   UNL     1      -6.599  -1.472  22.680  1.00  0.00    -0.744 OA
ENDBRANCH  87  90
ENDBRANCH  60  83
ENDBRANCH  34  35
ENDBRANCH  26  29
ENDBRANCH  24  25
ENDBRANCH  23  24
ENDBRANCH   1  23
TORSDOF 18
