REMARK SMILES CC(C)C[C@H](NC(N)=O)C(=O)N[C@@H](C(=O)NCCCCNC(=O)c1ccc(-c2c3nc(c(-c4cccc(S(=O)(=O)[O-])c4F)c4ccc([nH]4)c(-c4cccc(S(=O)(=O)[O-])c4F)c4nc(c(-c5cccc(S(=O)(=O)[O-])c5F)c5ccc2[nH]5)C=C4)C=C3)cc1)C(C)C
REMARK SMILES IDX 18 1 17 2 16 3 14 4 15 5 13 7 12 8 10 9 11 10 5 12 4 13 2 14
REMARK SMILES IDX 1 15 3 16 6 17 7 18 8 20 9 21 87 24 88 25 89 26 19 27 20 28
REMARK SMILES IDX 21 29 22 30 23 32 24 33 25 34 86 35 26 36 85 37 27 38 28 39
REMARK SMILES IDX 29 40 79 41 30 42 84 43 78 44 80 45 31 46 83 47 77 48 76 49
REMARK SMILES IDX 32 51 64 52 44 53 63 54 45 55 48 56 62 57 81 58 46 59 47 60
REMARK SMILES IDX 61 62 82 63 49 64 33 65 34 66 42 67 35 68 37 69 43 70 36 71
REMARK SMILES IDX 38 72 39 73 40 74 41 75 65 76 66 77 74 78 67 79 69 80 75 81
REMARK SMILES IDX 68 82 70 83 71 84 72 85 73 86 50 87 51 88 59 89 52 90 54 91
REMARK SMILES IDX 60 92 53 93 55 94 56 95 57 96 58 97
REMARK H PARENT 16 6 12 11 6 19 8 22 8 23 21 31 80 50 48 61
REMARK Flexibility Score: inf
ROOT
ATOM      1  C   UNL     1      -3.777  -2.032  -1.872  1.00  0.00     0.023 C 
ENDROOT
BRANCH   1   2
ATOM      2  C   UNL     1      -2.850  -1.141  -2.682  1.00  0.00     0.116 C 
BRANCH   2   3
ATOM      3  N   UNL     1      -3.498  -0.517  -3.801  1.00  0.00    -0.354 N 
ATOM      4  C   UNL     1      -3.587   0.791  -4.161  1.00  0.00     0.242 C 
ATOM      5  O   UNL     1      -4.058   0.979  -5.289  1.00  0.00    -0.273 OA
ATOM      6  H   UNL     1      -3.955  -1.141  -4.410  1.00  0.00     0.163 HD
BRANCH   4   7
ATOM      7  C   UNL     1      -3.027   1.980  -3.285  1.00  0.00     0.173 C 
BRANCH   7   8
ATOM      8  N   UNL     1      -3.454   1.827  -1.889  1.00  0.00    -0.342 N 
ATOM      9  C   UNL     1      -2.777   1.539  -0.744  1.00  0.00     0.243 C 
ATOM     10  O   UNL     1      -3.479   1.163   0.208  1.00  0.00    -0.273 OA
ATOM     11  H   UNL     1      -4.420   1.960  -1.754  1.00  0.00     0.164 HD
BRANCH   9  12
ATOM     12  C   UNL     1      -1.224   1.602  -0.545  1.00  0.00     0.173 C 
BRANCH  12  13
ATOM     13  C   UNL     1      -0.551   2.986  -0.500  1.00  0.00     0.038 C 
BRANCH  13  14
ATOM     14  C   UNL     1      -1.485   4.194  -0.398  1.00  0.00    -0.015 C 
ATOM     15  C   UNL     1      -2.179   4.348   0.950  1.00  0.00     0.007 C 
ATOM     16  C   UNL     1      -0.734   5.473  -0.769  1.00  0.00     0.007 C 
ENDBRANCH  13  14
ENDBRANCH  12  13
BRANCH  12  17
ATOM     17  N   UNL     1      -0.458   0.545  -1.231  1.00  0.00    -0.327 N 
ATOM     18  C   UNL     1       0.260   0.649  -2.381  1.00  0.00     0.312 C 
ATOM     19  H   UNL     1      -0.468  -0.343  -0.805  1.00  0.00     0.166 HD
ATOM     20  N   UNL     1       0.706  -0.547  -2.837  1.00  0.00    -0.352 N 
ATOM     21  O   UNL     1       0.506   1.669  -2.997  1.00  0.00    -0.249 OA
ATOM     22  H   UNL     1       0.505  -1.370  -2.336  1.00  0.00     0.161 HD
ATOM     23  H   UNL     1       1.229  -0.593  -3.669  1.00  0.00     0.161 HD
ENDBRANCH  12  17
ENDBRANCH   9  12
ENDBRANCH   7   8
BRANCH   7  24
ATOM     24  C   UNL     1      -3.559   3.304  -3.945  1.00  0.00     0.015 C 
ATOM     25  C   UNL     1      -3.730   4.535  -3.056  1.00  0.00     0.010 C 
ATOM     26  C   UNL     1      -2.657   3.696  -5.127  1.00  0.00     0.010 C 
ENDBRANCH   7  24
ENDBRANCH   4   7
ENDBRANCH   2   3
ENDBRANCH   1   2
BRANCH   1  27
ATOM     27  C   UNL     1      -4.094  -3.359  -2.551  1.00  0.00     0.023 C 
BRANCH  27  28
ATOM     28  C   UNL     1      -2.872  -4.190  -2.919  1.00  0.00     0.116 C 
BRANCH  28  29
ATOM     29  N   UNL     1      -2.064  -4.574  -1.766  1.00  0.00    -0.352 N 
ATOM     30  C   UNL     1      -1.511  -5.810  -1.511  1.00  0.00     0.251 C 
ATOM     31  H   UNL     1      -1.895  -3.872  -1.096  1.00  0.00     0.163 HD
ATOM     32  O   UNL     1      -0.934  -6.043  -0.456  1.00  0.00    -0.269 OA
BRANCH  30  33
ATOM     33  C   UNL     1      -1.672  -6.854  -2.539  1.00  0.00     0.039 A 
ATOM     34  C   UNL     1      -2.375  -8.019  -2.224  1.00  0.00     0.014 A 
ATOM     35  C   UNL     1      -1.273  -6.586  -3.850  1.00  0.00     0.014 A 
ATOM     36  C   UNL     1      -2.752  -8.887  -3.250  1.00  0.00     0.010 A 
ATOM     37  C   UNL     1      -1.724  -7.407  -4.875  1.00  0.00     0.010 A 
ATOM     38  C   UNL     1      -2.470  -8.563  -4.587  1.00  0.00    -0.014 A 
BRANCH  38  39
ATOM     39  C   UNL     1      -2.932  -9.403  -5.721  1.00  0.00     0.031 A 
ATOM     40  C   UNL     1      -1.913 -10.001  -6.652  1.00  0.00     0.074 A 
ATOM     41  C   UNL     1      -4.248  -9.519  -5.992  1.00  0.00     0.049 A 
ATOM     42  N   UNL     1      -2.092 -10.605  -7.796  1.00  0.00    -0.248 NA
ATOM     43  C   UNL     1      -0.499  -9.864  -6.259  1.00  0.00     0.031 C 
ATOM     44  C   UNL     1      -5.334  -8.942  -5.197  1.00  0.00     0.029 A 
ATOM     45  N   UNL     1      -4.895 -10.129  -7.040  1.00  0.00    -0.354 N 
ATOM     46  C   UNL     1      -0.820 -10.872  -8.283  1.00  0.00     0.074 A 
ATOM     47  C   UNL     1       0.124 -10.337  -7.327  1.00  0.00     0.031 C 
ATOM     48  C   UNL     1      -6.508  -9.217  -5.789  1.00  0.00     0.029 A 
ATOM     49  C   UNL     1      -6.259  -9.947  -7.028  1.00  0.00     0.049 A 
ATOM     50  H   UNL     1      -4.426 -10.647  -7.734  1.00  0.00     0.167 HD
ATOM     51  C   UNL     1      -0.466 -11.525  -9.414  1.00  0.00     0.034 A 
ATOM     52  C   UNL     1      -7.199 -10.302  -7.928  1.00  0.00     0.034 A 
ATOM     53  C   UNL     1      -1.407 -12.093 -10.338  1.00  0.00     0.049 A 
ATOM     54  C   UNL     1      -6.781 -11.040  -9.172  1.00  0.00     0.074 A 
ATOM     55  C   UNL     1      -1.150 -12.846 -11.469  1.00  0.00     0.029 A 
ATOM     56  N   UNL     1      -2.784 -11.964 -10.244  1.00  0.00    -0.354 N 
ATOM     57  N   UNL     1      -5.579 -11.399  -9.553  1.00  0.00    -0.248 NA
ATOM     58  C   UNL     1      -7.848 -11.447 -10.100  1.00  0.00     0.031 C 
ATOM     59  C   UNL     1      -2.372 -13.143 -12.079  1.00  0.00     0.029 A 
ATOM     60  C   UNL     1      -3.390 -12.614 -11.303  1.00  0.00     0.049 A 
ATOM     61  H   UNL     1      -3.259 -11.481  -9.530  1.00  0.00     0.167 HD
ATOM     62  C   UNL     1      -5.749 -12.114 -10.733  1.00  0.00     0.074 A 
ATOM     63  C   UNL     1      -7.171 -12.142 -11.005  1.00  0.00     0.031 C 
ATOM     64  C   UNL     1      -4.811 -12.691 -11.523  1.00  0.00     0.034 A 
BRANCH  51  65
ATOM     65  C   UNL     1       1.003 -11.690  -9.698  1.00  0.00     0.023 A 
ATOM     66  C   UNL     1       1.779 -12.553  -8.897  1.00  0.00     0.012 A 
ATOM     67  C   UNL     1       1.603 -11.034 -10.790  1.00  0.00     0.148 A 
ATOM     68  C   UNL     1       3.138 -12.730  -9.154  1.00  0.00     0.002 A 
ATOM     69  C   UNL     1       2.946 -11.255 -11.071  1.00  0.00     0.091 A 
ATOM     70  F   UNL     1       0.854 -10.202 -11.527  1.00  0.00    -0.205 F 
ATOM     71  C   UNL     1       3.717 -12.091 -10.246  1.00  0.00     0.022 A 
BRANCH  69  72
ATOM     72  S   UNL     1       3.765 -10.546 -12.502  1.00  0.00     0.127 S 
ATOM     73  O   UNL     1       4.675  -9.587 -11.876  1.00  0.00    -0.237 OA
ATOM     74  O   UNL     1       4.421 -11.715 -13.090  1.00  0.00    -0.237 OA
ATOM     75  O   UNL     1       2.713  -9.963 -13.322  1.00  0.00    -0.744 OA
ENDBRANCH  69  72
ENDBRANCH  51  65
BRANCH  52  76
ATOM     76  C   UNL     1      -8.637 -10.002  -7.669  1.00  0.00     0.023 A 
ATOM     77  C   UNL     1      -9.528 -11.060  -7.402  1.00  0.00     0.012 A 
ATOM     78  C   UNL     1      -9.125  -8.681  -7.674  1.00  0.00     0.148 A 
ATOM     79  C   UNL     1     -10.884 -10.812  -7.181  1.00  0.00     0.002 A 
ATOM     80  C   UNL     1     -10.465  -8.436  -7.397  1.00  0.00     0.091 A 
ATOM     81  F   UNL     1      -8.264  -7.688  -7.938  1.00  0.00    -0.205 F 
ATOM     82  C   UNL     1     -11.350  -9.501  -7.170  1.00  0.00     0.022 A 
BRANCH  80  83
ATOM     83  S   UNL     1     -11.130  -6.775  -7.236  1.00  0.00     0.127 S 
ATOM     84  O   UNL     1     -12.005  -6.689  -8.402  1.00  0.00    -0.237 OA
ATOM     85  O   UNL     1     -11.822  -6.853  -5.949  1.00  0.00    -0.237 OA
ATOM     86  O   UNL     1      -9.976  -5.886  -7.244  1.00  0.00    -0.744 OA
ENDBRANCH  80  83
ENDBRANCH  52  76
BRANCH  64  87
ATOM     87  C   UNL     1      -5.273 -13.472 -12.724  1.00  0.00     0.023 A 
ATOM     88  C   UNL     1      -5.742 -12.801 -13.869  1.00  0.00     0.012 A 
ATOM     89  C   UNL     1      -5.113 -14.872 -12.756  1.00  0.00     0.148 A 
ATOM     90  C   UNL     1      -6.061 -13.515 -15.024  1.00  0.00     0.002 A 
ATOM     91  C   UNL     1      -5.382 -15.570 -13.925  1.00  0.00     0.091 A 
ATOM     92  F   UNL     1      -4.679 -15.489 -11.647  1.00  0.00    -0.205 F 
ATOM     93  C   UNL     1      -5.866 -14.895 -15.057  1.00  0.00     0.022 A 
BRANCH  91  94
ATOM     94  S   UNL     1      -5.060 -17.329 -14.096  1.00  0.00     0.127 S 
ATOM     95  O   UNL     1      -6.412 -17.865 -14.251  1.00  0.00    -0.237 OA
ATOM     96  O   UNL     1      -4.242 -17.375 -15.308  1.00  0.00    -0.237 OA
ATOM     97  O   UNL     1      -4.369 -17.735 -12.880  1.00  0.00    -0.744 OA
ENDBRANCH  91  94
ENDBRANCH  64  87
ENDBRANCH  38  39
ENDBRANCH  30  33
ENDBRANCH  28  29
ENDBRANCH  27  28
ENDBRANCH   1  27
TORSDOF 20
