REMARK SMILES Cc1c(Cl)cc2c(c1C)O[C@H](C(F)(F)F)C(C(=O)NCCCCNC(=O)c1ccc(-c3c4nc(c(-c5cccc(S(=O)(=O)[O-])c5F)c5ccc([nH]5)c(-c5cccc(S(=O)(=O)[O-])c5F)c5nc(c(-c6cccc(S(=O)(=O)[O-])c6F)c6ccc3[nH]6)C=C5)C=C4)cc1)=C2
REMARK SMILES IDX 22 1 21 2 20 3 19 4 17 5 18 6 16 8 1 9 2 10 3 11 8 12 4 13
REMARK SMILES IDX 5 14 7 15 9 16 6 17 10 18 90 19 11 20 12 21 13 22 14 23
REMARK SMILES IDX 15 24 23 25 24 26 25 27 26 29 27 30 28 31 89 32 29 33 88 34
REMARK SMILES IDX 30 35 31 36 32 37 82 38 33 39 87 40 81 41 83 42 34 43 86 44
REMARK SMILES IDX 80 45 79 46 35 48 67 49 47 50 66 51 48 52 51 53 65 54 84 55
REMARK SMILES IDX 49 56 50 57 64 59 85 60 52 61 36 62 37 63 45 64 38 65 40 66
REMARK SMILES IDX 46 67 39 68 41 69 42 70 43 71 44 72 68 73 69 74 77 75 70 76
REMARK SMILES IDX 72 77 78 78 71 79 73 80 74 81 75 82 76 83 53 84 54 85 62 86
REMARK SMILES IDX 55 87 57 88 63 89 56 90 58 91 59 92 60 93 61 94
REMARK H PARENT 19 7 24 28 83 47 51 58
REMARK Flexibility Score: inf
ROOT
ATOM      1  C   UNL     1       2.653 -10.769   1.359  1.00  0.00     0.023 C 
ENDROOT
BRANCH   1   2
ATOM      2  C   UNL     1       2.551  -9.318   0.885  1.00  0.00     0.023 C 
BRANCH   2   3
ATOM      3  C   UNL     1       1.275  -9.005   0.109  1.00  0.00     0.116 C 
BRANCH   3   4
ATOM      4  N   UNL     1       0.181  -8.631   0.986  1.00  0.00    -0.352 N 
ATOM      5  C   UNL     1      -0.418  -7.485   1.383  1.00  0.00     0.251 C 
ATOM      6  O   UNL     1      -1.357  -7.622   2.173  1.00  0.00    -0.270 OA
ATOM      7  H   UNL     1      -0.235  -9.421   1.403  1.00  0.00     0.163 HD
BRANCH   5   8
ATOM      8  C   UNL     1      -0.030  -6.112   0.940  1.00  0.00     0.067 C 
ATOM      9  C   UNL     1       0.710   0.342   0.125  1.00  0.00     0.046 C 
ATOM     10  C   UNL     1       0.330  -1.072   0.484  1.00  0.00    -0.026 A 
ATOM     11  C   UNL     1      -0.784  -1.351   1.302  1.00  0.00     0.045 A 
ATOM     12  C   UNL     1       1.080  -2.159  -0.030  1.00  0.00    -0.004 A 
ATOM     13  Cl  UNL     1      -1.808  -0.102   1.927  1.00  0.00    -0.084 Cl
ATOM     14  C   UNL     1      -1.117  -2.665   1.650  1.00  0.00     0.032 A 
ATOM     15  C   UNL     1       0.731  -3.473   0.342  1.00  0.00     0.131 A 
ATOM     16  C   UNL     1       2.261  -1.971  -0.950  1.00  0.00     0.049 C 
ATOM     17  C   UNL     1      -0.354  -3.730   1.180  1.00  0.00     0.019 A 
ATOM     18  O   UNL     1       1.535  -4.485  -0.110  1.00  0.00    -0.475 OA
ATOM     19  C   UNL     1      -0.652  -5.101   1.574  1.00  0.00     0.025 C 
ATOM     20  C   UNL     1       0.946  -5.814  -0.160  1.00  0.00     0.314 C 
BRANCH  20  21
ATOM     21  C   UNL     1       0.356  -6.051  -1.562  1.00  0.00     0.429 C 
ATOM     22  F   UNL     1       1.342  -6.058  -2.495  1.00  0.00    -0.167 F 
ATOM     23  F   UNL     1      -0.281  -7.240  -1.667  1.00  0.00    -0.167 F 
ATOM     24  F   UNL     1      -0.531  -5.096  -1.923  1.00  0.00    -0.167 F 
ENDBRANCH  20  21
ENDBRANCH   5   8
ENDBRANCH   3   4
ENDBRANCH   2   3
ENDBRANCH   1   2
BRANCH   1  25
ATOM     25  C   UNL     1       2.509 -11.829   0.267  1.00  0.00     0.116 C 
BRANCH  25  26
ATOM     26  N   UNL     1       3.366 -11.601  -0.890  1.00  0.00    -0.352 N 
ATOM     27  C   UNL     1       3.951 -12.541  -1.703  1.00  0.00     0.251 C 
ATOM     28  H   UNL     1       3.547 -10.660  -1.116  1.00  0.00     0.163 HD
ATOM     29  O   UNL     1       4.714 -12.204  -2.604  1.00  0.00    -0.269 OA
BRANCH  27  30
ATOM     30  C   UNL     1       3.676 -13.966  -1.443  1.00  0.00     0.039 A 
ATOM     31  C   UNL     1       4.748 -14.825  -1.197  1.00  0.00     0.014 A 
ATOM     32  C   UNL     1       2.357 -14.420  -1.358  1.00  0.00     0.014 A 
ATOM     33  C   UNL     1       4.493 -16.136  -0.797  1.00  0.00     0.010 A 
ATOM     34  C   UNL     1       2.106 -15.707  -0.897  1.00  0.00     0.010 A 
ATOM     35  C   UNL     1       3.171 -16.575  -0.613  1.00  0.00    -0.014 A 
BRANCH  35  36
ATOM     36  C   UNL     1       2.887 -17.943  -0.121  1.00  0.00     0.031 A 
ATOM     37  C   UNL     1       2.209 -18.937  -1.019  1.00  0.00     0.074 A 
ATOM     38  C   UNL     1       3.187 -18.268   1.151  1.00  0.00     0.049 A 
ATOM     39  N   UNL     1       1.893 -20.181  -0.775  1.00  0.00    -0.248 NA
ATOM     40  C   UNL     1       1.814 -18.468  -2.358  1.00  0.00     0.031 C 
ATOM     41  C   UNL     1       3.771 -17.359   2.140  1.00  0.00     0.029 A 
ATOM     42  N   UNL     1       3.034 -19.448   1.834  1.00  0.00    -0.354 N 
ATOM     43  C   UNL     1       1.249 -20.637  -1.918  1.00  0.00     0.074 A 
ATOM     44  C   UNL     1       1.172 -19.524  -2.837  1.00  0.00     0.031 C 
ATOM     45  C   UNL     1       3.950 -18.022   3.294  1.00  0.00     0.029 A 
ATOM     46  C   UNL     1       3.483 -19.396   3.133  1.00  0.00     0.049 A 
ATOM     47  H   UNL     1       2.639 -20.256   1.433  1.00  0.00     0.167 HD
ATOM     48  C   UNL     1       0.807 -21.885  -2.198  1.00  0.00     0.034 A 
ATOM     49  C   UNL     1       3.530 -20.355   4.080  1.00  0.00     0.034 A 
ATOM     50  C   UNL     1       0.939 -23.000  -1.304  1.00  0.00     0.049 A 
ATOM     51  C   UNL     1       3.057 -21.742   3.735  1.00  0.00     0.074 A 
ATOM     52  C   UNL     1       0.610 -24.324  -1.529  1.00  0.00     0.029 A 
ATOM     53  N   UNL     1       1.443 -22.923  -0.015  1.00  0.00    -0.354 N 
ATOM     54  N   UNL     1       2.605 -22.197   2.591  1.00  0.00    -0.248 NA
ATOM     55  C   UNL     1       3.127 -22.755   4.799  1.00  0.00     0.031 C 
ATOM     56  C   UNL     1       0.911 -25.048  -0.371  1.00  0.00     0.029 A 
ATOM     57  C   UNL     1       1.428 -24.174   0.573  1.00  0.00     0.049 A 
ATOM     58  H   UNL     1       1.764 -22.099   0.417  1.00  0.00     0.167 HD
ATOM     59  C   UNL     1       2.358 -23.551   2.789  1.00  0.00     0.074 A 
ATOM     60  C   UNL     1       2.732 -23.848   4.157  1.00  0.00     0.031 C 
ATOM     61  C   UNL     1       1.849 -24.460   1.922  1.00  0.00     0.034 A 
BRANCH  48  62
ATOM     62  C   UNL     1       0.229 -22.123  -3.566  1.00  0.00     0.023 A 
ATOM     63  C   UNL     1       1.099 -22.173  -4.674  1.00  0.00     0.012 A 
ATOM     64  C   UNL     1      -1.149 -22.339  -3.756  1.00  0.00     0.148 A 
ATOM     65  C   UNL     1       0.606 -22.404  -5.956  1.00  0.00     0.002 A 
ATOM     66  C   UNL     1      -1.629 -22.605  -5.034  1.00  0.00     0.091 A 
ATOM     67  F   UNL     1      -1.964 -22.260  -2.695  1.00  0.00    -0.205 F 
ATOM     68  C   UNL     1      -0.756 -22.629  -6.135  1.00  0.00     0.022 A 
BRANCH  66  69
ATOM     69  S   UNL     1      -3.358 -22.972  -5.357  1.00  0.00     0.127 S 
ATOM     70  O   UNL     1      -3.817 -21.721  -5.958  1.00  0.00    -0.237 OA
ATOM     71  O   UNL     1      -3.268 -24.098  -6.288  1.00  0.00    -0.237 OA
ATOM     72  O   UNL     1      -3.942 -23.302  -4.065  1.00  0.00    -0.744 OA
ENDBRANCH  66  69
ENDBRANCH  48  62
BRANCH  49  73
ATOM     73  C   UNL     1       4.154 -20.057   5.400  1.00  0.00     0.023 A 
ATOM     74  C   UNL     1       5.422 -20.598   5.689  1.00  0.00     0.012 A 
ATOM     75  C   UNL     1       3.545 -19.197   6.334  1.00  0.00     0.148 A 
ATOM     76  C   UNL     1       6.066 -20.301   6.890  1.00  0.00     0.002 A 
ATOM     77  C   UNL     1       4.214 -18.866   7.508  1.00  0.00     0.091 A 
ATOM     78  F   UNL     1       2.333 -18.702   6.045  1.00  0.00    -0.205 F 
ATOM     79  C   UNL     1       5.469 -19.427   7.793  1.00  0.00     0.022 A 
BRANCH  77  80
ATOM     80  S   UNL     1       3.583 -17.648   8.669  1.00  0.00     0.127 S 
ATOM     81  O   UNL     1       3.202 -18.485   9.803  1.00  0.00    -0.237 OA
ATOM     82  O   UNL     1       4.758 -16.804   8.892  1.00  0.00    -0.237 OA
ATOM     83  O   UNL     1       2.488 -16.980   7.979  1.00  0.00    -0.744 OA
ENDBRANCH  77  80
ENDBRANCH  49  73
BRANCH  61  84
ATOM     84  C   UNL     1       1.647 -25.868   2.413  1.00  0.00     0.023 A 
ATOM     85  C   UNL     1       0.549 -26.150   3.248  1.00  0.00     0.012 A 
ATOM     86  C   UNL     1       2.452 -26.924   1.943  1.00  0.00     0.148 A 
ATOM     87  C   UNL     1       0.258 -27.463   3.616  1.00  0.00     0.002 A 
ATOM     88  C   UNL     1       2.131 -28.234   2.279  1.00  0.00     0.091 A 
ATOM     89  F   UNL     1       3.502 -26.630   1.162  1.00  0.00    -0.205 F 
ATOM     90  C   UNL     1       1.039 -28.504   3.120  1.00  0.00     0.022 A 
BRANCH  88  91
ATOM     91  S   UNL     1       3.017 -29.647   1.610  1.00  0.00     0.127 S 
ATOM     92  O   UNL     1       3.758 -30.116   2.780  1.00  0.00    -0.237 OA
ATOM     93  O   UNL     1       1.927 -30.526   1.185  1.00  0.00    -0.237 OA
ATOM     94  O   UNL     1       3.834 -29.129   0.520  1.00  0.00    -0.744 OA
ENDBRANCH  88  91
ENDBRANCH  61  84
ENDBRANCH  35  36
ENDBRANCH  27  30
ENDBRANCH  25  26
ENDBRANCH   1  25
TORSDOF 15
