REMARK SMILES CC[C@@H]1CCCN1C(=O)N1CC[C@@H](C(=O)NCCCCNC(=O)c2ccc(-c3c4nc(c(-c5cccc(S(=O)(=O)[O-])c5F)c5ccc([nH]5)c(-c5cccc(S(=O)(=O)[O-])c5F)c5nc(c(-c6cccc(S(=O)(=O)[O-])c6F)c6ccc3[nH]6)C=C5)C=C4)cc2)[C@@H]1C
REMARK SMILES IDX 18 1 17 2 16 3 14 4 15 5 13 7 10 8 11 9 87 10 12 11 88 12
REMARK SMILES IDX 8 13 9 14 7 15 3 16 4 17 5 18 6 19 2 20 1 21 19 22 20 23
REMARK SMILES IDX 21 24 22 25 23 27 24 28 25 29 86 30 26 31 85 32 27 33 28 34
REMARK SMILES IDX 29 35 79 36 30 37 84 38 78 39 80 40 31 41 83 42 77 43 76 44
REMARK SMILES IDX 32 46 64 47 44 48 63 49 45 50 48 51 62 52 81 53 46 54 47 55
REMARK SMILES IDX 61 57 82 58 49 59 33 60 34 61 42 62 35 63 37 64 43 65 36 66
REMARK SMILES IDX 38 67 39 68 40 69 41 70 65 71 66 72 74 73 67 74 69 75 75 76
REMARK SMILES IDX 68 77 70 78 71 79 72 80 73 81 50 82 51 83 59 84 52 85 54 86
REMARK SMILES IDX 60 87 53 88 55 89 56 90 57 91 58 92
REMARK H PARENT 16 6 21 26 80 45 48 56
REMARK Flexibility Score: inf
ROOT
ATOM      1  C   UNL     1      -6.026  -1.046   1.556  1.00  0.00     0.023 C 
ENDROOT
BRANCH   1   2
ATOM      2  C   UNL     1      -5.943   0.438   1.199  1.00  0.00     0.116 C 
BRANCH   2   3
ATOM      3  N   UNL     1      -5.474   1.256   2.301  1.00  0.00    -0.356 N 
ATOM      4  C   UNL     1      -4.241   1.778   2.549  1.00  0.00     0.225 C 
ATOM      5  O   UNL     1      -4.091   2.475   3.552  1.00  0.00    -0.275 OA
ATOM      6  H   UNL     1      -6.156   1.468   2.978  1.00  0.00     0.163 HD
BRANCH   4   7
ATOM      7  C   UNL     1      -3.099   1.508   1.593  1.00  0.00     0.102 C 
ATOM      8  N   UNL     1      -1.335   2.871   0.812  1.00  0.00    -0.321 N 
ATOM      9  C   UNL     1      -0.944   2.452   2.143  1.00  0.00     0.122 C 
ATOM     10  C   UNL     1      -2.789   2.770   0.753  1.00  0.00     0.096 C 
ATOM     11  C   UNL     1      -1.801   1.225   2.382  1.00  0.00     0.037 C 
ATOM     12  C   UNL     1      -3.315   2.682  -0.674  1.00  0.00     0.032 C 
BRANCH   8  13
ATOM     13  C   UNL     1      -0.658   3.904   0.216  1.00  0.00     0.320 C 
ATOM     14  O   UNL     1      -1.143   5.034   0.145  1.00  0.00    -0.248 OA
BRANCH  13  15
ATOM     15  N   UNL     1       0.584   3.603  -0.312  1.00  0.00    -0.322 N 
ATOM     16  C   UNL     1       1.093   2.327  -0.851  1.00  0.00     0.086 C 
ATOM     17  C   UNL     1       2.563   2.662  -1.140  1.00  0.00     0.027 C 
ATOM     18  C   UNL     1       2.494   4.091  -1.647  1.00  0.00     0.024 C 
ATOM     19  C   UNL     1       1.385   4.713  -0.811  1.00  0.00     0.122 C 
BRANCH  16  20
ATOM     20  C   UNL     1       0.956   1.053  -0.016  1.00  0.00     0.022 C 
ATOM     21  C   UNL     1       1.605  -0.174  -0.643  1.00  0.00     0.006 C 
ENDBRANCH  16  20
ENDBRANCH  13  15
ENDBRANCH   8  13
ENDBRANCH   4   7
ENDBRANCH   2   3
ENDBRANCH   1   2
BRANCH   1  22
ATOM     22  C   UNL     1      -6.945  -1.387   2.733  1.00  0.00     0.023 C 
BRANCH  22  23
ATOM     23  C   UNL     1      -8.355  -0.807   2.670  1.00  0.00     0.116 C 
BRANCH  23  24
ATOM     24  N   UNL     1      -9.112  -1.247   1.507  1.00  0.00    -0.352 N 
ATOM     25  C   UNL     1     -10.446  -1.580   1.436  1.00  0.00     0.251 C 
ATOM     26  H   UNL     1      -8.606  -1.315   0.665  1.00  0.00     0.163 HD
ATOM     27  O   UNL     1     -10.917  -2.027   0.393  1.00  0.00    -0.269 OA
BRANCH  25  28
ATOM     28  C   UNL     1     -11.297  -1.432   2.637  1.00  0.00     0.039 A 
ATOM     29  C   UNL     1     -12.074  -2.516   3.056  1.00  0.00     0.014 A 
ATOM     30  C   UNL     1     -11.291  -0.243   3.370  1.00  0.00     0.014 A 
ATOM     31  C   UNL     1     -12.786  -2.434   4.257  1.00  0.00     0.010 A 
ATOM     32  C   UNL     1     -11.950  -0.186   4.594  1.00  0.00     0.010 A 
ATOM     33  C   UNL     1     -12.699  -1.282   5.054  1.00  0.00    -0.014 A 
BRANCH  33  34
ATOM     34  C   UNL     1     -13.372  -1.185   6.376  1.00  0.00     0.031 A 
ATOM     35  C   UNL     1     -14.437  -0.144   6.594  1.00  0.00     0.074 A 
ATOM     36  C   UNL     1     -12.950  -1.947   7.405  1.00  0.00     0.049 A 
ATOM     37  N   UNL     1     -15.024   0.218   7.705  1.00  0.00    -0.248 NA
ATOM     38  C   UNL     1     -14.880   0.609   5.408  1.00  0.00     0.031 C 
ATOM     39  C   UNL     1     -11.889  -2.954   7.338  1.00  0.00     0.029 A 
ATOM     40  N   UNL     1     -13.337  -1.965   8.724  1.00  0.00    -0.354 N 
ATOM     41  C   UNL     1     -15.875   1.262   7.361  1.00  0.00     0.074 A 
ATOM     42  C   UNL     1     -15.707   1.496   5.943  1.00  0.00     0.031 C 
ATOM     43  C   UNL     1     -11.701  -3.480   8.560  1.00  0.00     0.029 A 
ATOM     44  C   UNL     1     -12.601  -2.827   9.505  1.00  0.00     0.049 A 
ATOM     45  H   UNL     1     -14.072  -1.413   9.077  1.00  0.00     0.167 HD
ATOM     46  C   UNL     1     -16.744   1.943   8.146  1.00  0.00     0.034 A 
ATOM     47  C   UNL     1     -12.636  -3.052  10.834  1.00  0.00     0.034 A 
ATOM     48  C   UNL     1     -16.945   1.676   9.543  1.00  0.00     0.049 A 
ATOM     49  C   UNL     1     -13.632  -2.298  11.677  1.00  0.00     0.074 A 
ATOM     50  C   UNL     1     -17.830   2.284  10.416  1.00  0.00     0.029 A 
ATOM     51  N   UNL     1     -16.262   0.715  10.270  1.00  0.00    -0.354 N 
ATOM     52  N   UNL     1     -14.510  -1.397  11.309  1.00  0.00    -0.248 NA
ATOM     53  C   UNL     1     -13.668  -2.617  13.112  1.00  0.00     0.031 C 
ATOM     54  C   UNL     1     -17.683   1.687  11.672  1.00  0.00     0.029 A 
ATOM     55  C   UNL     1     -16.716   0.700  11.576  1.00  0.00     0.049 A 
ATOM     56  H   UNL     1     -15.557   0.129   9.910  1.00  0.00     0.167 HD
ATOM     57  C   UNL     1     -15.232  -1.079  12.454  1.00  0.00     0.074 A 
ATOM     58  C   UNL     1     -14.699  -1.893  13.525  1.00  0.00     0.031 C 
ATOM     59  C   UNL     1     -16.235  -0.181  12.608  1.00  0.00     0.034 A 
BRANCH  46  60
ATOM     60  C   UNL     1     -17.601   2.994   7.493  1.00  0.00     0.023 A 
ATOM     61  C   UNL     1     -18.659   2.591   6.653  1.00  0.00     0.012 A 
ATOM     62  C   UNL     1     -17.413   4.365   7.758  1.00  0.00     0.148 A 
ATOM     63  C   UNL     1     -19.499   3.534   6.064  1.00  0.00     0.002 A 
ATOM     64  C   UNL     1     -18.280   5.297   7.201  1.00  0.00     0.091 A 
ATOM     65  F   UNL     1     -16.390   4.729   8.546  1.00  0.00    -0.205 F 
ATOM     66  C   UNL     1     -19.317   4.884   6.346  1.00  0.00     0.022 A 
BRANCH  64  67
ATOM     67  S   UNL     1     -18.180   7.055   7.558  1.00  0.00     0.127 S 
ATOM     68  O   UNL     1     -17.737   7.593   6.273  1.00  0.00    -0.237 OA
ATOM     69  O   UNL     1     -19.564   7.376   7.909  1.00  0.00    -0.237 OA
ATOM     70  O   UNL     1     -17.228   7.190   8.652  1.00  0.00    -0.744 OA
ENDBRANCH  64  67
ENDBRANCH  46  60
BRANCH  47  71
ATOM     71  C   UNL     1     -11.745  -4.077  11.450  1.00  0.00     0.023 A 
ATOM     72  C   UNL     1     -12.311  -5.261  11.964  1.00  0.00     0.012 A 
ATOM     73  C   UNL     1     -10.352  -3.891  11.539  1.00  0.00     0.148 A 
ATOM     74  C   UNL     1     -11.514  -6.219  12.591  1.00  0.00     0.002 A 
ATOM     75  C   UNL     1      -9.557  -4.875  12.117  1.00  0.00     0.091 A 
ATOM     76  F   UNL     1      -9.828  -2.752  11.062  1.00  0.00    -0.205 F 
ATOM     77  C   UNL     1     -10.137  -6.031  12.661  1.00  0.00     0.022 A 
BRANCH  75  78
ATOM     78  S   UNL     1      -7.764  -4.763  12.125  1.00  0.00     0.127 S 
ATOM     79  O   UNL     1      -7.497  -4.302  13.484  1.00  0.00    -0.237 OA
ATOM     80  O   UNL     1      -7.365  -6.146  11.854  1.00  0.00    -0.237 OA
ATOM     81  O   UNL     1      -7.435  -3.832  11.053  1.00  0.00    -0.744 OA
ENDBRANCH  75  78
ENDBRANCH  47  71
BRANCH  59  82
ATOM     82  C   UNL     1     -16.879  -0.069  13.964  1.00  0.00     0.023 A 
ATOM     83  C   UNL     1     -16.203   0.590  15.009  1.00  0.00     0.012 A 
ATOM     84  C   UNL     1     -18.195  -0.529  14.169  1.00  0.00     0.148 A 
ATOM     85  C   UNL     1     -16.820   0.770  16.246  1.00  0.00     0.002 A 
ATOM     86  C   UNL     1     -18.820  -0.306  15.390  1.00  0.00     0.091 A 
ATOM     87  F   UNL     1     -18.812  -1.169  13.165  1.00  0.00    -0.205 F 
ATOM     88  C   UNL     1     -18.131   0.335  16.432  1.00  0.00     0.022 A 
BRANCH  86  89
ATOM     89  S   UNL     1     -20.535  -0.747  15.689  1.00  0.00     0.127 S 
ATOM     90  O   UNL     1     -20.396  -1.885  16.597  1.00  0.00    -0.237 OA
ATOM     91  O   UNL     1     -21.064   0.468  16.310  1.00  0.00    -0.237 OA
ATOM     92  O   UNL     1     -21.105  -1.055  14.384  1.00  0.00    -0.744 OA
ENDBRANCH  86  89
ENDBRANCH  59  82
ENDBRANCH  33  34
ENDBRANCH  25  28
ENDBRANCH  23  24
ENDBRANCH  22  23
ENDBRANCH   1  22
TORSDOF 17
