REMARK SMILES CCCCCCNC(=O)Oc1cccc(-c2ccc([C@@H](C)C(=O)NCCCCNC(=O)c3ccc(-c4c5nc(c(-c6cccc(S(=O)(=O)[O-])c6F)c6ccc([nH]6)c(-c6cccc(S(=O)(=O)[O-])c6F)c6nc(c(-c7cccc(S(=O)(=O)[O-])c7F)c7ccc4[nH]7)C=C6)C=C5)cc3)cc2)c1
REMARK SMILES IDX 20 1 21 2 19 3 16 4 17 5 96 6 18 7 95 8 15 9 11 10 12 11
REMARK SMILES IDX 97 12 13 13 14 14 10 15 8 16 7 17 9 19 6 20 5 21 4 22 3 23
REMARK SMILES IDX 2 24 1 25 22 26 23 27 24 28 25 30 26 31 27 32 28 33 29 34
REMARK SMILES IDX 30 35 31 37 32 38 33 39 94 40 34 41 93 42 35 43 36 44 37 45
REMARK SMILES IDX 87 46 38 47 92 48 86 49 88 50 39 51 91 52 85 53 84 54 40 56
REMARK SMILES IDX 72 57 52 58 71 59 53 60 56 61 70 62 89 63 54 64 55 65 69 67
REMARK SMILES IDX 90 68 57 69 41 70 42 71 50 72 43 73 45 74 51 75 44 76 46 77
REMARK SMILES IDX 47 78 48 79 49 80 73 81 74 82 82 83 75 84 77 85 83 86 76 87
REMARK SMILES IDX 78 88 79 89 80 90 81 91 58 92 59 93 67 94 60 95 62 96 68 97
REMARK SMILES IDX 61 98 63 99 64 100 65 101 66 102
REMARK H PARENT 7 18 24 29 29 36 88 55 56 66
REMARK Flexibility Score: inf
ROOT
ATOM      1  C   UNL     1      -4.945 -11.661   6.692  1.00  0.00     0.105 C 
ATOM      2  C   UNL     1      -6.221 -12.369   7.150  1.00  0.00     0.023 C 
ENDROOT
BRANCH   1   3
ATOM      3  C   UNL     1      -5.082 -10.804   5.444  1.00  0.00    -0.036 A 
ATOM      4  C   UNL     1      -5.153  -9.211   3.068  1.00  0.00    -0.018 A 
ATOM      5  C   UNL     1      -5.766 -10.471   3.134  1.00  0.00     0.009 A 
ATOM      6  C   UNL     1      -4.523  -8.755   4.237  1.00  0.00     0.009 A 
ATOM      7  C   UNL     1      -5.772 -11.228   4.309  1.00  0.00     0.005 A 
ATOM      8  C   UNL     1      -4.467  -9.544   5.395  1.00  0.00     0.005 A 
BRANCH   4   9
ATOM      9  C   UNL     1      -5.183  -8.416   1.817  1.00  0.00    -0.015 A 
ATOM     10  C   UNL     1      -4.197  -6.814   0.276  1.00  0.00     0.133 A 
ATOM     11  C   UNL     1      -5.281  -6.917  -0.589  1.00  0.00     0.047 A 
ATOM     12  C   UNL     1      -4.137  -7.548   1.464  1.00  0.00     0.056 A 
ATOM     13  C   UNL     1      -6.321  -7.776  -0.265  1.00  0.00     0.004 A 
ATOM     14  C   UNL     1      -6.276  -8.504   0.928  1.00  0.00     0.009 A 
BRANCH  10  15
ATOM     15  O   UNL     1      -3.241  -5.833  -0.028  1.00  0.00    -0.410 OA
BRANCH  15  16
ATOM     16  C   UNL     1      -1.905  -6.199  -0.064  1.00  0.00     0.412 C 
ATOM     17  N   UNL     1      -1.075  -5.132  -0.274  1.00  0.00    -0.321 N 
ATOM     18  H   UNL     1      -0.111  -5.326  -0.336  1.00  0.00     0.167 HD
ATOM     19  O   UNL     1      -1.462  -7.332   0.065  1.00  0.00    -0.224 OA
BRANCH  17  20
ATOM     20  C   UNL     1      -1.471  -3.746  -0.416  1.00  0.00     0.119 C 
BRANCH  20  21
ATOM     21  C   UNL     1      -0.874  -2.868   0.683  1.00  0.00     0.021 C 
BRANCH  21  22
ATOM     22  C   UNL     1       0.656  -2.765   0.656  1.00  0.00     0.002 C 
BRANCH  22  23
ATOM     23  C   UNL     1       1.256  -2.236  -0.651  1.00  0.00    -0.000 C 
BRANCH  23  24
ATOM     24  C   UNL     1       0.766  -0.853  -1.085  1.00  0.00    -0.003 C 
ATOM     25  C   UNL     1       1.127   0.248  -0.100  1.00  0.00     0.004 C 
ENDBRANCH  23  24
ENDBRANCH  22  23
ENDBRANCH  21  22
ENDBRANCH  20  21
ENDBRANCH  17  20
ENDBRANCH  15  16
ENDBRANCH  10  15
ENDBRANCH   4   9
ENDBRANCH   1   3
BRANCH   1  26
ATOM     26  C   UNL     1      -3.697 -12.557   6.701  1.00  0.00     0.227 C 
ATOM     27  O   UNL     1      -2.760 -12.288   7.463  1.00  0.00    -0.274 OA
ATOM     28  N   UNL     1      -3.555 -13.671   5.931  1.00  0.00    -0.356 N 
ATOM     29  H   UNL     1      -2.726 -14.175   6.099  1.00  0.00     0.163 HD
BRANCH  28  30
ATOM     30  C   UNL     1      -4.403 -14.249   4.910  1.00  0.00     0.116 C 
BRANCH  30  31
ATOM     31  C   UNL     1      -3.986 -13.821   3.502  1.00  0.00     0.023 C 
BRANCH  31  32
ATOM     32  C   UNL     1      -2.936 -14.713   2.843  1.00  0.00     0.023 C 
BRANCH  32  33
ATOM     33  C   UNL     1      -3.357 -16.163   2.636  1.00  0.00     0.116 C 
BRANCH  33  34
ATOM     34  N   UNL     1      -4.575 -16.323   1.851  1.00  0.00    -0.352 N 
ATOM     35  C   UNL     1      -4.892 -17.349   0.988  1.00  0.00     0.251 C 
ATOM     36  H   UNL     1      -5.251 -15.615   1.950  1.00  0.00     0.163 HD
ATOM     37  O   UNL     1      -5.926 -17.315   0.329  1.00  0.00    -0.269 OA
BRANCH  35  38
ATOM     38  C   UNL     1      -3.940 -18.468   0.839  1.00  0.00     0.039 A 
ATOM     39  C   UNL     1      -3.495 -18.817  -0.438  1.00  0.00     0.014 A 
ATOM     40  C   UNL     1      -3.420 -19.102   1.970  1.00  0.00     0.014 A 
ATOM     41  C   UNL     1      -2.469 -19.753  -0.574  1.00  0.00     0.010 A 
ATOM     42  C   UNL     1      -2.338 -19.962   1.836  1.00  0.00     0.010 A 
ATOM     43  C   UNL     1      -1.853 -20.301   0.564  1.00  0.00    -0.014 A 
BRANCH  43  44
ATOM     44  C   UNL     1      -0.692 -21.220   0.450  1.00  0.00     0.031 A 
ATOM     45  C   UNL     1      -0.781 -22.620   0.993  1.00  0.00     0.074 A 
ATOM     46  C   UNL     1       0.477 -20.762  -0.042  1.00  0.00     0.049 A 
ATOM     47  N   UNL     1       0.141 -23.544   1.045  1.00  0.00    -0.248 NA
ATOM     48  C   UNL     1      -2.065 -23.022   1.593  1.00  0.00     0.031 C 
ATOM     49  C   UNL     1       0.724 -19.393  -0.501  1.00  0.00     0.029 A 
ATOM     50  N   UNL     1       1.688 -21.388  -0.204  1.00  0.00    -0.354 N 
ATOM     51  C   UNL     1      -0.431 -24.614   1.722  1.00  0.00     0.074 A 
ATOM     52  C   UNL     1      -1.769 -24.212   2.094  1.00  0.00     0.031 C 
ATOM     53  C   UNL     1       2.003 -19.284  -0.893  1.00  0.00     0.029 A 
ATOM     54  C   UNL     1       2.676 -20.562  -0.687  1.00  0.00     0.049 A 
ATOM     55  H   UNL     1       1.835 -22.339   0.006  1.00  0.00     0.167 HD
ATOM     56  C   UNL     1       0.096 -25.833   1.985  1.00  0.00     0.034 A 
ATOM     57  C   UNL     1       3.980 -20.803  -0.928  1.00  0.00     0.034 A 
ATOM     58  C   UNL     1       1.407 -26.246   1.565  1.00  0.00     0.049 A 
ATOM     59  C   UNL     1       4.522 -22.187  -0.698  1.00  0.00     0.074 A 
ATOM     60  C   UNL     1       1.989 -27.497   1.671  1.00  0.00     0.029 A 
ATOM     61  N   UNL     1       2.346 -25.416   0.974  1.00  0.00    -0.354 N 
ATOM     62  N   UNL     1       3.906 -23.246  -0.231  1.00  0.00    -0.248 NA
ATOM     63  C   UNL     1       5.926 -22.422  -1.064  1.00  0.00     0.031 C 
ATOM     64  C   UNL     1       3.293 -27.414   1.171  1.00  0.00     0.029 A 
ATOM     65  C   UNL     1       3.511 -26.121   0.723  1.00  0.00     0.049 A 
ATOM     66  H   UNL     1       2.206 -24.464   0.763  1.00  0.00     0.167 HD
ATOM     67  C   UNL     1       4.835 -24.279  -0.276  1.00  0.00     0.074 A 
ATOM     68  C   UNL     1       6.050 -23.723  -0.837  1.00  0.00     0.031 C 
ATOM     69  C   UNL     1       4.698 -25.568   0.123  1.00  0.00     0.034 A 
BRANCH  56  70
ATOM     70  C   UNL     1      -0.766 -26.823   2.724  1.00  0.00     0.023 A 
ATOM     71  C   UNL     1      -1.893 -27.384   2.087  1.00  0.00     0.012 A 
ATOM     72  C   UNL     1      -0.440 -27.230   4.032  1.00  0.00     0.148 A 
ATOM     73  C   UNL     1      -2.705 -28.299   2.755  1.00  0.00     0.002 A 
ATOM     74  C   UNL     1      -1.226 -28.180   4.673  1.00  0.00     0.091 A 
ATOM     75  F   UNL     1       0.621 -26.670   4.631  1.00  0.00    -0.205 F 
ATOM     76  C   UNL     1      -2.366 -28.705   4.042  1.00  0.00     0.022 A 
BRANCH  74  77
ATOM     77  S   UNL     1      -0.824 -28.830   6.298  1.00  0.00     0.127 S 
ATOM     78  O   UNL     1      -1.850 -28.202   7.129  1.00  0.00    -0.237 OA
ATOM     79  O   UNL     1      -0.994 -30.270   6.105  1.00  0.00    -0.237 OA
ATOM     80  O   UNL     1       0.544 -28.412   6.569  1.00  0.00    -0.744 OA
ENDBRANCH  74  77
ENDBRANCH  56  70
BRANCH  57  81
ATOM     81  C   UNL     1       4.843 -19.718  -1.474  1.00  0.00     0.023 A 
ATOM     82  C   UNL     1       5.276 -19.781  -2.813  1.00  0.00     0.012 A 
ATOM     83  C   UNL     1       5.193 -18.602  -0.690  1.00  0.00     0.148 A 
ATOM     84  C   UNL     1       6.066 -18.765  -3.353  1.00  0.00     0.002 A 
ATOM     85  C   UNL     1       5.933 -17.567  -1.251  1.00  0.00     0.091 A 
ATOM     86  F   UNL     1       4.777 -18.566   0.583  1.00  0.00    -0.205 F 
ATOM     87  C   UNL     1       6.385 -17.654  -2.577  1.00  0.00     0.022 A 
BRANCH  85  88
ATOM     88  S   UNL     1       6.277 -16.039  -0.371  1.00  0.00     0.127 S 
ATOM     89  O   UNL     1       7.721 -16.126  -0.174  1.00  0.00    -0.237 OA
ATOM     90  O   UNL     1       5.846 -15.032  -1.341  1.00  0.00    -0.237 OA
ATOM     91  O   UNL     1       5.470 -16.092   0.841  1.00  0.00    -0.744 OA
ENDBRANCH  85  88
ENDBRANCH  57  81
BRANCH  69  92
ATOM     92  C   UNL     1       5.878 -26.487  -0.057  1.00  0.00     0.023 A 
ATOM     93  C   UNL     1       7.008 -26.352   0.773  1.00  0.00     0.012 A 
ATOM     94  C   UNL     1       5.830 -27.538  -0.995  1.00  0.00     0.148 A 
ATOM     95  C   UNL     1       8.085 -27.229   0.652  1.00  0.00     0.002 A 
ATOM     96  C   UNL     1       6.885 -28.439  -1.075  1.00  0.00     0.091 A 
ATOM     97  F   UNL     1       4.754 -27.639  -1.789  1.00  0.00    -0.205 F 
ATOM     98  C   UNL     1       8.018 -28.279  -0.262  1.00  0.00     0.022 A 
BRANCH  96  99
ATOM     99  S   UNL     1       6.841 -29.878  -2.150  1.00  0.00     0.127 S 
ATOM    100  O   UNL     1       7.801 -29.504  -3.187  1.00  0.00    -0.237 OA
ATOM    101  O   UNL     1       7.293 -30.946  -1.257  1.00  0.00    -0.237 OA
ATOM    102  O   UNL     1       5.460 -30.007  -2.594  1.00  0.00    -0.744 OA
ENDBRANCH  96  99
ENDBRANCH  69  92
ENDBRANCH  43  44
ENDBRANCH  35  38
ENDBRANCH  33  34
ENDBRANCH  32  33
ENDBRANCH  31  32
ENDBRANCH  30  31
ENDBRANCH  28  30
ENDBRANCH   1  26
TORSDOF 23
