REMARK SMILES O=C(NCCCCNC(=O)c1cccc(S(=O)(=O)NC[C@@H]2COc3ccccc3O2)c1)c1ccc(-c2c3nc(c(-c4cccc(S(=O)(=O)[O-])c4F)c4ccc([nH]4)c(-c4cccc(S(=O)(=O)[O-])c4F)c4nc(c(-c5cccc(S(=O)(=O)[O-])c5F)c5ccc2[nH]5)C=C4)C=C3)cc1
REMARK SMILES IDX 6 1 5 2 4 3 3 4 1 5 2 6 32 8 33 9 94 10 34 11 93 12 35 13
REMARK SMILES IDX 36 14 37 15 87 16 38 17 92 18 86 19 88 20 39 21 91 22 85 23
REMARK SMILES IDX 84 24 40 26 72 27 52 28 71 29 53 30 56 31 70 32 89 33 54 34
REMARK SMILES IDX 55 35 69 37 90 38 57 39 41 40 42 41 50 42 43 43 45 44 51 45
REMARK SMILES IDX 44 46 46 47 47 48 48 49 49 50 73 51 74 52 82 53 75 54 77 55
REMARK SMILES IDX 83 56 76 57 78 58 79 59 80 60 81 61 58 62 59 63 67 64 60 65
REMARK SMILES IDX 62 66 68 67 61 68 63 69 64 70 65 71 66 72 7 73 8 74 9 75
REMARK SMILES IDX 10 77 11 78 12 79 31 80 13 81 15 82 14 83 16 84 17 85 18 86
REMARK SMILES IDX 19 87 20 89 21 90 22 91 30 92 23 93 29 94 24 95 28 96 25 97
REMARK SMILES IDX 27 98 26 99
REMARK H PARENT 3 7 88 25 56 36 8 76 19 88
REMARK Flexibility Score: inf
ROOT
ATOM      1  C   UNL     1       4.220   2.184  -3.362  1.00  0.00     0.023 C 
ENDROOT
BRANCH   1   2
ATOM      2  C   UNL     1       4.788   0.986  -2.607  1.00  0.00     0.023 C 
BRANCH   2   3
ATOM      3  C   UNL     1       4.476   0.947  -1.117  1.00  0.00     0.116 C 
BRANCH   3   4
ATOM      4  N   UNL     1       3.050   0.905  -0.830  1.00  0.00    -0.352 N 
ATOM      5  O   UNL     1       1.117   0.052  -0.045  1.00  0.00    -0.269 OA
ATOM      6  C   UNL     1       2.342  -0.001  -0.071  1.00  0.00     0.251 C 
ATOM      7  H   UNL     1       2.516   1.626  -1.235  1.00  0.00     0.163 HD
BRANCH   6   8
ATOM      8  C   UNL     1       3.069  -1.051   0.676  1.00  0.00     0.039 A 
ATOM      9  C   UNL     1       4.214  -0.730   1.406  1.00  0.00     0.014 A 
ATOM     10  C   UNL     1       2.621  -2.374   0.620  1.00  0.00     0.014 A 
ATOM     11  C   UNL     1       5.005  -1.747   1.923  1.00  0.00     0.010 A 
ATOM     12  C   UNL     1       3.366  -3.387   1.234  1.00  0.00     0.010 A 
ATOM     13  C   UNL     1       4.587  -3.088   1.857  1.00  0.00    -0.014 A 
BRANCH  13  14
ATOM     14  C   UNL     1       5.418  -4.125   2.523  1.00  0.00     0.031 A 
ATOM     15  C   UNL     1       6.072  -5.239   1.751  1.00  0.00     0.074 A 
ATOM     16  C   UNL     1       5.616  -4.017   3.852  1.00  0.00     0.049 A 
ATOM     17  N   UNL     1       6.896  -6.159   2.184  1.00  0.00    -0.248 NA
ATOM     18  C   UNL     1       5.761  -5.346   0.316  1.00  0.00     0.031 C 
ATOM     19  C   UNL     1       4.985  -3.014   4.714  1.00  0.00     0.029 A 
ATOM     20  N   UNL     1       6.410  -4.735   4.708  1.00  0.00    -0.354 N 
ATOM     21  C   UNL     1       7.178  -6.971   1.092  1.00  0.00     0.074 A 
ATOM     22  C   UNL     1       6.428  -6.441  -0.027  1.00  0.00     0.031 C 
ATOM     23  C   UNL     1       5.452  -3.147   5.963  1.00  0.00     0.029 A 
ATOM     24  C   UNL     1       6.372  -4.277   6.004  1.00  0.00     0.049 A 
ATOM     25  H   UNL     1       6.955  -5.503   4.422  1.00  0.00     0.167 HD
ATOM     26  C   UNL     1       8.003  -8.044   1.024  1.00  0.00     0.034 A 
ATOM     27  C   UNL     1       7.001  -4.718   7.110  1.00  0.00     0.034 A 
ATOM     28  C   UNL     1       8.774  -8.545   2.134  1.00  0.00     0.049 A 
ATOM     29  C   UNL     1       7.949  -5.874   6.989  1.00  0.00     0.074 A 
ATOM     30  C   UNL     1       9.668  -9.602   2.153  1.00  0.00     0.029 A 
ATOM     31  N   UNL     1       8.748  -8.024   3.418  1.00  0.00    -0.354 N 
ATOM     32  N   UNL     1       8.291  -6.549   5.918  1.00  0.00    -0.248 NA
ATOM     33  C   UNL     1       8.617  -6.314   8.220  1.00  0.00     0.031 C 
ATOM     34  C   UNL     1      10.176  -9.725   3.451  1.00  0.00     0.029 A 
ATOM     35  C   UNL     1       9.608  -8.737   4.238  1.00  0.00     0.049 A 
ATOM     36  H   UNL     1       8.198  -7.260   3.706  1.00  0.00     0.167 HD
ATOM     37  C   UNL     1       9.220  -7.489   6.345  1.00  0.00     0.074 A 
ATOM     38  C   UNL     1       9.422  -7.263   7.762  1.00  0.00     0.031 C 
ATOM     39  C   UNL     1       9.826  -8.472   5.636  1.00  0.00     0.034 A 
BRANCH  26  40
ATOM     40  C   UNL     1       8.168  -8.729  -0.309  1.00  0.00     0.023 A 
ATOM     41  C   UNL     1       8.958  -8.118  -1.303  1.00  0.00     0.012 A 
ATOM     42  C   UNL     1       7.630 -10.011  -0.545  1.00  0.00     0.148 A 
ATOM     43  C   UNL     1       9.197  -8.761  -2.517  1.00  0.00     0.002 A 
ATOM     44  C   UNL     1       7.903 -10.661  -1.744  1.00  0.00     0.091 A 
ATOM     45  F   UNL     1       6.868 -10.569   0.406  1.00  0.00    -0.205 F 
ATOM     46  C   UNL     1       8.680 -10.036  -2.733  1.00  0.00     0.022 A 
BRANCH  44  47
ATOM     47  S   UNL     1       7.344 -12.334  -2.094  1.00  0.00     0.127 S 
ATOM     48  O   UNL     1       6.340 -12.098  -3.131  1.00  0.00    -0.237 OA
ATOM     49  O   UNL     1       8.570 -12.976  -2.567  1.00  0.00    -0.237 OA
ATOM     50  O   UNL     1       6.830 -12.857  -0.836  1.00  0.00    -0.744 OA
ENDBRANCH  44  47
ENDBRANCH  26  40
BRANCH  27  51
ATOM     51  C   UNL     1       6.779  -4.026   8.409  1.00  0.00     0.023 A 
ATOM     52  C   UNL     1       7.824  -3.287   8.995  1.00  0.00     0.012 A 
ATOM     53  C   UNL     1       5.520  -4.051   9.040  1.00  0.00     0.148 A 
ATOM     54  C   UNL     1       7.626  -2.606  10.197  1.00  0.00     0.002 A 
ATOM     55  C   UNL     1       5.311  -3.316  10.201  1.00  0.00     0.091 A 
ATOM     56  F   UNL     1       4.541  -4.777   8.483  1.00  0.00    -0.205 F 
ATOM     57  C   UNL     1       6.366  -2.608  10.792  1.00  0.00     0.022 A 
BRANCH  55  58
ATOM     58  S   UNL     1       3.671  -3.144  10.914  1.00  0.00     0.127 S 
ATOM     59  O   UNL     1       3.684  -4.171  11.951  1.00  0.00    -0.237 OA
ATOM     60  O   UNL     1       3.689  -1.767  11.410  1.00  0.00    -0.237 OA
ATOM     61  O   UNL     1       2.754  -3.360   9.802  1.00  0.00    -0.744 OA
ENDBRANCH  55  58
ENDBRANCH  27  51
BRANCH  39  62
ATOM     62  C   UNL     1      10.762  -9.378   6.391  1.00  0.00     0.023 A 
ATOM     63  C   UNL     1      10.231 -10.333   7.281  1.00  0.00     0.012 A 
ATOM     64  C   UNL     1      12.155  -9.309   6.199  1.00  0.00     0.148 A 
ATOM     65  C   UNL     1      11.073 -11.180   7.999  1.00  0.00     0.002 A 
ATOM     66  C   UNL     1      12.987 -10.186   6.886  1.00  0.00     0.091 A 
ATOM     67  F   UNL     1      12.644  -8.378   5.367  1.00  0.00    -0.205 F 
ATOM     68  C   UNL     1      12.450 -11.113   7.795  1.00  0.00     0.022 A 
BRANCH  66  69
ATOM     69  S   UNL     1      14.763 -10.220   6.620  1.00  0.00     0.127 S 
ATOM     70  O   UNL     1      15.253  -9.475   7.778  1.00  0.00    -0.237 OA
ATOM     71  O   UNL     1      15.059 -11.653   6.646  1.00  0.00    -0.237 OA
ATOM     72  O   UNL     1      14.978  -9.588   5.325  1.00  0.00    -0.744 OA
ENDBRANCH  66  69
ENDBRANCH  39  62
ENDBRANCH  13  14
ENDBRANCH   6   8
ENDBRANCH   3   4
ENDBRANCH   2   3
ENDBRANCH   1   2
BRANCH   1  73
ATOM     73  C   UNL     1       4.546   3.544  -2.756  1.00  0.00     0.116 C 
BRANCH  73  74
ATOM     74  N   UNL     1       5.979   3.781  -2.679  1.00  0.00    -0.352 N 
ATOM     75  C   UNL     1       6.762   4.688  -3.343  1.00  0.00     0.251 C 
ATOM     76  H   UNL     1       6.462   3.198  -2.050  1.00  0.00     0.163 HD
ATOM     77  O   UNL     1       7.985   4.591  -3.297  1.00  0.00    -0.269 OA
BRANCH  75  78
ATOM     78  C   UNL     1       6.163   5.831  -4.066  1.00  0.00     0.041 A 
ATOM     79  C   UNL     1       6.729   6.268  -5.266  1.00  0.00     0.014 A 
ATOM     80  C   UNL     1       5.136   6.569  -3.482  1.00  0.00     0.035 A 
ATOM     81  C   UNL     1       6.241   7.422  -5.888  1.00  0.00     0.002 A 
ATOM     82  C   UNL     1       4.686   7.746  -4.072  1.00  0.00     0.083 A 
ATOM     83  C   UNL     1       5.222   8.171  -5.289  1.00  0.00     0.022 A 
BRANCH  82  84
ATOM     84  S   UNL     1       3.455   8.729  -3.255  1.00  0.00     0.240 S 
ATOM     85  O   UNL     1       4.062   9.976  -2.859  1.00  0.00    -0.207 OA
ATOM     86  O   UNL     1       2.270   8.668  -4.082  1.00  0.00    -0.207 OA
BRANCH  84  87
ATOM     87  N   UNL     1       3.084   7.834  -1.868  1.00  0.00    -0.207 NA
ATOM     88  H   UNL     1       3.381   6.877  -2.055  1.00  0.00     0.141 HD
BRANCH  87  89
ATOM     89  C   UNL     1       3.647   8.197  -0.537  1.00  0.00     0.147 C 
BRANCH  89  90
ATOM     90  C   UNL     1       5.186   8.288  -0.437  1.00  0.00     0.226 C 
ATOM     91  C   UNL     1       5.879   6.981  -0.037  1.00  0.00     0.276 C 
ATOM     92  O   UNL     1       5.531   9.338   0.492  1.00  0.00    -0.482 OA
ATOM     93  O   UNL     1       5.469   6.548   1.260  1.00  0.00    -0.486 OA
ATOM     94  C   UNL     1       5.693   8.907   1.783  1.00  0.00     0.161 A 
ATOM     95  C   UNL     1       5.652   7.563   2.161  1.00  0.00     0.161 A 
ATOM     96  C   UNL     1       5.928   9.888   2.743  1.00  0.00     0.050 A 
ATOM     97  C   UNL     1       5.804   7.198   3.496  1.00  0.00     0.050 A 
ATOM     98  C   UNL     1       6.109   9.523   4.079  1.00  0.00     0.004 A 
ATOM     99  C   UNL     1       6.042   8.181   4.455  1.00  0.00     0.004 A 
ENDBRANCH  89  90
ENDBRANCH  87  89
ENDBRANCH  84  87
ENDBRANCH  82  84
ENDBRANCH  75  78
ENDBRANCH  73  74
ENDBRANCH   1  73
TORSDOF 18
