REMARK SMILES CN1C(=O)C[C@H](C(=O)Nc2ccc(C(=O)NCCCCNC(=O)c3ccc(-c4c5nc(c(-c6cccc(S(=O)(=O)[O-])c6F)c6ccc([nH]6)c(-c6cccc(S(=O)(=O)[O-])c6F)c6nc(c(-c7cccc(S(=O)(=O)[O-])c7F)c7ccc4[nH]7)C=C6)C=C5)cc3)cc2)S/C1=[NH+]\c1cccc(C(F)(F)F)c1
REMARK SMILES IDX 18 1 17 2 16 3 14 4 15 5 13 7 10 8 11 9 88 10 12 11 87 12
REMARK SMILES IDX 9 13 7 14 8 15 6 17 1 18 2 19 3 20 90 21 4 22 5 23 89 24
REMARK SMILES IDX 91 25 92 27 93 28 101 29 94 30 96 31 95 32 97 33 98 34 99 35
REMARK SMILES IDX 100 36 19 37 20 38 21 39 22 40 23 42 24 43 25 44 86 45 26 46
REMARK SMILES IDX 85 47 27 48 28 49 29 50 79 51 30 52 84 53 78 54 80 55 31 56
REMARK SMILES IDX 83 57 77 58 76 59 32 61 64 62 44 63 63 64 45 65 48 66 62 67
REMARK SMILES IDX 81 68 46 69 47 70 61 72 82 73 49 74 33 75 34 76 42 77 35 78
REMARK SMILES IDX 37 79 43 80 36 81 38 82 39 83 40 84 41 85 65 86 66 87 74 88
REMARK SMILES IDX 67 89 69 90 75 91 68 92 70 93 71 94 72 95 73 96 50 97 51 98
REMARK SMILES IDX 59 99 52 100 54 101 60 102 53 103 55 104 56 105 57 106
REMARK SMILES IDX 58 107
REMARK H PARENT 16 6 9 16 91 26 21 41 80 60 48 71
REMARK Flexibility Score: inf
ROOT
ATOM      1  C   UNL     1       0.959 -10.056  -3.019  1.00  0.00     0.023 C 
ENDROOT
BRANCH   1   2
ATOM      2  C   UNL     1       0.270  -9.029  -3.921  1.00  0.00     0.116 C 
BRANCH   2   3
ATOM      3  N   UNL     1      -1.083  -9.447  -4.241  1.00  0.00    -0.352 N 
ATOM      4  C   UNL     1      -2.303  -9.098  -3.720  1.00  0.00     0.251 C 
ATOM      5  O   UNL     1      -3.314  -9.582  -4.227  1.00  0.00    -0.269 OA
ATOM      6  H   UNL     1      -1.134 -10.107  -4.970  1.00  0.00     0.163 HD
BRANCH   4   7
ATOM      7  C   UNL     1      -2.464  -8.104  -2.622  1.00  0.00     0.039 A 
ATOM      8  C   UNL     1      -2.820  -6.017  -0.781  1.00  0.00     0.041 A 
ATOM      9  C   UNL     1      -3.838  -6.322  -1.679  1.00  0.00     0.027 A 
ATOM     10  C   UNL     1      -1.698  -6.843  -0.700  1.00  0.00     0.027 A 
ATOM     11  C   UNL     1      -3.644  -7.342  -2.616  1.00  0.00     0.016 A 
ATOM     12  C   UNL     1      -1.535  -7.898  -1.601  1.00  0.00     0.016 A 
BRANCH   8  13
ATOM     13  N   UNL     1      -2.945  -4.867   0.008  1.00  0.00    -0.325 N 
ATOM     14  C   UNL     1      -2.017  -3.866   0.181  1.00  0.00     0.238 C 
ATOM     15  O   UNL     1      -2.246  -2.977   1.004  1.00  0.00    -0.273 OA
ATOM     16  H   UNL     1      -3.794  -4.764   0.496  1.00  0.00     0.169 HD
BRANCH  14  17
ATOM     17  C   UNL     1      -0.801  -3.806  -0.749  1.00  0.00     0.160 C 
ATOM     18  C   UNL     1       0.874  -0.059   0.792  1.00  0.00     0.301 C 
ATOM     19  N   UNL     1       0.452  -1.341   0.243  1.00  0.00    -0.194 N 
ATOM     20  C   UNL     1      -0.381  -1.278  -0.871  1.00  0.00     0.311 C 
ATOM     21  C   UNL     1       0.810  -2.477   0.973  1.00  0.00     0.319 C 
ATOM     22  O   UNL     1      -0.784  -0.207  -1.340  1.00  0.00    -0.247 OA
ATOM     23  C   UNL     1      -0.780  -2.547  -1.576  1.00  0.00     0.153 C 
ATOM     24  S   UNL     1       0.729  -4.010   0.141  1.00  0.00    -0.024 SA
ATOM     25  N   UNL     1       1.232  -2.341   2.194  1.00  0.00    -0.235 N 
ATOM     26  H   UNL     1       1.397  -1.439   2.553  1.00  0.00     0.313 HD
BRANCH  25  27
ATOM     27  C   UNL     1       1.456  -3.459   3.006  1.00  0.00     0.126 A 
ATOM     28  C   UNL     1       0.483  -3.806   3.948  1.00  0.00     0.052 A 
ATOM     29  C   UNL     1       2.615  -4.231   2.900  1.00  0.00     0.064 A 
ATOM     30  C   UNL     1       0.639  -4.937   4.746  1.00  0.00     0.005 A 
ATOM     31  C   UNL     1       2.769  -5.394   3.671  1.00  0.00     0.060 A 
ATOM     32  C   UNL     1       1.773  -5.734   4.601  1.00  0.00     0.013 A 
BRANCH  31  33
ATOM     33  C   UNL     1       3.971  -6.285   3.495  1.00  0.00     0.416 C 
ATOM     34  F   UNL     1       4.766  -6.309   4.600  1.00  0.00    -0.166 F 
ATOM     35  F   UNL     1       3.624  -7.581   3.257  1.00  0.00    -0.166 F 
ATOM     36  F   UNL     1       4.777  -5.920   2.460  1.00  0.00    -0.166 F 
ENDBRANCH  31  33
ENDBRANCH  25  27
ENDBRANCH  14  17
ENDBRANCH   8  13
ENDBRANCH   4   7
ENDBRANCH   2   3
ENDBRANCH   1   2
BRANCH   1  37
ATOM     37  C   UNL     1       1.427 -11.320  -3.747  1.00  0.00     0.023 C 
BRANCH  37  38
ATOM     38  C   UNL     1       2.517 -11.098  -4.789  1.00  0.00     0.116 C 
BRANCH  38  39
ATOM     39  N   UNL     1       3.723 -10.497  -4.239  1.00  0.00    -0.352 N 
ATOM     40  C   UNL     1       5.031 -10.705  -4.615  1.00  0.00     0.251 C 
ATOM     41  H   UNL     1       3.586  -9.860  -3.502  1.00  0.00     0.163 HD
ATOM     42  O   UNL     1       5.943 -10.197  -3.977  1.00  0.00    -0.269 OA
BRANCH  40  43
ATOM     43  C   UNL     1       5.319 -11.579  -5.772  1.00  0.00     0.039 A 
ATOM     44  C   UNL     1       6.266 -12.596  -5.627  1.00  0.00     0.014 A 
ATOM     45  C   UNL     1       4.635 -11.416  -6.979  1.00  0.00     0.014 A 
ATOM     46  C   UNL     1       6.478 -13.494  -6.675  1.00  0.00     0.010 A 
ATOM     47  C   UNL     1       4.799 -12.351  -7.995  1.00  0.00     0.010 A 
ATOM     48  C   UNL     1       5.722 -13.398  -7.855  1.00  0.00    -0.014 A 
BRANCH  48  49
ATOM     49  C   UNL     1       5.867 -14.391  -8.949  1.00  0.00     0.031 A 
ATOM     50  C   UNL     1       6.371 -13.959 -10.299  1.00  0.00     0.074 A 
ATOM     51  C   UNL     1       5.453 -15.659  -8.755  1.00  0.00     0.049 A 
ATOM     52  N   UNL     1       6.503 -14.664 -11.392  1.00  0.00    -0.248 NA
ATOM     53  C   UNL     1       6.748 -12.544 -10.447  1.00  0.00     0.031 C 
ATOM     54  C   UNL     1       4.868 -16.178  -7.516  1.00  0.00     0.029 A 
ATOM     55  N   UNL     1       5.434 -16.735  -9.606  1.00  0.00    -0.354 N 
ATOM     56  C   UNL     1       6.942 -13.774 -12.365  1.00  0.00     0.074 A 
ATOM     57  C   UNL     1       7.022 -12.471 -11.742  1.00  0.00     0.031 C 
ATOM     58  C   UNL     1       4.551 -17.471  -7.688  1.00  0.00     0.029 A 
ATOM     59  C   UNL     1       4.886 -17.868  -9.052  1.00  0.00     0.049 A 
ATOM     60  H   UNL     1       5.780 -16.699 -10.527  1.00  0.00     0.167 HD
ATOM     61  C   UNL     1       7.282 -14.025 -13.652  1.00  0.00     0.034 A 
ATOM     62  C   UNL     1       4.676 -19.088  -9.584  1.00  0.00     0.034 A 
ATOM     63  C   UNL     1       7.251 -15.330 -14.253  1.00  0.00     0.049 A 
ATOM     64  C   UNL     1       5.111 -19.352 -11.000  1.00  0.00     0.074 A 
ATOM     65  C   UNL     1       7.662 -15.704 -15.520  1.00  0.00     0.029 A 
ATOM     66  N   UNL     1       6.783 -16.477 -13.629  1.00  0.00    -0.354 N 
ATOM     67  N   UNL     1       5.679 -18.536 -11.854  1.00  0.00    -0.248 NA
ATOM     68  C   UNL     1       4.910 -20.715 -11.514  1.00  0.00     0.031 C 
ATOM     69  C   UNL     1       7.430 -17.077 -15.666  1.00  0.00     0.029 A 
ATOM     70  C   UNL     1       6.890 -17.559 -14.485  1.00  0.00     0.049 A 
ATOM     71  H   UNL     1       6.426 -16.515 -12.712  1.00  0.00     0.167 HD
ATOM     72  C   UNL     1       5.937 -19.293 -12.991  1.00  0.00     0.074 A 
ATOM     73  C   UNL     1       5.481 -20.638 -12.709  1.00  0.00     0.031 C 
ATOM     74  C   UNL     1       6.486 -18.905 -14.169  1.00  0.00     0.034 A 
BRANCH  61  75
ATOM     75  C   UNL     1       7.781 -12.869 -14.478  1.00  0.00     0.023 A 
ATOM     76  C   UNL     1       9.060 -12.335 -14.217  1.00  0.00     0.012 A 
ATOM     77  C   UNL     1       7.017 -12.344 -15.538  1.00  0.00     0.148 A 
ATOM     78  C   UNL     1       9.557 -11.275 -14.973  1.00  0.00     0.002 A 
ATOM     79  C   UNL     1       7.537 -11.314 -16.315  1.00  0.00     0.091 A 
ATOM     80  F   UNL     1       5.794 -12.847 -15.757  1.00  0.00    -0.205 F 
ATOM     81  C   UNL     1       8.800 -10.772 -16.027  1.00  0.00     0.022 A 
BRANCH  79  82
ATOM     82  S   UNL     1       6.671 -10.648 -17.741  1.00  0.00     0.127 S 
ATOM     83  O   UNL     1       6.222  -9.352 -17.235  1.00  0.00    -0.237 OA
ATOM     84  O   UNL     1       7.735 -10.575 -18.744  1.00  0.00    -0.237 OA
ATOM     85  O   UNL     1       5.615 -11.602 -18.049  1.00  0.00    -0.744 OA
ENDBRANCH  79  82
ENDBRANCH  61  75
BRANCH  62  86
ATOM     86  C   UNL     1       4.100 -20.176  -8.744  1.00  0.00     0.023 A 
ATOM     87  C   UNL     1       4.928 -21.240  -8.336  1.00  0.00     0.012 A 
ATOM     88  C   UNL     1       2.757 -20.150  -8.321  1.00  0.00     0.148 A 
ATOM     89  C   UNL     1       4.423 -22.274  -7.548  1.00  0.00     0.002 A 
ATOM     90  C   UNL     1       2.273 -21.157  -7.492  1.00  0.00     0.091 A 
ATOM     91  F   UNL     1       1.981 -19.137  -8.731  1.00  0.00    -0.205 F 
ATOM     92  C   UNL     1       3.100 -22.228  -7.117  1.00  0.00     0.022 A 
BRANCH  90  93
ATOM     93  S   UNL     1       0.622 -21.108  -6.785  1.00  0.00     0.127 S 
ATOM     94  O   UNL     1      -0.064 -22.141  -7.557  1.00  0.00    -0.237 OA
ATOM     95  O   UNL     1       0.880 -21.453  -5.386  1.00  0.00    -0.237 OA
ATOM     96  O   UNL     1       0.152 -19.744  -6.987  1.00  0.00    -0.744 OA
ENDBRANCH  90  93
ENDBRANCH  62  86
BRANCH  74  97
ATOM     97  C   UNL     1       6.657 -19.951 -15.238  1.00  0.00     0.023 A 
ATOM     98  C   UNL     1       5.531 -20.419 -15.942  1.00  0.00     0.012 A 
ATOM     99  C   UNL     1       7.940 -20.410 -15.598  1.00  0.00     0.148 A 
ATOM    100  C   UNL     1       5.675 -21.350 -16.971  1.00  0.00     0.002 A 
ATOM    101  C   UNL     1       8.080 -21.302 -16.655  1.00  0.00     0.091 A 
ATOM    102  F   UNL     1       8.997 -19.968 -14.902  1.00  0.00    -0.205 F 
ATOM    103  C   UNL     1       6.949 -21.781 -17.335  1.00  0.00     0.022 A 
BRANCH 101 104
ATOM    104  S   UNL     1       9.688 -21.837 -17.252  1.00  0.00     0.127 S 
ATOM    105  O   UNL     1       9.760 -23.202 -16.733  1.00  0.00    -0.237 OA
ATOM    106  O   UNL     1       9.529 -21.744 -18.703  1.00  0.00    -0.237 OA
ATOM    107  O   UNL     1      10.653 -20.901 -16.691  1.00  0.00    -0.744 OA
ENDBRANCH 101 104
ENDBRANCH  74  97
ENDBRANCH  48  49
ENDBRANCH  40  43
ENDBRANCH  38  39
ENDBRANCH  37  38
ENDBRANCH   1  37
TORSDOF 18
