REMARK SMILES COC(=O)c1ccc([C@H]2Nc3c(C(=O)NCCCCNC(=O)c4ccc(-c5c6nc(c(-c7cccc(S(=O)(=O)[O-])c7F)c7ccc([nH]7)c(-c7cccc(S(=O)(=O)[O-])c7F)c7nc(c(-c8cccc(S(=O)(=O)[O-])c8F)c8ccc5[nH]8)C=C7)C=C6)cc4)cccc3[C@H]3[C@H]4CC[C@H](C4)[C@H]32)cc1
REMARK SMILES IDX 17 1 16 2 15 3 13 4 14 5 12 7 9 8 10 9 96 10 11 11 90 13
REMARK SMILES IDX 94 14 89 15 91 16 93 17 95 18 86 19 88 20 92 21 87 22 8 23
REMARK SMILES IDX 5 24 6 25 98 26 7 27 97 28 3 29 4 30 2 31 1 32 18 33 19 34
REMARK SMILES IDX 20 35 21 36 22 38 23 39 24 40 85 41 25 42 84 43 26 44 27 45
REMARK SMILES IDX 28 46 78 47 29 48 83 49 77 50 79 51 30 52 82 53 76 54 75 55
REMARK SMILES IDX 31 57 63 58 43 59 62 60 44 61 47 62 61 63 80 64 45 65 46 66
REMARK SMILES IDX 60 68 81 69 48 70 32 71 33 72 41 73 34 74 36 75 42 76 35 77
REMARK SMILES IDX 37 78 38 79 39 80 40 81 64 82 65 83 73 84 66 85 68 86 74 87
REMARK SMILES IDX 67 88 69 89 70 90 71 91 72 92 49 93 50 94 58 95 51 96 53 97
REMARK SMILES IDX 59 98 52 99 54 100 55 101 56 102 57 103
REMARK H PARENT 15 6 10 12 20 37 79 56 47 67
REMARK Flexibility Score: inf
ROOT
ATOM      1  C   UNL     1      -4.103  14.058   2.589  1.00  0.00     0.023 C 
ENDROOT
BRANCH   1   2
ATOM      2  C   UNL     1      -4.181  12.895   1.614  1.00  0.00     0.116 C 
BRANCH   2   3
ATOM      3  N   UNL     1      -2.879  12.424   1.167  1.00  0.00    -0.352 N 
ATOM      4  C   UNL     1      -2.340  11.164   1.313  1.00  0.00     0.253 C 
ATOM      5  O   UNL     1      -1.169  10.948   1.018  1.00  0.00    -0.269 OA
ATOM      6  H   UNL     1      -2.315  13.085   0.705  1.00  0.00     0.163 HD
BRANCH   4   7
ATOM      7  C   UNL     1      -3.195  10.106   1.900  1.00  0.00     0.063 A 
ATOM      8  C   UNL     1      -0.961   7.801   3.339  1.00  0.00     0.113 C 
ATOM      9  N   UNL     1      -1.385   9.220   3.325  1.00  0.00    -0.377 N 
ATOM     10  C   UNL     1      -1.744   7.134   4.504  1.00  0.00     0.027 C 
ATOM     11  C   UNL     1      -2.754   9.353   2.994  1.00  0.00     0.051 A 
ATOM     12  H   UNL     1      -0.788   9.977   3.522  1.00  0.00     0.161 HD
ATOM     13  C   UNL     1      -3.141   7.742   4.830  1.00  0.00     0.030 C 
ATOM     14  C   UNL     1      -1.944   5.624   4.753  1.00  0.00    -0.005 C 
ATOM     15  C   UNL     1      -3.682   8.548   3.685  1.00  0.00    -0.020 A 
ATOM     16  C   UNL     1      -3.919   6.512   5.367  1.00  0.00    -0.003 C 
ATOM     17  C   UNL     1      -2.956   4.946   3.821  1.00  0.00     0.004 C 
ATOM     18  C   UNL     1      -2.797   5.706   6.043  1.00  0.00     0.008 C 
ATOM     19  C   UNL     1      -4.480   9.896   1.381  1.00  0.00     0.016 A 
ATOM     20  C   UNL     1      -5.024   8.538   3.291  1.00  0.00     0.006 A 
ATOM     21  C   UNL     1      -4.305   5.532   4.251  1.00  0.00     0.004 C 
ATOM     22  C   UNL     1      -5.405   9.148   2.099  1.00  0.00     0.001 A 
BRANCH   8  23
ATOM     23  C   UNL     1      -0.843   7.408   1.857  1.00  0.00    -0.025 A 
ATOM     24  C   UNL     1      -0.699   7.659  -0.974  1.00  0.00     0.060 A 
ATOM     25  C   UNL     1       0.413   7.955  -0.187  1.00  0.00     0.016 A 
ATOM     26  C   UNL     1      -1.851   7.152  -0.362  1.00  0.00     0.016 A 
ATOM     27  C   UNL     1       0.343   7.825   1.203  1.00  0.00     0.007 A 
ATOM     28  C   UNL     1      -1.919   7.025   1.041  1.00  0.00     0.007 A 
BRANCH  24  29
ATOM     29  C   UNL     1      -0.614   7.973  -2.425  1.00  0.00     0.337 C 
ATOM     30  O   UNL     1       0.443   8.030  -3.038  1.00  0.00    -0.246 OA
BRANCH  29  31
ATOM     31  O   UNL     1      -1.841   8.258  -2.933  1.00  0.00    -0.465 OA
ATOM     32  C   UNL     1      -1.798   8.754  -4.276  1.00  0.00     0.282 C 
ENDBRANCH  29  31
ENDBRANCH  24  29
ENDBRANCH   8  23
ENDBRANCH   4   7
ENDBRANCH   2   3
ENDBRANCH   1   2
BRANCH   1  33
ATOM     33  C   UNL     1      -3.594  15.357   1.985  1.00  0.00     0.023 C 
BRANCH  33  34
ATOM     34  C   UNL     1      -4.314  15.803   0.720  1.00  0.00     0.116 C 
BRANCH  34  35
ATOM     35  N   UNL     1      -5.749  15.981   0.905  1.00  0.00    -0.352 N 
ATOM     36  C   UNL     1      -6.533  17.066   0.591  1.00  0.00     0.251 C 
ATOM     37  H   UNL     1      -6.222  15.219   1.311  1.00  0.00     0.163 HD
ATOM     38  O   UNL     1      -7.712  17.095   0.931  1.00  0.00    -0.269 OA
BRANCH  36  39
ATOM     39  C   UNL     1      -5.935  18.209  -0.131  1.00  0.00     0.039 A 
ATOM     40  C   UNL     1      -6.156  19.502   0.347  1.00  0.00     0.014 A 
ATOM     41  C   UNL     1      -5.118  17.998  -1.244  1.00  0.00     0.014 A 
ATOM     42  C   UNL     1      -5.494  20.578  -0.247  1.00  0.00     0.010 A 
ATOM     43  C   UNL     1      -4.390  19.058  -1.773  1.00  0.00     0.010 A 
ATOM     44  C   UNL     1      -4.572  20.360  -1.285  1.00  0.00    -0.014 A 
BRANCH  44  45
ATOM     45  C   UNL     1      -3.777  21.475  -1.861  1.00  0.00     0.031 A 
ATOM     46  C   UNL     1      -3.904  21.823  -3.320  1.00  0.00     0.074 A 
ATOM     47  C   UNL     1      -2.872  22.114  -1.095  1.00  0.00     0.049 A 
ATOM     48  N   UNL     1      -3.261  22.728  -4.011  1.00  0.00    -0.248 NA
ATOM     49  C   UNL     1      -4.857  21.030  -4.114  1.00  0.00     0.031 C 
ATOM     50  C   UNL     1      -2.594  21.819   0.313  1.00  0.00     0.029 A 
ATOM     51  N   UNL     1      -1.999  23.130  -1.397  1.00  0.00    -0.354 N 
ATOM     52  C   UNL     1      -3.698  22.587  -5.322  1.00  0.00     0.074 A 
ATOM     53  C   UNL     1      -4.634  21.484  -5.338  1.00  0.00     0.031 C 
ATOM     54  C   UNL     1      -1.631  22.643   0.754  1.00  0.00     0.029 A 
ATOM     55  C   UNL     1      -1.196  23.501  -0.343  1.00  0.00     0.049 A 
ATOM     56  H   UNL     1      -1.952  23.553  -2.285  1.00  0.00     0.167 HD
ATOM     57  C   UNL     1      -3.373  23.324  -6.411  1.00  0.00     0.034 A 
ATOM     58  C   UNL     1      -0.217  24.423  -0.269  1.00  0.00     0.034 A 
ATOM     59  C   UNL     1      -2.469  24.442  -6.385  1.00  0.00     0.049 A 
ATOM     60  C   UNL     1       0.106  25.248  -1.485  1.00  0.00     0.074 A 
ATOM     61  C   UNL     1      -2.150  25.314  -7.410  1.00  0.00     0.029 A 
ATOM     62  N   UNL     1      -1.724  24.832  -5.282  1.00  0.00    -0.354 N 
ATOM     63  N   UNL     1      -0.439  25.212  -2.676  1.00  0.00    -0.248 NA
ATOM     64  C   UNL     1       1.157  26.266  -1.336  1.00  0.00     0.031 C 
ATOM     65  C   UNL     1      -1.183  26.208  -6.938  1.00  0.00     0.029 A 
ATOM     66  C   UNL     1      -0.931  25.919  -5.606  1.00  0.00     0.049 A 
ATOM     67  H   UNL     1      -1.756  24.399  -4.398  1.00  0.00     0.167 HD
ATOM     68  C   UNL     1       0.173  26.223  -3.408  1.00  0.00     0.074 A 
ATOM     69  C   UNL     1       1.119  26.866  -2.519  1.00  0.00     0.031 C 
ATOM     70  C   UNL     1      -0.024  26.581  -4.701  1.00  0.00     0.034 A 
BRANCH  57  71
ATOM     71  C   UNL     1      -4.030  22.961  -7.718  1.00  0.00     0.023 A 
ATOM     72  C   UNL     1      -5.413  23.182  -7.894  1.00  0.00     0.012 A 
ATOM     73  C   UNL     1      -3.277  22.435  -8.786  1.00  0.00     0.148 A 
ATOM     74  C   UNL     1      -6.043  22.840  -9.090  1.00  0.00     0.002 A 
ATOM     75  C   UNL     1      -3.902  22.144  -9.992  1.00  0.00     0.091 A 
ATOM     76  F   UNL     1      -1.969  22.211  -8.597  1.00  0.00    -0.205 F 
ATOM     77  C   UNL     1      -5.286  22.331 -10.141  1.00  0.00     0.022 A 
BRANCH  75  78
ATOM     78  S   UNL     1      -3.000  21.564 -11.433  1.00  0.00     0.127 S 
ATOM     79  O   UNL     1      -3.415  20.163 -11.496  1.00  0.00    -0.237 OA
ATOM     80  O   UNL     1      -3.544  22.408 -12.498  1.00  0.00    -0.237 OA
ATOM     81  O   UNL     1      -1.592  21.788 -11.141  1.00  0.00    -0.744 OA
ENDBRANCH  75  78
ENDBRANCH  57  71
BRANCH  58  82
ATOM     82  C   UNL     1       0.477  24.665   1.027  1.00  0.00     0.023 A 
ATOM     83  C   UNL     1       0.234  25.864   1.726  1.00  0.00     0.012 A 
ATOM     84  C   UNL     1       1.341  23.705   1.589  1.00  0.00     0.148 A 
ATOM     85  C   UNL     1       0.859  26.115   2.947  1.00  0.00     0.002 A 
ATOM     86  C   UNL     1       1.917  23.938   2.833  1.00  0.00     0.091 A 
ATOM     87  F   UNL     1       1.562  22.574   0.905  1.00  0.00    -0.205 F 
ATOM     88  C   UNL     1       1.692  25.149   3.505  1.00  0.00     0.022 A 
BRANCH  86  89
ATOM     89  S   UNL     1       2.901  22.704   3.690  1.00  0.00     0.127 S 
ATOM     90  O   UNL     1       4.218  23.336   3.715  1.00  0.00    -0.237 OA
ATOM     91  O   UNL     1       2.226  22.633   4.986  1.00  0.00    -0.237 OA
ATOM     92  O   UNL     1       2.800  21.491   2.890  1.00  0.00    -0.744 OA
ENDBRANCH  86  89
ENDBRANCH  58  82
BRANCH  70  93
ATOM     93  C   UNL     1       0.766  27.748  -5.234  1.00  0.00     0.023 A 
ATOM     94  C   UNL     1       2.149  27.616  -5.470  1.00  0.00     0.012 A 
ATOM     95  C   UNL     1       0.121  28.955  -5.571  1.00  0.00     0.148 A 
ATOM     96  C   UNL     1       2.883  28.677  -5.999  1.00  0.00     0.002 A 
ATOM     97  C   UNL     1       0.848  29.989  -6.148  1.00  0.00     0.091 A 
ATOM     98  F   UNL     1      -1.192  29.068  -5.324  1.00  0.00    -0.205 F 
ATOM     99  C   UNL     1       2.231  29.857  -6.350  1.00  0.00     0.022 A 
BRANCH  97 100
ATOM    100  S   UNL     1       0.076  31.506  -6.724  1.00  0.00     0.127 S 
ATOM    101  O   UNL     1       0.564  32.477  -5.746  1.00  0.00    -0.237 OA
ATOM    102  O   UNL     1       0.643  31.652  -8.064  1.00  0.00    -0.237 OA
ATOM    103  O   UNL     1      -1.360  31.262  -6.698  1.00  0.00    -0.744 OA
ENDBRANCH  97 100
ENDBRANCH  70  93
ENDBRANCH  44  45
ENDBRANCH  36  39
ENDBRANCH  34  35
ENDBRANCH  33  34
ENDBRANCH   1  33
TORSDOF 17
