REMARK SMILES O=C(NCCCCNC(=O)c1ccc(NC2CC2)c(F)c1F)c1ccc(-c2c3nc(c(-c4cccc(S(=O)(=O)[O-])c4F)c4ccc([nH]4)c(-c4cccc(S(=O)(=O)[O-])c4F)c4nc(c(-c5cccc(S(=O)(=O)[O-])c5F)c5ccc2[nH]5)C=C4)C=C3)cc1
REMARK SMILES IDX 5 1 4 2 3 3 1 4 2 5 23 7 24 8 85 9 25 10 84 11 26 12 27 13
REMARK SMILES IDX 28 14 78 15 29 16 83 17 77 18 79 19 30 20 82 21 76 22 75 23
REMARK SMILES IDX 31 25 63 26 43 27 62 28 44 29 47 30 61 31 80 32 45 33 46 34
REMARK SMILES IDX 60 36 81 37 48 38 32 39 33 40 41 41 34 42 36 43 42 44 35 45
REMARK SMILES IDX 37 46 38 47 39 48 40 49 64 50 65 51 73 52 66 53 68 54 74 55
REMARK SMILES IDX 67 56 69 57 70 58 71 59 72 60 49 61 50 62 58 63 51 64 53 65
REMARK SMILES IDX 59 66 52 67 54 68 55 69 56 70 57 71 6 72 7 73 8 74 9 75
REMARK SMILES IDX 10 77 11 78 12 79 21 80 13 81 19 82 22 83 14 84 20 85 15 86
REMARK SMILES IDX 16 88 17 89 18 90
REMARK H PARENT 3 6 79 24 47 35 8 76 15 87
REMARK Flexibility Score: inf
ROOT
ATOM      1  C   UNL     1       5.044  -1.752  -1.994  1.00  0.00     0.023 C 
ENDROOT
BRANCH   1   2
ATOM      2  C   UNL     1       4.704  -0.476  -1.235  1.00  0.00     0.116 C 
BRANCH   2   3
ATOM      3  N   UNL     1       3.272  -0.243  -1.125  1.00  0.00    -0.352 N 
ATOM      4  O   UNL     1       1.286  -0.004  -0.087  1.00  0.00    -0.269 OA
ATOM      5  C   UNL     1       2.510  -0.043   0.004  1.00  0.00     0.251 C 
ATOM      6  H   UNL     1       2.779  -0.227  -1.977  1.00  0.00     0.163 HD
BRANCH   5   7
ATOM      7  C   UNL     1       3.172   0.091   1.320  1.00  0.00     0.039 A 
ATOM      8  C   UNL     1       4.298   0.903   1.469  1.00  0.00     0.014 A 
ATOM      9  C   UNL     1       2.671  -0.620   2.414  1.00  0.00     0.014 A 
ATOM     10  C   UNL     1       5.015   0.878   2.659  1.00  0.00     0.010 A 
ATOM     11  C   UNL     1       3.344  -0.572   3.639  1.00  0.00     0.010 A 
ATOM     12  C   UNL     1       4.542   0.147   3.762  1.00  0.00    -0.014 A 
BRANCH  12  13
ATOM     13  C   UNL     1       5.282   0.215   5.049  1.00  0.00     0.031 A 
ATOM     14  C   UNL     1       5.913  -1.005   5.661  1.00  0.00     0.074 A 
ATOM     15  C   UNL     1       5.382   1.409   5.668  1.00  0.00     0.049 A 
ATOM     16  N   UNL     1       6.617  -1.099   6.760  1.00  0.00    -0.248 NA
ATOM     17  C   UNL     1       5.728  -2.286   4.960  1.00  0.00     0.031 C 
ATOM     18  C   UNL     1       4.766   2.652   5.197  1.00  0.00     0.029 A 
ATOM     19  N   UNL     1       6.029   1.775   6.819  1.00  0.00    -0.354 N 
ATOM     20  C   UNL     1       6.922  -2.447   6.908  1.00  0.00     0.074 A 
ATOM     21  C   UNL     1       6.324  -3.137   5.785  1.00  0.00     0.031 C 
ATOM     22  C   UNL     1       5.084   3.647   6.036  1.00  0.00     0.029 A 
ATOM     23  C   UNL     1       5.882   3.106   7.130  1.00  0.00     0.049 A 
ATOM     24  H   UNL     1       6.550   1.146   7.370  1.00  0.00     0.167 HD
ATOM     25  C   UNL     1       7.647  -3.050   7.882  1.00  0.00     0.034 A 
ATOM     26  C   UNL     1       6.325   3.816   8.185  1.00  0.00     0.034 A 
ATOM     27  C   UNL     1       8.277  -2.351   8.972  1.00  0.00     0.049 A 
ATOM     28  C   UNL     1       7.160   3.128   9.225  1.00  0.00     0.074 A 
ATOM     29  C   UNL     1       9.098  -2.865   9.962  1.00  0.00     0.029 A 
ATOM     30  N   UNL     1       8.152  -0.994   9.224  1.00  0.00    -0.354 N 
ATOM     31  N   UNL     1       7.555   1.879   9.269  1.00  0.00    -0.248 NA
ATOM     32  C   UNL     1       7.635   3.951  10.346  1.00  0.00     0.031 C 
ATOM     33  C   UNL     1       9.452  -1.821  10.823  1.00  0.00     0.029 A 
ATOM     34  C   UNL     1       8.869  -0.653  10.359  1.00  0.00     0.049 A 
ATOM     35  H   UNL     1       7.630  -0.364   8.676  1.00  0.00     0.167 HD
ATOM     36  C   UNL     1       8.340   1.768  10.409  1.00  0.00     0.074 A 
ATOM     37  C   UNL     1       8.390   3.086  11.010  1.00  0.00     0.031 C 
ATOM     38  C   UNL     1       8.947   0.671  10.922  1.00  0.00     0.034 A 
BRANCH  25  39
ATOM     39  C   UNL     1       7.842  -4.542   7.798  1.00  0.00     0.023 A 
ATOM     40  C   UNL     1       8.739  -5.074   6.849  1.00  0.00     0.012 A 
ATOM     41  C   UNL     1       7.207  -5.409   8.709  1.00  0.00     0.148 A 
ATOM     42  C   UNL     1       8.984  -6.446   6.794  1.00  0.00     0.002 A 
ATOM     43  C   UNL     1       7.485  -6.771   8.673  1.00  0.00     0.091 A 
ATOM     44  F   UNL     1       6.342  -4.888   9.591  1.00  0.00    -0.205 F 
ATOM     45  C   UNL     1       8.366  -7.292   7.711  1.00  0.00     0.022 A 
BRANCH  43  46
ATOM     46  S   UNL     1       6.796  -7.931   9.860  1.00  0.00     0.127 S 
ATOM     47  O   UNL     1       5.811  -8.639   9.043  1.00  0.00    -0.237 OA
ATOM     48  O   UNL     1       7.966  -8.729  10.229  1.00  0.00    -0.237 OA
ATOM     49  O   UNL     1       6.250  -7.122  10.940  1.00  0.00    -0.744 OA
ENDBRANCH  43  46
ENDBRANCH  25  39
BRANCH  26  50
ATOM     50  C   UNL     1       6.018   5.270   8.269  1.00  0.00     0.023 A 
ATOM     51  C   UNL     1       7.050   6.209   8.083  1.00  0.00     0.012 A 
ATOM     52  C   UNL     1       4.699   5.726   8.461  1.00  0.00     0.148 A 
ATOM     53  C   UNL     1       6.777   7.577   8.105  1.00  0.00     0.002 A 
ATOM     54  C   UNL     1       4.424   7.087   8.422  1.00  0.00     0.091 A 
ATOM     55  F   UNL     1       3.734   4.815   8.653  1.00  0.00    -0.205 F 
ATOM     56  C   UNL     1       5.463   8.015   8.260  1.00  0.00     0.022 A 
BRANCH  54  57
ATOM     57  S   UNL     1       2.745   7.723   8.458  1.00  0.00     0.127 S 
ATOM     58  O   UNL     1       2.658   8.261   9.812  1.00  0.00    -0.237 OA
ATOM     59  O   UNL     1       2.777   8.729   7.395  1.00  0.00    -0.237 OA
ATOM     60  O   UNL     1       1.890   6.579   8.170  1.00  0.00    -0.744 OA
ENDBRANCH  54  57
ENDBRANCH  26  50
BRANCH  38  61
ATOM     61  C   UNL     1       9.732   0.846  12.195  1.00  0.00     0.023 A 
ATOM     62  C   UNL     1       9.049   1.024  13.414  1.00  0.00     0.012 A 
ATOM     63  C   UNL     1      11.138   0.772  12.193  1.00  0.00     0.148 A 
ATOM     64  C   UNL     1       9.755   1.157  14.609  1.00  0.00     0.002 A 
ATOM     65  C   UNL     1      11.834   0.860  13.393  1.00  0.00     0.091 A 
ATOM     66  F   UNL     1      11.771   0.625  11.019  1.00  0.00    -0.205 F 
ATOM     67  C   UNL     1      11.145   1.063  14.600  1.00  0.00     0.022 A 
BRANCH  65  68
ATOM     68  S   UNL     1      13.617   0.661  13.485  1.00  0.00     0.127 S 
ATOM     69  O   UNL     1      14.061   2.041  13.675  1.00  0.00    -0.237 OA
ATOM     70  O   UNL     1      13.776  -0.199  14.658  1.00  0.00    -0.237 OA
ATOM     71  O   UNL     1      14.013   0.042  12.227  1.00  0.00    -0.744 OA
ENDBRANCH  65  68
ENDBRANCH  38  61
ENDBRANCH  12  13
ENDBRANCH   5   7
ENDBRANCH   2   3
ENDBRANCH   1   2
BRANCH   1  72
ATOM     72  C   UNL     1       4.587  -1.784  -3.450  1.00  0.00     0.023 C 
BRANCH  72  73
ATOM     73  C   UNL     1       5.032  -0.596  -4.296  1.00  0.00     0.116 C 
BRANCH  73  74
ATOM     74  N   UNL     1       6.481  -0.478  -4.390  1.00  0.00    -0.352 N 
ATOM     75  C   UNL     1       7.264  -0.411  -5.516  1.00  0.00     0.254 C 
ATOM     76  H   UNL     1       6.962  -0.441  -3.532  1.00  0.00     0.163 HD
ATOM     77  O   UNL     1       8.486  -0.345  -5.442  1.00  0.00    -0.269 OA
BRANCH  75  78
ATOM     78  C   UNL     1       6.608  -0.391  -6.826  1.00  0.00     0.078 A 
ATOM     79  C   UNL     1       5.751   0.661  -7.161  1.00  0.00     0.019 A 
ATOM     80  C   UNL     1       6.797  -1.445  -7.705  1.00  0.00     0.173 A 
ATOM     81  C   UNL     1       5.011   0.606  -8.346  1.00  0.00     0.030 A 
ATOM     82  C   UNL     1       6.067  -1.479  -8.887  1.00  0.00     0.182 A 
ATOM     83  F   UNL     1       7.621  -2.460  -7.406  1.00  0.00    -0.203 F 
ATOM     84  C   UNL     1       5.133  -0.475  -9.223  1.00  0.00     0.074 A 
ATOM     85  F   UNL     1       6.221  -2.522  -9.721  1.00  0.00    -0.201 F 
BRANCH  84  86
ATOM     86  N   UNL     1       4.368  -0.654 -10.393  1.00  0.00    -0.380 N 
ATOM     87  H   UNL     1       4.718  -1.337 -11.010  1.00  0.00     0.160 HD
BRANCH  86  88
ATOM     88  C   UNL     1       3.147  -0.001 -10.845  1.00  0.00     0.079 C 
ATOM     89  C   UNL     1       2.116   0.639  -9.965  1.00  0.00     0.027 C 
ATOM     90  C   UNL     1       2.949   1.483 -10.895  1.00  0.00     0.027 C 
ENDBRANCH  86  88
ENDBRANCH  84  86
ENDBRANCH  75  78
ENDBRANCH  73  74
ENDBRANCH  72  73
ENDBRANCH   1  72
TORSDOF 16
