REMARK SMILES CC[C@](C)(NC(=O)[C@H]1CNc2ccccc2O1)C(=O)NCCCCNC(=O)c1ccc(-c2c3nc(c(-c4cccc(S(=O)(=O)[O-])c4F)c4ccc([nH]4)c(-c4cccc(S(=O)(=O)[O-])c4F)c4nc(c(-c5cccc(S(=O)(=O)[O-])c5F)c5ccc2[nH]5)C=C4)C=C3)cc1
REMARK SMILES IDX 23 1 22 2 21 3 20 4 18 5 19 6 3 8 4 9 2 10 1 11 5 12 6 13
REMARK SMILES IDX 7 15 8 16 9 17 17 18 10 19 16 20 11 21 15 23 12 24 14 25
REMARK SMILES IDX 13 26 24 27 25 28 26 29 27 31 28 32 29 33 90 34 30 35 89 36
REMARK SMILES IDX 31 37 32 38 33 39 83 40 34 41 88 42 82 43 84 44 35 45 87 46
REMARK SMILES IDX 81 47 80 48 36 50 68 51 48 52 67 53 49 54 52 55 66 56 85 57
REMARK SMILES IDX 50 58 51 59 65 61 86 62 53 63 37 64 38 65 46 66 39 67 41 68
REMARK SMILES IDX 47 69 40 70 42 71 43 72 44 73 45 74 69 75 70 76 78 77 71 78
REMARK SMILES IDX 73 79 79 80 72 81 74 82 75 83 76 84 77 85 54 86 55 87 63 88
REMARK SMILES IDX 56 89 58 90 64 91 57 92 59 93 60 94 61 95 62 96
REMARK H PARENT 20 7 5 14 10 22 25 30 84 49 52 60
REMARK Flexibility Score: inf
ROOT
ATOM      1  C   UNL     1       0.127   1.964   5.469  1.00  0.00     0.023 C 
ENDROOT
BRANCH   1   2
ATOM      2  C   UNL     1       0.665   0.604   5.040  1.00  0.00     0.023 C 
BRANCH   2   3
ATOM      3  C   UNL     1       0.408   0.211   3.585  1.00  0.00     0.116 C 
BRANCH   3   4
ATOM      4  N   UNL     1       0.870   1.157   2.577  1.00  0.00    -0.354 N 
ATOM      5  C   UNL     1       1.903   1.084   1.674  1.00  0.00     0.245 C 
ATOM      6  O   UNL     1       1.879   1.872   0.725  1.00  0.00    -0.272 OA
ATOM      7  H   UNL     1       0.352   1.994   2.536  1.00  0.00     0.163 HD
BRANCH   5   8
ATOM      8  C   UNL     1       2.962  -0.058   1.751  1.00  0.00     0.116 C 
ATOM      9  C   UNL     1       4.211   0.239   0.898  1.00  0.00     0.045 C 
BRANCH   8  10
ATOM     10  C   UNL     1       2.247  -1.341   1.197  1.00  0.00     0.035 C 
ATOM     11  C   UNL     1       2.166  -1.461  -0.324  1.00  0.00     0.007 C 
ENDBRANCH   8  10
BRANCH   8  12
ATOM     12  N   UNL     1       3.414  -0.314   3.149  1.00  0.00    -0.339 N 
ATOM     13  C   UNL     1       4.003   0.540   4.060  1.00  0.00     0.263 C 
ATOM     14  H   UNL     1       3.271  -1.233   3.472  1.00  0.00     0.164 HD
ATOM     15  O   UNL     1       4.630   0.019   4.987  1.00  0.00    -0.271 OA
BRANCH  13  16
ATOM     16  C   UNL     1       3.733   2.050   3.996  1.00  0.00     0.281 C 
ATOM     17  C   UNL     1       4.147   2.790   5.277  1.00  0.00     0.168 C 
ATOM     18  O   UNL     1       4.341   2.668   2.865  1.00  0.00    -0.477 OA
ATOM     19  N   UNL     1       3.634   4.156   5.202  1.00  0.00    -0.378 N 
ATOM     20  C   UNL     1       3.947   3.989   2.786  1.00  0.00     0.143 A 
ATOM     21  C   UNL     1       3.616   4.738   3.935  1.00  0.00     0.077 A 
ATOM     22  H   UNL     1       3.320   4.638   6.001  1.00  0.00     0.160 HD
ATOM     23  C   UNL     1       3.877   4.540   1.509  1.00  0.00     0.049 A 
ATOM     24  C   UNL     1       3.167   6.047   3.758  1.00  0.00     0.029 A 
ATOM     25  C   UNL     1       3.434   5.850   1.353  1.00  0.00     0.004 A 
ATOM     26  C   UNL     1       3.079   6.601   2.475  1.00  0.00     0.002 A 
ENDBRANCH  13  16
ENDBRANCH   8  12
ENDBRANCH   5   8
ENDBRANCH   3   4
ENDBRANCH   2   3
ENDBRANCH   1   2
BRANCH   1  27
ATOM     27  C   UNL     1      -1.355   2.165   5.204  1.00  0.00     0.116 C 
BRANCH  27  28
ATOM     28  N   UNL     1      -2.176   1.119   5.800  1.00  0.00    -0.352 N 
ATOM     29  C   UNL     1      -3.286   1.238   6.596  1.00  0.00     0.251 C 
ATOM     30  H   UNL     1      -1.894   0.197   5.603  1.00  0.00     0.163 HD
ATOM     31  O   UNL     1      -3.756   0.243   7.145  1.00  0.00    -0.269 OA
BRANCH  29  32
ATOM     32  C   UNL     1      -3.896   2.565   6.802  1.00  0.00     0.039 A 
ATOM     33  C   UNL     1      -4.273   2.945   8.092  1.00  0.00     0.014 A 
ATOM     34  C   UNL     1      -4.069   3.441   5.727  1.00  0.00     0.014 A 
ATOM     35  C   UNL     1      -4.771   4.230   8.310  1.00  0.00     0.010 A 
ATOM     36  C   UNL     1      -4.475   4.748   5.963  1.00  0.00     0.010 A 
ATOM     37  C   UNL     1      -4.843   5.153   7.253  1.00  0.00    -0.014 A 
BRANCH  37  38
ATOM     38  C   UNL     1      -5.304   6.546   7.474  1.00  0.00     0.031 A 
ATOM     39  C   UNL     1      -6.532   7.053   6.768  1.00  0.00     0.074 A 
ATOM     40  C   UNL     1      -4.569   7.375   8.241  1.00  0.00     0.049 A 
ATOM     41  N   UNL     1      -7.060   8.249   6.791  1.00  0.00    -0.248 NA
ATOM     42  C   UNL     1      -7.246   6.103   5.897  1.00  0.00     0.031 C 
ATOM     43  C   UNL     1      -3.317   7.021   8.913  1.00  0.00     0.029 A 
ATOM     44  N   UNL     1      -4.756   8.696   8.565  1.00  0.00    -0.354 N 
ATOM     45  C   UNL     1      -8.136   8.207   5.913  1.00  0.00     0.074 A 
ATOM     46  C   UNL     1      -8.166   6.878   5.345  1.00  0.00     0.031 C 
ATOM     47  C   UNL     1      -2.856   8.092   9.578  1.00  0.00     0.029 A 
ATOM     48  C   UNL     1      -3.756   9.218   9.351  1.00  0.00     0.049 A 
ATOM     49  H   UNL     1      -5.533   9.220   8.262  1.00  0.00     0.167 HD
ATOM     50  C   UNL     1      -9.035   9.177   5.626  1.00  0.00     0.034 A 
ATOM     51  C   UNL     1      -3.580  10.466   9.828  1.00  0.00     0.034 A 
ATOM     52  C   UNL     1      -9.024  10.482   6.227  1.00  0.00     0.049 A 
ATOM     53  C   UNL     1      -4.614  11.515   9.520  1.00  0.00     0.074 A 
ATOM     54  C   UNL     1      -9.944  11.504   6.079  1.00  0.00     0.029 A 
ATOM     55  N   UNL     1      -8.037  10.952   7.080  1.00  0.00    -0.354 N 
ATOM     56  N   UNL     1      -5.715  11.408   8.817  1.00  0.00    -0.248 NA
ATOM     57  C   UNL     1      -4.399  12.848  10.100  1.00  0.00     0.031 C 
ATOM     58  C   UNL     1      -9.494  12.606   6.813  1.00  0.00     0.029 A 
ATOM     59  C   UNL     1      -8.316  12.255   7.453  1.00  0.00     0.049 A 
ATOM     60  H   UNL     1      -7.254  10.435   7.377  1.00  0.00     0.167 HD
ATOM     61  C   UNL     1      -6.345  12.644   8.904  1.00  0.00     0.074 A 
ATOM     62  C   UNL     1      -5.510  13.479   9.744  1.00  0.00     0.031 C 
ATOM     63  C   UNL     1      -7.502  13.056   8.331  1.00  0.00     0.034 A 
BRANCH  50  64
ATOM     64  C   UNL     1     -10.132   8.852   4.646  1.00  0.00     0.023 A 
ATOM     65  C   UNL     1     -11.153   7.950   5.011  1.00  0.00     0.012 A 
ATOM     66  C   UNL     1     -10.187   9.485   3.389  1.00  0.00     0.148 A 
ATOM     67  C   UNL     1     -12.191   7.655   4.127  1.00  0.00     0.002 A 
ATOM     68  C   UNL     1     -11.251   9.224   2.533  1.00  0.00     0.091 A 
ATOM     69  F   UNL     1      -9.197  10.323   3.051  1.00  0.00    -0.205 F 
ATOM     70  C   UNL     1     -12.245   8.300   2.895  1.00  0.00     0.022 A 
BRANCH  68  71
ATOM     71  S   UNL     1     -11.459  10.065   0.960  1.00  0.00     0.127 S 
ATOM     72  O   UNL     1     -11.223   8.977   0.011  1.00  0.00    -0.237 OA
ATOM     73  O   UNL     1     -12.848  10.517   1.036  1.00  0.00    -0.237 OA
ATOM     74  O   UNL     1     -10.470  11.134   0.940  1.00  0.00    -0.744 OA
ENDBRANCH  68  71
ENDBRANCH  50  64
BRANCH  51  75
ATOM     75  C   UNL     1      -2.410  10.777  10.697  1.00  0.00     0.023 A 
ATOM     76  C   UNL     1      -2.617  11.063  12.061  1.00  0.00     0.012 A 
ATOM     77  C   UNL     1      -1.097  10.778  10.187  1.00  0.00     0.148 A 
ATOM     78  C   UNL     1      -1.542  11.382  12.892  1.00  0.00     0.002 A 
ATOM     79  C   UNL     1      -0.026  11.039  11.033  1.00  0.00     0.091 A 
ATOM     80  F   UNL     1      -0.922  10.512   8.885  1.00  0.00    -0.205 F 
ATOM     81  C   UNL     1      -0.248  11.361  12.382  1.00  0.00     0.022 A 
BRANCH  79  82
ATOM     82  S   UNL     1       1.682  10.907  10.494  1.00  0.00     0.127 S 
ATOM     83  O   UNL     1       2.110  12.303  10.510  1.00  0.00    -0.237 OA
ATOM     84  O   UNL     1       2.264  10.070  11.544  1.00  0.00    -0.237 OA
ATOM     85  O   UNL     1       1.633  10.274   9.183  1.00  0.00    -0.744 OA
ENDBRANCH  79  82
ENDBRANCH  51  75
BRANCH  63  86
ATOM     86  C   UNL     1      -7.970  14.457   8.627  1.00  0.00     0.023 A 
ATOM     87  C   UNL     1      -7.290  15.560   8.074  1.00  0.00     0.012 A 
ATOM     88  C   UNL     1      -9.131  14.674   9.395  1.00  0.00     0.148 A 
ATOM     89  C   UNL     1      -7.738  16.859   8.312  1.00  0.00     0.002 A 
ATOM     90  C   UNL     1      -9.603  15.966   9.582  1.00  0.00     0.091 A 
ATOM     91  F   UNL     1      -9.754  13.611   9.926  1.00  0.00    -0.205 F 
ATOM     92  C   UNL     1      -8.900  17.061   9.054  1.00  0.00     0.022 A 
BRANCH  90  93
ATOM     93  S   UNL     1     -11.144  16.316  10.435  1.00  0.00     0.127 S 
ATOM     94  O   UNL     1     -10.667  16.931  11.673  1.00  0.00    -0.237 OA
ATOM     95  O   UNL     1     -11.807  17.237   9.512  1.00  0.00    -0.237 OA
ATOM     96  O   UNL     1     -11.816  15.033  10.596  1.00  0.00    -0.744 OA
ENDBRANCH  90  93
ENDBRANCH  63  86
ENDBRANCH  37  38
ENDBRANCH  29  32
ENDBRANCH  27  28
ENDBRANCH   1  27
TORSDOF 17
