REMARK SMILES O=C(Cc1ccccc1Nc1c(F)cccc1C(F)(F)F)NCCCCNC(=O)c1ccc(-c2c3nc(c(-c4cccc(S(=O)(=O)[O-])c4F)c4ccc([nH]4)c(-c4cccc(S(=O)(=O)[O-])c4F)c4nc(c(-c5cccc(S(=O)(=O)[O-])c5F)c5ccc2[nH]5)C=C4)C=C3)cc1
REMARK SMILES IDX 24 1 23 2 22 3 1 4 2 5 3 7 4 8 5 9 9 10 6 11 8 12 7 13 10 14
REMARK SMILES IDX 11 16 12 17 17 18 13 19 14 20 16 21 15 22 18 23 19 24 20 25
REMARK SMILES IDX 21 26 25 27 26 28 27 29 28 30 29 32 30 33 31 34 92 35 32 36
REMARK SMILES IDX 91 37 33 38 34 39 35 40 85 41 36 42 90 43 84 44 86 45 37 46
REMARK SMILES IDX 89 47 83 48 82 49 38 51 70 52 50 53 69 54 51 55 54 56 68 57
REMARK SMILES IDX 87 58 52 59 53 60 67 62 88 63 55 64 39 65 40 66 48 67 41 68
REMARK SMILES IDX 43 69 49 70 42 71 44 72 45 73 46 74 47 75 71 76 72 77 80 78
REMARK SMILES IDX 73 79 75 80 81 81 74 82 76 83 77 84 78 85 79 86 56 87 57 88
REMARK SMILES IDX 65 89 58 90 60 91 66 92 59 93 61 94 62 95 63 96 64 97
REMARK H PARENT 22 6 10 15 27 31 86 50 54 61
REMARK Flexibility Score: inf
ROOT
ATOM      1  C   UNL     1       2.357  -2.269   2.746  1.00  0.00     0.023 C 
ENDROOT
BRANCH   1   2
ATOM      2  C   UNL     1       1.976  -0.858   2.295  1.00  0.00     0.116 C 
BRANCH   2   3
ATOM      3  N   UNL     1       2.710  -0.450   1.115  1.00  0.00    -0.356 N 
ATOM      4  O   UNL     1       0.900   0.005  -0.236  1.00  0.00    -0.275 OA
ATOM      5  C   UNL     1       2.115  -0.044  -0.061  1.00  0.00     0.224 C 
ATOM      6  H   UNL     1       3.694  -0.463   1.155  1.00  0.00     0.163 HD
BRANCH   5   7
ATOM      7  C   UNL     1       3.102   0.332  -1.158  1.00  0.00     0.137 C 
BRANCH   7   8
ATOM      8  C   UNL     1       3.884   1.580  -0.807  1.00  0.00    -0.015 A 
ATOM      9  C   UNL     1       5.162   1.423  -0.233  1.00  0.00     0.006 A 
ATOM     10  C   UNL     1       3.351   2.875  -0.982  1.00  0.00     0.042 A 
ATOM     11  C   UNL     1       5.892   2.526   0.200  1.00  0.00     0.000 A 
ATOM     12  C   UNL     1       4.104   3.969  -0.527  1.00  0.00     0.026 A 
ATOM     13  C   UNL     1       5.357   3.799   0.063  1.00  0.00     0.002 A 
BRANCH  10  14
ATOM     14  N   UNL     1       2.125   3.066  -1.657  1.00  0.00    -0.352 N 
ATOM     15  H   UNL     1       1.550   2.268  -1.706  1.00  0.00     0.167 HD
BRANCH  14  16
ATOM     16  C   UNL     1       1.591   4.221  -2.272  1.00  0.00     0.087 A 
ATOM     17  C   UNL     1       0.273   4.583  -1.925  1.00  0.00     0.147 A 
ATOM     18  C   UNL     1       2.304   5.081  -3.128  1.00  0.00     0.082 A 
ATOM     19  F   UNL     1      -0.446   3.768  -1.137  1.00  0.00    -0.205 F 
ATOM     20  C   UNL     1      -0.315   5.772  -2.350  1.00  0.00     0.041 A 
ATOM     21  C   UNL     1       1.705   6.301  -3.532  1.00  0.00     0.015 A 
ATOM     22  C   UNL     1       0.412   6.646  -3.143  1.00  0.00     0.004 A 
BRANCH  18  23
ATOM     23  C   UNL     1       3.673   4.779  -3.696  1.00  0.00     0.418 C 
ATOM     24  F   UNL     1       3.775   5.203  -4.996  1.00  0.00    -0.166 F 
ATOM     25  F   UNL     1       4.667   5.442  -3.040  1.00  0.00    -0.166 F 
ATOM     26  F   UNL     1       4.027   3.469  -3.738  1.00  0.00    -0.166 F 
ENDBRANCH  18  23
ENDBRANCH  14  16
ENDBRANCH  10  14
ENDBRANCH   7   8
ENDBRANCH   5   7
ENDBRANCH   2   3
ENDBRANCH   1   2
BRANCH   1  27
ATOM     27  C   UNL     1       3.842  -2.479   3.063  1.00  0.00     0.023 C 
BRANCH  27  28
ATOM     28  C   UNL     1       4.424  -1.574   4.145  1.00  0.00     0.116 C 
BRANCH  28  29
ATOM     29  N   UNL     1       3.826  -1.798   5.452  1.00  0.00    -0.352 N 
ATOM     30  C   UNL     1       4.428  -2.062   6.659  1.00  0.00     0.251 C 
ATOM     31  H   UNL     1       2.842  -1.754   5.475  1.00  0.00     0.163 HD
ATOM     32  O   UNL     1       3.734  -2.368   7.628  1.00  0.00    -0.269 OA
BRANCH  30  33
ATOM     33  C   UNL     1       5.902  -2.008   6.798  1.00  0.00     0.039 A 
ATOM     34  C   UNL     1       6.549  -3.018   7.516  1.00  0.00     0.014 A 
ATOM     35  C   UNL     1       6.649  -0.969   6.237  1.00  0.00     0.014 A 
ATOM     36  C   UNL     1       7.944  -3.023   7.612  1.00  0.00     0.010 A 
ATOM     37  C   UNL     1       8.043  -1.017   6.269  1.00  0.00     0.010 A 
ATOM     38  C   UNL     1       8.707  -2.044   6.956  1.00  0.00    -0.014 A 
BRANCH  38  39
ATOM     39  C   UNL     1      10.195  -2.093   6.959  1.00  0.00     0.031 A 
ATOM     40  C   UNL     1      10.999  -0.973   7.564  1.00  0.00     0.074 A 
ATOM     41  C   UNL     1      10.829  -3.111   6.342  1.00  0.00     0.049 A 
ATOM     42  N   UNL     1      12.298  -0.818   7.603  1.00  0.00    -0.248 NA
ATOM     43  C   UNL     1      10.247   0.130   8.183  1.00  0.00     0.031 C 
ATOM     44  C   UNL     1      10.171  -4.222   5.651  1.00  0.00     0.029 A 
ATOM     45  N   UNL     1      12.168  -3.363   6.169  1.00  0.00    -0.354 N 
ATOM     46  C   UNL     1      12.518   0.409   8.220  1.00  0.00     0.074 A 
ATOM     47  C   UNL     1      11.217   0.974   8.504  1.00  0.00     0.031 C 
ATOM     48  C   UNL     1      11.105  -5.034   5.131  1.00  0.00     0.029 A 
ATOM     49  C   UNL     1      12.427  -4.487   5.418  1.00  0.00     0.049 A 
ATOM     50  H   UNL     1      12.877  -2.792   6.546  1.00  0.00     0.167 HD
ATOM     51  C   UNL     1      13.693   1.000   8.545  1.00  0.00     0.034 A 
ATOM     52  C   UNL     1      13.593  -5.012   4.993  1.00  0.00     0.034 A 
ATOM     53  C   UNL     1      14.986   0.425   8.288  1.00  0.00     0.049 A 
ATOM     54  C   UNL     1      14.885  -4.348   5.386  1.00  0.00     0.074 A 
ATOM     55  C   UNL     1      16.231   0.911   8.650  1.00  0.00     0.029 A 
ATOM     56  N   UNL     1      15.206  -0.754   7.593  1.00  0.00    -0.354 N 
ATOM     57  N   UNL     1      15.072  -3.265   6.100  1.00  0.00    -0.248 NA
ATOM     58  C   UNL     1      16.128  -4.997   4.945  1.00  0.00     0.031 C 
ATOM     59  C   UNL     1      17.204   0.043   8.145  1.00  0.00     0.029 A 
ATOM     60  C   UNL     1      16.565  -1.006   7.504  1.00  0.00     0.049 A 
ATOM     61  H   UNL     1      14.500  -1.329   7.218  1.00  0.00     0.167 HD
ATOM     62  C   UNL     1      16.449  -3.124   6.226  1.00  0.00     0.074 A 
ATOM     63  C   UNL     1      17.049  -4.244   5.531  1.00  0.00     0.031 C 
ATOM     64  C   UNL     1      17.153  -2.148   6.851  1.00  0.00     0.034 A 
BRANCH  51  65
ATOM     65  C   UNL     1      13.634   2.328   9.259  1.00  0.00     0.023 A 
ATOM     66  C   UNL     1      13.174   2.383  10.591  1.00  0.00     0.012 A 
ATOM     67  C   UNL     1      14.087   3.507   8.637  1.00  0.00     0.148 A 
ATOM     68  C   UNL     1      13.127   3.596  11.278  1.00  0.00     0.002 A 
ATOM     69  C   UNL     1      14.083   4.704   9.345  1.00  0.00     0.091 A 
ATOM     70  F   UNL     1      14.506   3.440   7.365  1.00  0.00    -0.205 F 
ATOM     71  C   UNL     1      13.590   4.753  10.659  1.00  0.00     0.022 A 
BRANCH  69  72
ATOM     72  S   UNL     1      14.735   6.235   8.667  1.00  0.00     0.127 S 
ATOM     73  O   UNL     1      13.515   7.022   8.491  1.00  0.00    -0.237 OA
ATOM     74  O   UNL     1      15.610   6.699   9.744  1.00  0.00    -0.237 OA
ATOM     75  O   UNL     1      15.424   5.870   7.438  1.00  0.00    -0.744 OA
ENDBRANCH  69  72
ENDBRANCH  51  65
BRANCH  52  76
ATOM     76  C   UNL     1      13.594  -6.262   4.181  1.00  0.00     0.023 A 
ATOM     77  C   UNL     1      14.088  -7.456   4.741  1.00  0.00     0.012 A 
ATOM     78  C   UNL     1      13.088  -6.278   2.867  1.00  0.00     0.148 A 
ATOM     79  C   UNL     1      14.111  -8.635   3.995  1.00  0.00     0.002 A 
ATOM     80  C   UNL     1      13.059  -7.468   2.150  1.00  0.00     0.091 A 
ATOM     81  F   UNL     1      12.631  -5.129   2.349  1.00  0.00    -0.205 F 
ATOM     82  C   UNL     1      13.588  -8.644   2.704  1.00  0.00     0.022 A 
BRANCH  80  83
ATOM     83  S   UNL     1      12.283  -7.601   0.536  1.00  0.00     0.127 S 
ATOM     84  O   UNL     1      13.436  -7.831  -0.332  1.00  0.00    -0.237 OA
ATOM     85  O   UNL     1      11.408  -8.760   0.719  1.00  0.00    -0.237 OA
ATOM     86  O   UNL     1      11.579  -6.343   0.331  1.00  0.00    -0.744 OA
ENDBRANCH  80  83
ENDBRANCH  52  76
BRANCH  64  87
ATOM     87  C   UNL     1      18.656  -2.262   6.857  1.00  0.00     0.023 A 
ATOM     88  C   UNL     1      19.387  -2.048   5.672  1.00  0.00     0.012 A 
ATOM     89  C   UNL     1      19.349  -2.513   8.059  1.00  0.00     0.148 A 
ATOM     90  C   UNL     1      20.780  -2.117   5.675  1.00  0.00     0.002 A 
ATOM     91  C   UNL     1      20.738  -2.527   8.065  1.00  0.00     0.091 A 
ATOM     92  F   UNL     1      18.636  -2.731   9.174  1.00  0.00    -0.205 F 
ATOM     93  C   UNL     1      21.455  -2.344   6.872  1.00  0.00     0.022 A 
BRANCH  91  94
ATOM     94  S   UNL     1      21.695  -2.714   9.574  1.00  0.00     0.127 S 
ATOM     95  O   UNL     1      22.265  -4.050   9.402  1.00  0.00    -0.237 OA
ATOM     96  O   UNL     1      22.660  -1.620   9.465  1.00  0.00    -0.237 OA
ATOM     97  O   UNL     1      20.747  -2.578  10.672  1.00  0.00    -0.744 OA
ENDBRANCH  91  94
ENDBRANCH  64  87
ENDBRANCH  38  39
ENDBRANCH  30  33
ENDBRANCH  28  29
ENDBRANCH  27  28
ENDBRANCH   1  27
TORSDOF 18
