REMARK SMILES Cc1cc(Cl)c2c(c1)C=C(C(=O)NCCCCNC(=O)c1ccc(-c3c4nc(c(-c5cccc(S(=O)(=O)[O-])c5F)c5ccc([nH]5)c(-c5cccc(S(=O)(=O)[O-])c5F)c5nc(c(-c6cccc(S(=O)(=O)[O-])c6F)c6ccc3[nH]6)C=C5)C=C4)cc1)[C@@H](C(F)(F)F)O2
REMARK SMILES IDX 16 1 15 2 14 3 13 4 11 5 12 6 10 8 1 9 2 10 3 11 8 12 4 13
REMARK SMILES IDX 7 14 5 15 6 16 9 17 89 18 84 19 85 20 86 21 87 22 88 23
REMARK SMILES IDX 17 24 18 25 19 26 20 28 21 29 22 30 83 31 23 32 82 33 24 34
REMARK SMILES IDX 25 35 26 36 76 37 27 38 81 39 75 40 77 41 28 42 80 43 74 44
REMARK SMILES IDX 73 45 29 47 61 48 41 49 60 50 42 51 45 52 59 53 78 54 43 55
REMARK SMILES IDX 44 56 58 58 79 59 46 60 30 61 31 62 39 63 32 64 34 65 40 66
REMARK SMILES IDX 33 67 35 68 36 69 37 70 38 71 62 72 63 73 71 74 64 75 66 76
REMARK SMILES IDX 72 77 65 78 67 79 68 80 69 81 70 82 47 83 48 84 56 85 49 86
REMARK SMILES IDX 51 87 57 88 50 89 52 90 53 91 54 92 55 93
REMARK H PARENT 13 7 18 27 77 46 45 57
REMARK Flexibility Score: inf
ROOT
ATOM      1  C   UNL     1       1.768  10.675   3.460  1.00  0.00     0.023 C 
ENDROOT
BRANCH   1   2
ATOM      2  C   UNL     1       1.175   9.266   3.539  1.00  0.00     0.023 C 
BRANCH   2   3
ATOM      3  C   UNL     1       0.284   8.898   2.357  1.00  0.00     0.116 C 
BRANCH   3   4
ATOM      4  N   UNL     1       1.050   8.376   1.240  1.00  0.00    -0.352 N 
ATOM      5  C   UNL     1       1.275   7.168   0.675  1.00  0.00     0.251 C 
ATOM      6  O   UNL     1       2.023   7.175  -0.308  1.00  0.00    -0.270 OA
ATOM      7  H   UNL     1       1.535   9.092   0.769  1.00  0.00     0.163 HD
BRANCH   5   8
ATOM      8  C   UNL     1       0.697   5.872   1.145  1.00  0.00     0.067 C 
ATOM      9  C   UNL     1       0.986  -0.163  -0.181  1.00  0.00     0.044 C 
ATOM     10  C   UNL     1       0.578   1.053   0.596  1.00  0.00    -0.049 A 
ATOM     11  C   UNL     1      -0.268   0.948   1.705  1.00  0.00     0.028 A 
ATOM     12  C   UNL     1       1.043   2.318   0.210  1.00  0.00     0.015 A 
ATOM     13  C   UNL     1      -0.634   2.089   2.422  1.00  0.00     0.084 A 
ATOM     14  C   UNL     1       0.675   3.464   0.926  1.00  0.00     0.019 A 
ATOM     15  Cl  UNL     1      -1.673   1.900   3.790  1.00  0.00    -0.080 Cl
ATOM     16  C   UNL     1      -0.170   3.349   2.031  1.00  0.00     0.146 A 
ATOM     17  C   UNL     1       1.198   4.772   0.554  1.00  0.00     0.025 C 
ATOM     18  O   UNL     1      -0.517   4.434   2.786  1.00  0.00    -0.474 OA
ATOM     19  C   UNL     1      -0.397   5.744   2.166  1.00  0.00     0.314 C 
BRANCH  19  20
ATOM     20  C   UNL     1      -1.773   6.168   1.618  1.00  0.00     0.429 C 
ATOM     21  F   UNL     1      -2.653   6.351   2.635  1.00  0.00    -0.167 F 
ATOM     22  F   UNL     1      -1.727   7.335   0.936  1.00  0.00    -0.167 F 
ATOM     23  F   UNL     1      -2.304   5.244   0.785  1.00  0.00    -0.167 F 
ENDBRANCH  19  20
ENDBRANCH   5   8
ENDBRANCH   3   4
ENDBRANCH   2   3
ENDBRANCH   1   2
BRANCH   1  24
ATOM     24  C   UNL     1       0.755  11.805   3.278  1.00  0.00     0.116 C 
BRANCH  24  25
ATOM     25  N   UNL     1      -0.352  11.753   4.224  1.00  0.00    -0.352 N 
ATOM     26  C   UNL     1      -1.011  12.799   4.822  1.00  0.00     0.251 C 
ATOM     27  H   UNL     1      -0.668  10.853   4.465  1.00  0.00     0.163 HD
ATOM     28  O   UNL     1      -1.869  12.588   5.673  1.00  0.00    -0.269 OA
BRANCH  26  29
ATOM     29  C   UNL     1      -0.648  14.180   4.450  1.00  0.00     0.039 A 
ATOM     30  C   UNL     1      -0.314  15.085   5.459  1.00  0.00     0.014 A 
ATOM     31  C   UNL     1      -0.597  14.557   3.105  1.00  0.00     0.014 A 
ATOM     32  C   UNL     1       0.132  16.361   5.115  1.00  0.00     0.010 A 
ATOM     33  C   UNL     1      -0.094  15.807   2.763  1.00  0.00     0.010 A 
ATOM     34  C   UNL     1       0.269  16.721   3.764  1.00  0.00    -0.014 A 
BRANCH  34  35
ATOM     35  C   UNL     1       0.773  18.059   3.373  1.00  0.00     0.031 A 
ATOM     36  C   UNL     1      -0.140  19.020   2.665  1.00  0.00     0.074 A 
ATOM     37  C   UNL     1       2.064  18.376   3.585  1.00  0.00     0.049 A 
ATOM     38  N   UNL     1       0.126  20.205   2.184  1.00  0.00    -0.248 NA
ATOM     39  C   UNL     1      -1.528  18.579   2.446  1.00  0.00     0.031 C 
ATOM     40  C   UNL     1       3.059  17.499   4.206  1.00  0.00     0.029 A 
ATOM     41  N   UNL     1       2.767  19.515   3.285  1.00  0.00    -0.354 N 
ATOM     42  C   UNL     1      -1.049  20.640   1.584  1.00  0.00     0.074 A 
ATOM     43  C   UNL     1      -2.018  19.576   1.724  1.00  0.00     0.031 C 
ATOM     44  C   UNL     1       4.240  18.138   4.250  1.00  0.00     0.029 A 
ATOM     45  C   UNL     1       4.094  19.457   3.641  1.00  0.00     0.049 A 
ATOM     46  H   UNL     1       2.359  20.301   2.854  1.00  0.00     0.167 HD
ATOM     47  C   UNL     1      -1.311  21.835   1.006  1.00  0.00     0.034 A 
ATOM     48  C   UNL     1       5.078  20.366   3.496  1.00  0.00     0.034 A 
ATOM     49  C   UNL     1      -0.362  22.910   0.919  1.00  0.00     0.049 A 
ATOM     50  C   UNL     1       4.753  21.697   2.871  1.00  0.00     0.074 A 
ATOM     51  C   UNL     1      -0.551  24.186   0.419  1.00  0.00     0.029 A 
ATOM     52  N   UNL     1       0.955  22.837   1.345  1.00  0.00    -0.354 N 
ATOM     53  N   UNL     1       3.600  22.144   2.434  1.00  0.00    -0.248 NA
ATOM     54  C   UNL     1       5.857  22.660   2.745  1.00  0.00     0.031 C 
ATOM     55  C   UNL     1       0.655  24.883   0.538  1.00  0.00     0.029 A 
ATOM     56  C   UNL     1       1.594  24.044   1.117  1.00  0.00     0.049 A 
ATOM     57  H   UNL     1       1.375  22.044   1.751  1.00  0.00     0.167 HD
ATOM     58  C   UNL     1       3.834  23.444   1.999  1.00  0.00     0.074 A 
ATOM     59  C   UNL     1       5.232  23.723   2.255  1.00  0.00     0.031 C 
ATOM     60  C   UNL     1       2.976  24.318   1.419  1.00  0.00     0.034 A 
BRANCH  47  61
ATOM     61  C   UNL     1      -2.708  22.070   0.495  1.00  0.00     0.023 A 
ATOM     62  C   UNL     1      -3.751  22.273   1.423  1.00  0.00     0.012 A 
ATOM     63  C   UNL     1      -2.983  22.143  -0.883  1.00  0.00     0.148 A 
ATOM     64  C   UNL     1      -5.051  22.518   0.988  1.00  0.00     0.002 A 
ATOM     65  C   UNL     1      -4.276  22.428  -1.310  1.00  0.00     0.091 A 
ATOM     66  F   UNL     1      -1.983  21.923  -1.748  1.00  0.00    -0.205 F 
ATOM     67  C   UNL     1      -5.311  22.605  -0.377  1.00  0.00     0.022 A 
BRANCH  65  68
ATOM     68  S   UNL     1      -4.703  22.633  -3.042  1.00  0.00     0.127 S 
ATOM     69  O   UNL     1      -5.491  21.427  -3.296  1.00  0.00    -0.237 OA
ATOM     70  O   UNL     1      -5.478  23.874  -3.024  1.00  0.00    -0.237 OA
ATOM     71  O   UNL     1      -3.439  22.716  -3.760  1.00  0.00    -0.744 OA
ENDBRANCH  65  68
ENDBRANCH  47  61
BRANCH  48  72
ATOM     72  C   UNL     1       6.437  20.079   4.036  1.00  0.00     0.023 A 
ATOM     73  C   UNL     1       6.877  20.773   5.180  1.00  0.00     0.012 A 
ATOM     74  C   UNL     1       7.271  19.096   3.466  1.00  0.00     0.148 A 
ATOM     75  C   UNL     1       8.129  20.509   5.736  1.00  0.00     0.002 A 
ATOM     76  C   UNL     1       8.495  18.801   4.057  1.00  0.00     0.091 A 
ATOM     77  F   UNL     1       6.841  18.457   2.369  1.00  0.00    -0.205 F 
ATOM     78  C   UNL     1       8.932  19.515   5.183  1.00  0.00     0.022 A 
BRANCH  76  79
ATOM     79  S   UNL     1       9.535  17.447   3.495  1.00  0.00     0.127 S 
ATOM     80  O   UNL     1      10.653  18.161   2.886  1.00  0.00    -0.237 OA
ATOM     81  O   UNL     1       9.849  16.765   4.752  1.00  0.00    -0.237 OA
ATOM     82  O   UNL     1       8.707  16.669   2.584  1.00  0.00    -0.744 OA
ENDBRANCH  76  79
ENDBRANCH  48  72
BRANCH  60  83
ATOM     83  C   UNL     1       3.518  25.661   1.005  1.00  0.00     0.023 A 
ATOM     84  C   UNL     1       4.343  25.748  -0.134  1.00  0.00     0.012 A 
ATOM     85  C   UNL     1       3.132  26.840   1.672  1.00  0.00     0.148 A 
ATOM     86  C   UNL     1       4.794  26.985  -0.590  1.00  0.00     0.002 A 
ATOM     87  C   UNL     1       3.549  28.074   1.185  1.00  0.00     0.091 A 
ATOM     88  F   UNL     1       2.363  26.736   2.766  1.00  0.00    -0.205 F 
ATOM     89  C   UNL     1       4.386  28.148   0.060  1.00  0.00     0.022 A 
BRANCH  87  90
ATOM     90  S   UNL     1       2.988  29.625   1.900  1.00  0.00     0.127 S 
ATOM     91  O   UNL     1       4.160  30.039   2.668  1.00  0.00    -0.237 OA
ATOM     92  O   UNL     1       2.718  30.439   0.714  1.00  0.00    -0.237 OA
ATOM     93  O   UNL     1       1.806  29.294   2.683  1.00  0.00    -0.744 OA
ENDBRANCH  87  90
ENDBRANCH  60  83
ENDBRANCH  34  35
ENDBRANCH  26  29
ENDBRANCH  24  25
ENDBRANCH   1  24
TORSDOF 15
