REMARK SMILES O=C(NCCCCNC(=O)c1cc(O)ccc1NC(=O)c1ccc(Br)nc1)c1ccc(-c2c3nc(c(-c4cccc(S(=O)(=O)[O-])c4F)c4ccc([nH]4)c(-c4cccc(S(=O)(=O)[O-])c4F)c4nc(c(-c5cccc(S(=O)(=O)[O-])c5F)c5ccc2[nH]5)C=C4)C=C3)cc1
REMARK SMILES IDX 5 1 4 2 3 3 1 4 2 5 28 7 29 8 90 9 30 10 89 11 31 12 32 13
REMARK SMILES IDX 33 14 83 15 34 16 88 17 82 18 84 19 35 20 87 21 81 22 80 23
REMARK SMILES IDX 36 25 68 26 48 27 67 28 49 29 52 30 66 31 85 32 50 33 51 34
REMARK SMILES IDX 65 36 86 37 53 38 37 39 38 40 46 41 39 42 41 43 47 44 40 45
REMARK SMILES IDX 42 46 43 47 44 48 45 49 69 50 70 51 78 52 71 53 73 54 79 55
REMARK SMILES IDX 72 56 74 57 75 58 76 59 77 60 54 61 55 62 63 63 56 64 58 65
REMARK SMILES IDX 64 66 57 67 59 68 60 69 61 70 62 71 6 72 7 73 8 74 9 75
REMARK SMILES IDX 10 77 11 78 12 79 17 80 13 81 16 82 15 83 18 84 19 85 20 87
REMARK SMILES IDX 21 88 22 89 27 90 23 91 26 92 24 93 25 94 14 95
REMARK H PARENT 3 6 84 24 52 35 8 76 18 86 14 96
REMARK Flexibility Score: inf
ROOT
ATOM      1  C   UNL     1       5.024  -1.091   2.419  1.00  0.00     0.023 C 
ENDROOT
BRANCH   1   2
ATOM      2  C   UNL     1       4.657  -0.901   0.951  1.00  0.00     0.116 C 
BRANCH   2   3
ATOM      3  N   UNL     1       3.225  -0.977   0.705  1.00  0.00    -0.352 N 
ATOM      4  O   UNL     1       1.192  -0.287   0.038  1.00  0.00    -0.269 OA
ATOM      5  C   UNL     1       2.405  -0.100   0.037  1.00  0.00     0.251 C 
ATOM      6  H   UNL     1       2.779  -1.774   1.071  1.00  0.00     0.163 HD
BRANCH   5   7
ATOM      7  C   UNL     1       2.981   1.080  -0.644  1.00  0.00     0.039 A 
ATOM      8  C   UNL     1       4.105   0.960  -1.466  1.00  0.00     0.014 A 
ATOM      9  C   UNL     1       2.385   2.327  -0.446  1.00  0.00     0.014 A 
ATOM     10  C   UNL     1       4.714   2.103  -1.978  1.00  0.00     0.010 A 
ATOM     11  C   UNL     1       2.958   3.466  -1.016  1.00  0.00     0.010 A 
ATOM     12  C   UNL     1       4.148   3.368  -1.754  1.00  0.00    -0.014 A 
BRANCH  12  13
ATOM     13  C   UNL     1       4.782   4.582  -2.324  1.00  0.00     0.031 A 
ATOM     14  C   UNL     1       5.364   5.639  -1.428  1.00  0.00     0.074 A 
ATOM     15  C   UNL     1       4.798   4.745  -3.661  1.00  0.00     0.049 A 
ATOM     16  N   UNL     1       5.910   6.782  -1.752  1.00  0.00    -0.248 NA
ATOM     17  C   UNL     1       5.320   5.385   0.021  1.00  0.00     0.031 C 
ATOM     18  C   UNL     1       4.230   3.804  -4.628  1.00  0.00     0.029 A 
ATOM     19  N   UNL     1       5.288   5.766  -4.434  1.00  0.00    -0.354 N 
ATOM     20  C   UNL     1       6.235   7.404  -0.553  1.00  0.00     0.074 A 
ATOM     21  C   UNL     1       5.822   6.512   0.510  1.00  0.00     0.031 C 
ATOM     22  C   UNL     1       4.399   4.293  -5.865  1.00  0.00     0.029 A 
ATOM     23  C   UNL     1       5.048   5.597  -5.777  1.00  0.00     0.049 A 
ATOM     24  H   UNL     1       5.764   6.544  -4.064  1.00  0.00     0.167 HD
ATOM     25  C   UNL     1       6.838   8.601  -0.355  1.00  0.00     0.034 A 
ATOM     26  C   UNL     1       5.302   6.409  -6.822  1.00  0.00     0.034 A 
ATOM     27  C   UNL     1       7.286   9.464  -1.415  1.00  0.00     0.049 A 
ATOM     28  C   UNL     1       5.998   7.717  -6.578  1.00  0.00     0.074 A 
ATOM     29  C   UNL     1       7.969  10.664  -1.316  1.00  0.00     0.029 A 
ATOM     30  N   UNL     1       7.095   9.224  -2.767  1.00  0.00    -0.354 N 
ATOM     31  N   UNL     1       6.414   8.228  -5.445  1.00  0.00    -0.248 NA
ATOM     32  C   UNL     1       6.288   8.547  -7.755  1.00  0.00     0.031 C 
ATOM     33  C   UNL     1       8.183  11.153  -2.610  1.00  0.00     0.029 A 
ATOM     34  C   UNL     1       7.642  10.253  -3.514  1.00  0.00     0.049 A 
ATOM     35  H   UNL     1       6.637   8.436  -3.141  1.00  0.00     0.167 HD
ATOM     36  C   UNL     1       7.039   9.424  -5.773  1.00  0.00     0.074 A 
ATOM     37  C   UNL     1       6.962   9.554  -7.214  1.00  0.00     0.031 C 
ATOM     38  C   UNL     1       7.610  10.339  -4.952  1.00  0.00     0.034 A 
BRANCH  25  39
ATOM     39  C   UNL     1       7.093   9.029   1.065  1.00  0.00     0.023 A 
ATOM     40  C   UNL     1       8.142   8.430   1.791  1.00  0.00     0.012 A 
ATOM     41  C   UNL     1       6.338  10.057   1.664  1.00  0.00     0.148 A 
ATOM     42  C   UNL     1       8.419   8.828   3.099  1.00  0.00     0.002 A 
ATOM     43  C   UNL     1       6.643  10.472   2.956  1.00  0.00     0.091 A 
ATOM     44  F   UNL     1       5.325  10.598   0.971  1.00  0.00    -0.205 F 
ATOM     45  C   UNL     1       7.677   9.854   3.677  1.00  0.00     0.022 A 
BRANCH  43  46
ATOM     46  S   UNL     1       5.777  11.835   3.745  1.00  0.00     0.127 S 
ATOM     47  O   UNL     1       4.782  11.128   4.549  1.00  0.00    -0.237 OA
ATOM     48  O   UNL     1       6.838  12.480   4.519  1.00  0.00    -0.237 OA
ATOM     49  O   UNL     1       5.255  12.646   2.654  1.00  0.00    -0.744 OA
ENDBRANCH  43  46
ENDBRANCH  25  39
BRANCH  26  50
ATOM     50  C   UNL     1       4.939   5.959  -8.194  1.00  0.00     0.023 A 
ATOM     51  C   UNL     1       5.957   5.563  -9.081  1.00  0.00     0.012 A 
ATOM     52  C   UNL     1       3.593   5.835  -8.589  1.00  0.00     0.148 A 
ATOM     53  C   UNL     1       5.641   5.060 -10.343  1.00  0.00     0.002 A 
ATOM     54  C   UNL     1       3.283   5.282  -9.825  1.00  0.00     0.091 A 
ATOM     55  F   UNL     1       2.640   6.232  -7.732  1.00  0.00    -0.205 F 
ATOM     56  C   UNL     1       4.306   4.905 -10.709  1.00  0.00     0.022 A 
BRANCH  54  57
ATOM     57  S   UNL     1       1.595   4.909 -10.315  1.00  0.00     0.127 S 
ATOM     58  O   UNL     1       1.347   5.929 -11.330  1.00  0.00    -0.237 OA
ATOM     59  O   UNL     1       1.723   3.545 -10.830  1.00  0.00    -0.237 OA
ATOM     60  O   UNL     1       0.802   5.017  -9.099  1.00  0.00    -0.744 OA
ENDBRANCH  54  57
ENDBRANCH  26  50
BRANCH  38  61
ATOM     61  C   UNL     1       8.226  11.557  -5.585  1.00  0.00     0.023 A 
ATOM     62  C   UNL     1       7.393  12.597  -6.043  1.00  0.00     0.012 A 
ATOM     63  C   UNL     1       9.625  11.712  -5.640  1.00  0.00     0.148 A 
ATOM     64  C   UNL     1       7.945  13.766  -6.564  1.00  0.00     0.002 A 
ATOM     65  C   UNL     1      10.167  12.897  -6.125  1.00  0.00     0.091 A 
ATOM     66  F   UNL     1      10.398  10.701  -5.219  1.00  0.00    -0.205 F 
ATOM     67  C   UNL     1       9.329  13.922  -6.593  1.00  0.00     0.022 A 
BRANCH  65  68
ATOM     68  S   UNL     1      11.935  13.214  -6.117  1.00  0.00     0.127 S 
ATOM     69  O   UNL     1      12.277  13.029  -7.526  1.00  0.00    -0.237 OA
ATOM     70  O   UNL     1      12.004  14.599  -5.649  1.00  0.00    -0.237 OA
ATOM     71  O   UNL     1      12.510  12.240  -5.198  1.00  0.00    -0.744 OA
ENDBRANCH  65  68
ENDBRANCH  38  61
ENDBRANCH  12  13
ENDBRANCH   5   7
ENDBRANCH   2   3
ENDBRANCH   1   2
BRANCH   1  72
ATOM     72  C   UNL     1       4.531  -2.387   3.059  1.00  0.00     0.023 C 
BRANCH  72  73
ATOM     73  C   UNL     1       4.860  -3.659   2.285  1.00  0.00     0.116 C 
BRANCH  73  74
ATOM     74  N   UNL     1       6.291  -3.929   2.219  1.00  0.00    -0.352 N 
ATOM     75  C   UNL     1       6.999  -4.961   2.787  1.00  0.00     0.253 C 
ATOM     76  H   UNL     1       6.821  -3.286   1.696  1.00  0.00     0.163 HD
ATOM     77  O   UNL     1       8.226  -4.973   2.777  1.00  0.00    -0.269 OA
BRANCH  75  78
ATOM     78  C   UNL     1       6.262  -6.039   3.476  1.00  0.00     0.067 A 
ATOM     79  C   UNL     1       5.313  -6.763   2.735  1.00  0.00     0.062 A 
ATOM     80  C   UNL     1       6.462  -6.279   4.849  1.00  0.00     0.054 A 
ATOM     81  C   UNL     1       4.454  -7.621   3.398  1.00  0.00     0.116 A 
ATOM     82  C   UNL     1       5.516  -7.078   5.497  1.00  0.00     0.031 A 
ATOM     83  C   UNL     1       4.523  -7.753   4.776  1.00  0.00     0.048 A 
BRANCH  80  84
ATOM     84  N   UNL     1       7.577  -5.696   5.504  1.00  0.00    -0.321 N 
ATOM     85  C   UNL     1       8.167  -5.923   6.727  1.00  0.00     0.257 C 
ATOM     86  H   UNL     1       8.016  -4.988   4.979  1.00  0.00     0.170 HD
ATOM     87  O   UNL     1       9.038  -5.170   7.157  1.00  0.00    -0.269 OA
BRANCH  85  88
ATOM     88  C   UNL     1       7.822  -7.093   7.542  1.00  0.00     0.058 A 
ATOM     89  C   UNL     1       7.883  -8.396   7.046  1.00  0.00     0.018 A 
ATOM     90  C   UNL     1       7.403  -6.897   8.849  1.00  0.00     0.126 A 
ATOM     91  C   UNL     1       7.428  -9.443   7.847  1.00  0.00     0.037 A 
ATOM     92  N   UNL     1       6.958  -7.898   9.647  1.00  0.00    -0.249 NA
ATOM     93  C   UNL     1       6.966  -9.145   9.124  1.00  0.00     0.106 A 
ATOM     94  Br  UNL     1       6.267 -10.548  10.191  1.00  0.00    -0.029 Br
ENDBRANCH  85  88
ENDBRANCH  80  84
BRANCH  81  95
ATOM     95  O   UNL     1       3.489  -8.318   2.739  1.00  0.00    -0.508 OA
ATOM     96  H   UNL     1       3.416  -8.251   1.807  1.00  0.00     0.293 HD
ENDBRANCH  81  95
ENDBRANCH  75  78
ENDBRANCH  73  74
ENDBRANCH  72  73
ENDBRANCH   1  72
TORSDOF 17
