REMARK SMILES CCCC[C@H](C(=O)NCCCCNC(=O)c1ccc(-c2c3nc(c(-c4cccc(S(=O)(=O)[O-])c4F)c4ccc([nH]4)c(-c4cccc(S(=O)(=O)[O-])c4F)c4nc(c(-c5cccc(S(=O)(=O)[O-])c5F)c5ccc2[nH]5)C=C4)C=C3)cc1)[C@H](C)O
REMARK SMILES IDX 10 1 9 2 8 3 6 4 7 5 5 7 4 8 3 9 2 10 1 11 79 12 80 13 81 14
REMARK SMILES IDX 11 16 12 17 13 18 14 19 15 21 16 22 17 23 78 24 18 25 77 26
REMARK SMILES IDX 19 27 20 28 21 29 71 30 22 31 76 32 70 33 72 34 23 35 75 36
REMARK SMILES IDX 69 37 68 38 24 40 56 41 36 42 55 43 37 44 40 45 54 46 73 47
REMARK SMILES IDX 38 48 39 49 53 51 74 52 41 53 25 54 26 55 34 56 27 57 29 58
REMARK SMILES IDX 35 59 28 60 30 61 31 62 32 63 33 64 57 65 58 66 66 67 59 68
REMARK SMILES IDX 61 69 67 70 60 71 62 72 63 73 64 74 65 75 42 76 43 77 51 78
REMARK SMILES IDX 44 79 46 80 52 81 45 82 47 83 48 84 49 85 50 86
REMARK H PARENT 8 6 81 15 13 20 72 39 40 50
REMARK Flexibility Score: inf
ROOT
ATOM      1  C   UNL     1       0.169   4.577   5.000  1.00  0.00     0.023 C 
ENDROOT
BRANCH   1   2
ATOM      2  C   UNL     1      -0.882   3.475   4.949  1.00  0.00     0.116 C 
BRANCH   2   3
ATOM      3  N   UNL     1      -1.117   2.946   3.620  1.00  0.00    -0.356 N 
ATOM      4  C   UNL     1      -1.406   1.694   3.170  1.00  0.00     0.225 C 
ATOM      5  O   UNL     1      -1.905   1.656   2.038  1.00  0.00    -0.275 OA
ATOM      6  H   UNL     1      -1.055   3.621   2.906  1.00  0.00     0.163 HD
BRANCH   4   7
ATOM      7  C   UNL     1      -1.065   0.380   3.923  1.00  0.00     0.107 C 
BRANCH   7   8
ATOM      8  C   UNL     1      -1.386   0.427   5.434  1.00  0.00     0.016 C 
BRANCH   8   9
ATOM      9  C   UNL     1      -1.728  -0.834   6.238  1.00  0.00     0.001 C 
BRANCH   9  10
ATOM     10  C   UNL     1      -0.707  -1.975   6.308  1.00  0.00    -0.003 C 
ATOM     11  C   UNL     1       0.753  -1.561   6.371  1.00  0.00     0.004 C 
ENDBRANCH   9  10
ENDBRANCH   8   9
ENDBRANCH   7   8
BRANCH   7  12
ATOM     12  C   UNL     1      -1.738  -0.824   3.208  1.00  0.00     0.123 C 
ATOM     13  C   UNL     1      -1.183  -1.169   1.826  1.00  0.00     0.039 C 
BRANCH  12  14
ATOM     14  O   UNL     1      -3.153  -0.655   3.134  1.00  0.00    -0.393 OA
ATOM     15  H   UNL     1      -3.358   0.106   2.569  1.00  0.00     0.210 HD
ENDBRANCH  12  14
ENDBRANCH   7  12
ENDBRANCH   4   7
ENDBRANCH   2   3
ENDBRANCH   1   2
BRANCH   1  16
ATOM     16  C   UNL     1      -0.246   5.932   4.436  1.00  0.00     0.023 C 
BRANCH  16  17
ATOM     17  C   UNL     1      -1.534   6.533   4.994  1.00  0.00     0.116 C 
BRANCH  17  18
ATOM     18  N   UNL     1      -1.589   6.583   6.450  1.00  0.00    -0.352 N 
ATOM     19  C   UNL     1      -2.004   7.608   7.270  1.00  0.00     0.251 C 
ATOM     20  H   UNL     1      -1.288   5.768   6.912  1.00  0.00     0.163 HD
ATOM     21  O   UNL     1      -1.928   7.489   8.490  1.00  0.00    -0.269 OA
BRANCH  19  22
ATOM     22  C   UNL     1      -2.497   8.867   6.675  1.00  0.00     0.039 A 
ATOM     23  C   UNL     1      -1.952  10.078   7.111  1.00  0.00     0.014 A 
ATOM     24  C   UNL     1      -3.450   8.850   5.654  1.00  0.00     0.014 A 
ATOM     25  C   UNL     1      -2.293  11.264   6.456  1.00  0.00     0.010 A 
ATOM     26  C   UNL     1      -3.731  10.020   4.956  1.00  0.00     0.010 A 
ATOM     27  C   UNL     1      -3.148  11.238   5.341  1.00  0.00    -0.014 A 
BRANCH  27  28
ATOM     28  C   UNL     1      -3.417  12.460   4.541  1.00  0.00     0.031 A 
ATOM     29  C   UNL     1      -4.815  13.004   4.434  1.00  0.00     0.074 A 
ATOM     30  C   UNL     1      -2.420  13.016   3.822  1.00  0.00     0.049 A 
ATOM     31  N   UNL     1      -5.255  14.010   3.725  1.00  0.00    -0.248 NA
ATOM     32  C   UNL     1      -5.862  12.308   5.201  1.00  0.00     0.031 C 
ATOM     33  C   UNL     1      -1.040  12.527   3.767  1.00  0.00     0.029 A 
ATOM     34  N   UNL     1      -2.421  14.096   2.974  1.00  0.00    -0.354 N 
ATOM     35  C   UNL     1      -6.629  14.045   3.926  1.00  0.00     0.074 A 
ATOM     36  C   UNL     1      -6.956  12.938   4.799  1.00  0.00     0.031 C 
ATOM     37  C   UNL     1      -0.329  13.305   2.935  1.00  0.00     0.029 A 
ATOM     38  C   UNL     1      -1.204  14.331   2.377  1.00  0.00     0.049 A 
ATOM     39  H   UNL     1      -3.218  14.650   2.809  1.00  0.00     0.167 HD
ATOM     40  C   UNL     1      -7.534  14.936   3.456  1.00  0.00     0.034 A 
ATOM     41  C   UNL     1      -0.834  15.267   1.481  1.00  0.00     0.034 A 
ATOM     42  C   UNL     1      -7.199  16.069   2.638  1.00  0.00     0.049 A 
ATOM     43  C   UNL     1      -1.847  16.282   1.024  1.00  0.00     0.074 A 
ATOM     44  C   UNL     1      -8.027  17.085   2.195  1.00  0.00     0.029 A 
ATOM     45  N   UNL     1      -5.934  16.337   2.139  1.00  0.00    -0.354 N 
ATOM     46  N   UNL     1      -3.107  16.401   1.365  1.00  0.00    -0.248 NA
ATOM     47  C   UNL     1      -1.379  17.316   0.088  1.00  0.00     0.031 C 
ATOM     48  C   UNL     1      -7.263  17.964   1.419  1.00  0.00     0.029 A 
ATOM     49  C   UNL     1      -5.957  17.500   1.389  1.00  0.00     0.049 A 
ATOM     50  H   UNL     1      -5.136  15.782   2.295  1.00  0.00     0.167 HD
ATOM     51  C   UNL     1      -3.574  17.537   0.714  1.00  0.00     0.074 A 
ATOM     52  C   UNL     1      -2.454  18.085  -0.024  1.00  0.00     0.031 C 
ATOM     53  C   UNL     1      -4.821  18.067   0.710  1.00  0.00     0.034 A 
BRANCH  40  54
ATOM     54  C   UNL     1      -8.969  14.762   3.879  1.00  0.00     0.023 A 
ATOM     55  C   UNL     1      -9.337  15.064   5.207  1.00  0.00     0.012 A 
ATOM     56  C   UNL     1      -9.958  14.359   2.962  1.00  0.00     0.148 A 
ATOM     57  C   UNL     1     -10.660  14.936   5.624  1.00  0.00     0.002 A 
ATOM     58  C   UNL     1     -11.283  14.274   3.375  1.00  0.00     0.091 A 
ATOM     59  F   UNL     1      -9.586  14.055   1.711  1.00  0.00    -0.205 F 
ATOM     60  C   UNL     1     -11.634  14.551   4.707  1.00  0.00     0.022 A 
BRANCH  58  61
ATOM     61  S   UNL     1     -12.622  13.858   2.252  1.00  0.00     0.127 S 
ATOM     62  O   UNL     1     -12.954  12.499   2.678  1.00  0.00    -0.237 OA
ATOM     63  O   UNL     1     -13.630  14.865   2.587  1.00  0.00    -0.237 OA
ATOM     64  O   UNL     1     -12.070  13.978   0.910  1.00  0.00    -0.744 OA
ENDBRANCH  58  61
ENDBRANCH  40  54
BRANCH  41  65
ATOM     65  C   UNL     1       0.582  15.340   1.020  1.00  0.00     0.023 A 
ATOM     66  C   UNL     1       1.391  16.408   1.455  1.00  0.00     0.012 A 
ATOM     67  C   UNL     1       1.139  14.354   0.183  1.00  0.00     0.148 A 
ATOM     68  C   UNL     1       2.719  16.511   1.041  1.00  0.00     0.002 A 
ATOM     69  C   UNL     1       2.479  14.434  -0.183  1.00  0.00     0.091 A 
ATOM     70  F   UNL     1       0.351  13.353  -0.234  1.00  0.00    -0.205 F 
ATOM     71  C   UNL     1       3.266  15.519   0.231  1.00  0.00     0.022 A 
BRANCH  69  72
ATOM     72  S   UNL     1       3.296  13.132  -1.114  1.00  0.00     0.127 S 
ATOM     73  O   UNL     1       3.397  13.730  -2.442  1.00  0.00    -0.237 OA
ATOM     74  O   UNL     1       4.566  12.996  -0.400  1.00  0.00    -0.237 OA
ATOM     75  O   UNL     1       2.423  11.970  -1.002  1.00  0.00    -0.744 OA
ENDBRANCH  69  72
ENDBRANCH  41  65
BRANCH  53  76
ATOM     76  C   UNL     1      -5.045  19.321  -0.093  1.00  0.00     0.023 A 
ATOM     77  C   UNL     1      -5.103  19.244  -1.498  1.00  0.00     0.012 A 
ATOM     78  C   UNL     1      -5.279  20.555   0.544  1.00  0.00     0.148 A 
ATOM     79  C   UNL     1      -5.364  20.383  -2.259  1.00  0.00     0.002 A 
ATOM     80  C   UNL     1      -5.583  21.677  -0.219  1.00  0.00     0.091 A 
ATOM     81  F   UNL     1      -5.199  20.611   1.882  1.00  0.00    -0.205 F 
ATOM     82  C   UNL     1      -5.616  21.595  -1.620  1.00  0.00     0.022 A 
BRANCH  80  83
ATOM     83  S   UNL     1      -6.012  23.255   0.526  1.00  0.00     0.127 S 
ATOM     84  O   UNL     1      -4.790  24.028   0.310  1.00  0.00    -0.237 OA
ATOM     85  O   UNL     1      -7.154  23.682  -0.283  1.00  0.00    -0.237 OA
ATOM     86  O   UNL     1      -6.334  22.964   1.916  1.00  0.00    -0.744 OA
ENDBRANCH  80  83
ENDBRANCH  53  76
ENDBRANCH  27  28
ENDBRANCH  19  22
ENDBRANCH  17  18
ENDBRANCH  16  17
ENDBRANCH   1  16
TORSDOF 19
