REMARK SMILES CSc1cccc(N2C[C@@H](C(=O)NCCCCNC(=O)c3ccc(-c4c5nc(c(-c6cccc(S(=O)(=O)[O-])c6F)c6ccc([nH]6)c(-c6cccc(S(=O)(=O)[O-])c6F)c6nc(c(-c7cccc(S(=O)(=O)[O-])c7F)c7ccc4[nH]7)C=C6)C=C5)cc3)CC2=O)c1
REMARK SMILES IDX 16 1 15 2 14 3 13 4 11 5 12 6 10 8 8 9 9 10 85 11 84 12
REMARK SMILES IDX 86 13 7 14 3 15 4 16 87 17 5 18 6 19 2 20 1 21 17 22 18 23
REMARK SMILES IDX 19 24 20 26 21 27 22 28 83 29 23 30 82 31 24 32 25 33 26 34
REMARK SMILES IDX 76 35 27 36 81 37 75 38 77 39 28 40 80 41 74 42 73 43 29 45
REMARK SMILES IDX 61 46 41 47 60 48 42 49 45 50 59 51 78 52 43 53 44 54 58 56
REMARK SMILES IDX 79 57 46 58 30 59 31 60 39 61 32 62 34 63 40 64 33 65 35 66
REMARK SMILES IDX 36 67 37 68 38 69 62 70 63 71 71 72 64 73 66 74 72 75 65 76
REMARK SMILES IDX 67 77 68 78 69 79 70 80 47 81 48 82 56 83 49 84 51 85 57 86
REMARK SMILES IDX 50 87 52 88 53 89 54 90 55 91
REMARK H PARENT 13 7 18 25 77 44 45 55
REMARK Flexibility Score: inf
ROOT
ATOM      1  C   UNL     1       3.076   3.009  -7.550  1.00  0.00     0.023 C 
ENDROOT
BRANCH   1   2
ATOM      2  C   UNL     1       3.261   2.036  -6.384  1.00  0.00     0.023 C 
BRANCH   2   3
ATOM      3  C   UNL     1       2.548   0.695  -6.547  1.00  0.00     0.116 C 
BRANCH   3   4
ATOM      4  N   UNL     1       3.100  -0.088  -7.638  1.00  0.00    -0.356 N 
ATOM      5  C   UNL     1       3.779  -1.263  -7.653  1.00  0.00     0.225 C 
ATOM      6  O   UNL     1       4.095  -1.727  -8.751  1.00  0.00    -0.275 OA
ATOM      7  H   UNL     1       2.954   0.305  -8.529  1.00  0.00     0.163 HD
BRANCH   5   8
ATOM      8  C   UNL     1       4.115  -2.037  -6.395  1.00  0.00     0.107 C 
ATOM      9  N   UNL     1       3.059  -2.371  -4.313  1.00  0.00    -0.312 N 
ATOM     10  C   UNL     1       2.885  -2.615  -5.725  1.00  0.00     0.139 C 
ATOM     11  C   UNL     1       4.133  -1.524  -4.048  1.00  0.00     0.227 C 
ATOM     12  C   UNL     1       4.875  -1.262  -5.333  1.00  0.00     0.116 C 
ATOM     13  O   UNL     1       4.495  -1.075  -2.968  1.00  0.00    -0.274 OA
BRANCH   9  14
ATOM     14  C   UNL     1       2.174  -2.896  -3.338  1.00  0.00     0.045 A 
ATOM     15  C   UNL     1       0.989  -2.689  -1.208  1.00  0.00     0.009 A 
ATOM     16  C   UNL     1       0.469  -3.976  -1.392  1.00  0.00     0.015 A 
ATOM     17  C   UNL     1       1.861  -2.172  -2.176  1.00  0.00     0.041 A 
ATOM     18  C   UNL     1       0.779  -4.712  -2.533  1.00  0.00     0.003 A 
ATOM     19  C   UNL     1       1.606  -4.164  -3.513  1.00  0.00     0.026 A 
BRANCH  15  20
ATOM     20  S   UNL     1       0.479  -1.829   0.278  1.00  0.00    -0.130 SA
ATOM     21  C   UNL     1       1.038  -0.128  -0.010  1.00  0.00     0.091 C 
ENDBRANCH  15  20
ENDBRANCH   9  14
ENDBRANCH   5   8
ENDBRANCH   3   4
ENDBRANCH   2   3
ENDBRANCH   1   2
BRANCH   1  22
ATOM     22  C   UNL     1       1.629   3.317  -7.918  1.00  0.00     0.116 C 
BRANCH  22  23
ATOM     23  N   UNL     1       0.865   3.869  -6.807  1.00  0.00    -0.352 N 
ATOM     24  C   UNL     1       0.084   5.000  -6.771  1.00  0.00     0.251 C 
ATOM     25  H   UNL     1       0.915   3.361  -5.965  1.00  0.00     0.163 HD
ATOM     26  O   UNL     1      -0.382   5.391  -5.705  1.00  0.00    -0.269 OA
BRANCH  24  27
ATOM     27  C   UNL     1      -0.161   5.757  -8.016  1.00  0.00     0.039 A 
ATOM     28  C   UNL     1       0.031   7.141  -8.016  1.00  0.00     0.014 A 
ATOM     29  C   UNL     1      -0.537   5.097  -9.188  1.00  0.00     0.014 A 
ATOM     30  C   UNL     1      -0.076   7.851  -9.213  1.00  0.00     0.010 A 
ATOM     31  C   UNL     1      -0.564   5.794 -10.393  1.00  0.00     0.010 A 
ATOM     32  C   UNL     1      -0.329   7.177 -10.420  1.00  0.00    -0.014 A 
BRANCH  32  33
ATOM     33  C   UNL     1      -0.321   7.894 -11.721  1.00  0.00     0.031 A 
ATOM     34  C   UNL     1      -1.558   7.936 -12.575  1.00  0.00     0.074 A 
ATOM     35  C   UNL     1       0.830   8.428 -12.178  1.00  0.00     0.049 A 
ATOM     36  N   UNL     1      -1.722   8.459 -13.763  1.00  0.00    -0.248 NA
ATOM     37  C   UNL     1      -2.764   7.284 -12.037  1.00  0.00     0.031 C 
ATOM     38  C   UNL     1       2.118   8.385 -11.482  1.00  0.00     0.029 A 
ATOM     39  N   UNL     1       1.111   9.088 -13.349  1.00  0.00    -0.354 N 
ATOM     40  C   UNL     1      -3.031   8.170 -14.129  1.00  0.00     0.074 A 
ATOM     41  C   UNL     1      -3.608   7.396 -13.052  1.00  0.00     0.031 C 
ATOM     42  C   UNL     1       3.048   8.994 -12.235  1.00  0.00     0.029 A 
ATOM     43  C   UNL     1       2.434   9.439 -13.482  1.00  0.00     0.049 A 
ATOM     44  H   UNL     1       0.429   9.290 -14.030  1.00  0.00     0.167 HD
ATOM     45  C   UNL     1      -3.701   8.537 -15.247  1.00  0.00     0.034 A 
ATOM     46  C   UNL     1       3.085  10.040 -14.498  1.00  0.00     0.034 A 
ATOM     47  C   UNL     1      -3.135   9.335 -16.301  1.00  0.00     0.049 A 
ATOM     48  C   UNL     1       2.311  10.459 -15.718  1.00  0.00     0.074 A 
ATOM     49  C   UNL     1      -3.759   9.834 -17.431  1.00  0.00     0.029 A 
ATOM     50  N   UNL     1      -1.810   9.738 -16.366  1.00  0.00    -0.354 N 
ATOM     51  N   UNL     1       1.033  10.318 -15.973  1.00  0.00    -0.248 NA
ATOM     52  C   UNL     1       3.061  11.150 -16.776  1.00  0.00     0.031 C 
ATOM     53  C   UNL     1      -2.803  10.509 -18.196  1.00  0.00     0.029 A 
ATOM     54  C   UNL     1      -1.592  10.465 -17.524  1.00  0.00     0.049 A 
ATOM     55  H   UNL     1      -1.125   9.537 -15.688  1.00  0.00     0.167 HD
ATOM     56  C   UNL     1       0.819  10.933 -17.201  1.00  0.00     0.074 A 
ATOM     57  C   UNL     1       2.095  11.468 -17.628  1.00  0.00     0.031 C 
ATOM     58  C   UNL     1      -0.329  11.034 -17.917  1.00  0.00     0.034 A 
BRANCH  45  59
ATOM     59  C   UNL     1      -5.143   8.116 -15.369  1.00  0.00     0.023 A 
ATOM     60  C   UNL     1      -6.116   8.705 -14.536  1.00  0.00     0.012 A 
ATOM     61  C   UNL     1      -5.545   7.184 -16.346  1.00  0.00     0.148 A 
ATOM     62  C   UNL     1      -7.459   8.346 -14.646  1.00  0.00     0.002 A 
ATOM     63  C   UNL     1      -6.891   6.867 -16.483  1.00  0.00     0.091 A 
ATOM     64  F   UNL     1      -4.604   6.619 -17.117  1.00  0.00    -0.205 F 
ATOM     65  C   UNL     1      -7.847   7.436 -15.625  1.00  0.00     0.022 A 
BRANCH  63  66
ATOM     66  S   UNL     1      -7.504   5.769 -17.765  1.00  0.00     0.127 S 
ATOM     67  O   UNL     1      -7.924   4.607 -16.983  1.00  0.00    -0.237 OA
ATOM     68  O   UNL     1      -8.603   6.549 -18.336  1.00  0.00    -0.237 OA
ATOM     69  O   UNL     1      -6.386   5.541 -18.669  1.00  0.00    -0.744 OA
ENDBRANCH  63  66
ENDBRANCH  45  59
BRANCH  46  70
ATOM     70  C   UNL     1       4.544  10.328 -14.384  1.00  0.00     0.023 A 
ATOM     71  C   UNL     1       4.980  11.662 -14.267  1.00  0.00     0.012 A 
ATOM     72  C   UNL     1       5.496   9.291 -14.372  1.00  0.00     0.148 A 
ATOM     73  C   UNL     1       6.340  11.961 -14.178  1.00  0.00     0.002 A 
ATOM     74  C   UNL     1       6.845   9.591 -14.224  1.00  0.00     0.091 A 
ATOM     75  F   UNL     1       5.061   8.029 -14.493  1.00  0.00    -0.205 F 
ATOM     76  C   UNL     1       7.271  10.926 -14.147  1.00  0.00     0.022 A 
BRANCH  74  77
ATOM     77  S   UNL     1       8.101   8.320 -14.041  1.00  0.00     0.127 S 
ATOM     78  O   UNL     1       8.840   8.448 -15.294  1.00  0.00    -0.237 OA
ATOM     79  O   UNL     1       8.819   8.777 -12.851  1.00  0.00    -0.237 OA
ATOM     80  O   UNL     1       7.374   7.071 -13.861  1.00  0.00    -0.744 OA
ENDBRANCH  74  77
ENDBRANCH  46  70
BRANCH  58  81
ATOM     81  C   UNL     1      -0.275  11.784 -19.223  1.00  0.00     0.023 A 
ATOM     82  C   UNL     1       0.386  11.220 -20.333  1.00  0.00     0.012 A 
ATOM     83  C   UNL     1      -0.941  13.017 -19.369  1.00  0.00     0.148 A 
ATOM     84  C   UNL     1       0.412  11.889 -21.557  1.00  0.00     0.002 A 
ATOM     85  C   UNL     1      -0.956  13.652 -20.605  1.00  0.00     0.091 A 
ATOM     86  F   UNL     1      -1.549  13.545 -18.297  1.00  0.00    -0.205 F 
ATOM     87  C   UNL     1      -0.268  13.097 -21.696  1.00  0.00     0.022 A 
BRANCH  85  88
ATOM     88  S   UNL     1      -1.886  15.159 -20.904  1.00  0.00     0.127 S 
ATOM     89  O   UNL     1      -0.816  16.142 -21.063  1.00  0.00    -0.237 OA
ATOM     90  O   UNL     1      -2.607  14.837 -22.136  1.00  0.00    -0.237 OA
ATOM     91  O   UNL     1      -2.737  15.346 -19.737  1.00  0.00    -0.744 OA
ENDBRANCH  85  88
ENDBRANCH  58  81
ENDBRANCH  32  33
ENDBRANCH  24  27
ENDBRANCH  22  23
ENDBRANCH   1  22
TORSDOF 16
