REMARK SMILES CC[C@]1(C(=O)NCCCCNC(=O)c2ccc(-c3c4nc(c(-c5cccc(S(=O)(=O)[O-])c5F)c5ccc([nH]5)c(-c5cccc(S(=O)(=O)[O-])c5F)c5nc(c(-c6cccc(S(=O)(=O)[O-])c6F)c6ccc3[nH]6)C=C5)C=C4)cc2)CCC[N@@H+](Cc2cc(OC)ccc2F)C1
REMARK SMILES IDX 8 1 7 2 6 3 4 4 5 5 3 7 77 8 91 9 78 10 80 11 79 12 2 14
REMARK SMILES IDX 1 15 81 16 82 17 83 18 89 19 84 20 88 21 90 22 87 23 85 24
REMARK SMILES IDX 86 25 9 26 10 27 11 28 12 29 13 31 14 32 15 33 76 34 16 35
REMARK SMILES IDX 75 36 17 37 18 38 19 39 69 40 20 41 74 42 68 43 70 44 21 45
REMARK SMILES IDX 73 46 67 47 66 48 22 50 54 51 34 52 53 53 35 54 38 55 52 56
REMARK SMILES IDX 71 57 36 58 37 59 51 61 72 62 39 63 23 64 24 65 32 66 25 67
REMARK SMILES IDX 27 68 33 69 26 70 28 71 29 72 30 73 31 74 55 75 56 76 64 77
REMARK SMILES IDX 57 78 59 79 65 80 58 81 60 82 61 83 62 84 63 85 40 86 41 87
REMARK SMILES IDX 49 88 42 89 44 90 50 91 43 92 45 93 46 94 47 95 48 96
REMARK H PARENT 6 6 80 13 11 30 70 49 38 60
REMARK Flexibility Score: inf
ROOT
ATOM      1  C   UNL     1       3.618  -4.633   3.485  1.00  0.00     0.023 C 
ENDROOT
BRANCH   1   2
ATOM      2  C   UNL     1       2.690  -3.424   3.462  1.00  0.00     0.116 C 
BRANCH   2   3
ATOM      3  N   UNL     1       3.126  -2.426   2.495  1.00  0.00    -0.355 N 
ATOM      4  C   UNL     1       2.526  -1.879   1.397  1.00  0.00     0.231 C 
ATOM      5  O   UNL     1       3.233  -1.123   0.725  1.00  0.00    -0.274 OA
ATOM      6  H   UNL     1       4.031  -2.078   2.666  1.00  0.00     0.163 HD
BRANCH   4   7
ATOM      7  C   UNL     1       1.062  -2.198   1.004  1.00  0.00     0.098 C 
ATOM      8  C   UNL     1       0.982  -3.702   0.620  1.00  0.00     0.028 C 
ATOM      9  C   UNL     1       0.137  -1.851   2.202  1.00  0.00     0.279 C 
ATOM     10  C   UNL     1      -0.433  -4.266   0.695  1.00  0.00     0.063 C 
ATOM     11  N   UNL     1      -1.187  -2.493   2.219  1.00  0.00    -0.330 N 
ATOM     12  C   UNL     1      -1.110  -3.939   2.025  1.00  0.00     0.262 C 
ATOM     13  H   UNL     1      -1.696  -2.134   1.411  1.00  0.00     0.348 HD
BRANCH   7  14
ATOM     14  C   UNL     1       0.625  -1.385  -0.264  1.00  0.00     0.019 C 
ATOM     15  C   UNL     1       0.739   0.139  -0.209  1.00  0.00     0.005 C 
ENDBRANCH   7  14
BRANCH  11  16
ATOM     16  C   UNL     1      -1.985  -2.104   3.406  1.00  0.00     0.302 C 
BRANCH  16  17
ATOM     17  C   UNL     1      -1.516  -2.568   4.773  1.00  0.00     0.046 A 
ATOM     18  C   UNL     1      -2.175  -3.609   5.450  1.00  0.00     0.059 A 
ATOM     19  C   UNL     1      -0.454  -1.940   5.435  1.00  0.00     0.132 A 
ATOM     20  C   UNL     1      -1.768  -4.009   6.732  1.00  0.00     0.119 A 
ATOM     21  C   UNL     1       0.018  -2.395   6.662  1.00  0.00     0.043 A 
ATOM     22  F   UNL     1       0.139  -0.866   4.897  1.00  0.00    -0.206 F 
ATOM     23  C   UNL     1      -0.633  -3.441   7.310  1.00  0.00     0.049 A 
BRANCH  20  24
ATOM     24  O   UNL     1      -2.550  -4.959   7.334  1.00  0.00    -0.497 OA
ATOM     25  C   UNL     1      -2.518  -4.950   8.762  1.00  0.00     0.278 C 
ENDBRANCH  20  24
ENDBRANCH  16  17
ENDBRANCH  11  16
ENDBRANCH   4   7
ENDBRANCH   2   3
ENDBRANCH   1   2
BRANCH   1  26
ATOM     26  C   UNL     1       5.005  -4.351   4.057  1.00  0.00     0.023 C 
BRANCH  26  27
ATOM     27  C   UNL     1       5.015  -3.764   5.464  1.00  0.00     0.116 C 
BRANCH  27  28
ATOM     28  N   UNL     1       4.327  -4.603   6.438  1.00  0.00    -0.352 N 
ATOM     29  C   UNL     1       4.760  -5.011   7.676  1.00  0.00     0.251 C 
ATOM     30  H   UNL     1       3.433  -4.918   6.173  1.00  0.00     0.163 HD
ATOM     31  O   UNL     1       4.105  -5.823   8.325  1.00  0.00    -0.269 OA
BRANCH  29  32
ATOM     32  C   UNL     1       6.032  -4.482   8.209  1.00  0.00     0.039 A 
ATOM     33  C   UNL     1       6.985  -5.372   8.711  1.00  0.00     0.014 A 
ATOM     34  C   UNL     1       6.295  -3.110   8.169  1.00  0.00     0.014 A 
ATOM     35  C   UNL     1       8.232  -4.889   9.113  1.00  0.00     0.010 A 
ATOM     36  C   UNL     1       7.564  -2.644   8.494  1.00  0.00     0.010 A 
ATOM     37  C   UNL     1       8.544  -3.526   8.975  1.00  0.00    -0.014 A 
BRANCH  37  38
ATOM     38  C   UNL     1       9.887  -2.997   9.322  1.00  0.00     0.031 A 
ATOM     39  C   UNL     1      10.036  -1.980  10.420  1.00  0.00     0.074 A 
ATOM     40  C   UNL     1      10.957  -3.359   8.588  1.00  0.00     0.049 A 
ATOM     41  N   UNL     1      11.112  -1.361  10.831  1.00  0.00    -0.248 NA
ATOM     42  C   UNL     1       8.809  -1.582  11.129  1.00  0.00     0.031 C 
ATOM     43  C   UNL     1      10.931  -4.277   7.448  1.00  0.00     0.029 A 
ATOM     44  N   UNL     1      12.273  -2.979   8.678  1.00  0.00    -0.354 N 
ATOM     45  C   UNL     1      10.688  -0.476  11.816  1.00  0.00     0.074 A 
ATOM     46  C   UNL     1       9.251  -0.608  11.909  1.00  0.00     0.031 C 
ATOM     47  C   UNL     1      12.174  -4.402   6.956  1.00  0.00     0.029 A 
ATOM     48  C   UNL     1      13.080  -3.554   7.724  1.00  0.00     0.049 A 
ATOM     49  H   UNL     1      12.608  -2.354   9.362  1.00  0.00     0.167 HD
ATOM     50  C   UNL     1      11.428   0.346  12.598  1.00  0.00     0.034 A 
ATOM     51  C   UNL     1      14.401  -3.415   7.497  1.00  0.00     0.034 A 
ATOM     52  C   UNL     1      12.861   0.442  12.531  1.00  0.00     0.049 A 
ATOM     53  C   UNL     1      15.208  -2.520   8.398  1.00  0.00     0.074 A 
ATOM     54  C   UNL     1      13.714   1.175  13.336  1.00  0.00     0.029 A 
ATOM     55  N   UNL     1      13.654  -0.211  11.599  1.00  0.00    -0.354 N 
ATOM     56  N   UNL     1      14.813  -1.813   9.428  1.00  0.00    -0.248 NA
ATOM     57  C   UNL     1      16.650  -2.432   8.125  1.00  0.00     0.031 C 
ATOM     58  C   UNL     1      15.022   0.981  12.877  1.00  0.00     0.029 A 
ATOM     59  C   UNL     1      14.986   0.108  11.801  1.00  0.00     0.049 A 
ATOM     60  H   UNL     1      13.318  -0.813  10.896  1.00  0.00     0.167 HD
ATOM     61  C   UNL     1      15.960  -1.227   9.952  1.00  0.00     0.074 A 
ATOM     62  C   UNL     1      17.068  -1.675   9.132  1.00  0.00     0.031 C 
ATOM     63  C   UNL     1      16.084  -0.386  11.009  1.00  0.00     0.034 A 
BRANCH  50  64
ATOM     64  C   UNL     1      10.693   1.163  13.630  1.00  0.00     0.023 A 
ATOM     65  C   UNL     1      10.106   0.515  14.738  1.00  0.00     0.012 A 
ATOM     66  C   UNL     1      10.592   2.562  13.518  1.00  0.00     0.148 A 
ATOM     67  C   UNL     1       9.388   1.239  15.688  1.00  0.00     0.002 A 
ATOM     68  C   UNL     1       9.914   3.283  14.495  1.00  0.00     0.091 A 
ATOM     69  F   UNL     1      11.132   3.162  12.447  1.00  0.00    -0.205 F 
ATOM     70  C   UNL     1       9.299   2.623  15.571  1.00  0.00     0.022 A 
BRANCH  68  71
ATOM     71  S   UNL     1       9.816   5.077  14.471  1.00  0.00     0.127 S 
ATOM     72  O   UNL     1       8.453   5.292  13.987  1.00  0.00    -0.237 OA
ATOM     73  O   UNL     1      10.023   5.420  15.879  1.00  0.00    -0.237 OA
ATOM     74  O   UNL     1      10.880   5.519  13.581  1.00  0.00    -0.744 OA
ENDBRANCH  68  71
ENDBRANCH  50  64
BRANCH  51  75
ATOM     75  C   UNL     1      15.056  -4.223   6.429  1.00  0.00     0.023 A 
ATOM     76  C   UNL     1      15.896  -5.291   6.801  1.00  0.00     0.012 A 
ATOM     77  C   UNL     1      14.818  -3.978   5.064  1.00  0.00     0.148 A 
ATOM     78  C   UNL     1      16.506  -6.087   5.833  1.00  0.00     0.002 A 
ATOM     79  C   UNL     1      15.389  -4.807   4.104  1.00  0.00     0.091 A 
ATOM     80  F   UNL     1      14.020  -2.954   4.732  1.00  0.00    -0.205 F 
ATOM     81  C   UNL     1      16.245  -5.853   4.486  1.00  0.00     0.022 A 
BRANCH  79  82
ATOM     82  S   UNL     1      15.016  -4.664   2.353  1.00  0.00     0.127 S 
ATOM     83  O   UNL     1      16.308  -4.260   1.804  1.00  0.00    -0.237 OA
ATOM     84  O   UNL     1      14.606  -6.029   2.023  1.00  0.00    -0.237 OA
ATOM     85  O   UNL     1      13.953  -3.674   2.254  1.00  0.00    -0.744 OA
ENDBRANCH  79  82
ENDBRANCH  51  75
BRANCH  63  86
ATOM     86  C   UNL     1      17.469   0.084  11.370  1.00  0.00     0.023 A 
ATOM     87  C   UNL     1      18.125   1.027  10.555  1.00  0.00     0.012 A 
ATOM     88  C   UNL     1      18.089  -0.353  12.558  1.00  0.00     0.148 A 
ATOM     89  C   UNL     1      19.388   1.506  10.900  1.00  0.00     0.002 A 
ATOM     90  C   UNL     1      19.326   0.166  12.921  1.00  0.00     0.091 A 
ATOM     91  F   UNL     1      17.458  -1.266  13.310  1.00  0.00    -0.205 F 
ATOM     92  C   UNL     1      19.982   1.086  12.088  1.00  0.00     0.022 A 
BRANCH  90  93
ATOM     93  S   UNL     1      20.121  -0.245  14.479  1.00  0.00     0.127 S 
ATOM     94  O   UNL     1      21.202  -1.125  14.040  1.00  0.00    -0.237 OA
ATOM     95  O   UNL     1      20.559   1.066  14.960  1.00  0.00    -0.237 OA
ATOM     96  O   UNL     1      19.094  -0.874  15.299  1.00  0.00    -0.744 OA
ENDBRANCH  90  93
ENDBRANCH  63  86
ENDBRANCH  37  38
ENDBRANCH  29  32
ENDBRANCH  27  28
ENDBRANCH  26  27
ENDBRANCH   1  26
TORSDOF 18
