REMARK SMILES Cc1coc2cc3c(cc12)[C@@H](C)[C@H](CCC(=O)N[C@@H](Cc1c[nH]c2ccccc12)C(=O)NCCCCNC(=O)c1ccc(-c2c4nc(c(-c5cccc(S(=O)(=O)[O-])c5F)c5ccc([nH]5)c(-c5cccc(S(=O)(=O)[O-])c5F)c5nc(c(-c6cccc(S(=O)(=O)[O-])c6F)c6ccc2[nH]6)C=C5)C=C4)cc1)C(=O)O3
REMARK SMILES IDX 34 1 33 2 32 3 30 4 31 5 19 7 18 8 16 9 17 10 15 12 14 13
REMARK SMILES IDX 13 14 1 15 2 16 3 17 10 18 4 19 5 20 9 21 6 22 8 23 7 24
REMARK SMILES IDX 11 25 105 26 12 27 103 28 104 29 20 30 21 31 22 32 29 33
REMARK SMILES IDX 23 34 24 35 28 36 25 38 27 39 26 40 35 41 36 42 37 43 38 44
REMARK SMILES IDX 39 46 40 47 41 48 102 49 42 50 101 51 43 52 44 53 45 54
REMARK SMILES IDX 95 55 46 56 100 57 94 58 96 59 47 60 99 61 93 62 92 63 48 65
REMARK SMILES IDX 80 66 60 67 79 68 61 69 64 70 78 71 97 72 62 73 63 74 77 76
REMARK SMILES IDX 98 77 65 78 49 79 50 80 58 81 51 82 53 83 59 84 52 85 54 86
REMARK SMILES IDX 55 87 56 88 57 89 81 90 82 91 90 92 83 93 85 94 91 95 84 96
REMARK SMILES IDX 86 97 87 98 88 99 89 100 66 101 67 102 75 103 68 104 70 105
REMARK SMILES IDX 76 106 69 107 71 108 72 109 73 110 74 111
REMARK H PARENT 32 6 18 11 23 37 37 45 96 64 64 75
REMARK Flexibility Score: inf
ROOT
ATOM      1  C   UNL     1      -0.355   3.086  10.840  1.00  0.00     0.023 C 
ENDROOT
BRANCH   1   2
ATOM      2  C   UNL     1      -0.220   1.821  10.019  1.00  0.00     0.116 C 
BRANCH   2   3
ATOM      3  N   UNL     1      -0.702   0.620  10.688  1.00  0.00    -0.354 N 
ATOM      4  C   UNL     1      -1.081  -0.573  10.137  1.00  0.00     0.242 C 
ATOM      5  O   UNL     1      -1.049  -1.589  10.838  1.00  0.00    -0.273 OA
ATOM      6  H   UNL     1      -0.763   0.675  11.669  1.00  0.00     0.163 HD
BRANCH   4   7
ATOM      7  C   UNL     1      -1.455  -0.666   8.657  1.00  0.00     0.175 C 
BRANCH   7   8
ATOM      8  N   UNL     1      -2.483   0.372   8.378  1.00  0.00    -0.344 N 
ATOM      9  C   UNL     1      -3.722   0.410   7.818  1.00  0.00     0.220 C 
ATOM     10  O   UNL     1      -4.343   1.475   7.861  1.00  0.00    -0.275 OA
ATOM     11  H   UNL     1      -2.190   1.263   8.676  1.00  0.00     0.164 HD
BRANCH   9  12
ATOM     12  C   UNL     1      -4.321  -0.766   7.070  1.00  0.00     0.101 C 
BRANCH  12  13
ATOM     13  C   UNL     1      -3.974  -0.847   5.562  1.00  0.00     0.026 C 
BRANCH  13  14
ATOM     14  C   UNL     1      -2.480  -0.639   5.313  1.00  0.00     0.107 C 
ATOM     15  C   UNL     1       1.528  -0.247  -0.656  1.00  0.00     0.048 C 
ATOM     16  C   UNL     1       1.087   0.811   0.276  1.00  0.00    -0.005 A 
ATOM     17  C   UNL     1       1.344   2.164   0.169  1.00  0.00     0.199 A 
ATOM     18  C   UNL     1       0.246   0.663   1.418  1.00  0.00     0.024 A 
ATOM     19  O   UNL     1       0.667   2.863   1.111  1.00  0.00    -0.464 OA
ATOM     20  C   UNL     1      -0.042   1.958   1.831  1.00  0.00     0.137 A 
ATOM     21  C   UNL     1      -0.338  -0.422   2.110  1.00  0.00     0.020 A 
ATOM     22  C   UNL     1      -0.965   2.276   2.807  1.00  0.00     0.095 A 
ATOM     23  C   UNL     1      -1.258  -0.160   3.135  1.00  0.00    -0.001 A 
ATOM     24  C   UNL     1      -1.601   1.182   3.387  1.00  0.00     0.138 A 
ATOM     25  C   UNL     1      -1.855  -1.248   4.024  1.00  0.00     0.034 C 
ATOM     26  O   UNL     1      -2.620   1.484   4.263  1.00  0.00    -0.426 OA
ATOM     27  C   UNL     1      -0.769  -2.279   4.431  1.00  0.00     0.014 C 
ATOM     28  C   UNL     1      -2.148   0.856   5.371  1.00  0.00     0.314 C 
ATOM     29  O   UNL     1      -1.536   1.444   6.232  1.00  0.00    -0.251 OA
ENDBRANCH  13  14
ENDBRANCH  12  13
ENDBRANCH   9  12
ENDBRANCH   7   8
BRANCH   7  30
ATOM     30  C   UNL     1      -0.168  -0.842   7.774  1.00  0.00     0.072 C 
BRANCH  30  31
ATOM     31  C   UNL     1       1.051   0.036   7.841  1.00  0.00    -0.020 A 
ATOM     32  C   UNL     1       1.358   1.117   7.030  1.00  0.00     0.087 A 
ATOM     33  C   UNL     1       2.191  -0.153   8.690  1.00  0.00     0.003 A 
ATOM     34  N   UNL     1       2.557   1.648   7.427  1.00  0.00    -0.361 N 
ATOM     35  C   UNL     1       3.080   0.896   8.450  1.00  0.00     0.046 A 
ATOM     36  C   UNL     1       2.506  -1.088   9.693  1.00  0.00     0.010 A 
ATOM     37  H   UNL     1       2.979   2.447   7.037  1.00  0.00     0.166 HD
ATOM     38  C   UNL     1       4.240   1.093   9.206  1.00  0.00     0.026 A 
ATOM     39  C   UNL     1       3.648  -0.891  10.475  1.00  0.00     0.001 A 
ATOM     40  C   UNL     1       4.486   0.197  10.249  1.00  0.00     0.002 A 
ENDBRANCH  30  31
ENDBRANCH   7  30
ENDBRANCH   4   7
ENDBRANCH   2   3
ENDBRANCH   1   2
BRANCH   1  41
ATOM     41  C   UNL     1       0.456   3.056  12.138  1.00  0.00     0.023 C 
BRANCH  41  42
ATOM     42  C   UNL     1       1.885   2.514  12.000  1.00  0.00     0.116 C 
BRANCH  42  43
ATOM     43  N   UNL     1       2.724   3.260  11.083  1.00  0.00    -0.352 N 
ATOM     44  C   UNL     1       3.623   4.280  11.236  1.00  0.00     0.251 C 
ATOM     45  H   UNL     1       2.625   2.970  10.147  1.00  0.00     0.163 HD
ATOM     46  O   UNL     1       4.420   4.472  10.315  1.00  0.00    -0.269 OA
BRANCH  44  47
ATOM     47  C   UNL     1       3.580   5.224  12.377  1.00  0.00     0.039 A 
ATOM     48  C   UNL     1       2.830   5.011  13.530  1.00  0.00     0.014 A 
ATOM     49  C   UNL     1       4.232   6.458  12.204  1.00  0.00     0.014 A 
ATOM     50  C   UNL     1       2.569   6.055  14.388  1.00  0.00     0.010 A 
ATOM     51  C   UNL     1       4.023   7.499  13.100  1.00  0.00     0.010 A 
ATOM     52  C   UNL     1       3.134   7.308  14.149  1.00  0.00    -0.014 A 
BRANCH  52  53
ATOM     53  C   UNL     1       2.834   8.326  15.140  1.00  0.00     0.031 A 
ATOM     54  C   UNL     1       3.223   7.928  16.520  1.00  0.00     0.074 A 
ATOM     55  C   UNL     1       2.256   9.505  14.850  1.00  0.00     0.049 A 
ATOM     56  N   UNL     1       2.440   7.651  17.512  1.00  0.00    -0.248 NA
ATOM     57  C   UNL     1       4.637   7.604  16.759  1.00  0.00     0.031 C 
ATOM     58  C   UNL     1       2.053  10.112  13.534  1.00  0.00     0.029 A 
ATOM     59  N   UNL     1       1.835  10.475  15.707  1.00  0.00    -0.354 N 
ATOM     60  C   UNL     1       3.285   7.335  18.574  1.00  0.00     0.074 A 
ATOM     61  C   UNL     1       4.592   7.139  18.007  1.00  0.00     0.031 C 
ATOM     62  C   UNL     1       1.804  11.432  13.693  1.00  0.00     0.029 A 
ATOM     63  C   UNL     1       1.685  11.721  15.111  1.00  0.00     0.049 A 
ATOM     64  H   UNL     1       1.653  10.309  16.660  1.00  0.00     0.167 HD
ATOM     65  C   UNL     1       2.889   7.501  19.864  1.00  0.00     0.034 A 
ATOM     66  C   UNL     1       1.569  12.906  15.758  1.00  0.00     0.034 A 
ATOM     67  C   UNL     1       1.457   7.582  19.969  1.00  0.00     0.049 A 
ATOM     68  C   UNL     1       1.112  12.610  17.135  1.00  0.00     0.074 A 
ATOM     69  C   UNL     1       0.402   6.740  19.683  1.00  0.00     0.029 A 
ATOM     70  N   UNL     1       0.919   8.837  20.108  1.00  0.00    -0.354 N 
ATOM     71  N   UNL     1      -0.063  12.123  17.420  1.00  0.00    -0.248 NA
ATOM     72  C   UNL     1       2.120  12.471  18.173  1.00  0.00     0.031 C 
ATOM     73  C   UNL     1      -0.635   7.597  19.217  1.00  0.00     0.029 A 
ATOM     74  C   UNL     1      -0.175   8.914  19.294  1.00  0.00     0.049 A 
ATOM     75  H   UNL     1       1.262   9.554  20.690  1.00  0.00     0.167 HD
ATOM     76  C   UNL     1       0.177  11.234  18.458  1.00  0.00     0.074 A 
ATOM     77  C   UNL     1       1.510  11.574  18.951  1.00  0.00     0.031 C 
ATOM     78  C   UNL     1      -0.600  10.126  18.629  1.00  0.00     0.034 A 
BRANCH  65  79
ATOM     79  C   UNL     1       3.788   7.992  20.979  1.00  0.00     0.023 A 
ATOM     80  C   UNL     1       3.224   8.071  22.274  1.00  0.00     0.012 A 
ATOM     81  C   UNL     1       5.028   8.644  20.785  1.00  0.00     0.148 A 
ATOM     82  C   UNL     1       3.822   8.819  23.293  1.00  0.00     0.002 A 
ATOM     83  C   UNL     1       5.658   9.319  21.823  1.00  0.00     0.091 A 
ATOM     84  F   UNL     1       5.557   8.737  19.564  1.00  0.00    -0.205 F 
ATOM     85  C   UNL     1       5.042   9.442  23.069  1.00  0.00     0.022 A 
BRANCH  83  86
ATOM     86  S   UNL     1       7.265  10.095  21.604  1.00  0.00     0.127 S 
ATOM     87  O   UNL     1       6.913  11.512  21.641  1.00  0.00    -0.237 OA
ATOM     88  O   UNL     1       7.991   9.604  22.775  1.00  0.00    -0.237 OA
ATOM     89  O   UNL     1       7.776   9.596  20.333  1.00  0.00    -0.744 OA
ENDBRANCH  83  86
ENDBRANCH  65  79
BRANCH  66  90
ATOM     90  C   UNL     1       2.123  14.234  15.397  1.00  0.00     0.023 A 
ATOM     91  C   UNL     1       1.634  15.385  16.050  1.00  0.00     0.012 A 
ATOM     92  C   UNL     1       3.323  14.347  14.660  1.00  0.00     0.148 A 
ATOM     93  C   UNL     1       2.340  16.594  16.009  1.00  0.00     0.002 A 
ATOM     94  C   UNL     1       4.020  15.551  14.621  1.00  0.00     0.091 A 
ATOM     95  F   UNL     1       3.831  13.253  14.079  1.00  0.00    -0.205 F 
ATOM     96  C   UNL     1       3.538  16.674  15.306  1.00  0.00     0.022 A 
BRANCH  94  97
ATOM     97  S   UNL     1       5.597  15.721  13.773  1.00  0.00     0.127 S 
ATOM     98  O   UNL     1       5.374  16.917  12.960  1.00  0.00    -0.237 OA
ATOM     99  O   UNL     1       6.520  15.902  14.890  1.00  0.00    -0.237 OA
ATOM    100  O   UNL     1       5.771  14.496  13.003  1.00  0.00    -0.744 OA
ENDBRANCH  94  97
ENDBRANCH  66  90
BRANCH  78 101
ATOM    101  C   UNL     1      -1.891  10.021  17.858  1.00  0.00     0.023 A 
ATOM    102  C   UNL     1      -1.923   9.892  16.455  1.00  0.00     0.012 A 
ATOM    103  C   UNL     1      -3.066   9.794  18.595  1.00  0.00     0.148 A 
ATOM    104  C   UNL     1      -3.108   9.536  15.802  1.00  0.00     0.002 A 
ATOM    105  C   UNL     1      -4.222   9.380  17.949  1.00  0.00     0.091 A 
ATOM    106  F   UNL     1      -3.010   9.928  19.929  1.00  0.00    -0.205 F 
ATOM    107  C   UNL     1      -4.250   9.258  16.550  1.00  0.00     0.022 A 
BRANCH 105 108
ATOM    108  S   UNL     1      -5.667   8.840  18.866  1.00  0.00     0.127 S 
ATOM    109  O   UNL     1      -6.630   9.898  18.570  1.00  0.00    -0.237 OA
ATOM    110  O   UNL     1      -5.963   7.548  18.244  1.00  0.00    -0.237 OA
ATOM    111  O   UNL     1      -5.251   8.749  20.261  1.00  0.00    -0.744 OA
ENDBRANCH 105 108
ENDBRANCH  78 101
ENDBRANCH  52  53
ENDBRANCH  44  47
ENDBRANCH  42  43
ENDBRANCH  41  42
ENDBRANCH   1  41
TORSDOF 20
