REMARK SMILES Cn1ccc(C(=O)NCc2ccc(C(=O)NCCCCNC(=O)c3ccc(-c4c5nc(c(-c6cccc(S(=O)(=O)[O-])c6F)c6ccc([nH]6)c(-c6cccc(S(=O)(=O)[O-])c6F)c6nc(c(-c7cccc(S(=O)(=O)[O-])c7F)c7ccc4[nH]7)C=C6)C=C5)cc3)cc2)cc1=O
REMARK SMILES IDX 18 1 17 2 16 3 14 4 15 5 13 7 10 8 11 9 88 10 12 11 87 12
REMARK SMILES IDX 9 13 8 14 6 15 7 16 5 18 1 19 2 20 3 21 90 22 4 23 89 24
REMARK SMILES IDX 91 25 19 26 20 27 21 28 22 29 23 31 24 32 25 33 86 34 26 35
REMARK SMILES IDX 85 36 27 37 28 38 29 39 79 40 30 41 84 42 78 43 80 44 31 45
REMARK SMILES IDX 83 46 77 47 76 48 32 50 64 51 44 52 63 53 45 54 48 55 62 56
REMARK SMILES IDX 81 57 46 58 47 59 61 61 82 62 49 63 33 64 34 65 42 66 35 67
REMARK SMILES IDX 37 68 43 69 36 70 38 71 39 72 40 73 41 74 65 75 66 76 74 77
REMARK SMILES IDX 67 78 69 79 75 80 68 81 70 82 71 83 72 84 73 85 50 86 51 87
REMARK SMILES IDX 59 88 52 89 54 90 60 91 53 92 55 93 56 94 57 95 58 96
REMARK H PARENT 16 6 8 17 21 30 80 49 48 60
REMARK Flexibility Score: inf
ROOT
ATOM      1  C   UNL     1       4.947   6.831   5.155  1.00  0.00     0.023 C 
ENDROOT
BRANCH   1   2
ATOM      2  C   UNL     1       3.562   6.285   5.512  1.00  0.00     0.116 C 
BRANCH   2   3
ATOM      3  N   UNL     1       2.515   7.231   5.173  1.00  0.00    -0.352 N 
ATOM      4  C   UNL     1       1.676   7.320   4.089  1.00  0.00     0.251 C 
ATOM      5  O   UNL     1       0.792   8.177   4.114  1.00  0.00    -0.269 OA
ATOM      6  H   UNL     1       2.381   7.939   5.844  1.00  0.00     0.163 HD
BRANCH   4   7
ATOM      7  C   UNL     1       1.765   6.423   2.900  1.00  0.00     0.039 A 
ATOM      8  C   UNL     1       1.790   4.798   0.568  1.00  0.00    -0.029 A 
ATOM      9  C   UNL     1       0.614   5.436   0.981  1.00  0.00     0.006 A 
ATOM     10  C   UNL     1       2.955   5.022   1.315  1.00  0.00     0.006 A 
ATOM     11  C   UNL     1       0.603   6.233   2.135  1.00  0.00     0.014 A 
ATOM     12  C   UNL     1       2.943   5.831   2.453  1.00  0.00     0.014 A 
BRANCH   8  13
ATOM     13  C   UNL     1       1.825   3.973  -0.700  1.00  0.00     0.152 C 
BRANCH  13  14
ATOM     14  N   UNL     1       2.836   2.935  -0.631  1.00  0.00    -0.348 N 
ATOM     15  C   UNL     1       2.835   1.633  -0.256  1.00  0.00     0.251 C 
ATOM     16  O   UNL     1       3.938   1.085  -0.168  1.00  0.00    -0.269 OA
ATOM     17  H   UNL     1       3.724   3.247  -0.921  1.00  0.00     0.164 HD
BRANCH  15  18
ATOM     18  C   UNL     1       1.592   0.818  -0.072  1.00  0.00     0.046 A 
ATOM     19  C   UNL     1      -1.731  -1.826   0.078  1.00  0.00     0.153 C 
ATOM     20  N   UNL     1      -0.598  -0.915   0.074  1.00  0.00    -0.319 N 
ATOM     21  C   UNL     1       0.648  -1.418  -0.235  1.00  0.00     0.089 A 
ATOM     22  C   UNL     1      -0.793   0.424   0.397  1.00  0.00     0.251 A 
ATOM     23  C   UNL     1       1.712  -0.613  -0.315  1.00  0.00     0.032 A 
ATOM     24  C   UNL     1       0.415   1.297   0.356  1.00  0.00     0.085 A 
ATOM     25  O   UNL     1      -1.877   0.927   0.682  1.00  0.00    -0.269 OA
ENDBRANCH  15  18
ENDBRANCH  13  14
ENDBRANCH   8  13
ENDBRANCH   4   7
ENDBRANCH   2   3
ENDBRANCH   1   2
BRANCH   1  26
ATOM     26  C   UNL     1       5.537   7.810   6.171  1.00  0.00     0.023 C 
BRANCH  26  27
ATOM     27  C   UNL     1       5.812   7.224   7.550  1.00  0.00     0.116 C 
BRANCH  27  28
ATOM     28  N   UNL     1       6.709   6.075   7.525  1.00  0.00    -0.352 N 
ATOM     29  C   UNL     1       7.594   5.668   8.492  1.00  0.00     0.251 C 
ATOM     30  H   UNL     1       6.676   5.521   6.711  1.00  0.00     0.163 HD
ATOM     31  O   UNL     1       8.355   4.728   8.280  1.00  0.00    -0.269 OA
BRANCH  29  32
ATOM     32  C   UNL     1       7.651   6.401   9.774  1.00  0.00     0.039 A 
ATOM     33  C   UNL     1       8.892   6.834  10.249  1.00  0.00     0.014 A 
ATOM     34  C   UNL     1       6.481   6.699  10.476  1.00  0.00     0.014 A 
ATOM     35  C   UNL     1       8.950   7.625  11.398  1.00  0.00     0.010 A 
ATOM     36  C   UNL     1       6.536   7.546  11.577  1.00  0.00     0.010 A 
ATOM     37  C   UNL     1       7.770   8.014  12.051  1.00  0.00    -0.014 A 
BRANCH  37  38
ATOM     38  C   UNL     1       7.801   8.929  13.219  1.00  0.00     0.031 A 
ATOM     39  C   UNL     1       7.309   8.464  14.561  1.00  0.00     0.074 A 
ATOM     40  C   UNL     1       8.165  10.214  13.043  1.00  0.00     0.049 A 
ATOM     41  N   UNL     1       7.212   9.134  15.679  1.00  0.00    -0.248 NA
ATOM     42  C   UNL     1       6.831   7.075  14.649  1.00  0.00     0.031 C 
ATOM     43  C   UNL     1       8.551  10.815  11.765  1.00  0.00     0.029 A 
ATOM     44  N   UNL     1       8.230  11.256  13.934  1.00  0.00    -0.354 N 
ATOM     45  C   UNL     1       6.622   8.267  16.590  1.00  0.00     0.074 A 
ATOM     46  C   UNL     1       6.352   7.033  15.884  1.00  0.00     0.031 C 
ATOM     47  C   UNL     1       8.802  12.120  11.952  1.00  0.00     0.029 A 
ATOM     48  C   UNL     1       8.578  12.454  13.356  1.00  0.00     0.049 A 
ATOM     49  H   UNL     1       8.044  11.155  14.896  1.00  0.00     0.167 HD
ATOM     50  C   UNL     1       6.357   8.466  17.903  1.00  0.00     0.034 A 
ATOM     51  C   UNL     1       8.698  13.684  13.892  1.00  0.00     0.034 A 
ATOM     52  C   UNL     1       6.677   9.675  18.612  1.00  0.00     0.049 A 
ATOM     53  C   UNL     1       8.485  13.862  15.370  1.00  0.00     0.074 A 
ATOM     54  C   UNL     1       6.575   9.931  19.968  1.00  0.00     0.029 A 
ATOM     55  N   UNL     1       7.151  10.836  18.020  1.00  0.00    -0.354 N 
ATOM     56  N   UNL     1       8.125  12.971  16.262  1.00  0.00    -0.248 NA
ATOM     57  C   UNL     1       8.735  15.200  15.924  1.00  0.00     0.031 C 
ATOM     58  C   UNL     1       6.969  11.256  20.192  1.00  0.00     0.029 A 
ATOM     59  C   UNL     1       7.333  11.818  18.979  1.00  0.00     0.049 A 
ATOM     60  H   UNL     1       7.331  10.946  17.058  1.00  0.00     0.167 HD
ATOM     61  C   UNL     1       8.128  13.631  17.485  1.00  0.00     0.074 A 
ATOM     62  C   UNL     1       8.550  14.992  17.222  1.00  0.00     0.031 C 
ATOM     63  C   UNL     1       7.795  13.157  18.712  1.00  0.00     0.034 A 
BRANCH  50  64
ATOM     64  C   UNL     1       5.742   7.323  18.666  1.00  0.00     0.023 A 
ATOM     65  C   UNL     1       6.514   6.175  18.941  1.00  0.00     0.012 A 
ATOM     66  C   UNL     1       4.415   7.389  19.133  1.00  0.00     0.148 A 
ATOM     67  C   UNL     1       5.963   5.092  19.625  1.00  0.00     0.002 A 
ATOM     68  C   UNL     1       3.886   6.323  19.854  1.00  0.00     0.091 A 
ATOM     69  F   UNL     1       3.684   8.474  18.842  1.00  0.00    -0.205 F 
ATOM     70  C   UNL     1       4.653   5.170  20.089  1.00  0.00     0.022 A 
BRANCH  68  71
ATOM     71  S   UNL     1       2.233   6.370  20.557  1.00  0.00     0.127 S 
ATOM     72  O   UNL     1       1.480   5.567  19.596  1.00  0.00    -0.237 OA
ATOM     73  O   UNL     1       2.430   5.733  21.860  1.00  0.00    -0.237 OA
ATOM     74  O   UNL     1       1.875   7.779  20.626  1.00  0.00    -0.744 OA
ENDBRANCH  68  71
ENDBRANCH  50  64
BRANCH  51  75
ATOM     75  C   UNL     1       9.114  14.820  13.023  1.00  0.00     0.023 A 
ATOM     76  C   UNL     1      10.421  15.331  13.130  1.00  0.00     0.012 A 
ATOM     77  C   UNL     1       8.249  15.339  12.040  1.00  0.00     0.148 A 
ATOM     78  C   UNL     1      10.855  16.353  12.285  1.00  0.00     0.002 A 
ATOM     79  C   UNL     1       8.705  16.319  11.167  1.00  0.00     0.091 A 
ATOM     80  F   UNL     1       7.007  14.842  11.962  1.00  0.00    -0.205 F 
ATOM     81  C   UNL     1      10.003  16.838  11.296  1.00  0.00     0.022 A 
BRANCH  79  82
ATOM     82  S   UNL     1       7.730  16.903   9.775  1.00  0.00     0.127 S 
ATOM     83  O   UNL     1       7.445  18.281  10.167  1.00  0.00    -0.237 OA
ATOM     84  O   UNL     1       8.674  16.759   8.666  1.00  0.00    -0.237 OA
ATOM     85  O   UNL     1       6.577  16.017   9.702  1.00  0.00    -0.744 OA
ENDBRANCH  79  82
ENDBRANCH  51  75
BRANCH  63  86
ATOM     86  C   UNL     1       7.881  14.109  19.876  1.00  0.00     0.023 A 
ATOM     87  C   UNL     1       6.911  15.121  20.020  1.00  0.00     0.012 A 
ATOM     88  C   UNL     1       8.869  13.952  20.867  1.00  0.00     0.148 A 
ATOM     89  C   UNL     1       6.939  15.978  21.119  1.00  0.00     0.002 A 
ATOM     90  C   UNL     1       8.863  14.780  21.983  1.00  0.00     0.091 A 
ATOM     91  F   UNL     1       9.796  12.997  20.702  1.00  0.00    -0.205 F 
ATOM     92  C   UNL     1       7.906  15.800  22.106  1.00  0.00     0.022 A 
BRANCH  90  93
ATOM     93  S   UNL     1      10.013  14.561  23.347  1.00  0.00     0.127 S 
ATOM     94  O   UNL     1      10.943  15.669  23.134  1.00  0.00    -0.237 OA
ATOM     95  O   UNL     1       9.144  14.710  24.516  1.00  0.00    -0.237 OA
ATOM     96  O   UNL     1      10.576  13.228  23.183  1.00  0.00    -0.744 OA
ENDBRANCH  90  93
ENDBRANCH  63  86
ENDBRANCH  37  38
ENDBRANCH  29  32
ENDBRANCH  27  28
ENDBRANCH  26  27
ENDBRANCH   1  26
TORSDOF 17
