REMARK SMILES Cc1ccc(C(=O)NCCCCNC(=O)c2ccc(-c3c4nc(c(-c5cccc(S(=O)(=O)[O-])c5F)c5ccc([nH]5)c(-c5cccc(S(=O)(=O)[O-])c5F)c5nc(c(-c6cccc(S(=O)(=O)[O-])c6F)c6ccc3[nH]6)C=C5)C=C4)cc2)c(Oc2cccc(F)c2C(N)=O)c1
REMARK SMILES IDX 10 1 9 2 8 3 6 4 7 5 5 7 1 8 2 9 3 10 91 11 4 12 79 13 80 14
REMARK SMILES IDX 81 15 82 16 87 17 83 18 85 19 84 20 86 21 88 22 89 23 90 24
REMARK SMILES IDX 11 27 12 28 13 29 14 30 15 32 16 33 17 34 78 35 18 36 77 37
REMARK SMILES IDX 19 38 20 39 21 40 71 41 22 42 76 43 70 44 72 45 23 46 75 47
REMARK SMILES IDX 69 48 68 49 24 51 56 52 36 53 55 54 37 55 40 56 54 57 73 58
REMARK SMILES IDX 38 59 39 60 53 62 74 63 41 64 25 65 26 66 34 67 27 68 29 69
REMARK SMILES IDX 35 70 28 71 30 72 31 73 32 74 33 75 57 76 58 77 66 78 59 79
REMARK SMILES IDX 61 80 67 81 60 82 62 83 63 84 64 85 65 86 42 87 43 88 51 89
REMARK SMILES IDX 44 90 46 91 52 92 45 93 47 94 48 95 49 96 50 97
REMARK H PARENT 8 6 89 25 89 26 13 31 72 50 40 61
REMARK Flexibility Score: inf
ROOT
ATOM      1  C   UNL     1      -3.854   2.928  -2.183  1.00  0.00     0.023 C 
ENDROOT
BRANCH   1   2
ATOM      2  C   UNL     1      -3.483   2.493  -0.766  1.00  0.00     0.116 C 
BRANCH   2   3
ATOM      3  N   UNL     1      -3.786   1.130  -0.402  1.00  0.00    -0.352 N 
ATOM      4  C   UNL     1      -3.007   0.104   0.090  1.00  0.00     0.255 C 
ATOM      5  O   UNL     1      -3.607  -0.921   0.428  1.00  0.00    -0.269 OA
ATOM      6  H   UNL     1      -4.731   0.885  -0.529  1.00  0.00     0.163 HD
BRANCH   4   7
ATOM      7  C   UNL     1      -1.504   0.075   0.137  1.00  0.00     0.082 A 
ATOM      8  C   UNL     1       2.797  -0.506   0.021  1.00  0.00     0.044 C 
ATOM      9  C   UNL     1       1.311  -0.333   0.100  1.00  0.00    -0.047 A 
ATOM     10  C   UNL     1       0.444  -1.391  -0.160  1.00  0.00     0.004 A 
ATOM     11  C   UNL     1       0.771   0.899   0.464  1.00  0.00     0.051 A 
ATOM     12  C   UNL     1      -0.941  -1.191  -0.130  1.00  0.00     0.018 A 
ATOM     13  C   UNL     1      -0.617   1.119   0.447  1.00  0.00     0.140 A 
BRANCH  13  14
ATOM     14  O   UNL     1      -1.091   2.338   0.835  1.00  0.00    -0.456 OA
BRANCH  14  15
ATOM     15  C   UNL     1      -0.500   3.514   0.404  1.00  0.00     0.143 A 
ATOM     16  C   UNL     1      -0.671   4.525   1.372  1.00  0.00     0.048 A 
ATOM     17  C   UNL     1       0.114   3.824  -0.831  1.00  0.00     0.117 A 
ATOM     18  C   UNL     1      -0.207   5.819   1.161  1.00  0.00     0.007 A 
ATOM     19  C   UNL     1       0.552   5.149  -1.021  1.00  0.00     0.139 A 
ATOM     20  C   UNL     1       0.405   6.132  -0.042  1.00  0.00     0.040 A 
ATOM     21  F   UNL     1       1.107   5.534  -2.181  1.00  0.00    -0.206 F 
BRANCH  17  22
ATOM     22  C   UNL     1       0.424   2.925  -1.981  1.00  0.00     0.255 C 
ATOM     23  N   UNL     1      -0.491   2.026  -2.446  1.00  0.00    -0.365 N 
ATOM     24  O   UNL     1       1.508   2.990  -2.555  1.00  0.00    -0.269 OA
ATOM     25  H   UNL     1      -1.370   1.947  -2.010  1.00  0.00     0.159 HD
ATOM     26  H   UNL     1      -0.273   1.456  -3.219  1.00  0.00     0.159 HD
ENDBRANCH  17  22
ENDBRANCH  14  15
ENDBRANCH  13  14
ENDBRANCH   4   7
ENDBRANCH   2   3
ENDBRANCH   1   2
BRANCH   1  27
ATOM     27  C   UNL     1      -5.315   3.254  -2.446  1.00  0.00     0.023 C 
BRANCH  27  28
ATOM     28  C   UNL     1      -5.910   4.209  -1.437  1.00  0.00     0.116 C 
BRANCH  28  29
ATOM     29  N   UNL     1      -5.448   5.573  -1.525  1.00  0.00    -0.352 N 
ATOM     30  C   UNL     1      -5.929   6.700  -0.876  1.00  0.00     0.251 C 
ATOM     31  H   UNL     1      -4.687   5.724  -2.130  1.00  0.00     0.163 HD
ATOM     32  O   UNL     1      -5.543   7.781  -1.281  1.00  0.00    -0.269 OA
BRANCH  30  33
ATOM     33  C   UNL     1      -6.742   6.596   0.379  1.00  0.00     0.039 A 
ATOM     34  C   UNL     1      -6.917   7.764   1.137  1.00  0.00     0.014 A 
ATOM     35  C   UNL     1      -7.059   5.375   0.961  1.00  0.00     0.014 A 
ATOM     36  C   UNL     1      -7.111   7.676   2.511  1.00  0.00     0.010 A 
ATOM     37  C   UNL     1      -7.106   5.271   2.319  1.00  0.00     0.010 A 
ATOM     38  C   UNL     1      -7.044   6.425   3.091  1.00  0.00    -0.014 A 
BRANCH  38  39
ATOM     39  C   UNL     1      -6.971   6.128   4.501  1.00  0.00     0.031 A 
ATOM     40  C   UNL     1      -8.229   5.812   5.184  1.00  0.00     0.074 A 
ATOM     41  C   UNL     1      -5.759   5.679   4.897  1.00  0.00     0.049 A 
ATOM     42  N   UNL     1      -8.298   5.421   6.402  1.00  0.00    -0.248 NA
ATOM     43  C   UNL     1      -9.532   5.898   4.521  1.00  0.00     0.031 C 
ATOM     44  C   UNL     1      -5.420   4.689   5.910  1.00  0.00     0.029 A 
ATOM     45  N   UNL     1      -4.520   6.167   4.481  1.00  0.00    -0.354 N 
ATOM     46  C   UNL     1      -9.553   4.882   6.566  1.00  0.00     0.074 A 
ATOM     47  C   UNL     1     -10.324   5.345   5.444  1.00  0.00     0.031 C 
ATOM     48  C   UNL     1      -4.118   4.825   6.231  1.00  0.00     0.029 A 
ATOM     49  C   UNL     1      -3.655   6.042   5.581  1.00  0.00     0.049 A 
ATOM     50  H   UNL     1      -4.296   6.527   3.593  1.00  0.00     0.167 HD
ATOM     51  C   UNL     1      -9.717   3.957   7.547  1.00  0.00     0.034 A 
ATOM     52  C   UNL     1      -3.294   7.187   6.248  1.00  0.00     0.034 A 
ATOM     53  C   UNL     1      -8.534   3.937   8.421  1.00  0.00     0.049 A 
ATOM     54  C   UNL     1      -3.859   7.244   7.659  1.00  0.00     0.074 A 
ATOM     55  C   UNL     1      -7.460   3.073   8.540  1.00  0.00     0.029 A 
ATOM     56  N   UNL     1      -8.169   5.110   9.084  1.00  0.00    -0.354 N 
ATOM     57  N   UNL     1      -4.842   6.499   8.089  1.00  0.00    -0.248 NA
ATOM     58  C   UNL     1      -3.322   8.102   8.710  1.00  0.00     0.031 C 
ATOM     59  C   UNL     1      -6.388   3.801   9.139  1.00  0.00     0.029 A 
ATOM     60  C   UNL     1      -6.828   5.083   9.434  1.00  0.00     0.049 A 
ATOM     61  H   UNL     1      -8.782   5.856   9.276  1.00  0.00     0.167 HD
ATOM     62  C   UNL     1      -5.133   6.800   9.390  1.00  0.00     0.074 A 
ATOM     63  C   UNL     1      -4.113   7.774   9.749  1.00  0.00     0.031 C 
ATOM     64  C   UNL     1      -6.202   6.252  10.052  1.00  0.00     0.034 A 
BRANCH  51  65
ATOM     65  C   UNL     1     -10.834   2.934   7.627  1.00  0.00     0.023 A 
ATOM     66  C   UNL     1     -10.862   2.120   8.780  1.00  0.00     0.012 A 
ATOM     67  C   UNL     1     -11.794   2.629   6.626  1.00  0.00     0.148 A 
ATOM     68  C   UNL     1     -11.778   1.074   8.938  1.00  0.00     0.002 A 
ATOM     69  C   UNL     1     -12.755   1.630   6.815  1.00  0.00     0.091 A 
ATOM     70  F   UNL     1     -11.737   3.225   5.432  1.00  0.00    -0.205 F 
ATOM     71  C   UNL     1     -12.739   0.839   7.965  1.00  0.00     0.022 A 
BRANCH  69  72
ATOM     72  S   UNL     1     -14.071   1.307   5.622  1.00  0.00     0.127 S 
ATOM     73  O   UNL     1     -13.687   0.004   5.083  1.00  0.00    -0.237 OA
ATOM     74  O   UNL     1     -15.264   1.287   6.470  1.00  0.00    -0.237 OA
ATOM     75  O   UNL     1     -14.035   2.409   4.667  1.00  0.00    -0.744 OA
ENDBRANCH  69  72
ENDBRANCH  51  65
BRANCH  52  76
ATOM     76  C   UNL     1      -3.154   8.349   5.297  1.00  0.00     0.023 A 
ATOM     77  C   UNL     1      -2.215   8.179   4.244  1.00  0.00     0.012 A 
ATOM     78  C   UNL     1      -4.187   9.291   5.126  1.00  0.00     0.148 A 
ATOM     79  C   UNL     1      -2.439   8.745   2.987  1.00  0.00     0.002 A 
ATOM     80  C   UNL     1      -4.373   9.890   3.877  1.00  0.00     0.091 A 
ATOM     81  F   UNL     1      -5.005   9.543   6.156  1.00  0.00    -0.205 F 
ATOM     82  C   UNL     1      -3.547   9.560   2.791  1.00  0.00     0.022 A 
BRANCH  80  83
ATOM     83  S   UNL     1      -5.722  11.044   3.576  1.00  0.00     0.127 S 
ATOM     84  O   UNL     1      -5.094  12.320   3.908  1.00  0.00    -0.237 OA
ATOM     85  O   UNL     1      -6.006  10.860   2.153  1.00  0.00    -0.237 OA
ATOM     86  O   UNL     1      -6.796  10.606   4.457  1.00  0.00    -0.744 OA
ENDBRANCH  80  83
ENDBRANCH  52  76
BRANCH  64  87
ATOM     87  C   UNL     1      -6.753   6.779  11.365  1.00  0.00     0.023 A 
ATOM     88  C   UNL     1      -6.497   8.090  11.811  1.00  0.00     0.012 A 
ATOM     89  C   UNL     1      -7.682   6.022  12.126  1.00  0.00     0.148 A 
ATOM     90  C   UNL     1      -7.050   8.596  12.992  1.00  0.00     0.002 A 
ATOM     91  C   UNL     1      -8.327   6.574  13.229  1.00  0.00     0.091 A 
ATOM     92  F   UNL     1      -7.938   4.747  11.797  1.00  0.00    -0.205 F 
ATOM     93  C   UNL     1      -7.982   7.846  13.690  1.00  0.00     0.022 A 
BRANCH  91  94
ATOM     94  S   UNL     1      -9.728   5.754  14.003  1.00  0.00     0.127 S 
ATOM     95  O   UNL     1      -9.103   5.119  15.161  1.00  0.00    -0.237 OA
ATOM     96  O   UNL     1     -10.608   6.879  14.325  1.00  0.00    -0.237 OA
ATOM     97  O   UNL     1     -10.261   4.854  12.989  1.00  0.00    -0.744 OA
ENDBRANCH  91  94
ENDBRANCH  64  87
ENDBRANCH  38  39
ENDBRANCH  30  33
ENDBRANCH  28  29
ENDBRANCH  27  28
ENDBRANCH   1  27
TORSDOF 17
