REMARK SMILES COc1ccccc1NC(=O)N[C@@](C)(C(=O)NCCCCNC(=O)c1ccc(-c2c3nc(c(-c4cccc(S(=O)(=O)[O-])c4F)c4ccc([nH]4)c(-c4cccc(S(=O)(=O)[O-])c4F)c4nc(c(-c5cccc(S(=O)(=O)[O-])c5F)c5ccc2[nH]5)C=C4)C=C3)cc1)C(F)(F)F
REMARK SMILES IDX 19 1 18 2 17 3 15 4 16 5 13 7 14 8 12 9 9 10 10 11 11 13
REMARK SMILES IDX 8 15 3 16 4 17 5 18 7 19 6 20 2 21 1 22 88 23 89 24 90 25
REMARK SMILES IDX 91 26 20 27 21 28 22 29 23 30 24 32 25 33 26 34 87 35 27 36
REMARK SMILES IDX 86 37 28 38 29 39 30 40 80 41 31 42 85 43 79 44 81 45 32 46
REMARK SMILES IDX 84 47 78 48 77 49 33 51 65 52 45 53 64 54 46 55 49 56 63 57
REMARK SMILES IDX 82 58 47 59 48 60 62 62 83 63 50 64 34 65 35 66 43 67 36 68
REMARK SMILES IDX 38 69 44 70 37 71 39 72 40 73 41 74 42 75 66 76 67 77 75 78
REMARK SMILES IDX 68 79 70 80 76 81 69 82 71 83 72 84 73 85 74 86 51 87 52 88
REMARK SMILES IDX 60 89 53 90 55 91 61 92 54 93 56 94 57 95 58 96 59 97
REMARK H PARENT 17 6 9 12 12 14 22 31 81 50 49 61
REMARK Flexibility Score: inf
ROOT
ATOM      1  C   UNL     1       8.430   4.335   1.719  1.00  0.00     0.023 C 
ENDROOT
BRANCH   1   2
ATOM      2  C   UNL     1       7.118   4.934   2.235  1.00  0.00     0.116 C 
BRANCH   2   3
ATOM      3  N   UNL     1       6.441   5.638   1.166  1.00  0.00    -0.354 N 
ATOM      4  C   UNL     1       5.292   5.526   0.468  1.00  0.00     0.255 C 
ATOM      5  O   UNL     1       5.177   6.431  -0.369  1.00  0.00    -0.272 OA
ATOM      6  H   UNL     1       6.965   6.415   0.865  1.00  0.00     0.163 HD
BRANCH   4   7
ATOM      7  C   UNL     1       4.101   4.611   0.850  1.00  0.00     0.213 C 
ATOM      8  C   UNL     1       3.452   5.367   2.022  1.00  0.00     0.056 C 
BRANCH   7   9
ATOM      9  N   UNL     1       4.539   3.249   1.308  1.00  0.00    -0.316 N 
ATOM     10  N   UNL     1       2.704   1.709   1.419  1.00  0.00    -0.305 N 
ATOM     11  C   UNL     1       3.992   2.051   1.559  1.00  0.00     0.320 C 
ATOM     12  H   UNL     1       2.599   0.748   1.229  1.00  0.00     0.172 HD
ATOM     13  O   UNL     1       4.794   1.138   1.792  1.00  0.00    -0.248 OA
ATOM     14  H   UNL     1       5.510   3.230   1.472  1.00  0.00     0.166 HD
BRANCH  10  15
ATOM     15  C   UNL     1       1.468   2.367   1.475  1.00  0.00     0.085 A 
ATOM     16  C   UNL     1       0.472   2.038   0.535  1.00  0.00     0.142 A 
ATOM     17  C   UNL     1      -0.646   2.862   0.382  1.00  0.00     0.048 A 
ATOM     18  C   UNL     1      -0.838   3.943   1.240  1.00  0.00     0.004 A 
ATOM     19  C   UNL     1       1.195   3.355   2.414  1.00  0.00     0.030 A 
ATOM     20  C   UNL     1       0.057   4.158   2.286  1.00  0.00     0.002 A 
BRANCH  16  21
ATOM     21  O   UNL     1       0.642   1.059  -0.411  1.00  0.00    -0.495 OA
ATOM     22  C   UNL     1       0.558  -0.254   0.138  1.00  0.00     0.278 C 
ENDBRANCH  16  21
ENDBRANCH  10  15
ENDBRANCH   7   9
BRANCH   7  23
ATOM     23  C   UNL     1       3.288   4.627  -0.475  1.00  0.00     0.420 C 
ATOM     24  F   UNL     1       4.056   4.253  -1.530  1.00  0.00    -0.168 F 
ATOM     25  F   UNL     1       2.251   3.775  -0.479  1.00  0.00    -0.168 F 
ATOM     26  F   UNL     1       2.750   5.840  -0.745  1.00  0.00    -0.168 F 
ENDBRANCH   7  23
ENDBRANCH   4   7
ENDBRANCH   2   3
ENDBRANCH   1   2
BRANCH   1  27
ATOM     27  C   UNL     1       9.305   5.291   0.888  1.00  0.00     0.023 C 
BRANCH  27  28
ATOM     28  C   UNL     1       9.582   6.659   1.505  1.00  0.00     0.116 C 
BRANCH  28  29
ATOM     29  N   UNL     1      10.319   6.583   2.753  1.00  0.00    -0.352 N 
ATOM     30  C   UNL     1      11.353   7.391   3.165  1.00  0.00     0.251 C 
ATOM     31  H   UNL     1      10.048   5.872   3.377  1.00  0.00     0.163 HD
ATOM     32  O   UNL     1      11.948   7.163   4.214  1.00  0.00    -0.269 OA
BRANCH  30  33
ATOM     33  C   UNL     1      11.759   8.519   2.301  1.00  0.00     0.039 A 
ATOM     34  C   UNL     1      13.069   8.564   1.818  1.00  0.00     0.014 A 
ATOM     35  C   UNL     1      10.821   9.479   1.912  1.00  0.00     0.014 A 
ATOM     36  C   UNL     1      13.427   9.544   0.889  1.00  0.00     0.010 A 
ATOM     37  C   UNL     1      11.166  10.419   0.947  1.00  0.00     0.010 A 
ATOM     38  C   UNL     1      12.470  10.459   0.423  1.00  0.00    -0.014 A 
BRANCH  38  39
ATOM     39  C   UNL     1      12.791  11.470  -0.616  1.00  0.00     0.031 A 
ATOM     40  C   UNL     1      12.721  12.932  -0.275  1.00  0.00     0.074 A 
ATOM     41  C   UNL     1      13.017  11.080  -1.887  1.00  0.00     0.049 A 
ATOM     42  N   UNL     1      12.810  13.970  -1.064  1.00  0.00    -0.248 NA
ATOM     43  C   UNL     1      12.486  13.270   1.139  1.00  0.00     0.031 C 
ATOM     44  C   UNL     1      13.056   9.693  -2.353  1.00  0.00     0.029 A 
ATOM     45  N   UNL     1      13.220  11.819  -3.026  1.00  0.00    -0.354 N 
ATOM     46  C   UNL     1      12.580  15.078  -0.258  1.00  0.00     0.074 A 
ATOM     47  C   UNL     1      12.337  14.585   1.080  1.00  0.00     0.031 C 
ATOM     48  C   UNL     1      13.268   9.681  -3.680  1.00  0.00     0.029 A 
ATOM     49  C   UNL     1      13.344  11.056  -4.165  1.00  0.00     0.049 A 
ATOM     50  H   UNL     1      13.273  12.802  -3.028  1.00  0.00     0.167 HD
ATOM     51  C   UNL     1      12.590  16.389  -0.597  1.00  0.00     0.034 A 
ATOM     52  C   UNL     1      13.490  11.424  -5.453  1.00  0.00     0.034 A 
ATOM     53  C   UNL     1      12.902  16.875  -1.912  1.00  0.00     0.049 A 
ATOM     54  C   UNL     1      13.547  12.889  -5.794  1.00  0.00     0.074 A 
ATOM     55  C   UNL     1      13.048  18.185  -2.333  1.00  0.00     0.029 A 
ATOM     56  N   UNL     1      13.119  16.071  -3.020  1.00  0.00    -0.354 N 
ATOM     57  N   UNL     1      13.476  13.925  -4.994  1.00  0.00    -0.248 NA
ATOM     58  C   UNL     1      13.734  13.238  -7.211  1.00  0.00     0.031 C 
ATOM     59  C   UNL     1      13.342  18.173  -3.700  1.00  0.00     0.029 A 
ATOM     60  C   UNL     1      13.393  16.855  -4.127  1.00  0.00     0.049 A 
ATOM     61  H   UNL     1      13.084  15.087  -3.020  1.00  0.00     0.167 HD
ATOM     62  C   UNL     1      13.655  15.044  -5.800  1.00  0.00     0.074 A 
ATOM     63  C   UNL     1      13.843  14.559  -7.152  1.00  0.00     0.031 C 
ATOM     64  C   UNL     1      13.653  16.354  -5.452  1.00  0.00     0.034 A 
BRANCH  51  65
ATOM     65  C   UNL     1      12.300  17.392   0.488  1.00  0.00     0.023 A 
ATOM     66  C   UNL     1      13.263  17.631   1.490  1.00  0.00     0.012 A 
ATOM     67  C   UNL     1      11.098  18.125   0.495  1.00  0.00     0.148 A 
ATOM     68  C   UNL     1      13.016  18.554   2.505  1.00  0.00     0.002 A 
ATOM     69  C   UNL     1      10.878  19.075   1.487  1.00  0.00     0.091 A 
ATOM     70  F   UNL     1      10.182  17.867  -0.449  1.00  0.00    -0.205 F 
ATOM     71  C   UNL     1      11.830  19.282   2.498  1.00  0.00     0.022 A 
BRANCH  69  72
ATOM     72  S   UNL     1       9.411  20.112   1.511  1.00  0.00     0.127 S 
ATOM     73  O   UNL     1       8.601  19.456   2.535  1.00  0.00    -0.237 OA
ATOM     74  O   UNL     1       9.953  21.413   1.905  1.00  0.00    -0.237 OA
ATOM     75  O   UNL     1       8.876  20.069   0.157  1.00  0.00    -0.744 OA
ENDBRANCH  69  72
ENDBRANCH  51  65
BRANCH  52  76
ATOM     76  C   UNL     1      13.682  10.386  -6.506  1.00  0.00     0.023 A 
ATOM     77  C   UNL     1      14.956  10.239  -7.089  1.00  0.00     0.012 A 
ATOM     78  C   UNL     1      12.640   9.526  -6.905  1.00  0.00     0.148 A 
ATOM     79  C   UNL     1      15.185   9.271  -8.068  1.00  0.00     0.002 A 
ATOM     80  C   UNL     1      12.888   8.532  -7.846  1.00  0.00     0.091 A 
ATOM     81  F   UNL     1      11.433   9.690  -6.347  1.00  0.00    -0.205 F 
ATOM     82  C   UNL     1      14.155   8.412  -8.438  1.00  0.00     0.022 A 
BRANCH  80  83
ATOM     83  S   UNL     1      11.660   7.300  -8.299  1.00  0.00     0.127 S 
ATOM     84  O   UNL     1      11.345   7.684  -9.672  1.00  0.00    -0.237 OA
ATOM     85  O   UNL     1      12.419   6.056  -8.165  1.00  0.00    -0.237 OA
ATOM     86  O   UNL     1      10.579   7.451  -7.335  1.00  0.00    -0.744 OA
ENDBRANCH  80  83
ENDBRANCH  52  76
BRANCH  64  87
ATOM     87  C   UNL     1      13.915  17.371  -6.530  1.00  0.00     0.023 A 
ATOM     88  C   UNL     1      12.901  17.689  -7.453  1.00  0.00     0.012 A 
ATOM     89  C   UNL     1      15.127  18.090  -6.553  1.00  0.00     0.148 A 
ATOM     90  C   UNL     1      13.095  18.699  -8.395  1.00  0.00     0.002 A 
ATOM     91  C   UNL     1      15.296  19.125  -7.465  1.00  0.00     0.091 A 
ATOM     92  F   UNL     1      16.086  17.756  -5.677  1.00  0.00    -0.205 F 
ATOM     93  C   UNL     1      14.284  19.425  -8.392  1.00  0.00     0.022 A 
BRANCH  91  94
ATOM     94  S   UNL     1      16.753  20.176  -7.468  1.00  0.00     0.127 S 
ATOM     95  O   UNL     1      17.449  19.719  -8.669  1.00  0.00    -0.237 OA
ATOM     96  O   UNL     1      16.171  21.515  -7.571  1.00  0.00    -0.237 OA
ATOM     97  O   UNL     1      17.439  19.913  -6.210  1.00  0.00    -0.744 OA
ENDBRANCH  91  94
ENDBRANCH  64  87
ENDBRANCH  38  39
ENDBRANCH  30  33
ENDBRANCH  28  29
ENDBRANCH  27  28
ENDBRANCH   1  27
TORSDOF 18
