REMARK SMILES CC(=O)NCCc1c[nH]c2ccc(C(=O)NCCCCNC(=O)c3ccc(-c4c5nc(c(-c6cccc(S(=O)(=O)[O-])c6F)c6ccc([nH]6)c(-c6cccc(S(=O)(=O)[O-])c6F)c6nc(c(-c7cccc(S(=O)(=O)[O-])c7F)c7ccc4[nH]7)C=C6)C=C5)cc3)cc12
REMARK SMILES IDX 18 1 17 2 16 3 14 4 15 5 13 7 7 8 8 9 88 10 9 11 10 12 87 13
REMARK SMILES IDX 11 15 12 16 6 17 5 18 4 19 1 20 2 21 3 22 19 24 20 25 21 26
REMARK SMILES IDX 22 27 23 29 24 30 25 31 86 32 26 33 85 34 27 35 28 36 29 37
REMARK SMILES IDX 79 38 30 39 84 40 78 41 80 42 31 43 83 44 77 45 76 46 32 48
REMARK SMILES IDX 64 49 44 50 63 51 45 52 48 53 62 54 81 55 46 56 47 57 61 59
REMARK SMILES IDX 82 60 49 61 33 62 34 63 42 64 35 65 37 66 43 67 36 68 38 69
REMARK SMILES IDX 39 70 40 71 41 72 65 73 66 74 74 75 67 76 69 77 75 78 68 79
REMARK SMILES IDX 70 80 71 81 72 82 73 83 50 84 51 85 59 86 52 87 54 88 60 89
REMARK SMILES IDX 53 90 55 91 56 92 57 93 58 94
REMARK H PARENT 16 6 9 14 4 23 21 28 80 47 48 58
REMARK Flexibility Score: inf
ROOT
ATOM      1  C   UNL     1       5.617   9.840   1.419  1.00  0.00     0.023 C 
ENDROOT
BRANCH   1   2
ATOM      2  C   UNL     1       4.550   9.155   0.563  1.00  0.00     0.116 C 
BRANCH   2   3
ATOM      3  N   UNL     1       5.005   7.854   0.122  1.00  0.00    -0.352 N 
ATOM      4  C   UNL     1       4.856   6.590   0.630  1.00  0.00     0.251 C 
ATOM      5  O   UNL     1       5.378   5.672  -0.007  1.00  0.00    -0.269 OA
ATOM      6  H   UNL     1       5.528   7.883  -0.712  1.00  0.00     0.163 HD
BRANCH   4   7
ATOM      7  C   UNL     1       4.086   6.254   1.868  1.00  0.00     0.040 A 
ATOM      8  C   UNL     1       2.541   3.183   3.595  1.00  0.00    -0.021 A 
ATOM      9  C   UNL     1       1.883   3.401   4.792  1.00  0.00     0.087 A 
ATOM     10  C   UNL     1       2.994   4.462   3.138  1.00  0.00     0.003 A 
ATOM     11  N   UNL     1       1.936   4.739   5.076  1.00  0.00    -0.361 N 
ATOM     12  C   UNL     1       2.647   5.402   4.104  1.00  0.00     0.046 A 
ATOM     13  C   UNL     1       3.701   4.904   2.001  1.00  0.00     0.024 A 
ATOM     14  H   UNL     1       1.524   5.165   5.862  1.00  0.00     0.166 HD
ATOM     15  C   UNL     1       3.024   6.743   4.018  1.00  0.00     0.027 A 
ATOM     16  C   UNL     1       3.776   7.139   2.902  1.00  0.00     0.016 A 
BRANCH   8  17
ATOM     17  C   UNL     1       2.788   1.861   2.931  1.00  0.00     0.059 C 
BRANCH  17  18
ATOM     18  C   UNL     1       1.514   1.107   2.554  1.00  0.00     0.120 C 
BRANCH  18  19
ATOM     19  N   UNL     1       0.731   1.801   1.545  1.00  0.00    -0.356 N 
ATOM     20  C   UNL     1       0.918   0.063  -0.187  1.00  0.00     0.114 C 
ATOM     21  C   UNL     1       0.392   1.387   0.292  1.00  0.00     0.216 C 
ATOM     22  O   UNL     1      -0.340   2.085  -0.406  1.00  0.00    -0.275 OA
ATOM     23  H   UNL     1       0.402   2.693   1.801  1.00  0.00     0.163 HD
ENDBRANCH  18  19
ENDBRANCH  17  18
ENDBRANCH   8  17
ENDBRANCH   4   7
ENDBRANCH   2   3
ENDBRANCH   1   2
BRANCH   1  24
ATOM     24  C   UNL     1       6.754  10.482   0.615  1.00  0.00     0.023 C 
BRANCH  24  25
ATOM     25  C   UNL     1       6.329  11.616  -0.314  1.00  0.00     0.116 C 
BRANCH  25  26
ATOM     26  N   UNL     1       5.628  12.691   0.374  1.00  0.00    -0.352 N 
ATOM     27  C   UNL     1       5.569  14.023   0.033  1.00  0.00     0.251 C 
ATOM     28  H   UNL     1       5.133  12.433   1.185  1.00  0.00     0.163 HD
ATOM     29  O   UNL     1       5.014  14.828   0.768  1.00  0.00    -0.269 OA
BRANCH  27  30
ATOM     30  C   UNL     1       6.226  14.470  -1.213  1.00  0.00     0.039 A 
ATOM     31  C   UNL     1       7.146  15.519  -1.149  1.00  0.00     0.014 A 
ATOM     32  C   UNL     1       5.972  13.819  -2.422  1.00  0.00     0.014 A 
ATOM     33  C   UNL     1       7.868  15.871  -2.290  1.00  0.00     0.010 A 
ATOM     34  C   UNL     1       6.735  14.131  -3.542  1.00  0.00     0.010 A 
ATOM     35  C   UNL     1       7.694  15.155  -3.486  1.00  0.00    -0.014 A 
BRANCH  35  36
ATOM     36  C   UNL     1       8.520  15.438  -4.685  1.00  0.00     0.031 A 
ATOM     37  C   UNL     1       7.873  15.952  -5.941  1.00  0.00     0.074 A 
ATOM     38  C   UNL     1       9.832  15.129  -4.675  1.00  0.00     0.049 A 
ATOM     39  N   UNL     1       8.409  16.174  -7.112  1.00  0.00    -0.248 NA
ATOM     40  C   UNL     1       6.427  16.225  -5.881  1.00  0.00     0.031 C 
ATOM     41  C   UNL     1      10.555  14.547  -3.542  1.00  0.00     0.029 A 
ATOM     42  N   UNL     1      10.783  15.230  -5.658  1.00  0.00    -0.354 N 
ATOM     43  C   UNL     1       7.366  16.574  -7.937  1.00  0.00     0.074 A 
ATOM     44  C   UNL     1       6.158  16.537  -7.141  1.00  0.00     0.031 C 
ATOM     45  C   UNL     1      11.834  14.341  -3.895  1.00  0.00     0.029 A 
ATOM     46  C   UNL     1      12.018  14.753  -5.283  1.00  0.00     0.049 A 
ATOM     47  H   UNL     1      10.600  15.608  -6.548  1.00  0.00     0.167 HD
ATOM     48  C   UNL     1       7.413  16.968  -9.232  1.00  0.00     0.034 A 
ATOM     49  C   UNL     1      13.167  14.656  -5.981  1.00  0.00     0.034 A 
ATOM     50  C   UNL     1       8.623  17.057 -10.002  1.00  0.00     0.049 A 
ATOM     51  C   UNL     1      13.202  15.154  -7.400  1.00  0.00     0.074 A 
ATOM     52  C   UNL     1       8.790  17.531 -11.291  1.00  0.00     0.029 A 
ATOM     53  N   UNL     1       9.875  16.667  -9.553  1.00  0.00    -0.354 N 
ATOM     54  N   UNL     1      12.237  15.683  -8.112  1.00  0.00    -0.248 NA
ATOM     55  C   UNL     1      14.492  15.076  -8.101  1.00  0.00     0.031 C 
ATOM     56  C   UNL     1      10.144  17.422 -11.624  1.00  0.00     0.029 A 
ATOM     57  C   UNL     1      10.821  16.889 -10.539  1.00  0.00     0.049 A 
ATOM     58  H   UNL     1      10.064  16.288  -8.664  1.00  0.00     0.167 HD
ATOM     59  C   UNL     1      12.809  16.034  -9.329  1.00  0.00     0.074 A 
ATOM     60  C   UNL     1      14.210  15.675  -9.251  1.00  0.00     0.031 C 
ATOM     61  C   UNL     1      12.224  16.587 -10.420  1.00  0.00     0.034 A 
BRANCH  48  62
ATOM     62  C   UNL     1       6.124  17.403  -9.876  1.00  0.00     0.023 A 
ATOM     63  C   UNL     1       5.556  18.641  -9.511  1.00  0.00     0.012 A 
ATOM     64  C   UNL     1       5.505  16.626 -10.874  1.00  0.00     0.148 A 
ATOM     65  C   UNL     1       4.377  19.086 -10.105  1.00  0.00     0.002 A 
ATOM     66  C   UNL     1       4.350  17.095 -11.491  1.00  0.00     0.091 A 
ATOM     67  F   UNL     1       6.046  15.441 -11.191  1.00  0.00    -0.205 F 
ATOM     68  C   UNL     1       3.780  18.318 -11.101  1.00  0.00     0.022 A 
BRANCH  66  69
ATOM     69  S   UNL     1       3.547  16.214 -12.835  1.00  0.00     0.127 S 
ATOM     70  O   UNL     1       2.360  15.679 -12.170  1.00  0.00    -0.237 OA
ATOM     71  O   UNL     1       3.277  17.289 -13.792  1.00  0.00    -0.237 OA
ATOM     72  O   UNL     1       4.510  15.223 -13.295  1.00  0.00    -0.744 OA
ENDBRANCH  66  69
ENDBRANCH  48  62
BRANCH  49  73
ATOM     73  C   UNL     1      14.399  14.143  -5.318  1.00  0.00     0.023 A 
ATOM     74  C   UNL     1      15.440  15.043  -5.018  1.00  0.00     0.012 A 
ATOM     75  C   UNL     1      14.537  12.789  -4.957  1.00  0.00     0.148 A 
ATOM     76  C   UNL     1      16.609  14.600  -4.398  1.00  0.00     0.002 A 
ATOM     77  C   UNL     1      15.683  12.364  -4.293  1.00  0.00     0.091 A 
ATOM     78  F   UNL     1      13.543  11.943  -5.264  1.00  0.00    -0.205 F 
ATOM     79  C   UNL     1      16.726  13.264  -4.026  1.00  0.00     0.022 A 
BRANCH  77  80
ATOM     80  S   UNL     1      15.857  10.690  -3.664  1.00  0.00     0.127 S 
ATOM     81  O   UNL     1      16.765  10.095  -4.641  1.00  0.00    -0.237 OA
ATOM     82  O   UNL     1      16.440  10.918  -2.341  1.00  0.00    -0.237 OA
ATOM     83  O   UNL     1      14.506  10.146  -3.633  1.00  0.00    -0.744 OA
ENDBRANCH  77  80
ENDBRANCH  49  73
BRANCH  61  84
ATOM     84  C   UNL     1      13.097  16.873 -11.613  1.00  0.00     0.023 A 
ATOM     85  C   UNL     1      13.521  15.811 -12.434  1.00  0.00     0.012 A 
ATOM     86  C   UNL     1      13.419  18.198 -11.969  1.00  0.00     0.148 A 
ATOM     87  C   UNL     1      14.274  16.061 -13.580  1.00  0.00     0.002 A 
ATOM     88  C   UNL     1      14.133  18.442 -13.136  1.00  0.00     0.091 A 
ATOM     89  F   UNL     1      13.022  19.192 -11.162  1.00  0.00    -0.205 F 
ATOM     90  C   UNL     1      14.569  17.374 -13.938  1.00  0.00     0.022 A 
BRANCH  88  91
ATOM     91  S   UNL     1      14.475  20.106 -13.720  1.00  0.00     0.127 S 
ATOM     92  O   UNL     1      15.893  20.250 -13.395  1.00  0.00    -0.237 OA
ATOM     93  O   UNL     1      14.185  20.002 -15.151  1.00  0.00    -0.237 OA
ATOM     94  O   UNL     1      13.570  20.980 -12.986  1.00  0.00    -0.744 OA
ENDBRANCH  88  91
ENDBRANCH  61  84
ENDBRANCH  35  36
ENDBRANCH  27  30
ENDBRANCH  25  26
ENDBRANCH  24  25
ENDBRANCH   1  24
TORSDOF 17
