REMARK SMILES COc1ccccc1NC(=O)c1ccc(NC(=O)Cn2nc(C(=O)NCCCCNC(=O)c3ccc(-c4c5nc(c(-c6cccc(S(=O)(=O)[O-])c6F)c6ccc([nH]6)c(-c6cccc(S(=O)(=O)[O-])c6F)c6nc(c(-c7cccc(S(=O)(=O)[O-])c7F)c7ccc4[nH]7)C=C6)C=C5)cc3)c3ccccc3c2=O)cc1
REMARK SMILES IDX 26 1 25 2 23 3 24 4 22 6 20 7 21 8 102 9 101 10 103 11 96 12
REMARK SMILES IDX 100 13 97 14 99 15 98 16 19 17 17 18 16 19 18 21 15 22 12 23
REMARK SMILES IDX 13 24 105 25 14 26 104 27 10 28 9 29 11 31 8 32 3 33 4 34
REMARK SMILES IDX 5 35 7 36 6 37 2 38 1 39 27 40 28 41 29 42 30 43 31 44 32 46
REMARK SMILES IDX 33 47 34 48 95 49 35 50 94 51 36 52 37 53 38 54 88 55 39 56
REMARK SMILES IDX 93 57 87 58 89 59 40 60 92 61 86 62 85 63 41 65 73 66 53 67
REMARK SMILES IDX 72 68 54 69 57 70 71 71 90 72 55 73 56 74 70 76 91 77 58 78
REMARK SMILES IDX 42 79 43 80 51 81 44 82 46 83 52 84 45 85 47 86 48 87 49 88
REMARK SMILES IDX 50 89 74 90 75 91 83 92 76 93 78 94 84 95 77 96 79 97 80 98
REMARK SMILES IDX 81 99 82 100 59 101 60 102 68 103 61 104 63 105 69 106
REMARK SMILES IDX 62 107 64 108 65 109 66 110 67 111
REMARK H PARENT 25 5 16 20 9 30 30 45 89 64 57 75
REMARK Flexibility Score: inf
ROOT
ATOM      1  C   UNL     1       8.810   0.737  -3.218  1.00  0.00     0.116 C 
ENDROOT
BRANCH   1   2
ATOM      2  N   UNL     1       9.934   1.329  -2.527  1.00  0.00    -0.351 N 
ATOM      3  C   UNL     1      10.751   2.359  -2.927  1.00  0.00     0.272 C 
ATOM      4  O   UNL     1      11.793   2.557  -2.309  1.00  0.00    -0.267 OA
ATOM      5  H   UNL     1      10.143   0.940  -1.647  1.00  0.00     0.163 HD
BRANCH   3   6
ATOM      6  C   UNL     1      10.327   3.296  -4.080  1.00  0.00     0.156 A 
ATOM      7  N   UNL     1       8.956   3.661  -5.919  1.00  0.00    -0.219 N 
ATOM      8  N   UNL     1       9.586   2.807  -5.037  1.00  0.00    -0.163 NA
ATOM      9  C   UNL     1       9.034   5.048  -5.829  1.00  0.00     0.275 A 
ATOM     10  C   UNL     1       9.978   5.593  -4.841  1.00  0.00     0.051 A 
ATOM     11  O   UNL     1       8.411   5.826  -6.546  1.00  0.00    -0.267 OA
ATOM     12  C   UNL     1      10.711   4.727  -4.038  1.00  0.00     0.020 A 
ATOM     13  C   UNL     1      10.214   6.976  -4.808  1.00  0.00     0.014 A 
ATOM     14  C   UNL     1      11.776   5.247  -3.291  1.00  0.00     0.011 A 
ATOM     15  C   UNL     1      11.246   7.488  -4.026  1.00  0.00     0.001 A 
ATOM     16  C   UNL     1      12.047   6.619  -3.293  1.00  0.00     0.001 A 
BRANCH   7  17
ATOM     17  C   UNL     1       8.345   3.050  -7.104  1.00  0.00     0.248 C 
BRANCH  17  18
ATOM     18  C   UNL     1       7.005   3.650  -7.553  1.00  0.00     0.246 C 
ATOM     19  N   UNL     1       5.958   3.803  -6.687  1.00  0.00    -0.324 N 
ATOM     20  H   UNL     1       5.326   4.519  -6.926  1.00  0.00     0.169 HD
ATOM     21  O   UNL     1       6.843   4.003  -8.728  1.00  0.00    -0.273 OA
BRANCH  19  22
ATOM     22  C   UNL     1       5.640   3.109  -5.516  1.00  0.00     0.041 A 
ATOM     23  C   UNL     1       4.806   1.752  -3.229  1.00  0.00     0.040 A 
ATOM     24  C   UNL     1       5.566   1.094  -4.193  1.00  0.00     0.016 A 
ATOM     25  C   UNL     1       4.446   3.089  -3.395  1.00  0.00     0.016 A 
ATOM     26  C   UNL     1       5.979   1.770  -5.337  1.00  0.00     0.027 A 
ATOM     27  C   UNL     1       4.843   3.756  -4.559  1.00  0.00     0.027 A 
BRANCH  23  28
ATOM     28  C   UNL     1       4.361   0.960  -2.081  1.00  0.00     0.255 C 
ATOM     29  N   UNL     1       3.094   0.439  -2.026  1.00  0.00    -0.319 N 
ATOM     30  H   UNL     1       2.927  -0.096  -1.216  1.00  0.00     0.170 HD
ATOM     31  O   UNL     1       5.179   0.747  -1.188  1.00  0.00    -0.269 OA
BRANCH  29  32
ATOM     32  C   UNL     1       1.981   0.511  -2.890  1.00  0.00     0.084 A 
ATOM     33  C   UNL     1       0.743   0.095  -2.374  1.00  0.00     0.142 A 
ATOM     34  C   UNL     1      -0.431   0.221  -3.122  1.00  0.00     0.048 A 
ATOM     35  C   UNL     1      -0.381   0.750  -4.410  1.00  0.00     0.004 A 
ATOM     36  C   UNL     1       2.018   0.964  -4.211  1.00  0.00     0.030 A 
ATOM     37  C   UNL     1       0.847   1.095  -4.963  1.00  0.00     0.002 A 
BRANCH  33  38
ATOM     38  O   UNL     1       0.674  -0.556  -1.167  1.00  0.00    -0.495 OA
ATOM     39  C   UNL     1       0.495   0.344  -0.073  1.00  0.00     0.278 C 
ENDBRANCH  33  38
ENDBRANCH  29  32
ENDBRANCH  23  28
ENDBRANCH  19  22
ENDBRANCH  17  18
ENDBRANCH   7  17
ENDBRANCH   3   6
ENDBRANCH   1   2
BRANCH   1  40
ATOM     40  C   UNL     1       9.286  -0.402  -4.125  1.00  0.00     0.023 C 
BRANCH  40  41
ATOM     41  C   UNL     1       9.110  -1.787  -3.493  1.00  0.00     0.023 C 
BRANCH  41  42
ATOM     42  C   UNL     1       7.655  -2.203  -3.296  1.00  0.00     0.116 C 
BRANCH  42  43
ATOM     43  N   UNL     1       6.896  -2.235  -4.539  1.00  0.00    -0.352 N 
ATOM     44  C   UNL     1       5.692  -2.854  -4.769  1.00  0.00     0.251 C 
ATOM     45  H   UNL     1       7.293  -1.758  -5.303  1.00  0.00     0.163 HD
ATOM     46  O   UNL     1       5.174  -2.816  -5.880  1.00  0.00    -0.269 OA
BRANCH  44  47
ATOM     47  C   UNL     1       5.070  -3.613  -3.668  1.00  0.00     0.039 A 
ATOM     48  C   UNL     1       4.823  -4.973  -3.860  1.00  0.00     0.014 A 
ATOM     49  C   UNL     1       4.819  -3.008  -2.435  1.00  0.00     0.014 A 
ATOM     50  C   UNL     1       4.373  -5.743  -2.788  1.00  0.00     0.010 A 
ATOM     51  C   UNL     1       4.432  -3.790  -1.352  1.00  0.00     0.010 A 
ATOM     52  C   UNL     1       4.201  -5.164  -1.520  1.00  0.00    -0.014 A 
BRANCH  52  53
ATOM     53  C   UNL     1       3.788  -5.995  -0.363  1.00  0.00     0.031 A 
ATOM     54  C   UNL     1       2.456  -5.767   0.294  1.00  0.00     0.074 A 
ATOM     55  C   UNL     1       4.637  -6.921   0.124  1.00  0.00     0.049 A 
ATOM     56  N   UNL     1       1.905  -6.425   1.281  1.00  0.00    -0.248 NA
ATOM     57  C   UNL     1       1.647  -4.640  -0.201  1.00  0.00     0.031 C 
ATOM     58  C   UNL     1       5.996  -7.164  -0.366  1.00  0.00     0.029 A 
ATOM     59  N   UNL     1       4.489  -7.821   1.149  1.00  0.00    -0.354 N 
ATOM     60  C   UNL     1       0.701  -5.782   1.540  1.00  0.00     0.074 A 
ATOM     61  C   UNL     1       0.621  -4.654   0.637  1.00  0.00     0.031 C 
ATOM     62  C   UNL     1       6.551  -8.157   0.349  1.00  0.00     0.029 A 
ATOM     63  C   UNL     1       5.595  -8.613   1.353  1.00  0.00     0.049 A 
ATOM     64  H   UNL     1       3.669  -7.892   1.689  1.00  0.00     0.167 HD
ATOM     65  C   UNL     1      -0.268  -6.120   2.424  1.00  0.00     0.034 A 
ATOM     66  C   UNL     1       5.806  -9.605   2.239  1.00  0.00     0.034 A 
ATOM     67  C   UNL     1      -0.197  -7.263   3.294  1.00  0.00     0.049 A 
ATOM     68  C   UNL     1       4.685 -10.008   3.160  1.00  0.00     0.074 A 
ATOM     69  C   UNL     1      -1.155  -7.740   4.170  1.00  0.00     0.029 A 
ATOM     70  N   UNL     1       0.898  -8.107   3.401  1.00  0.00    -0.354 N 
ATOM     71  N   UNL     1       3.482  -9.497   3.269  1.00  0.00    -0.248 NA
ATOM     72  C   UNL     1       4.931 -11.158   4.041  1.00  0.00     0.031 C 
ATOM     73  C   UNL     1      -0.632  -8.864   4.820  1.00  0.00     0.029 A 
ATOM     74  C   UNL     1       0.640  -9.104   4.327  1.00  0.00     0.049 A 
ATOM     75  H   UNL     1       1.736  -8.012   2.893  1.00  0.00     0.167 HD
ATOM     76  C   UNL     1       2.814 -10.289   4.195  1.00  0.00     0.074 A 
ATOM     77  C   UNL     1       3.741 -11.326   4.601  1.00  0.00     0.031 C 
ATOM     78  C   UNL     1       1.552 -10.163   4.676  1.00  0.00     0.034 A 
BRANCH  65  79
ATOM     79  C   UNL     1      -1.513  -5.272   2.449  1.00  0.00     0.023 A 
ATOM     80  C   UNL     1      -2.410  -5.326   1.361  1.00  0.00     0.012 A 
ATOM     81  C   UNL     1      -1.820  -4.460   3.556  1.00  0.00     0.148 A 
ATOM     82  C   UNL     1      -3.573  -4.557   1.359  1.00  0.00     0.002 A 
ATOM     83  C   UNL     1      -3.003  -3.730   3.566  1.00  0.00     0.091 A 
ATOM     84  F   UNL     1      -0.945  -4.402   4.570  1.00  0.00    -0.205 F 
ATOM     85  C   UNL     1      -3.874  -3.768   2.464  1.00  0.00     0.022 A 
BRANCH  83  86
ATOM     86  S   UNL     1      -3.518  -2.738   4.972  1.00  0.00     0.127 S 
ATOM     87  O   UNL     1      -3.338  -1.381   4.456  1.00  0.00    -0.237 OA
ATOM     88  O   UNL     1      -4.913  -3.145   5.143  1.00  0.00    -0.237 OA
ATOM     89  O   UNL     1      -2.638  -3.111   6.071  1.00  0.00    -0.744 OA
ENDBRANCH  83  86
ENDBRANCH  65  79
BRANCH  66  90
ATOM     90  C   UNL     1       7.096 -10.352   2.231  1.00  0.00     0.023 A 
ATOM     91  C   UNL     1       7.121 -11.687   1.778  1.00  0.00     0.012 A 
ATOM     92  C   UNL     1       8.297  -9.748   2.648  1.00  0.00     0.148 A 
ATOM     93  C   UNL     1       8.310 -12.417   1.778  1.00  0.00     0.002 A 
ATOM     94  C   UNL     1       9.488 -10.463   2.593  1.00  0.00     0.091 A 
ATOM     95  F   UNL     1       8.252  -8.480   3.083  1.00  0.00    -0.205 F 
ATOM     96  C   UNL     1       9.494 -11.804   2.177  1.00  0.00     0.022 A 
BRANCH  94  97
ATOM     97  S   UNL     1      11.079  -9.716   2.964  1.00  0.00     0.127 S 
ATOM     98  O   UNL     1      11.418 -10.350   4.235  1.00  0.00    -0.237 OA
ATOM     99  O   UNL     1      11.889 -10.147   1.824  1.00  0.00    -0.237 OA
ATOM    100  O   UNL     1      10.835  -8.281   3.017  1.00  0.00    -0.744 OA
ENDBRANCH  94  97
ENDBRANCH  66  90
BRANCH  78 101
ATOM    101  C   UNL     1       1.076 -11.202   5.659  1.00  0.00     0.023 A 
ATOM    102  C   UNL     1       1.598 -11.229   6.967  1.00  0.00     0.012 A 
ATOM    103  C   UNL     1       0.070 -12.120   5.297  1.00  0.00     0.148 A 
ATOM    104  C   UNL     1       1.159 -12.182   7.886  1.00  0.00     0.002 A 
ATOM    105  C   UNL     1      -0.400 -13.033   6.234  1.00  0.00     0.091 A 
ATOM    106  F   UNL     1      -0.401 -12.095   4.042  1.00  0.00    -0.205 F 
ATOM    107  C   UNL     1       0.153 -13.075   7.523  1.00  0.00     0.022 A 
BRANCH 105 108
ATOM    108  S   UNL     1      -1.762 -14.148   5.878  1.00  0.00     0.127 S 
ATOM    109  O   UNL     1      -1.062 -15.406   5.629  1.00  0.00    -0.237 OA
ATOM    110  O   UNL     1      -2.530 -14.113   7.123  1.00  0.00    -0.237 OA
ATOM    111  O   UNL     1      -2.454 -13.573   4.731  1.00  0.00    -0.744 OA
ENDBRANCH 105 108
ENDBRANCH  78 101
ENDBRANCH  52  53
ENDBRANCH  44  47
ENDBRANCH  42  43
ENDBRANCH  41  42
ENDBRANCH  40  41
ENDBRANCH   1  40
TORSDOF 20
