REMARK SMILES Cc1cc(Cl)c(C)c2c1O[C@H](C(F)(F)F)C(C(=O)NCCCCNC(=O)c1ccc(-c3c4nc(c(-c5cccc(S(=O)(=O)[O-])c5F)c5ccc([nH]5)c(-c5cccc(S(=O)(=O)[O-])c5F)c5nc(c(-c6cccc(S(=O)(=O)[O-])c6F)c6ccc3[nH]6)C=C5)C=C4)cc1)=C2
REMARK SMILES IDX 22 1 21 2 20 3 19 4 17 5 18 6 16 8 1 9 2 10 3 11 9 12 4 13
REMARK SMILES IDX 8 14 10 15 5 16 6 17 90 18 11 19 7 20 12 21 13 22 14 23
REMARK SMILES IDX 15 24 23 25 24 26 25 27 26 29 27 30 28 31 89 32 29 33 88 34
REMARK SMILES IDX 30 35 31 36 32 37 82 38 33 39 87 40 81 41 83 42 34 43 86 44
REMARK SMILES IDX 80 45 79 46 35 48 67 49 47 50 66 51 48 52 51 53 65 54 84 55
REMARK SMILES IDX 49 56 50 57 64 59 85 60 52 61 36 62 37 63 45 64 38 65 40 66
REMARK SMILES IDX 46 67 39 68 41 69 42 70 43 71 44 72 68 73 69 74 77 75 70 76
REMARK SMILES IDX 72 77 78 78 71 79 73 80 74 81 75 82 76 83 53 84 54 85 62 86
REMARK SMILES IDX 55 87 57 88 63 89 56 90 58 91 59 92 60 93 61 94
REMARK H PARENT 19 7 24 28 83 47 51 58
REMARK Flexibility Score: inf
ROOT
ATOM      1  C   UNL     1      -4.724  -1.189   6.729  1.00  0.00     0.023 C 
ENDROOT
BRANCH   1   2
ATOM      2  C   UNL     1      -3.775  -1.012   5.541  1.00  0.00     0.023 C 
BRANCH   2   3
ATOM      3  C   UNL     1      -4.406  -0.325   4.333  1.00  0.00     0.116 C 
BRANCH   3   4
ATOM      4  N   UNL     1      -4.335   1.122   4.432  1.00  0.00    -0.352 N 
ATOM      5  C   UNL     1      -3.586   2.114   3.897  1.00  0.00     0.251 C 
ATOM      6  O   UNL     1      -3.878   3.255   4.268  1.00  0.00    -0.270 OA
ATOM      7  H   UNL     1      -5.012   1.475   5.053  1.00  0.00     0.163 HD
BRANCH   5   8
ATOM      8  C   UNL     1      -2.473   1.926   2.919  1.00  0.00     0.067 C 
ATOM      9  C   UNL     1       1.303   0.187  -0.099  1.00  0.00     0.048 C 
ATOM     10  C   UNL     1       0.846   1.541   0.365  1.00  0.00    -0.007 A 
ATOM     11  C   UNL     1       1.460   2.688  -0.144  1.00  0.00     0.028 A 
ATOM     12  C   UNL     1      -0.230   1.695   1.247  1.00  0.00     0.131 A 
ATOM     13  C   UNL     1       1.033   3.963   0.242  1.00  0.00     0.045 A 
ATOM     14  C   UNL     1      -0.666   2.968   1.655  1.00  0.00     0.022 A 
ATOM     15  O   UNL     1      -0.795   0.544   1.725  1.00  0.00    -0.475 OA
ATOM     16  Cl  UNL     1       1.889   5.301  -0.447  1.00  0.00    -0.084 Cl
ATOM     17  C   UNL     1      -0.034   4.129   1.145  1.00  0.00    -0.021 A 
ATOM     18  C   UNL     1      -1.754   3.029   2.637  1.00  0.00     0.026 C 
ATOM     19  C   UNL     1      -2.152   0.635   2.232  1.00  0.00     0.314 C 
ATOM     20  C   UNL     1      -0.505   5.497   1.574  1.00  0.00     0.047 C 
BRANCH  19  21
ATOM     21  C   UNL     1      -3.143   0.293   1.105  1.00  0.00     0.429 C 
ATOM     22  F   UNL     1      -2.991  -0.999   0.718  1.00  0.00    -0.167 F 
ATOM     23  F   UNL     1      -4.434   0.430   1.486  1.00  0.00    -0.167 F 
ATOM     24  F   UNL     1      -2.971   1.064   0.007  1.00  0.00    -0.167 F 
ENDBRANCH  19  21
ENDBRANCH   5   8
ENDBRANCH   3   4
ENDBRANCH   2   3
ENDBRANCH   1   2
BRANCH   1  25
ATOM     25  C   UNL     1      -6.031  -1.921   6.425  1.00  0.00     0.116 C 
BRANCH  25  26
ATOM     26  N   UNL     1      -5.847  -3.189   5.731  1.00  0.00    -0.352 N 
ATOM     27  C   UNL     1      -6.629  -4.317   5.814  1.00  0.00     0.251 C 
ATOM     28  H   UNL     1      -5.070  -3.245   5.129  1.00  0.00     0.163 HD
ATOM     29  O   UNL     1      -6.313  -5.345   5.224  1.00  0.00    -0.269 OA
BRANCH  27  30
ATOM     30  C   UNL     1      -7.833  -4.277   6.665  1.00  0.00     0.039 A 
ATOM     31  C   UNL     1      -7.955  -5.202   7.704  1.00  0.00     0.014 A 
ATOM     32  C   UNL     1      -8.787  -3.271   6.484  1.00  0.00     0.014 A 
ATOM     33  C   UNL     1      -9.002  -5.071   8.615  1.00  0.00     0.010 A 
ATOM     34  C   UNL     1      -9.794  -3.107   7.428  1.00  0.00     0.010 A 
ATOM     35  C   UNL     1      -9.906  -4.001   8.504  1.00  0.00    -0.014 A 
BRANCH  35  36
ATOM     36  C   UNL     1     -10.967  -3.787   9.517  1.00  0.00     0.031 A 
ATOM     37  C   UNL     1     -12.411  -3.930   9.134  1.00  0.00     0.074 A 
ATOM     38  C   UNL     1     -10.628  -3.389  10.759  1.00  0.00     0.049 A 
ATOM     39  N   UNL     1     -13.477  -3.749   9.867  1.00  0.00    -0.248 NA
ATOM     40  C   UNL     1     -12.697  -4.301   7.738  1.00  0.00     0.031 C 
ATOM     41  C   UNL     1      -9.261  -3.145  11.224  1.00  0.00     0.029 A 
ATOM     42  N   UNL     1     -11.406  -3.104  11.853  1.00  0.00    -0.354 N 
ATOM     43  C   UNL     1     -14.558  -3.961   9.021  1.00  0.00     0.074 A 
ATOM     44  C   UNL     1     -14.021  -4.242   7.708  1.00  0.00     0.031 C 
ATOM     45  C   UNL     1      -9.295  -2.767  12.512  1.00  0.00     0.029 A 
ATOM     46  C   UNL     1     -10.684  -2.720  12.959  1.00  0.00     0.049 A 
ATOM     47  H   UNL     1     -12.388  -3.169  11.847  1.00  0.00     0.167 HD
ATOM     48  C   UNL     1     -15.878  -3.966   9.320  1.00  0.00     0.034 A 
ATOM     49  C   UNL     1     -11.097  -2.380  14.197  1.00  0.00     0.034 A 
ATOM     50  C   UNL     1     -16.403  -3.738  10.637  1.00  0.00     0.049 A 
ATOM     51  C   UNL     1     -12.568  -2.423  14.512  1.00  0.00     0.074 A 
ATOM     52  C   UNL     1     -17.719  -3.793  11.058  1.00  0.00     0.029 A 
ATOM     53  N   UNL     1     -15.639  -3.416  11.748  1.00  0.00    -0.354 N 
ATOM     54  N   UNL     1     -13.566  -2.770  13.735  1.00  0.00    -0.248 NA
ATOM     55  C   UNL     1     -12.969  -2.060  15.879  1.00  0.00     0.031 C 
ATOM     56  C   UNL     1     -17.751  -3.501  12.426  1.00  0.00     0.029 A 
ATOM     57  C   UNL     1     -16.454  -3.269  12.856  1.00  0.00     0.049 A 
ATOM     58  H   UNL     1     -14.660  -3.308  11.749  1.00  0.00     0.167 HD
ATOM     59  C   UNL     1     -14.709  -2.693  14.523  1.00  0.00     0.074 A 
ATOM     60  C   UNL     1     -14.276  -2.288  15.846  1.00  0.00     0.031 C 
ATOM     61  C   UNL     1     -16.000  -2.918  14.178  1.00  0.00     0.034 A 
BRANCH  48  62
ATOM     62  C   UNL     1     -16.839  -4.314   8.216  1.00  0.00     0.023 A 
ATOM     63  C   UNL     1     -16.923  -5.653   7.782  1.00  0.00     0.012 A 
ATOM     64  C   UNL     1     -17.690  -3.348   7.649  1.00  0.00     0.148 A 
ATOM     65  C   UNL     1     -17.819  -6.021   6.781  1.00  0.00     0.002 A 
ATOM     66  C   UNL     1     -18.609  -3.730   6.678  1.00  0.00     0.091 A 
ATOM     67  F   UNL     1     -17.578  -2.075   8.056  1.00  0.00    -0.205 F 
ATOM     68  C   UNL     1     -18.669  -5.062   6.237  1.00  0.00     0.022 A 
BRANCH  66  69
ATOM     69  S   UNL     1     -19.795  -2.584   5.965  1.00  0.00     0.127 S 
ATOM     70  O   UNL     1     -19.238  -2.377   4.629  1.00  0.00    -0.237 OA
ATOM     71  O   UNL     1     -21.034  -3.362   5.994  1.00  0.00    -0.237 OA
ATOM     72  O   UNL     1     -19.793  -1.416   6.834  1.00  0.00    -0.744 OA
ENDBRANCH  66  69
ENDBRANCH  48  62
BRANCH  49  73
ATOM     73  C   UNL     1     -10.089  -2.078  15.252  1.00  0.00     0.023 A 
ATOM     74  C   UNL     1      -9.881  -3.017  16.282  1.00  0.00     0.012 A 
ATOM     75  C   UNL     1      -9.295  -0.915  15.213  1.00  0.00     0.148 A 
ATOM     76  C   UNL     1      -8.913  -2.797  17.262  1.00  0.00     0.002 A 
ATOM     77  C   UNL     1      -8.297  -0.726  16.164  1.00  0.00     0.091 A 
ATOM     78  F   UNL     1      -9.518  -0.027  14.234  1.00  0.00    -0.205 F 
ATOM     79  C   UNL     1      -8.114  -1.659  17.197  1.00  0.00     0.022 A 
BRANCH  77  80
ATOM     80  S   UNL     1      -7.131   0.639  16.080  1.00  0.00     0.127 S 
ATOM     81  O   UNL     1      -7.569   1.475  17.194  1.00  0.00    -0.237 OA
ATOM     82  O   UNL     1      -5.852  -0.042  16.284  1.00  0.00    -0.237 OA
ATOM     83  O   UNL     1      -7.297   1.213  14.751  1.00  0.00    -0.744 OA
ENDBRANCH  77  80
ENDBRANCH  49  73
BRANCH  61  84
ATOM     84  C   UNL     1     -17.055  -2.736  15.236  1.00  0.00     0.023 A 
ATOM     85  C   UNL     1     -17.440  -1.433  15.607  1.00  0.00     0.012 A 
ATOM     86  C   UNL     1     -17.747  -3.843  15.767  1.00  0.00     0.148 A 
ATOM     87  C   UNL     1     -18.490  -1.234  16.502  1.00  0.00     0.002 A 
ATOM     88  C   UNL     1     -18.821  -3.634  16.625  1.00  0.00     0.091 A 
ATOM     89  F   UNL     1     -17.351  -5.074  15.415  1.00  0.00    -0.205 F 
ATOM     90  C   UNL     1     -19.190  -2.332  16.998  1.00  0.00     0.022 A 
BRANCH  88  91
ATOM     91  S   UNL     1     -19.840  -4.984  17.233  1.00  0.00     0.127 S 
ATOM     92  O   UNL     1     -19.397  -5.089  18.622  1.00  0.00    -0.237 OA
ATOM     93  O   UNL     1     -21.194  -4.454  17.063  1.00  0.00    -0.237 OA
ATOM     94  O   UNL     1     -19.532  -6.129  16.387  1.00  0.00    -0.744 OA
ENDBRANCH  88  91
ENDBRANCH  61  84
ENDBRANCH  35  36
ENDBRANCH  27  30
ENDBRANCH  25  26
ENDBRANCH   1  25
TORSDOF 15
