REMARK SMILES O=C(NCCCCNC(=O)[C@H]1CCCC[C@@H]1C(=O)Nc1ccc(Br)c(Cl)c1)c1ccc(-c2c3nc(c(-c4cccc(S(=O)(=O)[O-])c4F)c4ccc([nH]4)c(-c4cccc(S(=O)(=O)[O-])c4F)c4nc(c(-c5cccc(S(=O)(=O)[O-])c5F)c5ccc2[nH]5)C=C4)C=C3)cc1
REMARK SMILES IDX 5 1 4 2 3 3 1 4 2 5 28 7 29 8 90 9 30 10 89 11 31 12 32 13
REMARK SMILES IDX 33 14 83 15 34 16 88 17 82 18 84 19 35 20 87 21 81 22 80 23
REMARK SMILES IDX 36 25 68 26 48 27 67 28 49 29 52 30 66 31 85 32 50 33 51 34
REMARK SMILES IDX 65 36 86 37 53 38 37 39 38 40 46 41 39 42 41 43 47 44 40 45
REMARK SMILES IDX 42 46 43 47 44 48 45 49 69 50 70 51 78 52 71 53 73 54 79 55
REMARK SMILES IDX 72 56 74 57 75 58 76 59 77 60 54 61 55 62 63 63 56 64 58 65
REMARK SMILES IDX 64 66 57 67 59 68 60 69 61 70 62 71 6 72 7 73 8 74 9 75
REMARK SMILES IDX 10 77 11 78 12 79 16 80 13 81 15 82 14 83 17 84 18 85 19 86
REMARK SMILES IDX 20 88 21 89 27 90 22 91 25 92 23 93 26 94 24 95
REMARK H PARENT 3 6 84 24 52 35 8 76 19 87
REMARK Flexibility Score: inf
ROOT
ATOM      1  C   UNL     1       3.287   6.338   1.528  1.00  0.00     0.023 C 
ENDROOT
BRANCH   1   2
ATOM      2  C   UNL     1       2.759   7.656   2.082  1.00  0.00     0.116 C 
BRANCH   2   3
ATOM      3  N   UNL     1       3.509   8.809   1.605  1.00  0.00    -0.352 N 
ATOM      4  O   UNL     1       3.868  10.719   0.470  1.00  0.00    -0.269 OA
ATOM      5  C   UNL     1       3.062   9.928   0.946  1.00  0.00     0.251 C 
ATOM      6  H   UNL     1       4.477   8.782   1.781  1.00  0.00     0.163 HD
BRANCH   5   7
ATOM      7  C   UNL     1       1.610  10.169   0.807  1.00  0.00     0.039 A 
ATOM      8  C   UNL     1       1.103  10.570  -0.432  1.00  0.00     0.014 A 
ATOM      9  C   UNL     1       0.757  10.017   1.903  1.00  0.00     0.014 A 
ATOM     10  C   UNL     1      -0.271  10.778  -0.581  1.00  0.00     0.010 A 
ATOM     11  C   UNL     1      -0.616  10.155   1.734  1.00  0.00     0.010 A 
ATOM     12  C   UNL     1      -1.141  10.555   0.497  1.00  0.00    -0.014 A 
BRANCH  12  13
ATOM     13  C   UNL     1      -2.603  10.784   0.383  1.00  0.00     0.031 A 
ATOM     14  C   UNL     1      -3.246  11.863   1.214  1.00  0.00     0.074 A 
ATOM     15  C   UNL     1      -3.355   9.991  -0.406  1.00  0.00     0.049 A 
ATOM     16  N   UNL     1      -4.514  12.137   1.365  1.00  0.00    -0.248 NA
ATOM     17  C   UNL     1      -2.348  12.739   1.990  1.00  0.00     0.031 C 
ATOM     18  C   UNL     1      -2.851   8.902  -1.246  1.00  0.00     0.029 A 
ATOM     19  N   UNL     1      -4.712   9.969  -0.614  1.00  0.00    -0.354 N 
ATOM     20  C   UNL     1      -4.569  13.187   2.275  1.00  0.00     0.074 A 
ATOM     21  C   UNL     1      -3.210  13.492   2.659  1.00  0.00     0.031 C 
ATOM     22  C   UNL     1      -3.882   8.330  -1.891  1.00  0.00     0.029 A 
ATOM     23  C   UNL     1      -5.122   8.981  -1.479  1.00  0.00     0.049 A 
ATOM     24  H   UNL     1      -5.333  10.601  -0.185  1.00  0.00     0.167 HD
ATOM     25  C   UNL     1      -5.654  13.854   2.727  1.00  0.00     0.034 A 
ATOM     26  C   UNL     1      -6.359   8.635  -1.887  1.00  0.00     0.034 A 
ATOM     27  C   UNL     1      -6.998  13.589   2.299  1.00  0.00     0.049 A 
ATOM     28  C   UNL     1      -7.545   9.398  -1.365  1.00  0.00     0.074 A 
ATOM     29  C   UNL     1      -8.159  14.243   2.676  1.00  0.00     0.029 A 
ATOM     30  N   UNL     1      -7.362  12.611   1.391  1.00  0.00    -0.354 N 
ATOM     31  N   UNL     1      -7.569  10.416  -0.540  1.00  0.00    -0.248 NA
ATOM     32  C   UNL     1      -8.871   8.984  -1.848  1.00  0.00     0.031 C 
ATOM     33  C   UNL     1      -9.227  13.656   1.996  1.00  0.00     0.029 A 
ATOM     34  C   UNL     1      -8.727  12.653   1.181  1.00  0.00     0.049 A 
ATOM     35  H   UNL     1      -6.741  11.980   0.959  1.00  0.00     0.167 HD
ATOM     36  C   UNL     1      -8.902  10.796  -0.446  1.00  0.00     0.074 A 
ATOM     37  C   UNL     1      -9.658   9.896  -1.291  1.00  0.00     0.031 C 
ATOM     38  C   UNL     1      -9.450  11.798   0.281  1.00  0.00     0.034 A 
BRANCH  25  39
ATOM     39  C   UNL     1      -5.453  14.992   3.685  1.00  0.00     0.023 A 
ATOM     40  C   UNL     1      -5.062  16.248   3.181  1.00  0.00     0.012 A 
ATOM     41  C   UNL     1      -5.809  14.864   5.041  1.00  0.00     0.148 A 
ATOM     42  C   UNL     1      -5.041  17.366   4.012  1.00  0.00     0.002 A 
ATOM     43  C   UNL     1      -5.815  15.989   5.856  1.00  0.00     0.091 A 
ATOM     44  F   UNL     1      -6.169  13.654   5.493  1.00  0.00    -0.205 F 
ATOM     45  C   UNL     1      -5.431  17.240   5.343  1.00  0.00     0.022 A 
BRANCH  43  46
ATOM     46  S   UNL     1      -6.359  15.949   7.567  1.00  0.00     0.127 S 
ATOM     47  O   UNL     1      -5.163  16.419   8.268  1.00  0.00    -0.237 OA
ATOM     48  O   UNL     1      -7.472  16.897   7.556  1.00  0.00    -0.237 OA
ATOM     49  O   UNL     1      -6.725  14.567   7.844  1.00  0.00    -0.744 OA
ENDBRANCH  43  46
ENDBRANCH  25  39
BRANCH  26  50
ATOM     50  C   UNL     1      -6.538   7.562  -2.904  1.00  0.00     0.023 A 
ATOM     51  C   UNL     1      -6.903   7.921  -4.216  1.00  0.00     0.012 A 
ATOM     52  C   UNL     1      -6.335   6.205  -2.591  1.00  0.00     0.148 A 
ATOM     53  C   UNL     1      -7.085   6.946  -5.196  1.00  0.00     0.002 A 
ATOM     54  C   UNL     1      -6.481   5.240  -3.582  1.00  0.00     0.091 A 
ATOM     55  F   UNL     1      -5.995   5.888  -1.334  1.00  0.00    -0.205 F 
ATOM     56  C   UNL     1      -6.867   5.607  -4.881  1.00  0.00     0.022 A 
BRANCH  54  57
ATOM     57  S   UNL     1      -6.139   3.500  -3.298  1.00  0.00     0.127 S 
ATOM     58  O   UNL     1      -7.469   2.910  -3.432  1.00  0.00    -0.237 OA
ATOM     59  O   UNL     1      -5.215   3.194  -4.390  1.00  0.00    -0.237 OA
ATOM     60  O   UNL     1      -5.548   3.425  -1.969  1.00  0.00    -0.744 OA
ENDBRANCH  54  57
ENDBRANCH  26  50
BRANCH  38  61
ATOM     61  C   UNL     1     -10.926  12.044   0.153  1.00  0.00     0.023 A 
ATOM     62  C   UNL     1     -11.838  11.215   0.832  1.00  0.00     0.012 A 
ATOM     63  C   UNL     1     -11.393  13.181  -0.537  1.00  0.00     0.148 A 
ATOM     64  C   UNL     1     -13.200  11.508   0.816  1.00  0.00     0.002 A 
ATOM     65  C   UNL     1     -12.747  13.487  -0.518  1.00  0.00     0.091 A 
ATOM     66  F   UNL     1     -10.501  13.948  -1.180  1.00  0.00    -0.205 F 
ATOM     67  C   UNL     1     -13.653  12.649   0.153  1.00  0.00     0.022 A 
BRANCH  65  68
ATOM     68  S   UNL     1     -13.411  14.972  -1.277  1.00  0.00     0.127 S 
ATOM     69  O   UNL     1     -14.191  14.417  -2.383  1.00  0.00    -0.237 OA
ATOM     70  O   UNL     1     -14.211  15.542  -0.192  1.00  0.00    -0.237 OA
ATOM     71  O   UNL     1     -12.262  15.775  -1.671  1.00  0.00    -0.744 OA
ENDBRANCH  65  68
ENDBRANCH  38  61
ENDBRANCH  12  13
ENDBRANCH   5   7
ENDBRANCH   2   3
ENDBRANCH   1   2
BRANCH   1  72
ATOM     72  C   UNL     1       4.774   6.079   1.750  1.00  0.00     0.023 C 
BRANCH  72  73
ATOM     73  C   UNL     1       5.265   6.165   3.187  1.00  0.00     0.116 C 
BRANCH  73  74
ATOM     74  N   UNL     1       4.736   5.124   4.035  1.00  0.00    -0.356 N 
ATOM     75  C   UNL     1       5.313   4.403   5.027  1.00  0.00     0.223 C 
ATOM     76  H   UNL     1       3.793   4.899   3.863  1.00  0.00     0.163 HD
ATOM     77  O   UNL     1       4.595   3.535   5.535  1.00  0.00    -0.275 OA
BRANCH  75  78
ATOM     78  C   UNL     1       6.796   4.546   5.437  1.00  0.00     0.091 C 
ATOM     79  C   UNL     1       7.382   5.962   5.544  1.00  0.00     0.014 C 
ATOM     80  C   UNL     1       6.990   3.821   6.799  1.00  0.00     0.091 C 
ATOM     81  C   UNL     1       6.694   6.783   6.618  1.00  0.00     0.001 C 
ATOM     82  C   UNL     1       6.473   4.660   7.988  1.00  0.00     0.014 C 
ATOM     83  C   UNL     1       6.876   6.133   7.979  1.00  0.00     0.001 C 
BRANCH  80  84
ATOM     84  C   UNL     1       8.446   3.396   6.992  1.00  0.00     0.228 C 
ATOM     85  O   UNL     1       9.321   4.208   7.306  1.00  0.00    -0.274 OA
ATOM     86  N   UNL     1       8.825   2.085   6.913  1.00  0.00    -0.326 N 
ATOM     87  H   UNL     1       9.777   1.925   7.107  1.00  0.00     0.169 HD
BRANCH  86  88
ATOM     88  C   UNL     1       8.097   0.928   6.605  1.00  0.00     0.042 A 
ATOM     89  C   UNL     1       7.109   0.866   5.625  1.00  0.00     0.027 A 
ATOM     90  C   UNL     1       8.399  -0.220   7.344  1.00  0.00     0.047 A 
ATOM     91  C   UNL     1       6.362  -0.303   5.448  1.00  0.00     0.019 A 
ATOM     92  C   UNL     1       7.638  -1.383   7.191  1.00  0.00     0.057 A 
ATOM     93  C   UNL     1       6.606  -1.421   6.249  1.00  0.00     0.036 A 
ATOM     94  Cl  UNL     1       8.007  -2.713   8.232  1.00  0.00    -0.083 Cl
ATOM     95  Br  UNL     1       5.494  -2.939   6.006  1.00  0.00    -0.049 Br
ENDBRANCH  86  88
ENDBRANCH  80  84
ENDBRANCH  75  78
ENDBRANCH  73  74
ENDBRANCH  72  73
ENDBRANCH   1  72
TORSDOF 16
