REMARK SMILES CS(=O)(=O)CCCNC(=O)N[C@H]1C=C[C@@H](C(=O)NCCCCNC(=O)c2ccc(-c3c4nc(c(-c5cccc(S(=O)(=O)[O-])c5F)c5ccc([nH]5)c(-c5cccc(S(=O)(=O)[O-])c5F)c5nc(c(-c6cccc(S(=O)(=O)[O-])c6F)c6ccc3[nH]6)C=C5)C=C4)cc2)C1
REMARK SMILES IDX 19 1 18 2 16 3 17 4 15 6 12 7 13 8 89 9 14 10 11 11 8 12
REMARK SMILES IDX 9 13 10 15 7 17 6 18 5 19 2 20 1 21 3 22 4 23 20 24 21 25
REMARK SMILES IDX 22 26 23 27 24 28 25 30 26 31 27 32 88 33 28 34 87 35 29 36
REMARK SMILES IDX 30 37 31 38 81 39 32 40 86 41 80 42 82 43 33 44 85 45 79 46
REMARK SMILES IDX 78 47 34 49 66 50 46 51 65 52 47 53 50 54 64 55 83 56 48 57
REMARK SMILES IDX 49 58 63 60 84 61 51 62 35 63 36 64 44 65 37 66 39 67 45 68
REMARK SMILES IDX 38 69 40 70 41 71 42 72 43 73 67 74 68 75 76 76 69 77 71 78
REMARK SMILES IDX 77 79 70 80 72 81 73 82 74 83 75 84 52 85 53 86 61 87 54 88
REMARK SMILES IDX 56 89 62 90 55 91 57 92 58 93 59 94 60 95
REMARK H PARENT 18 5 8 14 11 16 23 29 82 48 50 59
REMARK Flexibility Score: inf
ROOT
ATOM      1  C   UNL     1       1.632   3.806  -0.734  1.00  0.00     0.116 C 
ENDROOT
BRANCH   1   2
ATOM      2  N   UNL     1       0.423   4.513  -0.390  1.00  0.00    -0.356 N 
ATOM      3  C   UNL     1      -0.664   4.831  -1.134  1.00  0.00     0.227 C 
ATOM      4  O   UNL     1      -1.621   5.325  -0.525  1.00  0.00    -0.274 OA
ATOM      5  H   UNL     1       0.379   4.815   0.546  1.00  0.00     0.163 HD
BRANCH   3   6
ATOM      6  C   UNL     1      -0.800   4.556  -2.636  1.00  0.00     0.103 C 
ATOM      7  C   UNL     1       0.658   3.477  -4.338  1.00  0.00     0.107 C 
ATOM      8  C   UNL     1      -0.486   2.631  -3.925  1.00  0.00    -0.006 C 
ATOM      9  C   UNL     1       0.363   4.807  -3.601  1.00  0.00     0.047 C 
ATOM     10  C   UNL     1      -1.236   3.167  -2.959  1.00  0.00    -0.016 C 
BRANCH   7  11
ATOM     11  N   UNL     1       2.033   3.015  -4.076  1.00  0.00    -0.332 N 
ATOM     12  N   UNL     1       2.363   0.860  -3.102  1.00  0.00    -0.338 N 
ATOM     13  C   UNL     1       2.788   2.044  -3.559  1.00  0.00     0.315 C 
ATOM     14  H   UNL     1       3.047   0.315  -2.650  1.00  0.00     0.165 HD
ATOM     15  O   UNL     1       4.001   2.266  -3.488  1.00  0.00    -0.249 OA
ATOM     16  H   UNL     1       2.643   3.705  -4.425  1.00  0.00     0.165 HD
BRANCH  12  17
ATOM     17  C   UNL     1       1.060   0.271  -3.172  1.00  0.00     0.119 C 
BRANCH  17  18
ATOM     18  C   UNL     1       0.979  -1.246  -3.167  1.00  0.00     0.037 C 
BRANCH  18  19
ATOM     19  C   UNL     1       1.411  -1.977  -1.912  1.00  0.00     0.138 C 
BRANCH  19  20
ATOM     20  S   UNL     1       0.370  -1.755  -0.481  1.00  0.00     0.147 S 
ATOM     21  C   UNL     1       0.989  -0.288   0.311  1.00  0.00     0.158 C 
ATOM     22  O   UNL     1       0.647  -2.869   0.403  1.00  0.00    -0.229 OA
ATOM     23  O   UNL     1      -0.987  -1.494  -0.930  1.00  0.00    -0.229 OA
ENDBRANCH  19  20
ENDBRANCH  18  19
ENDBRANCH  17  18
ENDBRANCH  12  17
ENDBRANCH   7  11
ENDBRANCH   3   6
ENDBRANCH   1   2
BRANCH   1  24
ATOM     24  C   UNL     1       2.829   4.738  -0.922  1.00  0.00     0.023 C 
BRANCH  24  25
ATOM     25  C   UNL     1       3.249   5.498   0.334  1.00  0.00     0.023 C 
BRANCH  25  26
ATOM     26  C   UNL     1       3.599   4.622   1.527  1.00  0.00     0.116 C 
BRANCH  26  27
ATOM     27  N   UNL     1       4.691   3.701   1.250  1.00  0.00    -0.352 N 
ATOM     28  C   UNL     1       5.809   3.438   2.005  1.00  0.00     0.251 C 
ATOM     29  H   UNL     1       4.619   3.197   0.408  1.00  0.00     0.163 HD
ATOM     30  O   UNL     1       6.698   2.720   1.557  1.00  0.00    -0.269 OA
BRANCH  28  31
ATOM     31  C   UNL     1       5.949   4.051   3.343  1.00  0.00     0.039 A 
ATOM     32  C   UNL     1       7.161   4.654   3.683  1.00  0.00     0.014 A 
ATOM     33  C   UNL     1       4.881   4.058   4.245  1.00  0.00     0.014 A 
ATOM     34  C   UNL     1       7.282   5.318   4.906  1.00  0.00     0.010 A 
ATOM     35  C   UNL     1       4.975   4.795   5.421  1.00  0.00     0.010 A 
ATOM     36  C   UNL     1       6.179   5.425   5.770  1.00  0.00    -0.014 A 
BRANCH  36  37
ATOM     37  C   UNL     1       6.269   6.202   7.033  1.00  0.00     0.031 A 
ATOM     38  C   UNL     1       6.054   5.530   8.361  1.00  0.00     0.074 A 
ATOM     39  C   UNL     1       6.469   7.534   6.981  1.00  0.00     0.049 A 
ATOM     40  N   UNL     1       6.069   6.051   9.561  1.00  0.00    -0.248 NA
ATOM     41  C   UNL     1       5.751   4.090   8.338  1.00  0.00     0.031 C 
ATOM     42  C   UNL     1       6.595   8.322   5.754  1.00  0.00     0.029 A 
ATOM     43  N   UNL     1       6.573   8.463   7.986  1.00  0.00    -0.354 N 
ATOM     44  C   UNL     1       5.751   5.014  10.430  1.00  0.00     0.074 A 
ATOM     45  C   UNL     1       5.499   3.846   9.615  1.00  0.00     0.031 C 
ATOM     46  C   UNL     1       6.759   9.614   6.076  1.00  0.00     0.029 A 
ATOM     47  C   UNL     1       6.719   9.752   7.529  1.00  0.00     0.049 A 
ATOM     48  H   UNL     1       6.545   8.230   8.941  1.00  0.00     0.167 HD
ATOM     49  C   UNL     1       5.704   5.021  11.784  1.00  0.00     0.034 A 
ATOM     50  C   UNL     1       6.799  10.917   8.200  1.00  0.00     0.034 A 
ATOM     51  C   UNL     1       5.972   6.180  12.593  1.00  0.00     0.049 A 
ATOM     52  C   UNL     1       6.782  10.900   9.703  1.00  0.00     0.074 A 
ATOM     53  C   UNL     1       6.034   6.272  13.972  1.00  0.00     0.029 A 
ATOM     54  N   UNL     1       6.204   7.455  12.098  1.00  0.00    -0.354 N 
ATOM     55  N   UNL     1       6.650   9.879  10.514  1.00  0.00    -0.248 NA
ATOM     56  C   UNL     1       6.968  12.189  10.383  1.00  0.00     0.031 C 
ATOM     57  C   UNL     1       6.266   7.611  14.311  1.00  0.00     0.029 A 
ATOM     58  C   UNL     1       6.392   8.345  13.143  1.00  0.00     0.049 A 
ATOM     59  H   UNL     1       6.230   7.693  11.143  1.00  0.00     0.167 HD
ATOM     60  C   UNL     1       6.759  10.396  11.800  1.00  0.00     0.074 A 
ATOM     61  C   UNL     1       7.000  11.818  11.656  1.00  0.00     0.031 C 
ATOM     62  C   UNL     1       6.657   9.754  12.991  1.00  0.00     0.034 A 
BRANCH  49  63
ATOM     63  C   UNL     1       5.383   3.716  12.470  1.00  0.00     0.023 A 
ATOM     64  C   UNL     1       6.305   2.648  12.408  1.00  0.00     0.012 A 
ATOM     65  C   UNL     1       4.184   3.547  13.190  1.00  0.00     0.148 A 
ATOM     66  C   UNL     1       6.014   1.419  12.999  1.00  0.00     0.002 A 
ATOM     67  C   UNL     1       3.926   2.336  13.822  1.00  0.00     0.091 A 
ATOM     68  F   UNL     1       3.310   4.562  13.225  1.00  0.00    -0.205 F 
ATOM     69  C   UNL     1       4.830   1.266  13.713  1.00  0.00     0.022 A 
BRANCH  67  70
ATOM     70  S   UNL     1       2.469   2.067  14.837  1.00  0.00     0.127 S 
ATOM     71  O   UNL     1       1.678   1.177  13.988  1.00  0.00    -0.237 OA
ATOM     72  O   UNL     1       3.036   1.429  16.026  1.00  0.00    -0.237 OA
ATOM     73  O   UNL     1       1.895   3.384  15.071  1.00  0.00    -0.744 OA
ENDBRANCH  67  70
ENDBRANCH  49  63
BRANCH  50  74
ATOM     74  C   UNL     1       6.944  12.191   7.442  1.00  0.00     0.023 A 
ATOM     75  C   UNL     1       8.171  12.882   7.461  1.00  0.00     0.012 A 
ATOM     76  C   UNL     1       5.886  12.686   6.655  1.00  0.00     0.148 A 
ATOM     77  C   UNL     1       8.333  14.059   6.729  1.00  0.00     0.002 A 
ATOM     78  C   UNL     1       6.074  13.825   5.881  1.00  0.00     0.091 A 
ATOM     79  F   UNL     1       4.727  12.014   6.657  1.00  0.00    -0.205 F 
ATOM     80  C   UNL     1       7.290  14.523   5.931  1.00  0.00     0.022 A 
BRANCH  78  81
ATOM     81  S   UNL     1       4.840  14.414   4.717  1.00  0.00     0.127 S 
ATOM     82  O   UNL     1       4.463  15.697   5.305  1.00  0.00    -0.237 OA
ATOM     83  O   UNL     1       5.617  14.505   3.481  1.00  0.00    -0.237 OA
ATOM     84  O   UNL     1       3.795  13.399   4.699  1.00  0.00    -0.744 OA
ENDBRANCH  78  81
ENDBRANCH  50  74
BRANCH  62  85
ATOM     85  C   UNL     1       6.827  10.580  14.242  1.00  0.00     0.023 A 
ATOM     86  C   UNL     1       5.837  11.513  14.611  1.00  0.00     0.012 A 
ATOM     87  C   UNL     1       7.946  10.395  15.078  1.00  0.00     0.148 A 
ATOM     88  C   UNL     1       5.980  12.281  15.767  1.00  0.00     0.002 A 
ATOM     89  C   UNL     1       8.055  11.124  16.256  1.00  0.00     0.091 A 
ATOM     90  F   UNL     1       8.887   9.516  14.704  1.00  0.00    -0.205 F 
ATOM     91  C   UNL     1       7.082  12.079  16.594  1.00  0.00     0.022 A 
BRANCH  89  92
ATOM     92  S   UNL     1       9.388  10.863  17.431  1.00  0.00     0.127 S 
ATOM     93  O   UNL     1      10.185  12.076  17.253  1.00  0.00    -0.237 OA
ATOM     94  O   UNL     1       8.670  10.787  18.704  1.00  0.00    -0.237 OA
ATOM     95  O   UNL     1      10.040   9.623  17.031  1.00  0.00    -0.744 OA
ENDBRANCH  89  92
ENDBRANCH  62  85
ENDBRANCH  36  37
ENDBRANCH  28  31
ENDBRANCH  26  27
ENDBRANCH  25  26
ENDBRANCH  24  25
ENDBRANCH   1  24
TORSDOF 19
