REMARK SMILES CC(C)Cc1ccc(-c2cc(Cl)cc3c2O[C@H](C(F)(F)F)C(C(=O)NCCCCNC(=O)c2ccc(-c4c5nc(c(-c6cccc(S(=O)(=O)[O-])c6F)c6ccc([nH]6)c(-c6cccc(S(=O)(=O)[O-])c6F)c6nc(c(-c7cccc(S(=O)(=O)[O-])c7F)c7ccc4[nH]7)C=C6)C=C5)cc2)=C3)cc1
REMARK SMILES IDX 27 1 26 2 25 3 23 4 24 5 22 7 9 8 10 9 15 10 11 11 14 12
REMARK SMILES IDX 16 13 12 14 13 15 96 16 17 17 8 18 5 19 6 20 98 21 7 22
REMARK SMILES IDX 97 23 4 24 2 25 1 26 3 27 18 28 19 29 20 30 21 31 28 32
REMARK SMILES IDX 29 33 30 34 31 35 32 37 33 38 34 39 95 40 35 41 94 42 36 43
REMARK SMILES IDX 37 44 38 45 88 46 39 47 93 48 87 49 89 50 40 51 92 52 86 53
REMARK SMILES IDX 85 54 41 56 73 57 53 58 72 59 54 60 57 61 71 62 90 63 55 64
REMARK SMILES IDX 56 65 70 67 91 68 58 69 42 70 43 71 51 72 44 73 46 74 52 75
REMARK SMILES IDX 45 76 47 77 48 78 49 79 50 80 74 81 75 82 83 83 76 84 78 85
REMARK SMILES IDX 84 86 77 87 79 88 80 89 81 90 82 91 59 92 60 93 68 94 61 95
REMARK SMILES IDX 63 96 69 97 62 98 64 99 65 100 66 101 67 102
REMARK H PARENT 25 6 30 36 89 55 57 66
REMARK Flexibility Score: inf
ROOT
ATOM      1  C   UNL     1      -6.455   8.919  -8.607  1.00  0.00     0.023 C 
ENDROOT
BRANCH   1   2
ATOM      2  C   UNL     1      -6.299   7.396  -8.736  1.00  0.00     0.116 C 
BRANCH   2   3
ATOM      3  N   UNL     1      -4.945   7.010  -8.398  1.00  0.00    -0.352 N 
ATOM      4  C   UNL     1      -4.537   6.075  -7.507  1.00  0.00     0.251 C 
ATOM      5  O   UNL     1      -3.528   6.285  -6.842  1.00  0.00    -0.270 OA
ATOM      6  H   UNL     1      -4.229   7.489  -8.876  1.00  0.00     0.163 HD
BRANCH   4   7
ATOM      7  C   UNL     1      -5.276   4.776  -7.449  1.00  0.00     0.067 C 
ATOM      8  C   UNL     1      -2.979   2.891  -4.652  1.00  0.00     0.026 A 
ATOM      9  C   UNL     1      -1.629   3.151  -5.004  1.00  0.00     0.033 A 
ATOM     10  C   UNL     1      -3.947   3.195  -5.627  1.00  0.00     0.135 A 
ATOM     11  C   UNL     1      -1.243   3.487  -6.299  1.00  0.00     0.042 A 
ATOM     12  C   UNL     1      -3.528   3.426  -6.963  1.00  0.00     0.019 A 
ATOM     13  O   UNL     1      -5.300   3.349  -5.350  1.00  0.00    -0.475 OA
ATOM     14  Cl  UNL     1       0.415   3.774  -6.643  1.00  0.00    -0.084 Cl
ATOM     15  C   UNL     1      -2.185   3.548  -7.306  1.00  0.00     0.032 A 
ATOM     16  C   UNL     1      -4.565   3.754  -7.968  1.00  0.00     0.025 C 
ATOM     17  C   UNL     1      -5.930   4.485  -6.101  1.00  0.00     0.314 C 
BRANCH   8  18
ATOM     18  C   UNL     1      -3.114   2.076  -3.411  1.00  0.00    -0.015 A 
ATOM     19  C   UNL     1      -2.122   0.168  -1.511  1.00  0.00    -0.048 A 
ATOM     20  C   UNL     1      -2.010   1.544  -1.278  1.00  0.00     0.004 A 
ATOM     21  C   UNL     1      -2.862  -0.237  -2.631  1.00  0.00     0.004 A 
ATOM     22  C   UNL     1      -2.504   2.483  -2.207  1.00  0.00     0.009 A 
ATOM     23  C   UNL     1      -3.367   0.700  -3.553  1.00  0.00     0.009 A 
BRANCH  19  24
ATOM     24  C   UNL     1      -1.496  -0.854  -0.577  1.00  0.00     0.038 C 
BRANCH  24  25
ATOM     25  C   UNL     1       0.042  -1.073  -0.649  1.00  0.00    -0.013 C 
ATOM     26  C   UNL     1       0.864   0.150  -0.231  1.00  0.00     0.008 C 
ATOM     27  C   UNL     1       0.437  -2.248   0.263  1.00  0.00     0.008 C 
ENDBRANCH  24  25
ENDBRANCH  19  24
ENDBRANCH   8  18
BRANCH  17  28
ATOM     28  C   UNL     1      -7.439   4.253  -6.340  1.00  0.00     0.429 C 
ATOM     29  F   UNL     1      -7.819   2.977  -6.103  1.00  0.00    -0.167 F 
ATOM     30  F   UNL     1      -8.191   5.056  -5.547  1.00  0.00    -0.167 F 
ATOM     31  F   UNL     1      -7.816   4.532  -7.617  1.00  0.00    -0.167 F 
ENDBRANCH  17  28
ENDBRANCH   4   7
ENDBRANCH   2   3
ENDBRANCH   1   2
BRANCH   1  32
ATOM     32  C   UNL     1      -5.547   9.753  -9.523  1.00  0.00     0.023 C 
BRANCH  32  33
ATOM     33  C   UNL     1      -5.665   9.438 -11.009  1.00  0.00     0.116 C 
BRANCH  33  34
ATOM     34  N   UNL     1      -6.981   9.770 -11.534  1.00  0.00    -0.352 N 
ATOM     35  C   UNL     1      -7.308  10.593 -12.583  1.00  0.00     0.251 C 
ATOM     36  H   UNL     1      -7.741   9.346 -11.073  1.00  0.00     0.163 HD
ATOM     37  O   UNL     1      -8.482  10.909 -12.771  1.00  0.00    -0.269 OA
BRANCH  35  38
ATOM     38  C   UNL     1      -6.247  11.115 -13.471  1.00  0.00     0.039 A 
ATOM     39  C   UNL     1      -6.237  12.474 -13.794  1.00  0.00     0.014 A 
ATOM     40  C   UNL     1      -5.255  10.267 -13.972  1.00  0.00     0.014 A 
ATOM     41  C   UNL     1      -5.195  12.995 -14.567  1.00  0.00     0.010 A 
ATOM     42  C   UNL     1      -4.181  10.801 -14.680  1.00  0.00     0.010 A 
ATOM     43  C   UNL     1      -4.138  12.170 -14.987  1.00  0.00    -0.014 A 
BRANCH  43  44
ATOM     44  C   UNL     1      -2.974  12.716 -15.735  1.00  0.00     0.031 A 
ATOM     45  C   UNL     1      -2.671  12.226 -17.127  1.00  0.00     0.074 A 
ATOM     46  C   UNL     1      -2.130  13.573 -15.124  1.00  0.00     0.049 A 
ATOM     47  N   UNL     1      -1.655  12.514 -17.898  1.00  0.00    -0.248 NA
ATOM     48  C   UNL     1      -3.619  11.268 -17.722  1.00  0.00     0.031 C 
ATOM     49  C   UNL     1      -2.266  14.065 -13.751  1.00  0.00     0.029 A 
ATOM     50  N   UNL     1      -0.967  14.156 -15.567  1.00  0.00    -0.354 N 
ATOM     51  C   UNL     1      -1.813  11.740 -19.042  1.00  0.00     0.074 A 
ATOM     52  C   UNL     1      -3.014  10.956 -18.860  1.00  0.00     0.031 C 
ATOM     53  C   UNL     1      -1.228  14.866 -13.463  1.00  0.00     0.029 A 
ATOM     54  C   UNL     1      -0.332  14.920 -14.614  1.00  0.00     0.049 A 
ATOM     55  H   UNL     1      -0.620  14.038 -16.481  1.00  0.00     0.167 HD
ATOM     56  C   UNL     1      -1.039  11.701 -20.152  1.00  0.00     0.034 A 
ATOM     57  C   UNL     1       0.846  15.575 -14.654  1.00  0.00     0.034 A 
ATOM     58  C   UNL     1       0.120  12.526 -20.357  1.00  0.00     0.049 A 
ATOM     59  C   UNL     1       1.656  15.548 -15.924  1.00  0.00     0.074 A 
ATOM     60  C   UNL     1       0.900  12.639 -21.495  1.00  0.00     0.029 A 
ATOM     61  N   UNL     1       0.673  13.367 -19.407  1.00  0.00    -0.354 N 
ATOM     62  N   UNL     1       1.392  14.949 -17.059  1.00  0.00    -0.248 NA
ATOM     63  C   UNL     1       2.910  16.317 -15.931  1.00  0.00     0.031 C 
ATOM     64  C   UNL     1       1.945  13.526 -21.221  1.00  0.00     0.029 A 
ATOM     65  C   UNL     1       1.794  13.991 -19.926  1.00  0.00     0.049 A 
ATOM     66  H   UNL     1       0.322  13.500 -18.497  1.00  0.00     0.167 HD
ATOM     67  C   UNL     1       2.419  15.306 -17.926  1.00  0.00     0.074 A 
ATOM     68  C   UNL     1       3.300  16.188 -17.192  1.00  0.00     0.031 C 
ATOM     69  C   UNL     1       2.623  14.924 -19.210  1.00  0.00     0.034 A 
BRANCH  56  70
ATOM     70  C   UNL     1      -1.436  10.771 -21.268  1.00  0.00     0.023 A 
ATOM     71  C   UNL     1      -2.546  11.085 -22.077  1.00  0.00     0.012 A 
ATOM     72  C   UNL     1      -0.641   9.652 -21.585  1.00  0.00     0.148 A 
ATOM     73  C   UNL     1      -2.871  10.289 -23.174  1.00  0.00     0.002 A 
ATOM     74  C   UNL     1      -0.945   8.889 -22.706  1.00  0.00     0.091 A 
ATOM     75  F   UNL     1       0.400   9.363 -20.792  1.00  0.00    -0.205 F 
ATOM     76  C   UNL     1      -2.064   9.200 -23.496  1.00  0.00     0.022 A 
BRANCH  74  77
ATOM     77  S   UNL     1       0.079   7.520 -23.257  1.00  0.00     0.127 S 
ATOM     78  O   UNL     1      -0.822   6.383 -23.067  1.00  0.00    -0.237 OA
ATOM     79  O   UNL     1       0.331   7.870 -24.655  1.00  0.00    -0.237 OA
ATOM     80  O   UNL     1       1.258   7.525 -22.402  1.00  0.00    -0.744 OA
ENDBRANCH  74  77
ENDBRANCH  56  70
BRANCH  57  81
ATOM     81  C   UNL     1       1.323  16.351 -13.473  1.00  0.00     0.023 A 
ATOM     82  C   UNL     1       1.403  17.756 -13.552  1.00  0.00     0.012 A 
ATOM     83  C   UNL     1       1.717  15.710 -12.283  1.00  0.00     0.148 A 
ATOM     84  C   UNL     1       1.914  18.502 -12.489  1.00  0.00     0.002 A 
ATOM     85  C   UNL     1       2.170  16.464 -11.206  1.00  0.00     0.091 A 
ATOM     86  F   UNL     1       1.649  14.372 -12.228  1.00  0.00    -0.205 F 
ATOM     87  C   UNL     1       2.291  17.857 -11.314  1.00  0.00     0.022 A 
BRANCH  85  88
ATOM     88  S   UNL     1       2.548  15.724  -9.614  1.00  0.00     0.127 S 
ATOM     89  O   UNL     1       4.008  15.734  -9.618  1.00  0.00    -0.237 OA
ATOM     90  O   UNL     1       1.927  16.668  -8.683  1.00  0.00    -0.237 OA
ATOM     91  O   UNL     1       1.917  14.411  -9.638  1.00  0.00    -0.744 OA
ENDBRANCH  85  88
ENDBRANCH  57  81
BRANCH  69  92
ATOM     92  C   UNL     1       3.808  15.500 -19.938  1.00  0.00     0.023 A 
ATOM     93  C   UNL     1       5.111  15.072 -19.615  1.00  0.00     0.012 A 
ATOM     94  C   UNL     1       3.619  16.401 -21.005  1.00  0.00     0.148 A 
ATOM     95  C   UNL     1       6.210  15.557 -20.323  1.00  0.00     0.002 A 
ATOM     96  C   UNL     1       4.714  16.838 -21.740  1.00  0.00     0.091 A 
ATOM     97  F   UNL     1       2.372  16.808 -21.285  1.00  0.00    -0.205 F 
ATOM     98  C   UNL     1       6.011  16.428 -21.393  1.00  0.00     0.022 A 
BRANCH  96  99
ATOM     99  S   UNL     1       4.544  17.877 -23.195  1.00  0.00     0.127 S 
ATOM    100  O   UNL     1       5.079  19.151 -22.716  1.00  0.00    -0.237 OA
ATOM    101  O   UNL     1       5.390  17.187 -24.169  1.00  0.00    -0.237 OA
ATOM    102  O   UNL     1       3.124  17.882 -23.524  1.00  0.00    -0.744 OA
ENDBRANCH  96  99
ENDBRANCH  69  92
ENDBRANCH  43  44
ENDBRANCH  35  38
ENDBRANCH  33  34
ENDBRANCH  32  33
ENDBRANCH   1  32
TORSDOF 18
