REMARK SMILES Cc1ccc(F)c(C(=O)N[C@@H]2C=C[C@@H](C(=O)NCCCCNC(=O)c3ccc(-c4c5nc(c(-c6cccc(S(=O)(=O)[O-])c6F)c6ccc([nH]6)c(-c6cccc(S(=O)(=O)[O-])c6F)c6nc(c(-c7cccc(S(=O)(=O)[O-])c7F)c7ccc4[nH]7)C=C6)C=C5)cc3)C2)c1
REMARK SMILES IDX 20 1 19 2 18 3 17 4 15 5 16 6 14 8 11 9 12 10 88 11 13 12
REMARK SMILES IDX 10 13 8 14 9 15 7 17 1 18 2 19 3 20 89 21 4 22 5 23 6 24
REMARK SMILES IDX 21 25 22 26 23 27 24 29 25 30 26 31 87 32 27 33 86 34 28 35
REMARK SMILES IDX 29 36 30 37 80 38 31 39 85 40 79 41 81 42 32 43 84 44 78 45
REMARK SMILES IDX 77 46 33 48 65 49 45 50 64 51 46 52 49 53 63 54 82 55 47 56
REMARK SMILES IDX 48 57 62 59 83 60 50 61 34 62 35 63 43 64 36 65 38 66 44 67
REMARK SMILES IDX 37 68 39 69 40 70 41 71 42 72 66 73 67 74 75 75 68 76 70 77
REMARK SMILES IDX 76 78 69 79 71 80 72 81 73 82 74 83 51 84 52 85 60 86 53 87
REMARK SMILES IDX 55 88 61 89 54 90 56 91 57 92 58 93 59 94
REMARK H PARENT 17 7 10 16 22 28 81 47 49 58
REMARK Flexibility Score: inf
ROOT
ATOM      1  C   UNL     1      -1.382  -6.041   4.406  1.00  0.00     0.023 C 
ENDROOT
BRANCH   1   2
ATOM      2  C   UNL     1      -0.972  -5.193   3.200  1.00  0.00     0.023 C 
BRANCH   2   3
ATOM      3  C   UNL     1       0.158  -4.199   3.459  1.00  0.00     0.116 C 
BRANCH   3   4
ATOM      4  N   UNL     1       1.407  -4.836   3.824  1.00  0.00    -0.356 N 
ATOM      5  C   UNL     1       2.659  -4.738   3.302  1.00  0.00     0.227 C 
ATOM      6  O   UNL     1       3.575  -5.253   3.953  1.00  0.00    -0.274 OA
ATOM      7  H   UNL     1       1.336  -5.451   4.590  1.00  0.00     0.163 HD
BRANCH   5   8
ATOM      8  C   UNL     1       2.964  -4.125   1.927  1.00  0.00     0.103 C 
ATOM      9  C   UNL     1       1.323  -3.985   0.094  1.00  0.00     0.106 C 
ATOM     10  C   UNL     1       1.714  -2.633   0.607  1.00  0.00    -0.006 C 
ATOM     11  C   UNL     1       2.315  -4.919   0.796  1.00  0.00     0.047 C 
ATOM     12  C   UNL     1       2.554  -2.716   1.648  1.00  0.00    -0.016 C 
BRANCH   9  13
ATOM     13  N   UNL     1       1.352  -4.011  -1.351  1.00  0.00    -0.346 N 
ATOM     14  C   UNL     1       1.116  -5.041  -2.239  1.00  0.00     0.254 C 
ATOM     15  O   UNL     1       1.001  -4.766  -3.432  1.00  0.00    -0.269 OA
ATOM     16  H   UNL     1       1.576  -3.150  -1.772  1.00  0.00     0.164 HD
BRANCH  14  17
ATOM     17  C   UNL     1       1.083  -6.461  -1.800  1.00  0.00     0.075 A 
ATOM     18  C   UNL     1       0.300  -8.499   1.311  1.00  0.00     0.044 C 
ATOM     19  C   UNL     1       0.721  -8.154  -0.089  1.00  0.00    -0.050 A 
ATOM     20  C   UNL     1       1.446  -9.075  -0.850  1.00  0.00     0.006 A 
ATOM     21  C   UNL     1       0.451  -6.884  -0.625  1.00  0.00     0.020 A 
ATOM     22  C   UNL     1       1.954  -8.707  -2.094  1.00  0.00     0.040 A 
ATOM     23  C   UNL     1       1.799  -7.399  -2.548  1.00  0.00     0.135 A 
ATOM     24  F   UNL     1       2.404  -7.061  -3.696  1.00  0.00    -0.206 F 
ENDBRANCH  14  17
ENDBRANCH   9  13
ENDBRANCH   5   8
ENDBRANCH   3   4
ENDBRANCH   2   3
ENDBRANCH   1   2
BRANCH   1  25
ATOM     25  C   UNL     1      -1.780  -5.241   5.641  1.00  0.00     0.116 C 
BRANCH  25  26
ATOM     26  N   UNL     1      -2.867  -4.309   5.377  1.00  0.00    -0.352 N 
ATOM     27  C   UNL     1      -3.997  -4.061   6.120  1.00  0.00     0.251 C 
ATOM     28  H   UNL     1      -2.781  -3.783   4.550  1.00  0.00     0.163 HD
ATOM     29  O   UNL     1      -4.885  -3.354   5.662  1.00  0.00    -0.269 OA
BRANCH  27  30
ATOM     30  C   UNL     1      -4.139  -4.670   7.460  1.00  0.00     0.039 A 
ATOM     31  C   UNL     1      -5.359  -5.253   7.809  1.00  0.00     0.014 A 
ATOM     32  C   UNL     1      -3.070  -4.678   8.359  1.00  0.00     0.014 A 
ATOM     33  C   UNL     1      -5.487  -5.893   9.042  1.00  0.00     0.010 A 
ATOM     34  C   UNL     1      -3.173  -5.391   9.548  1.00  0.00     0.010 A 
ATOM     35  C   UNL     1      -4.386  -5.996   9.909  1.00  0.00    -0.014 A 
BRANCH  35  36
ATOM     36  C   UNL     1      -4.486  -6.743  11.187  1.00  0.00     0.031 A 
ATOM     37  C   UNL     1      -4.268  -6.043  12.500  1.00  0.00     0.074 A 
ATOM     38  C   UNL     1      -4.696  -8.074  11.162  1.00  0.00     0.049 A 
ATOM     39  N   UNL     1      -4.292  -6.537  13.711  1.00  0.00    -0.248 NA
ATOM     40  C   UNL     1      -3.949  -4.608  12.445  1.00  0.00     0.031 C 
ATOM     41  C   UNL     1      -4.822  -8.885   9.949  1.00  0.00     0.029 A 
ATOM     42  N   UNL     1      -4.812  -8.982  12.183  1.00  0.00    -0.354 N 
ATOM     43  C   UNL     1      -3.964  -5.485  14.557  1.00  0.00     0.074 A 
ATOM     44  C   UNL     1      -3.696  -4.338  13.717  1.00  0.00     0.031 C 
ATOM     45  C   UNL     1      -4.998 -10.169  10.296  1.00  0.00     0.029 A 
ATOM     46  C   UNL     1      -4.968 -10.277  11.751  1.00  0.00     0.049 A 
ATOM     47  H   UNL     1      -4.785  -8.730  13.134  1.00  0.00     0.167 HD
ATOM     48  C   UNL     1      -3.922  -5.462  15.911  1.00  0.00     0.034 A 
ATOM     49  C   UNL     1      -5.064 -11.427  12.447  1.00  0.00     0.034 A 
ATOM     50  C   UNL     1      -4.209  -6.600  16.743  1.00  0.00     0.049 A 
ATOM     51  C   UNL     1      -5.060 -11.376  13.948  1.00  0.00     0.074 A 
ATOM     52  C   UNL     1      -4.279  -6.663  18.123  1.00  0.00     0.029 A 
ATOM     53  N   UNL     1      -4.454  -7.882  16.273  1.00  0.00    -0.354 N 
ATOM     54  N   UNL     1      -4.919 -10.338  14.737  1.00  0.00    -0.248 NA
ATOM     55  C   UNL     1      -5.270 -12.645  14.656  1.00  0.00     0.031 C 
ATOM     56  C   UNL     1      -4.531  -7.991  18.488  1.00  0.00     0.029 A 
ATOM     57  C   UNL     1      -4.660  -8.748  17.334  1.00  0.00     0.049 A 
ATOM     58  H   UNL     1      -4.478  -8.139  15.323  1.00  0.00     0.167 HD
ATOM     59  C   UNL     1      -5.047 -10.823  16.033  1.00  0.00     0.074 A 
ATOM     60  C   UNL     1      -5.308 -12.244  15.920  1.00  0.00     0.031 C 
ATOM     61  C   UNL     1      -4.945 -10.156  17.210  1.00  0.00     0.034 A 
BRANCH  48  62
ATOM     62  C   UNL     1      -3.587  -4.146  16.570  1.00  0.00     0.023 A 
ATOM     63  C   UNL     1      -4.495  -3.069  16.481  1.00  0.00     0.012 A 
ATOM     64  C   UNL     1      -2.388  -3.976  17.288  1.00  0.00     0.148 A 
ATOM     65  C   UNL     1      -4.191  -1.831  17.045  1.00  0.00     0.002 A 
ATOM     66  C   UNL     1      -2.115  -2.754  17.893  1.00  0.00     0.091 A 
ATOM     67  F   UNL     1      -1.525  -5.000  17.347  1.00  0.00    -0.205 F 
ATOM     68  C   UNL     1      -3.006  -1.676  17.758  1.00  0.00     0.022 A 
BRANCH  66  69
ATOM     69  S   UNL     1      -0.656  -2.479  18.903  1.00  0.00     0.127 S 
ATOM     70  O   UNL     1       0.149  -1.624  18.032  1.00  0.00    -0.237 OA
ATOM     71  O   UNL     1      -1.215  -1.803  20.074  1.00  0.00    -0.237 OA
ATOM     72  O   UNL     1      -0.102  -3.799  19.173  1.00  0.00    -0.744 OA
ENDBRANCH  66  69
ENDBRANCH  48  62
BRANCH  49  73
ATOM     73  C   UNL     1      -5.220 -12.715  11.714  1.00  0.00     0.023 A 
ATOM     74  C   UNL     1      -6.455 -13.390  11.737  1.00  0.00     0.012 A 
ATOM     75  C   UNL     1      -4.163 -13.238  10.943  1.00  0.00     0.148 A 
ATOM     76  C   UNL     1      -6.628 -14.578  11.026  1.00  0.00     0.002 A 
ATOM     77  C   UNL     1      -4.360 -14.388  10.190  1.00  0.00     0.091 A 
ATOM     78  F   UNL     1      -2.995 -12.580  10.941  1.00  0.00    -0.205 F 
ATOM     79  C   UNL     1      -5.586 -15.070  10.243  1.00  0.00     0.022 A 
BRANCH  77  80
ATOM     80  S   UNL     1      -3.127 -15.011   9.042  1.00  0.00     0.127 S 
ATOM     81  O   UNL     1      -2.762 -16.284   9.658  1.00  0.00    -0.237 OA
ATOM     82  O   UNL     1      -3.900 -15.123   7.805  1.00  0.00    -0.237 OA
ATOM     83  O   UNL     1      -2.075 -14.005   9.005  1.00  0.00    -0.744 OA
ENDBRANCH  77  80
ENDBRANCH  49  73
BRANCH  61  84
ATOM     84  C   UNL     1      -5.137 -10.951  18.477  1.00  0.00     0.023 A 
ATOM     85  C   UNL     1      -4.164 -11.890  18.874  1.00  0.00     0.012 A 
ATOM     86  C   UNL     1      -6.261 -10.734  19.298  1.00  0.00     0.148 A 
ATOM     87  C   UNL     1      -4.328 -12.632  20.044  1.00  0.00     0.002 A 
ATOM     88  C   UNL     1      -6.392 -11.438  20.489  1.00  0.00     0.091 A 
ATOM     89  F   UNL     1      -7.187  -9.851  18.896  1.00  0.00    -0.205 F 
ATOM     90  C   UNL     1      -5.435 -12.398  20.856  1.00  0.00     0.022 A 
BRANCH  88  91
ATOM     91  S   UNL     1      -7.733 -11.133  21.645  1.00  0.00     0.127 S 
ATOM     92  O   UNL     1      -8.553 -12.330  21.471  1.00  0.00    -0.237 OA
ATOM     93  O   UNL     1      -7.028 -11.056  22.924  1.00  0.00    -0.237 OA
ATOM     94  O   UNL     1      -8.351  -9.884  21.221  1.00  0.00    -0.744 OA
ENDBRANCH  88  91
ENDBRANCH  61  84
ENDBRANCH  35  36
ENDBRANCH  27  30
ENDBRANCH  25  26
ENDBRANCH   1  25
TORSDOF 16
