REMARK SMILES C#CC[C@]1(C(=O)NCCCCNC(=O)c2ccc(-c3c4nc(c(-c5cccc(S(=O)(=O)[O-])c5F)c5ccc([nH]5)c(-c5cccc(S(=O)(=O)[O-])c5F)c5nc(c(-c6cccc(S(=O)(=O)[O-])c6F)c6ccc3[nH]6)C=C5)C=C4)cc2)CC[C@@H](C)C1
REMARK SMILES IDX 10 1 9 2 8 3 7 4 5 5 6 6 4 8 78 9 82 10 79 11 80 12 81 13
REMARK SMILES IDX 3 14 2 15 1 16 11 17 12 18 13 19 14 21 15 22 16 23 77 24
REMARK SMILES IDX 17 25 76 26 18 27 19 28 20 29 70 30 21 31 75 32 69 33 71 34
REMARK SMILES IDX 22 35 74 36 68 37 67 38 23 40 55 41 35 42 54 43 36 44 39 45
REMARK SMILES IDX 53 46 72 47 37 48 38 49 52 51 73 52 40 53 24 54 25 55 33 56
REMARK SMILES IDX 26 57 28 58 34 59 27 60 29 61 30 62 31 63 32 64 56 65 57 66
REMARK SMILES IDX 65 67 58 68 60 69 66 70 59 71 61 72 62 73 63 74 64 75 41 76
REMARK SMILES IDX 42 77 50 78 43 79 45 80 51 81 44 82 46 83 47 84 48 85 49 86
REMARK H PARENT 7 7 12 20 71 39 39 50
REMARK Flexibility Score: inf
ROOT
ATOM      1  C   UNL     1      -5.045   1.662  -3.026  1.00  0.00     0.023 C 
ENDROOT
BRANCH   1   2
ATOM      2  C   UNL     1      -4.967   0.964  -1.667  1.00  0.00     0.023 C 
BRANCH   2   3
ATOM      3  C   UNL     1      -3.943  -0.165  -1.600  1.00  0.00     0.116 C 
BRANCH   3   4
ATOM      4  N   UNL     1      -2.645   0.271  -1.132  1.00  0.00    -0.356 N 
ATOM      5  C   UNL     1      -1.896  -0.013  -0.041  1.00  0.00     0.227 C 
ATOM      6  O   UNL     1      -0.708   0.334  -0.125  1.00  0.00    -0.274 OA
ATOM      7  H   UNL     1      -2.212   0.913  -1.740  1.00  0.00     0.163 HD
BRANCH   5   8
ATOM      8  C   UNL     1      -2.378  -0.707   1.258  1.00  0.00     0.060 C 
ATOM      9  C   UNL     1      -3.890  -0.997   1.427  1.00  0.00     0.018 C 
ATOM     10  C   UNL     1      -1.769  -2.129   1.331  1.00  0.00     0.021 C 
ATOM     11  C   UNL     1      -4.150  -2.452   1.012  1.00  0.00     0.004 C 
ATOM     12  C   UNL     1      -2.795  -3.086   0.715  1.00  0.00    -0.013 C 
ATOM     13  C   UNL     1      -2.569  -3.348  -0.771  1.00  0.00     0.007 C 
BRANCH   8  14
ATOM     14  C   UNL     1      -1.749   0.200   2.402  1.00  0.00     0.106 C 
BRANCH  14  15
ATOM     15  C   UNL     1      -2.686   0.296   3.594  1.00  0.00    -0.106 C 
ATOM     16  C   UNL     1      -3.490   0.378   4.618  1.00  0.00     0.004 C 
ENDBRANCH  14  15
ENDBRANCH   8  14
ENDBRANCH   5   8
ENDBRANCH   3   4
ENDBRANCH   2   3
ENDBRANCH   1   2
BRANCH   1  17
ATOM     17  C   UNL     1      -5.246   0.741  -4.227  1.00  0.00     0.116 C 
BRANCH  17  18
ATOM     18  N   UNL     1      -6.353  -0.196  -4.084  1.00  0.00    -0.352 N 
ATOM     19  C   UNL     1      -7.090  -0.782  -5.089  1.00  0.00     0.251 C 
ATOM     20  H   UNL     1      -6.602  -0.439  -3.163  1.00  0.00     0.163 HD
ATOM     21  O   UNL     1      -8.047  -1.498  -4.828  1.00  0.00    -0.269 OA
BRANCH  19  22
ATOM     22  C   UNL     1      -6.726  -0.489  -6.491  1.00  0.00     0.039 A 
ATOM     23  C   UNL     1      -7.700   0.019  -7.351  1.00  0.00     0.014 A 
ATOM     24  C   UNL     1      -5.406  -0.644  -6.921  1.00  0.00     0.014 A 
ATOM     25  C   UNL     1      -7.332   0.436  -8.632  1.00  0.00     0.010 A 
ATOM     26  C   UNL     1      -5.029  -0.155  -8.165  1.00  0.00     0.010 A 
ATOM     27  C   UNL     1      -5.988   0.381  -9.038  1.00  0.00    -0.014 A 
BRANCH  27  28
ATOM     28  C   UNL     1      -5.566   0.867 -10.375  1.00  0.00     0.031 A 
ATOM     29  C   UNL     1      -4.970  -0.093 -11.368  1.00  0.00     0.074 A 
ATOM     30  C   UNL     1      -5.636   2.182 -10.663  1.00  0.00     0.049 A 
ATOM     31  N   UNL     1      -4.517   0.142 -12.572  1.00  0.00    -0.248 NA
ATOM     32  C   UNL     1      -4.828  -1.496 -10.941  1.00  0.00     0.031 C 
ATOM     33  C   UNL     1      -6.101   3.227  -9.748  1.00  0.00     0.029 A 
ATOM     34  N   UNL     1      -5.297   2.867 -11.802  1.00  0.00    -0.354 N 
ATOM     35  C   UNL     1      -3.998  -1.064 -13.024  1.00  0.00     0.074 A 
ATOM     36  C   UNL     1      -4.155  -2.022 -11.953  1.00  0.00     0.031 C 
ATOM     37  C   UNL     1      -6.035   4.417 -10.368  1.00  0.00     0.029 A 
ATOM     38  C   UNL     1      -5.510   4.224 -11.716  1.00  0.00     0.049 A 
ATOM     39  H   UNL     1      -4.935   2.429 -12.606  1.00  0.00     0.167 HD
ATOM     40  C   UNL     1      -3.473  -1.362 -14.236  1.00  0.00     0.034 A 
ATOM     41  C   UNL     1      -5.318   5.197 -12.629  1.00  0.00     0.034 A 
ATOM     42  C   UNL     1      -3.391  -0.427 -15.324  1.00  0.00     0.049 A 
ATOM     43  C   UNL     1      -4.821   4.822 -14.000  1.00  0.00     0.074 A 
ATOM     44  C   UNL     1      -2.986  -0.655 -16.627  1.00  0.00     0.029 A 
ATOM     45  N   UNL     1      -3.725   0.915 -15.236  1.00  0.00    -0.354 N 
ATOM     46  N   UNL     1      -4.511   3.638 -14.470  1.00  0.00    -0.248 NA
ATOM     47  C   UNL     1      -4.693   5.910 -14.980  1.00  0.00     0.031 C 
ATOM     48  C   UNL     1      -3.070   0.554 -17.326  1.00  0.00     0.029 A 
ATOM     49  C   UNL     1      -3.537   1.530 -16.461  1.00  0.00     0.049 A 
ATOM     50  H   UNL     1      -4.049   1.364 -14.422  1.00  0.00     0.167 HD
ATOM     51  C   UNL     1      -4.192   3.831 -15.810  1.00  0.00     0.074 A 
ATOM     52  C   UNL     1      -4.365   5.244 -16.080  1.00  0.00     0.031 C 
ATOM     53  C   UNL     1      -3.780   2.924 -16.730  1.00  0.00     0.034 A 
BRANCH  40  54
ATOM     54  C   UNL     1      -3.013  -2.777 -14.468  1.00  0.00     0.023 A 
ATOM     55  C   UNL     1      -3.971  -3.805 -14.594  1.00  0.00     0.012 A 
ATOM     56  C   UNL     1      -1.646  -3.087 -14.600  1.00  0.00     0.148 A 
ATOM     57  C   UNL     1      -3.575  -5.124 -14.809  1.00  0.00     0.002 A 
ATOM     58  C   UNL     1      -1.261  -4.398 -14.858  1.00  0.00     0.091 A 
ATOM     59  F   UNL     1      -0.748  -2.103 -14.451  1.00  0.00    -0.205 F 
ATOM     60  C   UNL     1      -2.222  -5.418 -14.950  1.00  0.00     0.022 A 
BRANCH  58  61
ATOM     61  S   UNL     1       0.452  -4.862 -15.133  1.00  0.00     0.127 S 
ATOM     62  O   UNL     1       0.787  -5.519 -13.870  1.00  0.00    -0.237 OA
ATOM     63  O   UNL     1       0.349  -5.766 -16.280  1.00  0.00    -0.237 OA
ATOM     64  O   UNL     1       1.162  -3.620 -15.405  1.00  0.00    -0.744 OA
ENDBRANCH  58  61
ENDBRANCH  40  54
BRANCH  41  65
ATOM     65  C   UNL     1      -5.707   6.601 -12.316  1.00  0.00     0.023 A 
ATOM     66  C   UNL     1      -6.846   7.149 -12.940  1.00  0.00     0.012 A 
ATOM     67  C   UNL     1      -4.987   7.384 -11.394  1.00  0.00     0.148 A 
ATOM     68  C   UNL     1      -7.241   8.461 -12.680  1.00  0.00     0.002 A 
ATOM     69  C   UNL     1      -5.416   8.675 -11.101  1.00  0.00     0.091 A 
ATOM     70  F   UNL     1      -3.901   6.851 -10.818  1.00  0.00    -0.205 F 
ATOM     71  C   UNL     1      -6.532   9.220 -11.754  1.00  0.00     0.022 A 
BRANCH  69  72
ATOM     72  S   UNL     1      -4.639   9.680  -9.830  1.00  0.00     0.127 S 
ATOM     73  O   UNL     1      -3.911  10.662 -10.629  1.00  0.00    -0.237 OA
ATOM     74  O   UNL     1      -5.797  10.209  -9.109  1.00  0.00    -0.237 OA
ATOM     75  O   UNL     1      -3.821   8.760  -9.052  1.00  0.00    -0.744 OA
ENDBRANCH  69  72
ENDBRANCH  41  65
BRANCH  53  76
ATOM     76  C   UNL     1      -3.524   3.415 -18.129  1.00  0.00     0.023 A 
ATOM     77  C   UNL     1      -2.374   4.180 -18.402  1.00  0.00     0.012 A 
ATOM     78  C   UNL     1      -4.381   3.051 -19.187  1.00  0.00     0.148 A 
ATOM     79  C   UNL     1      -2.095   4.601 -19.702  1.00  0.00     0.002 A 
ATOM     80  C   UNL     1      -4.072   3.434 -20.486  1.00  0.00     0.091 A 
ATOM     81  F   UNL     1      -5.483   2.341 -18.905  1.00  0.00    -0.205 F 
ATOM     82  C   UNL     1      -2.936   4.218 -20.744  1.00  0.00     0.022 A 
BRANCH  80  83
ATOM     83  S   UNL     1      -5.051   2.898 -21.894  1.00  0.00     0.127 S 
ATOM     84  O   UNL     1      -5.864   4.083 -22.162  1.00  0.00    -0.237 OA
ATOM     85  O   UNL     1      -4.028   2.620 -22.903  1.00  0.00    -0.237 OA
ATOM     86  O   UNL     1      -5.780   1.721 -21.441  1.00  0.00    -0.744 OA
ENDBRANCH  80  83
ENDBRANCH  53  76
ENDBRANCH  27  28
ENDBRANCH  19  22
ENDBRANCH  17  18
ENDBRANCH   1  17
TORSDOF 16
