REMARK SMILES C[C@H]1Oc2ccccc2C=C1/C=C/C(=O)N[C@H](C(=O)NCCCCNC(=O)c1ccc(-c2c3nc(c(-c4cccc(S(=O)(=O)[O-])c4F)c4ccc([nH]4)c(-c4cccc(S(=O)(=O)[O-])c4F)c4nc(c(-c5cccc(S(=O)(=O)[O-])c5F)c5ccc2[nH]5)C=C4)C=C3)cc1)c1ccccc1
REMARK SMILES IDX 22 1 21 2 20 3 18 4 19 5 17 7 16 8 14 9 15 10 13 12 12 13
REMARK SMILES IDX 11 14 1 15 2 16 3 17 4 18 10 19 5 20 9 21 6 22 8 23 7 24
REMARK SMILES IDX 91 25 92 26 96 27 93 28 95 29 94 30 23 31 24 32 25 33 26 34
REMARK SMILES IDX 27 36 28 37 29 38 90 39 30 40 89 41 31 42 32 43 33 44 83 45
REMARK SMILES IDX 34 46 88 47 82 48 84 49 35 50 87 51 81 52 80 53 36 55 68 56
REMARK SMILES IDX 48 57 67 58 49 59 52 60 66 61 85 62 50 63 51 64 65 66 86 67
REMARK SMILES IDX 53 68 37 69 38 70 46 71 39 72 41 73 47 74 40 75 42 76 43 77
REMARK SMILES IDX 44 78 45 79 69 80 70 81 78 82 71 83 73 84 79 85 72 86 74 87
REMARK SMILES IDX 75 88 76 89 77 90 54 91 55 92 63 93 56 94 58 95 64 96 57 97
REMARK SMILES IDX 59 98 60 99 61 100 62 101
REMARK H PARENT 20 6 16 11 25 35 84 54 52 65
REMARK Flexibility Score: inf
ROOT
ATOM      1  C   UNL     1      -1.096  -1.424   3.394  1.00  0.00     0.023 C 
ENDROOT
BRANCH   1   2
ATOM      2  C   UNL     1      -1.089  -2.069   2.009  1.00  0.00     0.116 C 
BRANCH   2   3
ATOM      3  N   UNL     1      -2.273  -1.741   1.241  1.00  0.00    -0.354 N 
ATOM      4  C   UNL     1      -2.535  -1.964  -0.083  1.00  0.00     0.247 C 
ATOM      5  O   UNL     1      -3.585  -1.485  -0.523  1.00  0.00    -0.272 OA
ATOM      6  H   UNL     1      -2.991  -1.293   1.744  1.00  0.00     0.163 HD
BRANCH   4   7
ATOM      7  C   UNL     1      -1.471  -2.632  -1.003  1.00  0.00     0.202 C 
BRANCH   7   8
ATOM      8  N   UNL     1      -0.752  -3.819  -0.529  1.00  0.00    -0.337 N 
ATOM      9  C   UNL     1      -1.177  -4.998  -0.009  1.00  0.00     0.244 C 
ATOM     10  O   UNL     1      -0.410  -5.959  -0.004  1.00  0.00    -0.270 OA
ATOM     11  H   UNL     1       0.227  -3.747  -0.601  1.00  0.00     0.164 HD
BRANCH   9  12
ATOM     12  C   UNL     1      -2.441  -5.084   0.747  1.00  0.00     0.071 C 
ATOM     13  C   UNL     1      -3.667  -4.774   0.302  1.00  0.00     0.013 C 
BRANCH  13  14
ATOM     14  C   UNL     1      -4.860  -4.768   1.149  1.00  0.00    -0.007 C 
ATOM     15  C   UNL     1      -6.490  -3.652  -0.469  1.00  0.00     0.058 C 
ATOM     16  C   UNL     1      -5.864  -3.636   0.926  1.00  0.00     0.200 C 
ATOM     17  O   UNL     1      -6.969  -3.557   1.850  1.00  0.00    -0.485 OA
ATOM     18  C   UNL     1      -7.139  -4.553   2.764  1.00  0.00     0.127 A 
ATOM     19  C   UNL     1      -5.057  -5.695   2.100  1.00  0.00     0.019 C 
ATOM     20  C   UNL     1      -8.286  -4.468   3.555  1.00  0.00     0.047 A 
ATOM     21  C   UNL     1      -6.238  -5.601   2.945  1.00  0.00     0.017 A 
ATOM     22  C   UNL     1      -8.531  -5.423   4.541  1.00  0.00     0.004 A 
ATOM     23  C   UNL     1      -6.478  -6.548   3.948  1.00  0.00     0.012 A 
ATOM     24  C   UNL     1      -7.622  -6.459   4.744  1.00  0.00     0.001 A 
ENDBRANCH  13  14
ENDBRANCH   9  12
ENDBRANCH   7   8
BRANCH   7  25
ATOM     25  C   UNL     1      -1.879  -2.747  -2.476  1.00  0.00    -0.016 A 
ATOM     26  C   UNL     1      -2.035  -3.978  -3.135  1.00  0.00     0.006 A 
ATOM     27  C   UNL     1      -2.064  -1.572  -3.229  1.00  0.00     0.006 A 
ATOM     28  C   UNL     1      -2.351  -4.030  -4.497  1.00  0.00     0.000 A 
ATOM     29  C   UNL     1      -2.382  -1.626  -4.589  1.00  0.00     0.000 A 
ATOM     30  C   UNL     1      -2.521  -2.856  -5.224  1.00  0.00     0.000 A 
ENDBRANCH   7  25
ENDBRANCH   4   7
ENDBRANCH   2   3
ENDBRANCH   1   2
BRANCH   1  31
ATOM     31  C   UNL     1      -2.236  -1.873   4.315  1.00  0.00     0.023 C 
BRANCH  31  32
ATOM     32  C   UNL     1      -2.278  -3.367   4.623  1.00  0.00     0.116 C 
BRANCH  32  33
ATOM     33  N   UNL     1      -1.122  -3.816   5.387  1.00  0.00    -0.352 N 
ATOM     34  C   UNL     1      -1.022  -4.192   6.707  1.00  0.00     0.251 C 
ATOM     35  H   UNL     1      -0.279  -3.856   4.880  1.00  0.00     0.163 HD
ATOM     36  O   UNL     1       0.089  -4.353   7.207  1.00  0.00    -0.269 OA
BRANCH  34  37
ATOM     37  C   UNL     1      -2.240  -4.369   7.530  1.00  0.00     0.039 A 
ATOM     38  C   UNL     1      -3.347  -5.055   7.031  1.00  0.00     0.014 A 
ATOM     39  C   UNL     1      -2.277  -3.834   8.822  1.00  0.00     0.014 A 
ATOM     40  C   UNL     1      -4.546  -5.040   7.737  1.00  0.00     0.010 A 
ATOM     41  C   UNL     1      -3.458  -3.900   9.569  1.00  0.00     0.010 A 
ATOM     42  C   UNL     1      -4.621  -4.451   9.010  1.00  0.00    -0.014 A 
BRANCH  42  43
ATOM     43  C   UNL     1      -5.924  -4.419   9.726  1.00  0.00     0.031 A 
ATOM     44  C   UNL     1      -6.602  -3.110  10.041  1.00  0.00     0.074 A 
ATOM     45  C   UNL     1      -6.524  -5.579  10.057  1.00  0.00     0.049 A 
ATOM     46  N   UNL     1      -7.755  -2.905  10.625  1.00  0.00    -0.248 NA
ATOM     47  C   UNL     1      -5.900  -1.873   9.659  1.00  0.00     0.031 C 
ATOM     48  C   UNL     1      -5.963  -6.912   9.830  1.00  0.00     0.029 A 
ATOM     49  N   UNL     1      -7.741  -5.827  10.642  1.00  0.00    -0.354 N 
ATOM     50  C   UNL     1      -7.900  -1.525  10.715  1.00  0.00     0.074 A 
ATOM     51  C   UNL     1      -6.714  -0.938  10.132  1.00  0.00     0.031 C 
ATOM     52  C   UNL     1      -6.847  -7.836  10.234  1.00  0.00     0.029 A 
ATOM     53  C   UNL     1      -8.018  -7.165  10.789  1.00  0.00     0.049 A 
ATOM     54  H   UNL     1      -8.357  -5.114  10.928  1.00  0.00     0.167 HD
ATOM     55  C   UNL     1      -8.936  -0.812  11.214  1.00  0.00     0.034 A 
ATOM     56  C   UNL     1      -9.089  -7.789  11.317  1.00  0.00     0.034 A 
ATOM     57  C   UNL     1     -10.143  -1.390  11.737  1.00  0.00     0.049 A 
ATOM     58  C   UNL     1     -10.232  -6.974  11.847  1.00  0.00     0.074 A 
ATOM     59  C   UNL     1     -11.270  -0.738  12.209  1.00  0.00     0.029 A 
ATOM     60  N   UNL     1     -10.387  -2.748  11.854  1.00  0.00    -0.354 N 
ATOM     61  N   UNL     1     -10.383  -5.673  11.841  1.00  0.00    -0.248 NA
ATOM     62  C   UNL     1     -11.358  -7.709  12.442  1.00  0.00     0.031 C 
ATOM     63  C   UNL     1     -12.194  -1.703  12.617  1.00  0.00     0.029 A 
ATOM     64  C   UNL     1     -11.645  -2.955  12.392  1.00  0.00     0.049 A 
ATOM     65  H   UNL     1      -9.759  -3.460  11.593  1.00  0.00     0.167 HD
ATOM     66  C   UNL     1     -11.622  -5.431  12.418  1.00  0.00     0.074 A 
ATOM     67  C   UNL     1     -12.193  -6.722  12.745  1.00  0.00     0.031 C 
ATOM     68  C   UNL     1     -12.222  -4.244  12.670  1.00  0.00     0.034 A 
BRANCH  55  69
ATOM     69  C   UNL     1      -8.852   0.690  11.171  1.00  0.00     0.023 A 
ATOM     70  C   UNL     1      -9.138   1.358   9.964  1.00  0.00     0.012 A 
ATOM     71  C   UNL     1      -8.610   1.437  12.340  1.00  0.00     0.148 A 
ATOM     72  C   UNL     1      -9.178   2.751   9.920  1.00  0.00     0.002 A 
ATOM     73  C   UNL     1      -8.679   2.824  12.294  1.00  0.00     0.091 A 
ATOM     74  F   UNL     1      -8.331   0.776  13.472  1.00  0.00    -0.205 F 
ATOM     75  C   UNL     1      -8.959   3.482  11.085  1.00  0.00     0.022 A 
BRANCH  73  76
ATOM     76  S   UNL     1      -8.470   3.860  13.747  1.00  0.00     0.127 S 
ATOM     77  O   UNL     1      -7.240   4.580  13.420  1.00  0.00    -0.237 OA
ATOM     78  O   UNL     1      -9.682   4.678  13.716  1.00  0.00    -0.237 OA
ATOM     79  O   UNL     1      -8.372   2.952  14.881  1.00  0.00    -0.744 OA
ENDBRANCH  73  76
ENDBRANCH  55  69
BRANCH  56  80
ATOM     80  C   UNL     1      -9.134  -9.275  11.313  1.00  0.00     0.023 A 
ATOM     81  C   UNL     1      -9.961  -9.936  10.385  1.00  0.00     0.012 A 
ATOM     82  C   UNL     1      -8.300 -10.031  12.159  1.00  0.00     0.148 A 
ATOM     83  C   UNL     1      -9.958 -11.328  10.301  1.00  0.00     0.002 A 
ATOM     84  C   UNL     1      -8.269 -11.414  12.040  1.00  0.00     0.091 A 
ATOM     85  F   UNL     1      -7.527  -9.374  13.036  1.00  0.00    -0.205 F 
ATOM     86  C   UNL     1      -9.104 -12.066  11.118  1.00  0.00     0.022 A 
BRANCH  84  87
ATOM     87  S   UNL     1      -7.121 -12.440  12.964  1.00  0.00     0.127 S 
ATOM     88  O   UNL     1      -8.029 -13.233  13.790  1.00  0.00    -0.237 OA
ATOM     89  O   UNL     1      -6.456 -13.182  11.892  1.00  0.00    -0.237 OA
ATOM     90  O   UNL     1      -6.258 -11.518  13.689  1.00  0.00    -0.744 OA
ENDBRANCH  84  87
ENDBRANCH  56  80
BRANCH  68  91
ATOM     91  C   UNL     1     -13.573  -4.259  13.329  1.00  0.00     0.023 A 
ATOM     92  C   UNL     1     -13.656  -4.446  14.721  1.00  0.00     0.012 A 
ATOM     93  C   UNL     1     -14.736  -3.959  12.593  1.00  0.00     0.148 A 
ATOM     94  C   UNL     1     -14.883  -4.340  15.375  1.00  0.00     0.002 A 
ATOM     95  C   UNL     1     -15.949  -3.822  13.256  1.00  0.00     0.091 A 
ATOM     96  F   UNL     1     -14.627  -3.793  11.267  1.00  0.00    -0.205 F 
ATOM     97  C   UNL     1     -16.025  -4.016  14.646  1.00  0.00     0.022 A 
BRANCH  95  98
ATOM     98  S   UNL     1     -17.462  -3.335  12.418  1.00  0.00     0.127 S 
ATOM     99  O   UNL     1     -18.276  -4.543  12.547  1.00  0.00    -0.237 OA
ATOM    100  O   UNL     1     -17.914  -2.205  13.230  1.00  0.00    -0.237 OA
ATOM    101  O   UNL     1     -17.077  -2.990  11.056  1.00  0.00    -0.744 OA
ENDBRANCH  95  98
ENDBRANCH  68  91
ENDBRANCH  42  43
ENDBRANCH  34  37
ENDBRANCH  32  33
ENDBRANCH  31  32
ENDBRANCH   1  31
TORSDOF 18
