REMARK SMILES CC(C)(C)C[C@@H](O)[C@@H](F)C(=O)NCCCCNC(=O)c1ccc(-c2c3nc(c(-c4cccc(S(=O)(=O)[O-])c4F)c4ccc([nH]4)c(-c4cccc(S(=O)(=O)[O-])c4F)c4nc(c(-c5cccc(S(=O)(=O)[O-])c5F)c5ccc2[nH]5)C=C4)C=C3)cc1
REMARK SMILES IDX 14 1 13 2 12 3 10 4 11 5 8 7 9 8 6 9 5 10 2 11 1 12 3 13
REMARK SMILES IDX 4 14 7 15 15 17 16 18 17 19 18 20 19 22 20 23 21 24 82 25
REMARK SMILES IDX 22 26 81 27 23 28 24 29 25 30 75 31 26 32 80 33 74 34 76 35
REMARK SMILES IDX 27 36 79 37 73 38 72 39 28 41 60 42 40 43 59 44 41 45 44 46
REMARK SMILES IDX 58 47 77 48 42 49 43 50 57 52 78 53 45 54 29 55 30 56 38 57
REMARK SMILES IDX 31 58 33 59 39 60 32 61 34 62 35 63 36 64 37 65 61 66 62 67
REMARK SMILES IDX 70 68 63 69 65 70 71 71 64 72 66 73 67 74 68 75 69 76 46 77
REMARK SMILES IDX 47 78 55 79 48 80 50 81 56 82 49 83 51 84 52 85 53 86 54 87
REMARK H PARENT 12 6 7 16 17 21 76 40 44 51
REMARK Flexibility Score: inf
ROOT
ATOM      1  C   UNL     1      -2.613   3.545   1.214  1.00  0.00     0.023 C 
ENDROOT
BRANCH   1   2
ATOM      2  C   UNL     1      -1.814   4.671   0.553  1.00  0.00     0.116 C 
BRANCH   2   3
ATOM      3  N   UNL     1      -0.747   5.147   1.415  1.00  0.00    -0.353 N 
ATOM      4  C   UNL     1       0.606   4.990   1.286  1.00  0.00     0.257 C 
ATOM      5  O   UNL     1       1.328   5.469   2.163  1.00  0.00    -0.272 OA
ATOM      6  H   UNL     1      -1.039   5.655   2.206  1.00  0.00     0.163 HD
BRANCH   4   7
ATOM      7  C   UNL     1       1.192   4.217   0.105  1.00  0.00     0.283 C 
ATOM      8  F   UNL     1       0.697   4.691  -1.079  1.00  0.00    -0.234 F 
BRANCH   7   9
ATOM      9  C   UNL     1       0.906   2.709   0.221  1.00  0.00     0.159 C 
BRANCH   9  10
ATOM     10  C   UNL     1       1.219   1.975  -1.095  1.00  0.00     0.041 C 
BRANCH  10  11
ATOM     11  C   UNL     1       0.636   0.535  -1.234  1.00  0.00    -0.036 C 
ATOM     12  C   UNL     1       1.097  -0.394  -0.101  1.00  0.00     0.011 C 
ATOM     13  C   UNL     1       1.131  -0.045  -2.573  1.00  0.00     0.011 C 
ATOM     14  C   UNL     1      -0.904   0.563  -1.264  1.00  0.00     0.011 C 
ENDBRANCH  10  11
ENDBRANCH   9  10
BRANCH   9  15
ATOM     15  O   UNL     1       1.702   2.127   1.258  1.00  0.00    -0.390 OA
ATOM     16  H   UNL     1       2.641   2.229   1.041  1.00  0.00     0.211 HD
ENDBRANCH   9  15
ENDBRANCH   7   9
ENDBRANCH   4   7
ENDBRANCH   2   3
ENDBRANCH   1   2
BRANCH   1  17
ATOM     17  C   UNL     1      -3.423   3.963   2.441  1.00  0.00     0.023 C 
BRANCH  17  18
ATOM     18  C   UNL     1      -4.425   5.086   2.205  1.00  0.00     0.116 C 
BRANCH  18  19
ATOM     19  N   UNL     1      -5.376   4.780   1.150  1.00  0.00    -0.352 N 
ATOM     20  C   UNL     1      -6.731   5.001   1.109  1.00  0.00     0.251 C 
ATOM     21  H   UNL     1      -4.995   4.352   0.350  1.00  0.00     0.163 HD
ATOM     22  O   UNL     1      -7.388   4.541   0.181  1.00  0.00    -0.269 OA
BRANCH  20  23
ATOM     23  C   UNL     1      -7.397   5.763   2.189  1.00  0.00     0.039 A 
ATOM     24  C   UNL     1      -8.629   5.306   2.664  1.00  0.00     0.014 A 
ATOM     25  C   UNL     1      -6.826   6.918   2.731  1.00  0.00     0.014 A 
ATOM     26  C   UNL     1      -9.259   5.979   3.712  1.00  0.00     0.010 A 
ATOM     27  C   UNL     1      -7.415   7.537   3.832  1.00  0.00     0.010 A 
ATOM     28  C   UNL     1      -8.643   7.082   4.328  1.00  0.00    -0.014 A 
BRANCH  28  29
ATOM     29  C   UNL     1      -9.278   7.741   5.499  1.00  0.00     0.031 A 
ATOM     30  C   UNL     1      -9.710   9.182   5.437  1.00  0.00     0.074 A 
ATOM     31  C   UNL     1      -9.433   7.044   6.643  1.00  0.00     0.049 A 
ATOM     32  N   UNL     1     -10.317   9.899   6.348  1.00  0.00    -0.248 NA
ATOM     33  C   UNL     1      -9.401   9.925   4.203  1.00  0.00     0.031 C 
ATOM     34  C   UNL     1      -8.964   5.674   6.867  1.00  0.00     0.029 A 
ATOM     35  N   UNL     1     -10.015   7.393   7.835  1.00  0.00    -0.354 N 
ATOM     36  C   UNL     1     -10.451  11.172   5.808  1.00  0.00     0.074 A 
ATOM     37  C   UNL     1      -9.815  11.146   4.509  1.00  0.00     0.031 C 
ATOM     38  C   UNL     1      -9.291   5.295   8.112  1.00  0.00     0.029 A 
ATOM     39  C   UNL     1      -9.969   6.398   8.784  1.00  0.00     0.049 A 
ATOM     40  H   UNL     1     -10.427   8.272   7.997  1.00  0.00     0.167 HD
ATOM     41  C   UNL     1     -11.081  12.255   6.325  1.00  0.00     0.034 A 
ATOM     42  C   UNL     1     -10.423   6.375  10.052  1.00  0.00     0.034 A 
ATOM     43  C   UNL     1     -11.732  12.273   7.607  1.00  0.00     0.049 A 
ATOM     44  C   UNL     1     -11.160   7.573  10.585  1.00  0.00     0.074 A 
ATOM     45  C   UNL     1     -12.452  13.299   8.194  1.00  0.00     0.029 A 
ATOM     46  N   UNL     1     -11.740  11.218   8.507  1.00  0.00    -0.354 N 
ATOM     47  N   UNL     1     -11.418   8.713   9.992  1.00  0.00    -0.248 NA
ATOM     48  C   UNL     1     -11.708   7.463  11.944  1.00  0.00     0.031 C 
ATOM     49  C   UNL     1     -12.875  12.873   9.457  1.00  0.00     0.029 A 
ATOM     50  C   UNL     1     -12.448  11.568   9.645  1.00  0.00     0.049 A 
ATOM     51  H   UNL     1     -11.305  10.347   8.359  1.00  0.00     0.167 HD
ATOM     52  C   UNL     1     -12.183   9.445  10.893  1.00  0.00     0.074 A 
ATOM     53  C   UNL     1     -12.376   8.603  12.056  1.00  0.00     0.031 C 
ATOM     54  C   UNL     1     -12.667  10.707  10.778  1.00  0.00     0.034 A 
BRANCH  41  55
ATOM     55  C   UNL     1     -11.152  13.496   5.470  1.00  0.00     0.023 A 
ATOM     56  C   UNL     1     -11.969  13.496   4.320  1.00  0.00     0.012 A 
ATOM     57  C   UNL     1     -10.471  14.675   5.831  1.00  0.00     0.148 A 
ATOM     58  C   UNL     1     -12.081  14.635   3.524  1.00  0.00     0.002 A 
ATOM     59  C   UNL     1     -10.624  15.821   5.059  1.00  0.00     0.091 A 
ATOM     60  F   UNL     1      -9.686  14.653   6.917  1.00  0.00    -0.205 F 
ATOM     61  C   UNL     1     -11.418  15.799   3.899  1.00  0.00     0.022 A 
BRANCH  59  62
ATOM     62  S   UNL     1      -9.879  17.396   5.495  1.00  0.00     0.127 S 
ATOM     63  O   UNL     1      -8.895  17.563   4.427  1.00  0.00    -0.237 OA
ATOM     64  O   UNL     1     -11.022  18.307   5.419  1.00  0.00    -0.237 OA
ATOM     65  O   UNL     1      -9.325  17.224   6.830  1.00  0.00    -0.744 OA
ENDBRANCH  59  62
ENDBRANCH  41  55
BRANCH  42  66
ATOM     66  C   UNL     1     -10.241   5.153  10.887  1.00  0.00     0.023 A 
ATOM     67  C   UNL     1     -11.359   4.375  11.246  1.00  0.00     0.012 A 
ATOM     68  C   UNL     1      -8.960   4.751  11.312  1.00  0.00     0.148 A 
ATOM     69  C   UNL     1     -11.209   3.243  12.048  1.00  0.00     0.002 A 
ATOM     70  C   UNL     1      -8.811   3.588  12.058  1.00  0.00     0.091 A 
ATOM     71  F   UNL     1      -7.909   5.510  10.969  1.00  0.00    -0.205 F 
ATOM     72  C   UNL     1      -9.936   2.844  12.445  1.00  0.00     0.022 A 
BRANCH  70  73
ATOM     73  S   UNL     1      -7.198   2.927  12.488  1.00  0.00     0.127 S 
ATOM     74  O   UNL     1      -7.136   3.198  13.922  1.00  0.00    -0.237 OA
ATOM     75  O   UNL     1      -7.345   1.515  12.133  1.00  0.00    -0.237 OA
ATOM     76  O   UNL     1      -6.244   3.654  11.662  1.00  0.00    -0.744 OA
ENDBRANCH  70  73
ENDBRANCH  42  66
BRANCH  54  77
ATOM     77  C   UNL     1     -13.478  11.244  11.930  1.00  0.00     0.023 A 
ATOM     78  C   UNL     1     -12.849  11.544  13.155  1.00  0.00     0.012 A 
ATOM     79  C   UNL     1     -14.859  11.486  11.786  1.00  0.00     0.148 A 
ATOM     80  C   UNL     1     -13.589  12.027  14.234  1.00  0.00     0.002 A 
ATOM     81  C   UNL     1     -15.580  12.018  12.848  1.00  0.00     0.091 A 
ATOM     82  F   UNL     1     -15.445  11.179  10.620  1.00  0.00    -0.205 F 
ATOM     83  C   UNL     1     -14.951  12.273  14.078  1.00  0.00     0.022 A 
BRANCH  81  84
ATOM     84  S   UNL     1     -17.316  12.456  12.707  1.00  0.00     0.127 S 
ATOM     85  O   UNL     1     -17.956  11.385  13.468  1.00  0.00    -0.237 OA
ATOM     86  O   UNL     1     -17.358  13.770  13.351  1.00  0.00    -0.237 OA
ATOM     87  O   UNL     1     -17.609  12.475  11.281  1.00  0.00    -0.744 OA
ENDBRANCH  81  84
ENDBRANCH  54  77
ENDBRANCH  28  29
ENDBRANCH  20  23
ENDBRANCH  18  19
ENDBRANCH  17  18
ENDBRANCH   1  17
TORSDOF 18
