REMARK SMILES CC(C)(CC(=O)NCCCCNC(=O)c1ccc(-c2c3nc(c(-c4cccc(S(=O)(=O)[O-])c4F)c4ccc([nH]4)c(-c4cccc(S(=O)(=O)[O-])c4F)c4nc(c(-c5cccc(S(=O)(=O)[O-])c5F)c5ccc2[nH]5)C=C4)C=C3)cc1)NC(=O)[C@H]1CC[C@@H]2CCCC[C@@H]2[NH2+]1
REMARK SMILES IDX 9 1 8 2 7 3 5 4 6 5 4 7 2 8 1 9 3 10 78 11 79 12 80 14 81 15
REMARK SMILES IDX 82 16 90 17 83 18 89 19 84 22 88 23 85 24 87 25 86 26 10 27
REMARK SMILES IDX 11 28 12 29 13 30 14 32 15 33 16 34 77 35 17 36 76 37 18 38
REMARK SMILES IDX 19 39 20 40 70 41 21 42 75 43 69 44 71 45 22 46 74 47 68 48
REMARK SMILES IDX 67 49 23 51 55 52 35 53 54 54 36 55 39 56 53 57 72 58 37 59
REMARK SMILES IDX 38 60 52 62 73 63 40 64 24 65 25 66 33 67 26 68 28 69 34 70
REMARK SMILES IDX 27 71 29 72 30 73 31 74 32 75 56 76 57 77 65 78 58 79 60 80
REMARK SMILES IDX 66 81 59 82 61 83 62 84 63 85 64 86 41 87 42 88 50 89 43 90
REMARK SMILES IDX 45 91 51 92 44 93 46 94 47 95 48 96 49 97
REMARK H PARENT 7 6 78 13 90 20 90 21 12 31 71 50 39 61
REMARK Flexibility Score: inf
ROOT
ATOM      1  C   UNL     1       5.622   3.292  -1.851  1.00  0.00     0.023 C 
ENDROOT
BRANCH   1   2
ATOM      2  C   UNL     1       5.812   4.794  -1.717  1.00  0.00     0.116 C 
BRANCH   2   3
ATOM      3  N   UNL     1       4.666   5.473  -2.302  1.00  0.00    -0.356 N 
ATOM      4  C   UNL     1       3.418   5.659  -1.778  1.00  0.00     0.222 C 
ATOM      5  O   UNL     1       2.511   6.013  -2.534  1.00  0.00    -0.275 OA
ATOM      6  H   UNL     1       4.810   5.852  -3.199  1.00  0.00     0.163 HD
BRANCH   4   7
ATOM      7  C   UNL     1       3.153   5.512  -0.285  1.00  0.00     0.127 C 
BRANCH   7   8
ATOM      8  C   UNL     1       2.373   4.241   0.201  1.00  0.00     0.043 C 
ATOM      9  C   UNL     1       3.343   3.333   0.975  1.00  0.00     0.035 C 
ATOM     10  C   UNL     1       1.331   4.702   1.252  1.00  0.00     0.035 C 
BRANCH   8  11
ATOM     11  N   UNL     1       1.632   3.609  -0.927  1.00  0.00    -0.346 N 
ATOM     12  C   UNL     1       0.926   2.434  -0.992  1.00  0.00     0.278 C 
ATOM     13  H   UNL     1       1.654   4.120  -1.768  1.00  0.00     0.164 HD
ATOM     14  O   UNL     1      -0.305   2.513  -1.097  1.00  0.00    -0.268 OA
BRANCH  12  15
ATOM     15  C   UNL     1       1.623   1.044  -1.079  1.00  0.00     0.272 C 
ATOM     16  C   UNL     1       3.059   1.129  -1.567  1.00  0.00     0.076 C 
ATOM     17  N   UNL     1       1.466   0.309   0.195  1.00  0.00    -0.333 N 
ATOM     18  C   UNL     1       3.869  -0.148  -1.455  1.00  0.00     0.016 C 
ATOM     19  C   UNL     1       2.195  -0.976   0.220  1.00  0.00     0.186 C 
ATOM     20  H   UNL     1       0.474   0.121   0.341  1.00  0.00     0.347 HD
ATOM     21  H   UNL     1       1.859   0.894   0.932  1.00  0.00     0.347 HD
ATOM     22  C   UNL     1       3.686  -0.741  -0.054  1.00  0.00     0.048 C 
ATOM     23  C   UNL     1       1.617  -2.047  -0.727  1.00  0.00     0.065 C 
ATOM     24  C   UNL     1       4.460  -2.044   0.128  1.00  0.00     0.010 C 
ATOM     25  C   UNL     1       2.485  -3.309  -0.878  1.00  0.00     0.006 C 
ATOM     26  C   UNL     1       4.003  -3.115  -0.850  1.00  0.00     0.001 C 
ENDBRANCH  12  15
ENDBRANCH   8  11
ENDBRANCH   7   8
ENDBRANCH   4   7
ENDBRANCH   2   3
ENDBRANCH   1   2
BRANCH   1  27
ATOM     27  C   UNL     1       6.121   2.647  -3.133  1.00  0.00     0.023 C 
BRANCH  27  28
ATOM     28  C   UNL     1       7.612   2.363  -3.158  1.00  0.00     0.116 C 
BRANCH  28  29
ATOM     29  N   UNL     1       8.070   1.466  -2.100  1.00  0.00    -0.352 N 
ATOM     30  C   UNL     1       8.939   0.394  -2.157  1.00  0.00     0.251 C 
ATOM     31  H   UNL     1       7.702   1.654  -1.207  1.00  0.00     0.163 HD
ATOM     32  O   UNL     1       9.160  -0.264  -1.151  1.00  0.00    -0.269 OA
BRANCH  30  33
ATOM     33  C   UNL     1       9.555   0.013  -3.450  1.00  0.00     0.039 A 
ATOM     34  C   UNL     1       9.610  -1.340  -3.801  1.00  0.00     0.014 A 
ATOM     35  C   UNL     1      10.004   0.982  -4.345  1.00  0.00     0.014 A 
ATOM     36  C   UNL     1       9.996  -1.703  -5.095  1.00  0.00     0.010 A 
ATOM     37  C   UNL     1      10.267   0.630  -5.662  1.00  0.00     0.010 A 
ATOM     38  C   UNL     1      10.258  -0.715  -6.057  1.00  0.00    -0.014 A 
BRANCH  38  39
ATOM     39  C   UNL     1      10.482  -1.043  -7.490  1.00  0.00     0.031 A 
ATOM     40  C   UNL     1      11.737  -0.580  -8.183  1.00  0.00     0.074 A 
ATOM     41  C   UNL     1       9.496  -1.627  -8.203  1.00  0.00     0.049 A 
ATOM     42  N   UNL     1      12.048  -0.638  -9.451  1.00  0.00    -0.248 NA
ATOM     43  C   UNL     1      12.757   0.077  -7.348  1.00  0.00     0.031 C 
ATOM     44  C   UNL     1       8.189  -2.029  -7.675  1.00  0.00     0.029 A 
ATOM     45  N   UNL     1       9.425  -1.953  -9.535  1.00  0.00    -0.354 N 
ATOM     46  C   UNL     1      13.264   0.021  -9.574  1.00  0.00     0.074 A 
ATOM     47  C   UNL     1      13.617   0.507  -8.258  1.00  0.00     0.031 C 
ATOM     48  C   UNL     1       7.454  -2.556  -8.667  1.00  0.00     0.029 A 
ATOM     49  C   UNL     1       8.218  -2.498  -9.908  1.00  0.00     0.049 A 
ATOM     50  H   UNL     1      10.169  -1.811 -10.164  1.00  0.00     0.167 HD
ATOM     51  C   UNL     1      14.040   0.177 -10.672  1.00  0.00     0.034 A 
ATOM     52  C   UNL     1       7.770  -2.897 -11.115  1.00  0.00     0.034 A 
ATOM     53  C   UNL     1      13.727  -0.380 -11.959  1.00  0.00     0.049 A 
ATOM     54  C   UNL     1       8.679  -2.775 -12.307  1.00  0.00     0.074 A 
ATOM     55  C   UNL     1      14.508  -0.399 -13.101  1.00  0.00     0.029 A 
ATOM     56  N   UNL     1      12.538  -1.018 -12.275  1.00  0.00    -0.354 N 
ATOM     57  N   UNL     1       9.904  -2.310 -12.364  1.00  0.00    -0.248 NA
ATOM     58  C   UNL     1       8.158  -3.257 -13.594  1.00  0.00     0.031 C 
ATOM     59  C   UNL     1      13.785  -1.039 -14.113  1.00  0.00     0.029 A 
ATOM     60  C   UNL     1      12.557  -1.424 -13.598  1.00  0.00     0.049 A 
ATOM     61  H   UNL     1      11.791  -1.161 -11.651  1.00  0.00     0.167 HD
ATOM     62  C   UNL     1      10.306  -2.460 -13.686  1.00  0.00     0.074 A 
ATOM     63  C   UNL     1       9.206  -3.089 -14.389  1.00  0.00     0.031 C 
ATOM     64  C   UNL     1      11.472  -2.090 -14.271  1.00  0.00     0.034 A 
BRANCH  51  65
ATOM     65  C   UNL     1      15.343   0.913 -10.508  1.00  0.00     0.023 A 
ATOM     66  C   UNL     1      16.402   0.297  -9.808  1.00  0.00     0.012 A 
ATOM     67  C   UNL     1      15.539   2.187 -11.076  1.00  0.00     0.148 A 
ATOM     68  C   UNL     1      17.621   0.951  -9.644  1.00  0.00     0.002 A 
ATOM     69  C   UNL     1      16.773   2.814 -10.944  1.00  0.00     0.091 A 
ATOM     70  F   UNL     1      14.515   2.768 -11.717  1.00  0.00    -0.205 F 
ATOM     71  C   UNL     1      17.810   2.204 -10.220  1.00  0.00     0.022 A 
BRANCH  69  72
ATOM     72  S   UNL     1      17.140   4.398 -11.711  1.00  0.00     0.127 S 
ATOM     73  O   UNL     1      17.133   5.293 -10.555  1.00  0.00    -0.237 OA
ATOM     74  O   UNL     1      18.462   4.162 -12.291  1.00  0.00    -0.237 OA
ATOM     75  O   UNL     1      16.082   4.623 -12.686  1.00  0.00    -0.744 OA
ENDBRANCH  69  72
ENDBRANCH  51  65
BRANCH  52  76
ATOM     76  C   UNL     1       6.420  -3.515 -11.240  1.00  0.00     0.023 A 
ATOM     77  C   UNL     1       6.321  -4.898 -11.490  1.00  0.00     0.012 A 
ATOM     78  C   UNL     1       5.241  -2.762 -11.075  1.00  0.00     0.148 A 
ATOM     79  C   UNL     1       5.074  -5.516 -11.598  1.00  0.00     0.002 A 
ATOM     80  C   UNL     1       4.003  -3.394 -11.130  1.00  0.00     0.091 A 
ATOM     81  F   UNL     1       5.354  -1.445 -10.853  1.00  0.00    -0.205 F 
ATOM     82  C   UNL     1       3.917  -4.767 -11.407  1.00  0.00     0.022 A 
BRANCH  80  83
ATOM     83  S   UNL     1       2.469  -2.533 -10.764  1.00  0.00     0.127 S 
ATOM     84  O   UNL     1       1.876  -2.401 -12.091  1.00  0.00    -0.237 OA
ATOM     85  O   UNL     1       1.793  -3.481  -9.877  1.00  0.00    -0.237 OA
ATOM     86  O   UNL     1       2.866  -1.290 -10.117  1.00  0.00    -0.744 OA
ENDBRANCH  80  83
ENDBRANCH  52  76
BRANCH  64  87
ATOM     87  C   UNL     1      11.625  -2.353 -15.745  1.00  0.00     0.023 A 
ATOM     88  C   UNL     1      10.938  -1.538 -16.666  1.00  0.00     0.012 A 
ATOM     89  C   UNL     1      12.509  -3.342 -16.217  1.00  0.00     0.148 A 
ATOM     90  C   UNL     1      11.110  -1.720 -18.037  1.00  0.00     0.002 A 
ATOM     91  C   UNL     1      12.709  -3.488 -17.585  1.00  0.00     0.091 A 
ATOM     92  F   UNL     1      13.139  -4.117 -15.323  1.00  0.00    -0.205 F 
ATOM     93  C   UNL     1      12.004  -2.685 -18.496  1.00  0.00     0.022 A 
BRANCH  91  94
ATOM     94  S   UNL     1      13.907  -4.641 -18.266  1.00  0.00     0.127 S 
ATOM     95  O   UNL     1      13.039  -5.674 -18.829  1.00  0.00    -0.237 OA
ATOM     96  O   UNL     1      14.601  -3.820 -19.257  1.00  0.00    -0.237 OA
ATOM     97  O   UNL     1      14.736  -5.065 -17.146  1.00  0.00    -0.744 OA
ENDBRANCH  91  94
ENDBRANCH  64  87
ENDBRANCH  38  39
ENDBRANCH  30  33
ENDBRANCH  28  29
ENDBRANCH  27  28
ENDBRANCH   1  27
TORSDOF 17
