REMARK SMILES C[NH2+][C@@]1(C(=O)NCCCCNC(=O)c2ccc(-c3c4nc(c(-c5cccc(S(=O)(=O)[O-])c5F)c5ccc([nH]5)c(-c5cccc(S(=O)(=O)[O-])c5F)c5nc(c(-c6cccc(S(=O)(=O)[O-])c6F)c6ccc3[nH]6)C=C5)C=C4)cc2)CC[C@H](n2ccc(C)n2)C1
REMARK SMILES IDX 9 1 8 2 7 3 6 4 4 5 5 6 3 8 77 9 86 10 78 11 79 12 2 13 1 14
REMARK SMILES IDX 80 17 81 18 85 19 82 20 83 21 84 22 10 23 11 24 12 25 13 27
REMARK SMILES IDX 14 28 15 29 76 30 16 31 75 32 17 33 18 34 19 35 69 36 20 37
REMARK SMILES IDX 74 38 68 39 70 40 21 41 73 42 67 43 66 44 22 46 54 47 34 48
REMARK SMILES IDX 53 49 35 50 38 51 52 52 71 53 36 54 37 55 51 57 72 58 39 59
REMARK SMILES IDX 23 60 24 61 32 62 25 63 27 64 33 65 26 66 28 67 29 68 30 69
REMARK SMILES IDX 31 70 55 71 56 72 64 73 57 74 59 75 65 76 58 77 60 78 61 79
REMARK SMILES IDX 62 80 63 81 40 82 41 83 49 84 42 85 44 86 50 87 43 88 45 89
REMARK SMILES IDX 46 90 47 91 48 92
REMARK H PARENT 6 7 2 15 2 16 11 26 70 45 38 56
REMARK Flexibility Score: inf
ROOT
ATOM      1  C   UNL     1      -5.077  -1.808   3.341  1.00  0.00     0.023 C 
ENDROOT
BRANCH   1   2
ATOM      2  C   UNL     1      -4.209  -1.558   2.118  1.00  0.00     0.023 C 
BRANCH   2   3
ATOM      3  C   UNL     1      -3.320  -0.323   2.185  1.00  0.00     0.116 C 
BRANCH   3   4
ATOM      4  N   UNL     1      -1.945  -0.704   2.430  1.00  0.00    -0.351 N 
ATOM      5  C   UNL     1      -0.946  -1.173   1.651  1.00  0.00     0.281 C 
ATOM      6  O   UNL     1       0.046  -1.581   2.281  1.00  0.00    -0.268 OA
ATOM      7  H   UNL     1      -1.680  -0.597   3.372  1.00  0.00     0.163 HD
BRANCH   5   8
ATOM      8  C   UNL     1      -0.910  -1.245   0.070  1.00  0.00     0.177 C 
ATOM      9  C   UNL     1      -1.764  -0.312  -0.785  1.00  0.00     0.081 C 
ATOM     10  C   UNL     1      -1.294  -2.661  -0.406  1.00  0.00     0.106 C 
ATOM     11  C   UNL     1      -3.013  -1.087  -1.185  1.00  0.00     0.034 C 
ATOM     12  C   UNL     1      -2.654  -2.578  -1.133  1.00  0.00     0.114 C 
BRANCH   8  13
ATOM     13  N   UNL     1       0.541  -1.064  -0.296  1.00  0.00    -0.336 N 
ATOM     14  C   UNL     1       1.037   0.294  -0.083  1.00  0.00     0.331 C 
ATOM     15  H   UNL     1       1.099  -1.702   0.272  1.00  0.00     0.346 HD
ATOM     16  H   UNL     1       0.623  -1.257  -1.294  1.00  0.00     0.346 HD
ENDBRANCH   8  13
BRANCH  12  17
ATOM     17  N   UNL     1      -3.717  -3.416  -0.590  1.00  0.00    -0.269 N 
ATOM     18  C   UNL     1      -5.054  -3.350  -0.881  1.00  0.00     0.109 A 
ATOM     19  N   UNL     1      -3.439  -4.363   0.323  1.00  0.00    -0.178 NA
ATOM     20  C   UNL     1      -5.681  -4.192   0.010  1.00  0.00     0.045 A 
ATOM     21  C   UNL     1      -4.634  -4.781   0.753  1.00  0.00     0.059 A 
ATOM     22  C   UNL     1      -4.733  -5.704   1.911  1.00  0.00     0.069 C 
ENDBRANCH  12  17
ENDBRANCH   5   8
ENDBRANCH   3   4
ENDBRANCH   2   3
ENDBRANCH   1   2
BRANCH   1  23
ATOM     23  C   UNL     1      -6.239  -0.838   3.482  1.00  0.00     0.116 C 
BRANCH  23  24
ATOM     24  N   UNL     1      -7.231  -0.941   2.415  1.00  0.00    -0.352 N 
ATOM     25  C   UNL     1      -8.608  -0.964   2.503  1.00  0.00     0.251 C 
ATOM     26  H   UNL     1      -6.866  -1.004   1.503  1.00  0.00     0.163 HD
ATOM     27  O   UNL     1      -9.288  -1.125   1.497  1.00  0.00    -0.269 OA
BRANCH  25  28
ATOM     28  C   UNL     1      -9.251  -0.847   3.832  1.00  0.00     0.039 A 
ATOM     29  C   UNL     1     -10.270  -1.738   4.179  1.00  0.00     0.014 A 
ATOM     30  C   UNL     1      -8.782   0.076   4.765  1.00  0.00     0.014 A 
ATOM     31  C   UNL     1     -10.737  -1.774   5.497  1.00  0.00     0.010 A 
ATOM     32  C   UNL     1      -9.155  -0.048   6.096  1.00  0.00     0.010 A 
ATOM     33  C   UNL     1     -10.138  -0.972   6.482  1.00  0.00    -0.014 A 
BRANCH  33  34
ATOM     34  C   UNL     1     -10.501  -1.074   7.922  1.00  0.00     0.031 A 
ATOM     35  C   UNL     1     -10.943   0.157   8.672  1.00  0.00     0.074 A 
ATOM     36  C   UNL     1     -10.300  -2.229   8.590  1.00  0.00     0.049 A 
ATOM     37  N   UNL     1     -11.145   0.316   9.954  1.00  0.00    -0.248 NA
ATOM     38  C   UNL     1     -11.126   1.389   7.883  1.00  0.00     0.031 C 
ATOM     39  C   UNL     1      -9.768  -3.466   8.011  1.00  0.00     0.029 A 
ATOM     40  N   UNL     1     -10.488  -2.542   9.914  1.00  0.00    -0.354 N 
ATOM     41  C   UNL     1     -11.402   1.671  10.131  1.00  0.00     0.074 A 
ATOM     42  C   UNL     1     -11.293   2.296   8.833  1.00  0.00     0.031 C 
ATOM     43  C   UNL     1      -9.688  -4.405   8.969  1.00  0.00     0.029 A 
ATOM     44  C   UNL     1     -10.131  -3.832  10.236  1.00  0.00     0.049 A 
ATOM     45  H   UNL     1     -10.846  -1.903  10.572  1.00  0.00     0.167 HD
ATOM     46  C   UNL     1     -11.740   2.332  11.264  1.00  0.00     0.034 A 
ATOM     47  C   UNL     1     -10.158  -4.481  11.417  1.00  0.00     0.034 A 
ATOM     48  C   UNL     1     -11.959   1.688  12.528  1.00  0.00     0.049 A 
ATOM     49  C   UNL     1     -10.666  -3.757  12.634  1.00  0.00     0.074 A 
ATOM     50  C   UNL     1     -12.437   2.240  13.703  1.00  0.00     0.029 A 
ATOM     51  N   UNL     1     -11.735   0.343  12.778  1.00  0.00    -0.354 N 
ATOM     52  N   UNL     1     -11.066  -2.514  12.746  1.00  0.00    -0.248 NA
ATOM     53  C   UNL     1     -10.766  -4.534  13.879  1.00  0.00     0.031 C 
ATOM     54  C   UNL     1     -12.502   1.226  14.665  1.00  0.00     0.029 A 
ATOM     55  C   UNL     1     -12.072   0.043  14.086  1.00  0.00     0.049 A 
ATOM     56  H   UNL     1     -11.387  -0.303  12.122  1.00  0.00     0.167 HD
ATOM     57  C   UNL     1     -11.493  -2.367  14.061  1.00  0.00     0.074 A 
ATOM     58  C   UNL     1     -11.326  -3.655  14.701  1.00  0.00     0.031 C 
ATOM     59  C   UNL     1     -11.963  -1.260  14.687  1.00  0.00     0.034 A 
BRANCH  46  60
ATOM     60  C   UNL     1     -11.978   3.815  11.163  1.00  0.00     0.023 A 
ATOM     61  C   UNL     1     -13.126   4.289  10.495  1.00  0.00     0.012 A 
ATOM     62  C   UNL     1     -11.098   4.737  11.761  1.00  0.00     0.148 A 
ATOM     63  C   UNL     1     -13.372   5.657  10.385  1.00  0.00     0.002 A 
ATOM     64  C   UNL     1     -11.374   6.098  11.688  1.00  0.00     0.091 A 
ATOM     65  F   UNL     1     -10.000   4.271  12.373  1.00  0.00    -0.205 F 
ATOM     66  C   UNL     1     -12.503   6.560  10.990  1.00  0.00     0.022 A 
BRANCH  64  67
ATOM     67  S   UNL     1     -10.358   7.338  12.501  1.00  0.00     0.127 S 
ATOM     68  O   UNL     1      -9.664   7.941  11.364  1.00  0.00    -0.237 OA
ATOM     69  O   UNL     1     -11.363   8.198  13.127  1.00  0.00    -0.237 OA
ATOM     70  O   UNL     1      -9.515   6.610  13.438  1.00  0.00    -0.744 OA
ENDBRANCH  64  67
ENDBRANCH  46  60
BRANCH  47  71
ATOM     71  C   UNL     1      -9.783  -5.923  11.483  1.00  0.00     0.023 A 
ATOM     72  C   UNL     1     -10.796  -6.885  11.669  1.00  0.00     0.012 A 
ATOM     73  C   UNL     1      -8.451  -6.351  11.324  1.00  0.00     0.148 A 
ATOM     74  C   UNL     1     -10.487  -8.244  11.725  1.00  0.00     0.002 A 
ATOM     75  C   UNL     1      -8.157  -7.711  11.330  1.00  0.00     0.091 A 
ATOM     76  F   UNL     1      -7.499  -5.422  11.160  1.00  0.00    -0.205 F 
ATOM     77  C   UNL     1      -9.170  -8.658  11.546  1.00  0.00     0.022 A 
BRANCH  75  78
ATOM     78  S   UNL     1      -6.511  -8.340  10.975  1.00  0.00     0.127 S 
ATOM     79  O   UNL     1      -6.059  -8.760  12.298  1.00  0.00    -0.237 OA
ATOM     80  O   UNL     1      -6.797  -9.433  10.044  1.00  0.00    -0.237 OA
ATOM     81  O   UNL     1      -5.790  -7.223  10.380  1.00  0.00    -0.744 OA
ENDBRANCH  75  78
ENDBRANCH  47  71
BRANCH  59  82
ATOM     82  C   UNL     1     -12.365  -1.389  16.131  1.00  0.00     0.023 A 
ATOM     83  C   UNL     1     -11.370  -1.474  17.124  1.00  0.00     0.012 A 
ATOM     84  C   UNL     1     -13.720  -1.329  16.509  1.00  0.00     0.148 A 
ATOM     85  C   UNL     1     -11.720  -1.521  18.473  1.00  0.00     0.002 A 
ATOM     86  C   UNL     1     -14.059  -1.331  17.857  1.00  0.00     0.091 A 
ATOM     87  F   UNL     1     -14.652  -1.269  15.546  1.00  0.00    -0.205 F 
ATOM     88  C   UNL     1     -13.061  -1.436  18.839  1.00  0.00     0.022 A 
BRANCH  86  89
ATOM     89  S   UNL     1     -15.754  -1.128  18.417  1.00  0.00     0.127 S 
ATOM     90  O   UNL     1     -16.107  -2.494  18.799  1.00  0.00    -0.237 OA
ATOM     91  O   UNL     1     -15.605  -0.200  19.539  1.00  0.00    -0.237 OA
ATOM     92  O   UNL     1     -16.485  -0.583  17.281  1.00  0.00    -0.744 OA
ENDBRANCH  86  89
ENDBRANCH  59  82
ENDBRANCH  33  34
ENDBRANCH  25  28
ENDBRANCH  23  24
ENDBRANCH   1  23
TORSDOF 16
