REMARK SMILES O=C(NCCCCNC(=O)[C@@H]1CCC[N@@H+](Cc2cccc3ccccc23)C1)c1ccc(-c2c3nc(c(-c4cccc(S(=O)(=O)[O-])c4F)c4ccc([nH]4)c(-c4cccc(S(=O)(=O)[O-])c4F)c4nc(c(-c5cccc(S(=O)(=O)[O-])c5F)c5ccc2[nH]5)C=C4)C=C3)cc1
REMARK SMILES IDX 5 1 4 2 3 3 1 4 2 5 28 7 29 8 90 9 30 10 89 11 31 12 32 13
REMARK SMILES IDX 33 14 83 15 34 16 88 17 82 18 84 19 35 20 87 21 81 22 80 23
REMARK SMILES IDX 36 25 68 26 48 27 67 28 49 29 52 30 66 31 85 32 50 33 51 34
REMARK SMILES IDX 65 36 86 37 53 38 37 39 38 40 46 41 39 42 41 43 47 44 40 45
REMARK SMILES IDX 42 46 43 47 44 48 45 49 69 50 70 51 78 52 71 53 73 54 79 55
REMARK SMILES IDX 72 56 74 57 75 58 76 59 77 60 54 61 55 62 63 63 56 64 58 65
REMARK SMILES IDX 64 66 57 67 59 68 60 69 61 70 62 71 6 72 7 73 8 74 9 75
REMARK SMILES IDX 10 77 11 78 12 79 27 80 13 81 15 82 14 83 16 85 17 86 18 87
REMARK SMILES IDX 26 88 19 89 21 90 25 91 20 92 22 93 24 94 23 95
REMARK H PARENT 3 6 84 24 52 35 8 76 15 84
REMARK Flexibility Score: inf
ROOT
ATOM      1  C   UNL     1       4.635  -2.397   0.001  1.00  0.00     0.023 C 
ENDROOT
BRANCH   1   2
ATOM      2  C   UNL     1       4.298  -0.927  -0.150  1.00  0.00     0.116 C 
BRANCH   2   3
ATOM      3  N   UNL     1       2.885  -0.681  -0.412  1.00  0.00    -0.352 N 
ATOM      4  O   UNL     1       0.916   0.412  -0.210  1.00  0.00    -0.269 OA
ATOM      5  C   UNL     1       2.123   0.384   0.009  1.00  0.00     0.251 C 
ATOM      6  H   UNL     1       2.421  -1.358  -0.955  1.00  0.00     0.163 HD
BRANCH   5   7
ATOM      7  C   UNL     1       2.787   1.457   0.772  1.00  0.00     0.039 A 
ATOM      8  C   UNL     1       3.983   2.001   0.301  1.00  0.00     0.014 A 
ATOM      9  C   UNL     1       2.271   1.832   2.013  1.00  0.00     0.014 A 
ATOM     10  C   UNL     1       4.754   2.781   1.148  1.00  0.00     0.010 A 
ATOM     11  C   UNL     1       3.003   2.700   2.823  1.00  0.00     0.010 A 
ATOM     12  C   UNL     1       4.273   3.141   2.418  1.00  0.00    -0.014 A 
BRANCH  12  13
ATOM     13  C   UNL     1       5.109   4.011   3.280  1.00  0.00     0.031 A 
ATOM     14  C   UNL     1       5.638   3.527   4.602  1.00  0.00     0.074 A 
ATOM     15  C   UNL     1       5.412   5.246   2.835  1.00  0.00     0.049 A 
ATOM     16  N   UNL     1       6.419   4.149   5.447  1.00  0.00    -0.248 NA
ATOM     17  C   UNL     1       5.236   2.181   5.042  1.00  0.00     0.031 C 
ATOM     18  C   UNL     1       4.918   5.830   1.584  1.00  0.00     0.029 A 
ATOM     19  N   UNL     1       6.214   6.222   3.363  1.00  0.00    -0.354 N 
ATOM     20  C   UNL     1       6.555   3.301   6.540  1.00  0.00     0.074 A 
ATOM     21  C   UNL     1       5.780   2.114   6.250  1.00  0.00     0.031 C 
ATOM     22  C   UNL     1       5.468   7.040   1.416  1.00  0.00     0.029 A 
ATOM     23  C   UNL     1       6.309   7.341   2.569  1.00  0.00     0.049 A 
ATOM     24  H   UNL     1       6.677   6.132   4.227  1.00  0.00     0.167 HD
ATOM     25  C   UNL     1       7.271   3.491   7.674  1.00  0.00     0.034 A 
ATOM     26  C   UNL     1       6.997   8.483   2.747  1.00  0.00     0.034 A 
ATOM     27  C   UNL     1       8.092   4.647   7.923  1.00  0.00     0.049 A 
ATOM     28  C   UNL     1       7.840   8.632   3.979  1.00  0.00     0.074 A 
ATOM     29  C   UNL     1       8.908   4.906   9.011  1.00  0.00     0.029 A 
ATOM     30  N   UNL     1       8.209   5.734   7.070  1.00  0.00    -0.354 N 
ATOM     31  N   UNL     1       8.043   7.770   4.946  1.00  0.00    -0.248 NA
ATOM     32  C   UNL     1       8.568   9.898   4.134  1.00  0.00     0.031 C 
ATOM     33  C   UNL     1       9.514   6.152   8.816  1.00  0.00     0.029 A 
ATOM     34  C   UNL     1       9.083   6.666   7.604  1.00  0.00     0.049 A 
ATOM     35  H   UNL     1       7.739   5.830   6.210  1.00  0.00     0.167 HD
ATOM     36  C   UNL     1       8.940   8.378   5.814  1.00  0.00     0.074 A 
ATOM     37  C   UNL     1       9.262   9.671   5.241  1.00  0.00     0.031 C 
ATOM     38  C   UNL     1       9.433   7.920   6.990  1.00  0.00     0.034 A 
BRANCH  25  39
ATOM     39  C   UNL     1       7.238   2.408   8.720  1.00  0.00     0.023 A 
ATOM     40  C   UNL     1       7.977   1.225   8.520  1.00  0.00     0.012 A 
ATOM     41  C   UNL     1       6.535   2.588   9.927  1.00  0.00     0.148 A 
ATOM     42  C   UNL     1       7.998   0.228   9.496  1.00  0.00     0.002 A 
ATOM     43  C   UNL     1       6.589   1.605  10.910  1.00  0.00     0.091 A 
ATOM     44  F   UNL     1       5.814   3.707  10.090  1.00  0.00    -0.205 F 
ATOM     45  C   UNL     1       7.315   0.422  10.694  1.00  0.00     0.022 A 
BRANCH  43  46
ATOM     46  S   UNL     1       5.797   1.805  12.511  1.00  0.00     0.127 S 
ATOM     47  O   UNL     1       4.590   0.996  12.347  1.00  0.00    -0.237 OA
ATOM     48  O   UNL     1       6.789   1.238  13.426  1.00  0.00    -0.237 OA
ATOM     49  O   UNL     1       5.583   3.236  12.669  1.00  0.00    -0.744 OA
ENDBRANCH  43  46
ENDBRANCH  25  39
BRANCH  26  50
ATOM     50  C   UNL     1       6.968   9.529   1.688  1.00  0.00     0.023 A 
ATOM     51  C   UNL     1       8.122   9.755   0.914  1.00  0.00     0.012 A 
ATOM     52  C   UNL     1       5.790  10.241   1.389  1.00  0.00     0.148 A 
ATOM     53  C   UNL     1       8.107  10.683  -0.128  1.00  0.00     0.002 A 
ATOM     54  C   UNL     1       5.765  11.118   0.312  1.00  0.00     0.091 A 
ATOM     55  F   UNL     1       4.706  10.026   2.149  1.00  0.00    -0.205 F 
ATOM     56  C   UNL     1       6.926  11.352  -0.439  1.00  0.00     0.022 A 
BRANCH  54  57
ATOM     57  S   UNL     1       4.241  11.891  -0.242  1.00  0.00     0.127 S 
ATOM     58  O   UNL     1       4.358  13.229   0.329  1.00  0.00    -0.237 OA
ATOM     59  O   UNL     1       4.374  11.829  -1.699  1.00  0.00    -0.237 OA
ATOM     60  O   UNL     1       3.174  11.055   0.292  1.00  0.00    -0.744 OA
ENDBRANCH  54  57
ENDBRANCH  26  50
BRANCH  38  61
ATOM     61  C   UNL     1      10.391   8.815   7.727  1.00  0.00     0.023 A 
ATOM     62  C   UNL     1       9.897   9.941   8.415  1.00  0.00     0.012 A 
ATOM     63  C   UNL     1      11.764   8.512   7.787  1.00  0.00     0.148 A 
ATOM     64  C   UNL     1      10.762  10.770   9.127  1.00  0.00     0.002 A 
ATOM     65  C   UNL     1      12.614   9.319   8.533  1.00  0.00     0.091 A 
ATOM     66  F   UNL     1      12.219   7.450   7.104  1.00  0.00    -0.205 F 
ATOM     67  C   UNL     1      12.117  10.453   9.196  1.00  0.00     0.022 A 
BRANCH  65  68
ATOM     68  S   UNL     1      14.354   8.923   8.735  1.00  0.00     0.127 S 
ATOM     69  O   UNL     1      14.974   9.759   7.709  1.00  0.00    -0.237 OA
ATOM     70  O   UNL     1      14.621   9.348  10.110  1.00  0.00    -0.237 OA
ATOM     71  O   UNL     1      14.451   7.484   8.526  1.00  0.00    -0.744 OA
ENDBRANCH  65  68
ENDBRANCH  38  61
ENDBRANCH  12  13
ENDBRANCH   5   7
ENDBRANCH   2   3
ENDBRANCH   1   2
BRANCH   1  72
ATOM     72  C   UNL     1       4.253  -3.250  -1.201  1.00  0.00     0.023 C 
BRANCH  72  73
ATOM     73  C   UNL     1       5.038  -2.963  -2.483  1.00  0.00     0.116 C 
BRANCH  73  74
ATOM     74  N   UNL     1       6.396  -3.461  -2.414  1.00  0.00    -0.356 N 
ATOM     75  C   UNL     1       6.931  -4.657  -2.796  1.00  0.00     0.228 C 
ATOM     76  H   UNL     1       7.043  -2.830  -2.026  1.00  0.00     0.163 HD
ATOM     77  O   UNL     1       8.156  -4.759  -2.694  1.00  0.00    -0.275 OA
BRANCH  75  78
ATOM     78  C   UNL     1       6.070  -5.757  -3.441  1.00  0.00     0.133 C 
ATOM     79  C   UNL     1       4.775  -6.145  -2.732  1.00  0.00     0.025 C 
ATOM     80  C   UNL     1       6.878  -7.064  -3.633  1.00  0.00     0.276 C 
ATOM     81  C   UNL     1       5.101  -6.747  -1.374  1.00  0.00     0.062 C 
ATOM     82  N   UNL     1       7.054  -7.890  -2.423  1.00  0.00    -0.331 N 
ATOM     83  C   UNL     1       5.863  -8.044  -1.582  1.00  0.00     0.262 C 
ATOM     84  H   UNL     1       7.690  -7.335  -1.851  1.00  0.00     0.348 HD
BRANCH  82  85
ATOM     85  C   UNL     1       7.727  -9.181  -2.694  1.00  0.00     0.299 C 
BRANCH  85  86
ATOM     86  C   UNL     1       6.812 -10.303  -3.185  1.00  0.00     0.014 A 
ATOM     87  C   UNL     1       6.465 -10.312  -4.550  1.00  0.00     0.010 A 
ATOM     88  C   UNL     1       6.207 -11.252  -2.301  1.00  0.00    -0.010 A 
ATOM     89  C   UNL     1       5.485 -11.169  -5.036  1.00  0.00     0.001 A 
ATOM     90  C   UNL     1       5.206 -12.117  -2.817  1.00  0.00    -0.018 A 
ATOM     91  C   UNL     1       6.512 -11.374  -0.922  1.00  0.00     0.009 A 
ATOM     92  C   UNL     1       4.851 -12.053  -4.171  1.00  0.00     0.009 A 
ATOM     93  C   UNL     1       4.552 -13.029  -1.970  1.00  0.00     0.009 A 
ATOM     94  C   UNL     1       5.861 -12.293  -0.096  1.00  0.00     0.001 A 
ATOM     95  C   UNL     1       4.877 -13.118  -0.619  1.00  0.00     0.001 A 
ENDBRANCH  85  86
ENDBRANCH  82  85
ENDBRANCH  75  78
ENDBRANCH  73  74
ENDBRANCH  72  73
ENDBRANCH   1  72
TORSDOF 16
