REMARK SMILES [NH3+][C@H]1CN(C(=O)OCC2c3ccccc3-c3ccccc32)C[C@@H]1C(=O)NCCCCNC(=O)c1ccc(-c2c3nc(c(-c4cccc(S(=O)(=O)[O-])c4F)c4ccc([nH]4)c(-c4cccc(S(=O)(=O)[O-])c4F)c4nc(c(-c5cccc(S(=O)(=O)[O-])c5F)c5ccc2[nH]5)C=C4)C=C3)cc1
REMARK SMILES IDX 28 1 27 2 26 3 24 4 25 5 23 7 2 8 3 9 4 10 22 11 1 12 5 16
REMARK SMILES IDX 6 17 7 18 8 19 9 20 10 21 21 22 11 23 15 24 16 25 20 26
REMARK SMILES IDX 12 27 14 28 17 29 19 30 13 31 18 32 29 33 30 34 31 35 32 36
REMARK SMILES IDX 33 38 34 39 35 40 96 41 36 42 95 43 37 44 38 45 39 46 89 47
REMARK SMILES IDX 40 48 94 49 88 50 90 51 41 52 93 53 87 54 86 55 42 57 74 58
REMARK SMILES IDX 54 59 73 60 55 61 58 62 72 63 91 64 56 65 57 66 71 68 92 69
REMARK SMILES IDX 59 70 43 71 44 72 52 73 45 74 47 75 53 76 46 77 48 78 49 79
REMARK SMILES IDX 50 80 51 81 75 82 76 83 84 84 77 85 79 86 85 87 78 88 80 89
REMARK SMILES IDX 81 90 82 91 83 92 60 93 61 94 69 95 62 96 64 97 70 98 63 99
REMARK SMILES IDX 65 100 66 101 67 102 68 103
REMARK H PARENT 26 6 1 13 1 14 1 15 31 37 90 56 58 67
REMARK Flexibility Score: inf
ROOT
ATOM      1  C   UNL     1       2.722  -4.037   1.561  1.00  0.00     0.023 C 
ENDROOT
BRANCH   1   2
ATOM      2  C   UNL     1       2.781  -2.940   2.626  1.00  0.00     0.116 C 
BRANCH   2   3
ATOM      3  N   UNL     1       3.315  -1.711   2.064  1.00  0.00    -0.356 N 
ATOM      4  C   UNL     1       2.664  -0.582   1.659  1.00  0.00     0.231 C 
ATOM      5  O   UNL     1       3.270   0.227   0.957  1.00  0.00    -0.274 OA
ATOM      6  H   UNL     1       4.294  -1.690   1.959  1.00  0.00     0.163 HD
BRANCH   4   7
ATOM      7  C   UNL     1       1.255  -0.324   2.153  1.00  0.00     0.158 C 
ATOM      8  C   UNL     1       0.429   0.524   1.173  1.00  0.00     0.215 C 
ATOM      9  C   UNL     1       0.733   1.982   1.579  1.00  0.00     0.188 C 
ATOM     10  N   UNL     1       1.301   1.908   2.909  1.00  0.00    -0.301 N 
ATOM     11  C   UNL     1       1.362   0.546   3.398  1.00  0.00     0.143 C 
BRANCH   8  12
ATOM     12  N   UNL     1      -1.009   0.210   1.319  1.00  0.00    -0.353 N 
ATOM     13  H   UNL     1      -1.549   0.776   0.665  1.00  0.00     0.344 HD
ATOM     14  H   UNL     1      -1.306   0.415   2.273  1.00  0.00     0.344 HD
ATOM     15  H   UNL     1      -1.163  -0.779   1.120  1.00  0.00     0.344 HD
ENDBRANCH   8  12
BRANCH  10  16
ATOM     16  C   UNL     1       1.929   2.950   3.537  1.00  0.00     0.410 C 
ATOM     17  O   UNL     1       2.784   2.804   4.396  1.00  0.00    -0.224 OA
BRANCH  16  18
ATOM     18  O   UNL     1       1.388   4.148   3.177  1.00  0.00    -0.448 OA
BRANCH  18  19
ATOM     19  C   UNL     1       1.774   5.271   3.995  1.00  0.00     0.248 C 
BRANCH  19  20
ATOM     20  C   UNL     1       0.774   5.527   5.146  1.00  0.00     0.088 C 
ATOM     21  C   UNL     1       0.933   4.581   6.338  1.00  0.00    -0.029 A 
ATOM     22  C   UNL     1       1.046   6.879   5.811  1.00  0.00    -0.029 A 
ATOM     23  C   UNL     1       0.674   3.221   6.413  1.00  0.00     0.005 A 
ATOM     24  C   UNL     1       1.408   5.282   7.464  1.00  0.00    -0.014 A 
ATOM     25  C   UNL     1       1.433   6.694   7.157  1.00  0.00    -0.014 A 
ATOM     26  C   UNL     1       0.936   8.150   5.267  1.00  0.00     0.005 A 
ATOM     27  C   UNL     1       1.027   2.536   7.577  1.00  0.00     0.000 A 
ATOM     28  C   UNL     1       1.742   4.609   8.629  1.00  0.00     0.009 A 
ATOM     29  C   UNL     1       1.707   7.781   7.971  1.00  0.00     0.009 A 
ATOM     30  C   UNL     1       1.213   9.246   6.089  1.00  0.00     0.000 A 
ATOM     31  C   UNL     1       1.574   3.222   8.670  1.00  0.00     0.001 A 
ATOM     32  C   UNL     1       1.593   9.064   7.429  1.00  0.00     0.001 A 
ENDBRANCH  19  20
ENDBRANCH  18  19
ENDBRANCH  16  18
ENDBRANCH  10  16
ENDBRANCH   4   7
ENDBRANCH   2   3
ENDBRANCH   1   2
BRANCH   1  33
ATOM     33  C   UNL     1       4.095  -4.493   1.054  1.00  0.00     0.023 C 
BRANCH  33  34
ATOM     34  C   UNL     1       5.042  -5.007   2.133  1.00  0.00     0.116 C 
BRANCH  34  35
ATOM     35  N   UNL     1       4.514  -6.164   2.840  1.00  0.00    -0.352 N 
ATOM     36  C   UNL     1       5.135  -7.355   3.133  1.00  0.00     0.251 C 
ATOM     37  H   UNL     1       3.583  -6.083   3.150  1.00  0.00     0.163 HD
ATOM     38  O   UNL     1       4.484  -8.283   3.604  1.00  0.00    -0.269 OA
BRANCH  36  39
ATOM     39  C   UNL     1       6.578  -7.521   2.855  1.00  0.00     0.039 A 
ATOM     40  C   UNL     1       7.016  -8.693   2.233  1.00  0.00     0.014 A 
ATOM     41  C   UNL     1       7.494  -6.520   3.191  1.00  0.00     0.014 A 
ATOM     42  C   UNL     1       8.364  -8.834   1.895  1.00  0.00     0.010 A 
ATOM     43  C   UNL     1       8.818  -6.627   2.777  1.00  0.00     0.010 A 
ATOM     44  C   UNL     1       9.271  -7.788   2.134  1.00  0.00    -0.014 A 
BRANCH  44  45
ATOM     45  C   UNL     1      10.694  -7.891   1.716  1.00  0.00     0.031 A 
ATOM     46  C   UNL     1      11.794  -7.831   2.743  1.00  0.00     0.074 A 
ATOM     47  C   UNL     1      11.003  -7.959   0.406  1.00  0.00     0.049 A 
ATOM     48  N   UNL     1      13.089  -7.855   2.567  1.00  0.00    -0.248 NA
ATOM     49  C   UNL     1      11.384  -7.699   4.151  1.00  0.00     0.031 C 
ATOM     50  C   UNL     1      10.036  -7.949  -0.693  1.00  0.00     0.029 A 
ATOM     51  N   UNL     1      12.221  -8.023  -0.226  1.00  0.00    -0.354 N 
ATOM     52  C   UNL     1      13.649  -7.705   3.830  1.00  0.00     0.074 A 
ATOM     53  C   UNL     1      12.552  -7.551   4.760  1.00  0.00     0.031 C 
ATOM     54  C   UNL     1      10.695  -8.012  -1.861  1.00  0.00     0.029 A 
ATOM     55  C   UNL     1      12.131  -8.029  -1.599  1.00  0.00     0.049 A 
ATOM     56  H   UNL     1      13.078  -8.061   0.258  1.00  0.00     0.167 HD
ATOM     57  C   UNL     1      14.954  -7.721   4.191  1.00  0.00     0.034 A 
ATOM     58  C   UNL     1      13.094  -8.035  -2.541  1.00  0.00     0.034 A 
ATOM     59  C   UNL     1      16.042  -7.901   3.267  1.00  0.00     0.049 A 
ATOM     60  C   UNL     1      14.536  -8.075  -2.116  1.00  0.00     0.074 A 
ATOM     61  C   UNL     1      17.393  -8.015   3.542  1.00  0.00     0.029 A 
ATOM     62  N   UNL     1      15.907  -7.976   1.890  1.00  0.00    -0.354 N 
ATOM     63  N   UNL     1      15.040  -8.086  -0.905  1.00  0.00    -0.248 NA
ATOM     64  C   UNL     1      15.543  -8.140  -3.185  1.00  0.00     0.031 C 
ATOM     65  C   UNL     1      18.079  -8.118   2.328  1.00  0.00     0.029 A 
ATOM     66  C   UNL     1      17.151  -8.119   1.299  1.00  0.00     0.049 A 
ATOM     67  H   UNL     1      15.053  -7.934   1.403  1.00  0.00     0.167 HD
ATOM     68  C   UNL     1      16.416  -8.200  -1.065  1.00  0.00     0.074 A 
ATOM     69  C   UNL     1      16.665  -8.272  -2.491  1.00  0.00     0.031 C 
ATOM     70  C   UNL     1      17.386  -8.235  -0.118  1.00  0.00     0.034 A 
BRANCH  57  71
ATOM     71  C   UNL     1      15.275  -7.571   5.657  1.00  0.00     0.023 A 
ATOM     72  C   UNL     1      14.939  -8.602   6.558  1.00  0.00     0.012 A 
ATOM     73  C   UNL     1      15.949  -6.430   6.136  1.00  0.00     0.148 A 
ATOM     74  C   UNL     1      15.223  -8.481   7.918  1.00  0.00     0.002 A 
ATOM     75  C   UNL     1      16.276  -6.340   7.484  1.00  0.00     0.091 A 
ATOM     76  F   UNL     1      16.246  -5.451   5.270  1.00  0.00    -0.205 F 
ATOM     77  C   UNL     1      15.900  -7.356   8.378  1.00  0.00     0.022 A 
BRANCH  75  78
ATOM     78  S   UNL     1      17.222  -4.972   8.162  1.00  0.00     0.127 S 
ATOM     79  O   UNL     1      16.212  -4.285   8.966  1.00  0.00    -0.237 OA
ATOM     80  O   UNL     1      18.250  -5.666   8.938  1.00  0.00    -0.237 OA
ATOM     81  O   UNL     1      17.725  -4.224   7.019  1.00  0.00    -0.744 OA
ENDBRANCH  75  78
ENDBRANCH  57  71
BRANCH  58  82
ATOM     82  C   UNL     1      12.721  -8.056  -3.985  1.00  0.00     0.023 A 
ATOM     83  C   UNL     1      12.958  -9.217  -4.747  1.00  0.00     0.012 A 
ATOM     84  C   UNL     1      12.110  -6.945  -4.596  1.00  0.00     0.148 A 
ATOM     85  C   UNL     1      12.625  -9.258  -6.101  1.00  0.00     0.002 A 
ATOM     86  C   UNL     1      11.727  -7.014  -5.931  1.00  0.00     0.091 A 
ATOM     87  F   UNL     1      11.898  -5.850  -3.854  1.00  0.00    -0.205 F 
ATOM     88  C   UNL     1      12.001  -8.162  -6.690  1.00  0.00     0.022 A 
BRANCH  86  89
ATOM     89  S   UNL     1      10.803  -5.703  -6.739  1.00  0.00     0.127 S 
ATOM     90  O   UNL     1      11.766  -5.224  -7.728  1.00  0.00    -0.237 OA
ATOM     91  O   UNL     1       9.665  -6.439  -7.292  1.00  0.00    -0.237 OA
ATOM     92  O   UNL     1      10.455  -4.757  -5.688  1.00  0.00    -0.744 OA
ENDBRANCH  86  89
ENDBRANCH  58  82
BRANCH  70  93
ATOM     93  C   UNL     1      18.811  -8.408  -0.579  1.00  0.00     0.023 A 
ATOM     94  C   UNL     1      19.475  -7.360  -1.245  1.00  0.00     0.012 A 
ATOM     95  C   UNL     1      19.514  -9.594  -0.284  1.00  0.00     0.148 A 
ATOM     96  C   UNL     1      20.803  -7.503  -1.645  1.00  0.00     0.002 A 
ATOM     97  C   UNL     1      20.853  -9.708  -0.635  1.00  0.00     0.091 A 
ATOM     98  F   UNL     1      18.860 -10.588   0.335  1.00  0.00    -0.205 F 
ATOM     99  C   UNL     1      21.495  -8.670  -1.329  1.00  0.00     0.022 A 
BRANCH  97 100
ATOM    100  S   UNL     1      21.851 -11.131  -0.182  1.00  0.00     0.127 S 
ATOM    101  O   UNL     1      22.062 -11.772  -1.479  1.00  0.00    -0.237 OA
ATOM    102  O   UNL     1      23.043 -10.503   0.389  1.00  0.00    -0.237 OA
ATOM    103  O   UNL     1      21.055 -11.896   0.769  1.00  0.00    -0.744 OA
ENDBRANCH  97 100
ENDBRANCH  70  93
ENDBRANCH  44  45
ENDBRANCH  36  39
ENDBRANCH  34  35
ENDBRANCH  33  34
ENDBRANCH   1  33
TORSDOF 19
