REMARK SMILES O=C(NCCCCNC(=O)[C@H](c1c[nH]c2cc(F)ccc12)[NH+]1CC[NH+](CC(=O)N2CCOCC2)CC1)c1ccc(-c2c3nc(c(-c4cccc(S(=O)(=O)[O-])c4F)c4ccc([nH]4)c(-c4cccc(S(=O)(=O)[O-])c4F)c4nc(c(-c5cccc(S(=O)(=O)[O-])c5F)c5ccc2[nH]5)C=C4)C=C3)cc1
REMARK SMILES IDX 5 1 4 2 3 3 1 4 2 5 37 7 38 8 99 9 39 10 98 11 40 12 41 13
REMARK SMILES IDX 42 14 92 15 43 16 97 17 91 18 93 19 44 20 96 21 90 22 89 23
REMARK SMILES IDX 45 25 77 26 57 27 76 28 58 29 61 30 75 31 94 32 59 33 60 34
REMARK SMILES IDX 74 36 95 37 62 38 46 39 47 40 55 41 48 42 50 43 56 44 49 45
REMARK SMILES IDX 51 46 52 47 53 48 54 49 78 50 79 51 87 52 80 53 82 54 88 55
REMARK SMILES IDX 81 56 83 57 84 58 85 59 86 60 63 61 64 62 72 63 65 64 67 65
REMARK SMILES IDX 73 66 66 67 68 68 69 69 70 70 71 71 6 72 7 73 8 74 9 75
REMARK SMILES IDX 10 77 11 78 22 79 23 80 36 81 24 83 35 84 25 85 26 87 27 88
REMARK SMILES IDX 28 89 29 90 30 91 34 92 31 93 33 94 32 95 12 96 13 97 21 98
REMARK SMILES IDX 14 99 15 100 20 101 16 103 19 104 17 105 18 106
REMARK H PARENT 3 6 93 24 61 35 8 76 22 82 25 86 14 102
REMARK Flexibility Score: inf
ROOT
ATOM      1  C   UNL     1       4.752   4.365 -10.378  1.00  0.00     0.023 C 
ENDROOT
BRANCH   1   2
ATOM      2  C   UNL     1       3.391   5.002 -10.095  1.00  0.00     0.116 C 
BRANCH   2   3
ATOM      3  N   UNL     1       3.317   6.443 -10.300  1.00  0.00    -0.352 N 
ATOM      4  O   UNL     1       2.408   8.410 -10.928  1.00  0.00    -0.269 OA
ATOM      5  C   UNL     1       2.314   7.192 -10.897  1.00  0.00     0.251 C 
ATOM      6  H   UNL     1       4.088   6.957  -9.968  1.00  0.00     0.163 HD
BRANCH   5   7
ATOM      7  C   UNL     1       1.167   6.505 -11.546  1.00  0.00     0.039 A 
ATOM      8  C   UNL     1       0.470   5.495 -10.887  1.00  0.00     0.014 A 
ATOM      9  C   UNL     1       0.847   6.824 -12.870  1.00  0.00     0.014 A 
ATOM     10  C   UNL     1      -0.373   4.658 -11.615  1.00  0.00     0.010 A 
ATOM     11  C   UNL     1      -0.071   6.034 -13.576  1.00  0.00     0.010 A 
ATOM     12  C   UNL     1      -0.630   4.896 -12.978  1.00  0.00    -0.014 A 
BRANCH  12  13
ATOM     13  C   UNL     1      -1.472   3.930 -13.740  1.00  0.00     0.031 A 
ATOM     14  C   UNL     1      -0.907   3.126 -14.887  1.00  0.00     0.074 A 
ATOM     15  C   UNL     1      -2.748   3.732 -13.356  1.00  0.00     0.049 A 
ATOM     16  N   UNL     1      -1.480   2.180 -15.590  1.00  0.00    -0.248 NA
ATOM     17  C   UNL     1       0.473   3.422 -15.308  1.00  0.00     0.031 C 
ATOM     18  C   UNL     1      -3.431   4.482 -12.300  1.00  0.00     0.029 A 
ATOM     19  N   UNL     1      -3.694   2.842 -13.798  1.00  0.00    -0.354 N 
ATOM     20  C   UNL     1      -0.549   1.789 -16.547  1.00  0.00     0.074 A 
ATOM     21  C   UNL     1       0.624   2.612 -16.349  1.00  0.00     0.031 C 
ATOM     22  C   UNL     1      -4.674   4.001 -12.154  1.00  0.00     0.029 A 
ATOM     23  C   UNL     1      -4.891   2.936 -13.127  1.00  0.00     0.049 A 
ATOM     24  H   UNL     1      -3.531   2.197 -14.524  1.00  0.00     0.167 HD
ATOM     25  C   UNL     1      -0.648   0.817 -17.488  1.00  0.00     0.034 A 
ATOM     26  C   UNL     1      -6.040   2.248 -13.277  1.00  0.00     0.034 A 
ATOM     27  C   UNL     1      -1.800  -0.030 -17.662  1.00  0.00     0.049 A 
ATOM     28  C   UNL     1      -6.101   1.138 -14.287  1.00  0.00     0.074 A 
ATOM     29  C   UNL     1      -1.979  -1.067 -18.562  1.00  0.00     0.029 A 
ATOM     30  N   UNL     1      -2.969   0.057 -16.921  1.00  0.00    -0.354 N 
ATOM     31  N   UNL     1      -5.165   0.708 -15.097  1.00  0.00    -0.248 NA
ATOM     32  C   UNL     1      -7.366   0.395 -14.380  1.00  0.00     0.031 C 
ATOM     33  C   UNL     1      -3.257  -1.604 -18.368  1.00  0.00     0.029 A 
ATOM     34  C   UNL     1      -3.870  -0.909 -17.340  1.00  0.00     0.049 A 
ATOM     35  H   UNL     1      -3.134   0.709 -16.202  1.00  0.00     0.167 HD
ATOM     36  C   UNL     1      -5.722  -0.359 -15.790  1.00  0.00     0.074 A 
ATOM     37  C   UNL     1      -7.063  -0.539 -15.270  1.00  0.00     0.031 C 
ATOM     38  C   UNL     1      -5.186  -1.103 -16.788  1.00  0.00     0.034 A 
BRANCH  25  39
ATOM     39  C   UNL     1       0.547   0.563 -18.373  1.00  0.00     0.023 A 
ATOM     40  C   UNL     1       1.664  -0.115 -17.842  1.00  0.00     0.012 A 
ATOM     41  C   UNL     1       0.533   0.902 -19.741  1.00  0.00     0.148 A 
ATOM     42  C   UNL     1       2.755  -0.432 -18.651  1.00  0.00     0.002 A 
ATOM     43  C   UNL     1       1.611   0.551 -20.549  1.00  0.00     0.091 A 
ATOM     44  F   UNL     1      -0.529   1.561 -20.226  1.00  0.00    -0.205 F 
ATOM     45  C   UNL     1       2.724  -0.109 -20.004  1.00  0.00     0.022 A 
BRANCH  43  46
ATOM     46  S   UNL     1       1.638   0.856 -22.321  1.00  0.00     0.127 S 
ATOM     47  O   UNL     1       2.629   1.927 -22.419  1.00  0.00    -0.237 OA
ATOM     48  O   UNL     1       2.082  -0.434 -22.850  1.00  0.00    -0.237 OA
ATOM     49  O   UNL     1       0.278   1.226 -22.685  1.00  0.00    -0.744 OA
ENDBRANCH  43  46
ENDBRANCH  25  39
BRANCH  26  50
ATOM     50  C   UNL     1      -7.202   2.567 -12.402  1.00  0.00     0.023 A 
ATOM     51  C   UNL     1      -7.607   1.650 -11.414  1.00  0.00     0.012 A 
ATOM     52  C   UNL     1      -7.868   3.803 -12.505  1.00  0.00     0.148 A 
ATOM     53  C   UNL     1      -8.667   1.952 -10.557  1.00  0.00     0.002 A 
ATOM     54  C   UNL     1      -8.878   4.124 -11.607  1.00  0.00     0.091 A 
ATOM     55  F   UNL     1      -7.487   4.655 -13.468  1.00  0.00    -0.205 F 
ATOM     56  C   UNL     1      -9.292   3.194 -10.643  1.00  0.00     0.022 A 
BRANCH  54  57
ATOM     57  S   UNL     1      -9.601   5.768 -11.559  1.00  0.00     0.127 S 
ATOM     58  O   UNL     1     -10.824   5.582 -12.335  1.00  0.00    -0.237 OA
ATOM     59  O   UNL     1      -9.807   5.977 -10.125  1.00  0.00    -0.237 OA
ATOM     60  O   UNL     1      -8.592   6.641 -12.145  1.00  0.00    -0.744 OA
ENDBRANCH  54  57
ENDBRANCH  26  50
BRANCH  38  61
ATOM     61  C   UNL     1      -6.054  -2.178 -17.386  1.00  0.00     0.023 A 
ATOM     62  C   UNL     1      -7.124  -1.813 -18.227  1.00  0.00     0.012 A 
ATOM     63  C   UNL     1      -5.794  -3.541 -17.149  1.00  0.00     0.148 A 
ATOM     64  C   UNL     1      -7.947  -2.786 -18.792  1.00  0.00     0.002 A 
ATOM     65  C   UNL     1      -6.593  -4.508 -17.750  1.00  0.00     0.091 A 
ATOM     66  F   UNL     1      -4.786  -3.871 -16.329  1.00  0.00    -0.205 F 
ATOM     67  C   UNL     1      -7.676  -4.132 -18.562  1.00  0.00     0.022 A 
BRANCH  65  68
ATOM     68  S   UNL     1      -6.263  -6.265 -17.568  1.00  0.00     0.127 S 
ATOM     69  O   UNL     1      -7.238  -6.648 -16.549  1.00  0.00    -0.237 OA
ATOM     70  O   UNL     1      -6.548  -6.780 -18.908  1.00  0.00    -0.237 OA
ATOM     71  O   UNL     1      -4.864  -6.363 -17.174  1.00  0.00    -0.744 OA
ENDBRANCH  65  68
ENDBRANCH  38  61
ENDBRANCH  12  13
ENDBRANCH   5   7
ENDBRANCH   2   3
ENDBRANCH   1   2
BRANCH   1  72
ATOM     72  C   UNL     1       5.956   4.842  -9.564  1.00  0.00     0.023 C 
BRANCH  72  73
ATOM     73  C   UNL     1       5.839   4.787  -8.044  1.00  0.00     0.116 C 
BRANCH  73  74
ATOM     74  N   UNL     1       5.763   3.470  -7.442  1.00  0.00    -0.351 N 
ATOM     75  C   UNL     1       6.031   3.053  -6.150  1.00  0.00     0.283 C 
ATOM     76  H   UNL     1       5.474   2.754  -8.053  1.00  0.00     0.163 HD
ATOM     77  O   UNL     1       5.620   1.916  -5.882  1.00  0.00    -0.268 OA
BRANCH  75  78
ATOM     78  C   UNL     1       6.812   3.963  -5.090  1.00  0.00     0.308 C 
BRANCH  78  79
ATOM     79  N   UNL     1       5.867   4.768  -4.255  1.00  0.00    -0.312 N 
ATOM     80  C   UNL     1       6.449   5.608  -3.172  1.00  0.00     0.325 C 
ATOM     81  C   UNL     1       4.995   5.623  -5.039  1.00  0.00     0.325 C 
ATOM     82  H   UNL     1       5.351   4.015  -3.800  1.00  0.00     0.349 HD
ATOM     83  C   UNL     1       6.663   7.158  -3.391  1.00  0.00     0.325 C 
ATOM     84  C   UNL     1       5.769   6.841  -5.592  1.00  0.00     0.325 C 
ATOM     85  N   UNL     1       6.065   7.815  -4.564  1.00  0.00    -0.318 N 
ATOM     86  H   UNL     1       6.794   8.440  -4.909  1.00  0.00     0.348 HD
BRANCH  85  87
ATOM     87  C   UNL     1       5.003   8.814  -4.331  1.00  0.00     0.364 C 
BRANCH  87  88
ATOM     88  C   UNL     1       3.641   8.273  -3.864  1.00  0.00     0.277 C 
ATOM     89  O   UNL     1       3.464   8.067  -2.657  1.00  0.00    -0.268 OA
ATOM     90  N   UNL     1       2.628   8.018  -4.801  1.00  0.00    -0.333 N 
ATOM     91  C   UNL     1       2.814   7.915  -6.257  1.00  0.00     0.148 C 
ATOM     92  C   UNL     1       1.407   7.376  -4.294  1.00  0.00     0.148 C 
ATOM     93  C   UNL     1       1.532   8.021  -7.083  1.00  0.00     0.181 C 
ATOM     94  C   UNL     1       0.202   7.553  -5.220  1.00  0.00     0.181 C 
ATOM     95  O   UNL     1       0.523   7.156  -6.558  1.00  0.00    -0.378 OA
ENDBRANCH  87  88
ENDBRANCH  85  87
ENDBRANCH  78  79
BRANCH  78  96
ATOM     96  C   UNL     1       7.603   3.065  -4.143  1.00  0.00     0.044 A 
ATOM     97  C   UNL     1       7.073   2.187  -3.208  1.00  0.00     0.094 A 
ATOM     98  C   UNL     1       9.028   3.022  -3.967  1.00  0.00     0.009 A 
ATOM     99  N   UNL     1       8.091   1.644  -2.481  1.00  0.00    -0.361 N 
ATOM    100  C   UNL     1       9.294   2.155  -2.901  1.00  0.00     0.049 A 
ATOM    101  C   UNL     1      10.117   3.672  -4.588  1.00  0.00     0.014 A 
ATOM    102  H   UNL     1       7.979   0.982  -1.761  1.00  0.00     0.166 HD
ATOM    103  C   UNL     1      10.586   1.922  -2.415  1.00  0.00     0.065 A 
ATOM    104  C   UNL     1      11.417   3.443  -4.119  1.00  0.00     0.040 A 
ATOM    105  C   UNL     1      11.633   2.588  -3.046  1.00  0.00     0.125 A 
ATOM    106  F   UNL     1      12.884   2.401  -2.602  1.00  0.00    -0.207 F 
ENDBRANCH  78  96
ENDBRANCH  75  78
ENDBRANCH  73  74
ENDBRANCH  72  73
ENDBRANCH   1  72
TORSDOF 18
