REMARK SMILES Cc1ccc2[nH]cc([C@@H](C(=O)NCCCCNC(=O)c3ccc(-c4c5nc(c(-c6cccc(S(=O)(=O)[O-])c6F)c6ccc([nH]6)c(-c6cccc(S(=O)(=O)[O-])c6F)c6nc(c(-c7cccc(S(=O)(=O)[O-])c7F)c7ccc4[nH]7)C=C6)C=C5)cc3)[NH+]3CCN(c4ccc(F)cc4)CC3)c2c1
REMARK SMILES IDX 15 1 14 2 13 3 12 4 10 5 11 6 9 8 8 9 1 10 2 11 3 12 97 13
REMARK SMILES IDX 4 14 96 15 5 16 6 17 7 18 83 20 84 21 95 22 85 24 94 25
REMARK SMILES IDX 86 26 87 27 88 28 93 29 89 30 92 31 90 32 91 33 16 34 17 35
REMARK SMILES IDX 18 36 19 38 20 39 21 40 82 41 22 42 81 43 23 44 24 45 25 46
REMARK SMILES IDX 75 47 26 48 80 49 74 50 76 51 27 52 79 53 73 54 72 55 28 57
REMARK SMILES IDX 60 58 40 59 59 60 41 61 44 62 58 63 77 64 42 65 43 66 57 68
REMARK SMILES IDX 78 69 45 70 29 71 30 72 38 73 31 74 33 75 39 76 32 77 34 78
REMARK SMILES IDX 35 79 36 80 37 81 61 82 62 83 70 84 63 85 65 86 71 87 64 88
REMARK SMILES IDX 66 89 67 90 68 91 69 92 46 93 47 94 55 95 48 96 50 97 56 98
REMARK SMILES IDX 49 99 51 100 52 101 53 102 54 103
REMARK H PARENT 12 7 6 19 83 23 17 37 76 56 44 67
REMARK Flexibility Score: inf
ROOT
ATOM      1  C   UNL     1      -1.488  -1.111   4.869  1.00  0.00     0.023 C 
ENDROOT
BRANCH   1   2
ATOM      2  C   UNL     1      -0.869  -1.178   3.477  1.00  0.00     0.023 C 
BRANCH   2   3
ATOM      3  C   UNL     1      -0.723  -2.586   2.903  1.00  0.00     0.116 C 
BRANCH   3   4
ATOM      4  N   UNL     1      -2.004  -3.176   2.576  1.00  0.00    -0.351 N 
ATOM      5  C   UNL     1      -2.665  -3.206   1.373  1.00  0.00     0.283 C 
ATOM      6  O   UNL     1      -3.766  -3.766   1.380  1.00  0.00    -0.268 OA
ATOM      7  H   UNL     1      -2.467  -3.619   3.323  1.00  0.00     0.163 HD
BRANCH   5   8
ATOM      8  C   UNL     1      -1.982  -2.621   0.088  1.00  0.00     0.307 C 
BRANCH   8   9
ATOM      9  C   UNL     1      -1.709  -1.139   0.181  1.00  0.00     0.044 A 
ATOM     10  C   UNL     1       3.383  -0.633  -0.233  1.00  0.00     0.044 C 
ATOM     11  C   UNL     1       1.983  -0.096  -0.148  1.00  0.00    -0.050 A 
ATOM     12  C   UNL     1       1.752   1.274  -0.002  1.00  0.00     0.005 A 
ATOM     13  C   UNL     1       0.897  -0.987  -0.156  1.00  0.00     0.014 A 
ATOM     14  C   UNL     1       0.459   1.780   0.174  1.00  0.00     0.027 A 
ATOM     15  C   UNL     1      -0.417  -0.507   0.050  1.00  0.00     0.009 A 
ATOM     16  C   UNL     1      -0.596   0.864   0.225  1.00  0.00     0.046 A 
ATOM     17  N   UNL     1      -1.932   1.070   0.472  1.00  0.00    -0.361 N 
ATOM     18  C   UNL     1      -2.593  -0.127   0.515  1.00  0.00     0.094 A 
ATOM     19  H   UNL     1      -2.352   1.951   0.600  1.00  0.00     0.166 HD
ENDBRANCH   8   9
BRANCH   8  20
ATOM     20  N   UNL     1      -2.673  -3.018  -1.164  1.00  0.00    -0.318 N 
ATOM     21  C   UNL     1      -4.074  -2.608  -1.352  1.00  0.00     0.284 C 
ATOM     22  C   UNL     1      -1.905  -2.797  -2.399  1.00  0.00     0.284 C 
ATOM     23  H   UNL     1      -2.726  -4.021  -0.986  1.00  0.00     0.349 HD
ATOM     24  C   UNL     1      -4.344  -1.263  -2.059  1.00  0.00     0.178 C 
ATOM     25  C   UNL     1      -2.063  -1.415  -3.074  1.00  0.00     0.178 C 
ATOM     26  N   UNL     1      -3.479  -1.048  -3.227  1.00  0.00    -0.360 N 
BRANCH  26  27
ATOM     27  C   UNL     1      -3.707   0.115  -3.964  1.00  0.00     0.037 A 
ATOM     28  C   UNL     1      -3.852   1.377  -3.365  1.00  0.00     0.029 A 
ATOM     29  C   UNL     1      -3.796   0.026  -5.359  1.00  0.00     0.029 A 
ATOM     30  C   UNL     1      -4.119   2.511  -4.135  1.00  0.00     0.041 A 
ATOM     31  C   UNL     1      -4.066   1.155  -6.133  1.00  0.00     0.041 A 
ATOM     32  C   UNL     1      -4.232   2.386  -5.513  1.00  0.00     0.123 A 
ATOM     33  F   UNL     1      -4.505   3.469  -6.253  1.00  0.00    -0.207 F 
ENDBRANCH  26  27
ENDBRANCH   8  20
ENDBRANCH   5   8
ENDBRANCH   3   4
ENDBRANCH   2   3
ENDBRANCH   1   2
BRANCH   1  34
ATOM     34  C   UNL     1      -0.735  -1.892   5.931  1.00  0.00     0.116 C 
BRANCH  34  35
ATOM     35  N   UNL     1       0.665  -1.509   6.032  1.00  0.00    -0.352 N 
ATOM     36  C   UNL     1       1.444  -1.416   7.161  1.00  0.00     0.251 C 
ATOM     37  H   UNL     1       1.112  -1.288   5.183  1.00  0.00     0.163 HD
ATOM     38  O   UNL     1       2.576  -0.962   7.100  1.00  0.00    -0.269 OA
BRANCH  36  39
ATOM     39  C   UNL     1       0.869  -1.843   8.454  1.00  0.00     0.039 A 
ATOM     40  C   UNL     1       0.977  -0.990   9.553  1.00  0.00     0.014 A 
ATOM     41  C   UNL     1       0.181  -3.055   8.558  1.00  0.00     0.014 A 
ATOM     42  C   UNL     1       0.348  -1.334  10.750  1.00  0.00     0.010 A 
ATOM     43  C   UNL     1      -0.517  -3.351   9.721  1.00  0.00     0.010 A 
ATOM     44  C   UNL     1      -0.427  -2.503  10.834  1.00  0.00    -0.014 A 
BRANCH  44  45
ATOM     45  C   UNL     1      -1.138  -2.866  12.084  1.00  0.00     0.031 A 
ATOM     46  C   UNL     1      -0.779  -4.134  12.810  1.00  0.00     0.074 A 
ATOM     47  C   UNL     1      -2.157  -2.100  12.518  1.00  0.00     0.049 A 
ATOM     48  N   UNL     1      -1.305  -4.639  13.895  1.00  0.00    -0.248 NA
ATOM     49  C   UNL     1       0.289  -4.963  12.223  1.00  0.00     0.031 C 
ATOM     50  C   UNL     1      -2.661  -0.899  11.846  1.00  0.00     0.029 A 
ATOM     51  N   UNL     1      -2.968  -2.230  13.617  1.00  0.00    -0.354 N 
ATOM     52  C   UNL     1      -0.663  -5.854  14.098  1.00  0.00     0.074 A 
ATOM     53  C   UNL     1       0.262  -6.034  13.001  1.00  0.00     0.031 C 
ATOM     54  C   UNL     1      -3.688  -0.398  12.553  1.00  0.00     0.029 A 
ATOM     55  C   UNL     1      -3.929  -1.250  13.713  1.00  0.00     0.049 A 
ATOM     56  H   UNL     1      -2.872  -2.956  14.274  1.00  0.00     0.167 HD
ATOM     57  C   UNL     1      -0.802  -6.726  15.124  1.00  0.00     0.034 A 
ATOM     58  C   UNL     1      -4.892  -1.060  14.635  1.00  0.00     0.034 A 
ATOM     59  C   UNL     1      -1.681  -6.514  16.241  1.00  0.00     0.049 A 
ATOM     60  C   UNL     1      -4.976  -2.005  15.804  1.00  0.00     0.074 A 
ATOM     61  C   UNL     1      -1.827  -7.286  17.379  1.00  0.00     0.029 A 
ATOM     62  N   UNL     1      -2.564  -5.453  16.359  1.00  0.00    -0.354 N 
ATOM     63  N   UNL     1      -4.242  -3.058  16.068  1.00  0.00    -0.248 NA
ATOM     64  C   UNL     1      -5.992  -1.710  16.825  1.00  0.00     0.031 C 
ATOM     65  C   UNL     1      -2.812  -6.698  18.180  1.00  0.00     0.029 A 
ATOM     66  C   UNL     1      -3.262  -5.548  17.550  1.00  0.00     0.049 A 
ATOM     67  H   UNL     1      -2.679  -4.737  15.694  1.00  0.00     0.167 HD
ATOM     68  C   UNL     1      -4.678  -3.529  17.301  1.00  0.00     0.074 A 
ATOM     69  C   UNL     1      -5.727  -2.631  17.741  1.00  0.00     0.031 C 
ATOM     70  C   UNL     1      -4.261  -4.614  18.000  1.00  0.00     0.034 A 
BRANCH  57  71
ATOM     71  C   UNL     1       0.066  -7.957  15.116  1.00  0.00     0.023 A 
ATOM     72  C   UNL     1       1.451  -7.832  15.353  1.00  0.00     0.012 A 
ATOM     73  C   UNL     1      -0.488  -9.237  14.925  1.00  0.00     0.148 A 
ATOM     74  C   UNL     1       2.276  -8.955  15.362  1.00  0.00     0.002 A 
ATOM     75  C   UNL     1       0.334 -10.357  14.982  1.00  0.00     0.091 A 
ATOM     76  F   UNL     1      -1.802  -9.336  14.678  1.00  0.00    -0.205 F 
ATOM     77  C   UNL     1       1.717 -10.217  15.188  1.00  0.00     0.022 A 
BRANCH  75  78
ATOM     78  S   UNL     1      -0.301 -12.032  14.850  1.00  0.00     0.127 S 
ATOM     79  O   UNL     1       0.185 -12.429  13.530  1.00  0.00    -0.237 OA
ATOM     80  O   UNL     1       0.362 -12.702  15.970  1.00  0.00    -0.237 OA
ATOM     81  O   UNL     1      -1.747 -11.924  14.979  1.00  0.00    -0.744 OA
ENDBRANCH  75  78
ENDBRANCH  57  71
BRANCH  58  82
ATOM     82  C   UNL     1      -5.795   0.121  14.536  1.00  0.00     0.023 A 
ATOM     83  C   UNL     1      -5.655   1.176  15.460  1.00  0.00     0.012 A 
ATOM     84  C   UNL     1      -6.766   0.222  13.521  1.00  0.00     0.148 A 
ATOM     85  C   UNL     1      -6.489   2.293  15.397  1.00  0.00     0.002 A 
ATOM     86  C   UNL     1      -7.556   1.363  13.431  1.00  0.00     0.091 A 
ATOM     87  F   UNL     1      -6.891  -0.796  12.658  1.00  0.00    -0.205 F 
ATOM     88  C   UNL     1      -7.432   2.391  14.378  1.00  0.00     0.022 A 
BRANCH  86  89
ATOM     89  S   UNL     1      -8.703   1.633  12.075  1.00  0.00     0.127 S 
ATOM     90  O   UNL     1      -9.994   1.463  12.736  1.00  0.00    -0.237 OA
ATOM     91  O   UNL     1      -8.388   3.007  11.681  1.00  0.00    -0.237 OA
ATOM     92  O   UNL     1      -8.366   0.632  11.072  1.00  0.00    -0.744 OA
ENDBRANCH  86  89
ENDBRANCH  58  82
BRANCH  70  93
ATOM     93  C   UNL     1      -4.908  -4.875  19.334  1.00  0.00     0.023 A 
ATOM     94  C   UNL     1      -6.233  -5.350  19.390  1.00  0.00     0.012 A 
ATOM     95  C   UNL     1      -4.178  -4.718  20.528  1.00  0.00     0.148 A 
ATOM     96  C   UNL     1      -6.833  -5.630  20.616  1.00  0.00     0.002 A 
ATOM     97  C   UNL     1      -4.766  -5.047  21.744  1.00  0.00     0.091 A 
ATOM     98  F   UNL     1      -2.925  -4.246  20.456  1.00  0.00    -0.205 F 
ATOM     99  C   UNL     1      -6.097  -5.491  21.791  1.00  0.00     0.022 A 
BRANCH  97 100
ATOM    100  S   UNL     1      -3.858  -4.990  23.292  1.00  0.00     0.127 S 
ATOM    101  O   UNL     1      -4.383  -3.770  23.902  1.00  0.00    -0.237 OA
ATOM    102  O   UNL     1      -4.279  -6.230  23.947  1.00  0.00    -0.237 OA
ATOM    103  O   UNL     1      -2.448  -4.954  22.926  1.00  0.00    -0.744 OA
ENDBRANCH  97 100
ENDBRANCH  70  93
ENDBRANCH  44  45
ENDBRANCH  36  39
ENDBRANCH  34  35
ENDBRANCH   1  34
TORSDOF 17
