REMARK SMILES CCN(C1CC1)S(=O)(=O)c1ccc(F)c(C(=O)NCCCCNC(=O)c2ccc(-c3c4nc(c(-c5cccc(S(=O)(=O)[O-])c5F)c5ccc([nH]5)c(-c5cccc(S(=O)(=O)[O-])c5F)c5nc(c(-c6cccc(S(=O)(=O)[O-])c6F)c6ccc3[nH]6)C=C5)C=C4)cc2)c1F
REMARK SMILES IDX 20 1 19 2 18 3 16 4 17 5 15 7 10 8 11 9 89 10 12 11 90 12
REMARK SMILES IDX 13 13 14 14 7 15 8 16 9 17 3 18 2 19 1 20 4 21 5 22 6 23
REMARK SMILES IDX 21 24 22 25 23 26 24 27 25 29 26 30 27 31 88 32 28 33 87 34
REMARK SMILES IDX 29 35 30 36 31 37 81 38 32 39 86 40 80 41 82 42 33 43 85 44
REMARK SMILES IDX 79 45 78 46 34 48 66 49 46 50 65 51 47 52 50 53 64 54 83 55
REMARK SMILES IDX 48 56 49 57 63 59 84 60 51 61 35 62 36 63 44 64 37 65 39 66
REMARK SMILES IDX 45 67 38 68 40 69 41 70 42 71 43 72 67 73 68 74 76 75 69 76
REMARK SMILES IDX 71 77 77 78 70 79 72 80 73 81 74 82 75 83 52 84 53 85 61 86
REMARK SMILES IDX 54 87 56 88 62 89 55 90 57 91 58 92 59 93 60 94
REMARK H PARENT 18 6 23 28 82 47 50 58
REMARK Flexibility Score: inf
ROOT
ATOM      1  C   UNL     1       4.813   7.005   6.438  1.00  0.00     0.023 C 
ENDROOT
BRANCH   1   2
ATOM      2  C   UNL     1       3.387   6.465   6.279  1.00  0.00     0.116 C 
BRANCH   2   3
ATOM      3  N   UNL     1       3.031   6.364   4.877  1.00  0.00    -0.352 N 
ATOM      4  C   UNL     1       3.078   5.343   3.961  1.00  0.00     0.257 C 
ATOM      5  O   UNL     1       2.762   5.638   2.808  1.00  0.00    -0.269 OA
ATOM      6  H   UNL     1       2.683   7.205   4.503  1.00  0.00     0.163 HD
BRANCH   4   7
ATOM      7  C   UNL     1       3.445   3.933   4.260  1.00  0.00     0.112 A 
ATOM      8  C   UNL     1       3.267   1.591   3.599  1.00  0.00     0.119 A 
ATOM      9  C   UNL     1       4.124   1.203   4.628  1.00  0.00     0.028 A 
ATOM     10  C   UNL     1       2.912   2.930   3.427  1.00  0.00     0.158 A 
ATOM     11  C   UNL     1       4.665   2.180   5.450  1.00  0.00     0.042 A 
ATOM     12  F   UNL     1       2.037   3.240   2.459  1.00  0.00    -0.205 F 
ATOM     13  C   UNL     1       4.354   3.526   5.240  1.00  0.00     0.139 A 
ATOM     14  F   UNL     1       5.031   4.391   5.997  1.00  0.00    -0.206 F 
BRANCH   8  15
ATOM     15  S   UNL     1       2.745   0.386   2.415  1.00  0.00     0.246 S 
ATOM     16  O   UNL     1       3.092  -0.919   2.952  1.00  0.00    -0.207 OA
ATOM     17  O   UNL     1       3.293   0.813   1.147  1.00  0.00    -0.207 OA
BRANCH  15  18
ATOM     18  N   UNL     1       1.019   0.457   2.379  1.00  0.00    -0.195 NA
BRANCH  18  19
ATOM     19  C   UNL     1       0.417  -0.403   1.308  1.00  0.00     0.099 C 
ATOM     20  C   UNL     1       0.700   0.105  -0.096  1.00  0.00     0.022 C 
ENDBRANCH  18  19
BRANCH  18  21
ATOM     21  C   UNL     1       0.393   0.301   3.729  1.00  0.00     0.073 C 
ATOM     22  C   UNL     1      -1.091   0.249   3.965  1.00  0.00     0.022 C 
ATOM     23  C   UNL     1      -0.245  -0.969   4.218  1.00  0.00     0.022 C 
ENDBRANCH  18  21
ENDBRANCH  15  18
ENDBRANCH   8  15
ENDBRANCH   4   7
ENDBRANCH   2   3
ENDBRANCH   1   2
BRANCH   1  24
ATOM     24  C   UNL     1       4.947   8.525   6.321  1.00  0.00     0.023 C 
BRANCH  24  25
ATOM     25  C   UNL     1       4.260   9.325   7.423  1.00  0.00     0.116 C 
BRANCH  25  26
ATOM     26  N   UNL     1       4.710   8.970   8.762  1.00  0.00    -0.352 N 
ATOM     27  C   UNL     1       4.802   9.770   9.875  1.00  0.00     0.251 C 
ATOM     28  H   UNL     1       4.984   8.032   8.886  1.00  0.00     0.163 HD
ATOM     29  O   UNL     1       5.289   9.330  10.912  1.00  0.00    -0.269 OA
BRANCH  27  30
ATOM     30  C   UNL     1       4.352  11.175   9.800  1.00  0.00     0.039 A 
ATOM     31  C   UNL     1       5.211  12.181  10.250  1.00  0.00     0.014 A 
ATOM     32  C   UNL     1       3.109  11.501   9.251  1.00  0.00     0.014 A 
ATOM     33  C   UNL     1       4.855  13.520  10.081  1.00  0.00     0.010 A 
ATOM     34  C   UNL     1       2.784  12.835   9.027  1.00  0.00     0.010 A 
ATOM     35  C   UNL     1       3.655  13.857   9.432  1.00  0.00    -0.014 A 
BRANCH  35  36
ATOM     36  C   UNL     1       3.314  15.269   9.130  1.00  0.00     0.031 A 
ATOM     37  C   UNL     1       2.110  15.913   9.759  1.00  0.00     0.074 A 
ATOM     38  C   UNL     1       4.032  15.936   8.204  1.00  0.00     0.049 A 
ATOM     39  N   UNL     1       1.625  17.111   9.568  1.00  0.00    -0.248 NA
ATOM     40  C   UNL     1       1.334  15.094  10.705  1.00  0.00     0.031 C 
ATOM     41  C   UNL     1       5.166  15.388   7.457  1.00  0.00     0.029 A 
ATOM     42  N   UNL     1       3.894  17.209   7.711  1.00  0.00    -0.354 N 
ATOM     43  C   UNL     1       0.472  17.181  10.339  1.00  0.00     0.074 A 
ATOM     44  C   UNL     1       0.313  15.893  10.979  1.00  0.00     0.031 C 
ATOM     45  C   UNL     1       5.620  16.317   6.602  1.00  0.00     0.029 A 
ATOM     46  C   UNL     1       4.799  17.518   6.721  1.00  0.00     0.049 A 
ATOM     47  H   UNL     1       3.213  17.842   8.035  1.00  0.00     0.167 HD
ATOM     48  C   UNL     1      -0.362  18.233  10.524  1.00  0.00     0.034 A 
ATOM     49  C   UNL     1       4.948  18.640   5.991  1.00  0.00     0.034 A 
ATOM     50  C   UNL     1      -0.171  19.527   9.927  1.00  0.00     0.049 A 
ATOM     51  C   UNL     1       4.041  19.810   6.256  1.00  0.00     0.074 A 
ATOM     52  C   UNL     1      -0.899  20.686  10.135  1.00  0.00     0.029 A 
ATOM     53  N   UNL     1       0.815  19.834   9.003  1.00  0.00    -0.354 N 
ATOM     54  N   UNL     1       3.065  19.916   7.125  1.00  0.00    -0.248 NA
ATOM     55  C   UNL     1       4.279  21.028   5.467  1.00  0.00     0.031 C 
ATOM     56  C   UNL     1      -0.359  21.692   9.326  1.00  0.00     0.029 A 
ATOM     57  C   UNL     1       0.711  21.162   8.623  1.00  0.00     0.049 A 
ATOM     58  H   UNL     1       1.490  19.202   8.666  1.00  0.00     0.167 HD
ATOM     59  C   UNL     1       2.590  21.217   7.008  1.00  0.00     0.074 A 
ATOM     60  C   UNL     1       3.404  21.870   6.002  1.00  0.00     0.031 C 
ATOM     61  C   UNL     1       1.561  21.812   7.659  1.00  0.00     0.034 A 
BRANCH  48  62
ATOM     62  C   UNL     1      -1.520  18.047  11.467  1.00  0.00     0.023 A 
ATOM     63  C   UNL     1      -1.276  17.987  12.855  1.00  0.00     0.012 A 
ATOM     64  C   UNL     1      -2.846  17.988  10.996  1.00  0.00     0.148 A 
ATOM     65  C   UNL     1      -2.329  17.841  13.757  1.00  0.00     0.002 A 
ATOM     66  C   UNL     1      -3.894  17.882  11.904  1.00  0.00     0.091 A 
ATOM     67  F   UNL     1      -3.058  18.022   9.672  1.00  0.00    -0.205 F 
ATOM     68  C   UNL     1      -3.636  17.799  13.282  1.00  0.00     0.022 A 
BRANCH  66  69
ATOM     69  S   UNL     1      -5.617  17.891  11.396  1.00  0.00     0.127 S 
ATOM     70  O   UNL     1      -5.983  16.486  11.569  1.00  0.00    -0.237 OA
ATOM     71  O   UNL     1      -6.223  18.802  12.368  1.00  0.00    -0.237 OA
ATOM     72  O   UNL     1      -5.626  18.378  10.024  1.00  0.00    -0.744 OA
ENDBRANCH  66  69
ENDBRANCH  48  62
BRANCH  49  73
ATOM     73  C   UNL     1       6.053  18.735   4.996  1.00  0.00     0.023 A 
ATOM     74  C   UNL     1       7.157  19.565   5.273  1.00  0.00     0.012 A 
ATOM     75  C   UNL     1       6.039  17.985   3.804  1.00  0.00     0.148 A 
ATOM     76  C   UNL     1       8.215  19.667   4.369  1.00  0.00     0.002 A 
ATOM     77  C   UNL     1       7.121  18.051   2.933  1.00  0.00     0.091 A 
ATOM     78  F   UNL     1       4.973  17.213   3.550  1.00  0.00    -0.205 F 
ATOM     79  C   UNL     1       8.202  18.903   3.206  1.00  0.00     0.022 A 
BRANCH  77  80
ATOM     80  S   UNL     1       7.246  17.001   1.480  1.00  0.00     0.127 S 
ATOM     81  O   UNL     1       6.952  17.943   0.404  1.00  0.00    -0.237 OA
ATOM     82  O   UNL     1       8.638  16.554   1.545  1.00  0.00    -0.237 OA
ATOM     83  O   UNL     1       6.269  15.940   1.685  1.00  0.00    -0.744 OA
ENDBRANCH  77  80
ENDBRANCH  49  73
BRANCH  61  84
ATOM     84  C   UNL     1       1.259  23.248   7.320  1.00  0.00     0.023 A 
ATOM     85  C   UNL     1       0.630  23.554   6.097  1.00  0.00     0.012 A 
ATOM     86  C   UNL     1       1.526  24.281   8.239  1.00  0.00     0.148 A 
ATOM     87  C   UNL     1       0.296  24.870   5.782  1.00  0.00     0.002 A 
ATOM     88  C   UNL     1       1.151  25.585   7.936  1.00  0.00     0.091 A 
ATOM     89  F   UNL     1       2.145  23.973   9.388  1.00  0.00    -0.205 F 
ATOM     90  C   UNL     1       0.545  25.883   6.705  1.00  0.00     0.022 A 
BRANCH  88  91
ATOM     91  S   UNL     1       1.352  26.936   9.104  1.00  0.00     0.127 S 
ATOM     92  O   UNL     1       2.509  27.638   8.553  1.00  0.00    -0.237 OA
ATOM     93  O   UNL     1       0.083  27.655   8.973  1.00  0.00    -0.237 OA
ATOM     94  O   UNL     1       1.556  26.310  10.404  1.00  0.00    -0.744 OA
ENDBRANCH  88  91
ENDBRANCH  61  84
ENDBRANCH  35  36
ENDBRANCH  27  30
ENDBRANCH  25  26
ENDBRANCH  24  25
ENDBRANCH   1  24
TORSDOF 18
