REMARK SMILES O=C(NCCCCNC(=O)c1sccc1S(=O)(=O)Nc1ccccc1N1CCCCC1)c1ccc(-c2c3nc(c(-c4cccc(S(=O)(=O)[O-])c4F)c4ccc([nH]4)c(-c4cccc(S(=O)(=O)[O-])c4F)c4nc(c(-c5cccc(S(=O)(=O)[O-])c5F)c5ccc2[nH]5)C=C4)C=C3)cc1
REMARK SMILES IDX 6 1 5 2 4 3 3 4 1 5 2 6 32 8 33 9 94 10 34 11 93 12 35 13
REMARK SMILES IDX 36 14 37 15 87 16 38 17 92 18 86 19 88 20 39 21 91 22 85 23
REMARK SMILES IDX 84 24 40 26 72 27 52 28 71 29 53 30 56 31 70 32 89 33 54 34
REMARK SMILES IDX 55 35 69 37 90 38 57 39 41 40 42 41 50 42 43 43 45 44 51 45
REMARK SMILES IDX 44 46 46 47 47 48 48 49 49 50 73 51 74 52 82 53 75 54 77 55
REMARK SMILES IDX 83 56 76 57 78 58 79 59 80 60 81 61 58 62 59 63 67 64 60 65
REMARK SMILES IDX 62 66 68 67 61 68 63 69 64 70 65 71 66 72 7 73 8 74 9 75
REMARK SMILES IDX 10 77 11 78 12 79 15 80 13 81 14 82 16 83 17 84 18 85 19 86
REMARK SMILES IDX 20 88 21 89 25 90 22 91 24 92 23 93 26 94 27 95 31 96 28 97
REMARK SMILES IDX 30 98 29 99
REMARK H PARENT 3 7 88 25 56 36 8 76 19 87
REMARK Flexibility Score: inf
ROOT
ATOM      1  C   UNL     1       3.823  -1.144   3.581  1.00  0.00     0.023 C 
ENDROOT
BRANCH   1   2
ATOM      2  C   UNL     1       4.526  -0.282   2.527  1.00  0.00     0.023 C 
BRANCH   2   3
ATOM      3  C   UNL     1       4.385  -0.771   1.087  1.00  0.00     0.116 C 
BRANCH   3   4
ATOM      4  N   UNL     1       3.004  -0.876   0.655  1.00  0.00    -0.352 N 
ATOM      5  O   UNL     1       1.043  -0.183  -0.205  1.00  0.00    -0.269 OA
ATOM      6  C   UNL     1       2.255  -0.019  -0.112  1.00  0.00     0.251 C 
ATOM      7  H   UNL     1       2.532  -1.685   0.959  1.00  0.00     0.163 HD
BRANCH   6   8
ATOM      8  C   UNL     1       2.907   1.113  -0.801  1.00  0.00     0.039 A 
ATOM      9  C   UNL     1       4.044   0.913  -1.591  1.00  0.00     0.014 A 
ATOM     10  C   UNL     1       2.350   2.387  -0.677  1.00  0.00     0.014 A 
ATOM     11  C   UNL     1       4.699   2.007  -2.152  1.00  0.00     0.010 A 
ATOM     12  C   UNL     1       2.972   3.474  -1.294  1.00  0.00     0.010 A 
ATOM     13  C   UNL     1       4.168   3.297  -2.008  1.00  0.00    -0.014 A 
BRANCH  13  14
ATOM     14  C   UNL     1       4.833   4.462  -2.641  1.00  0.00     0.031 A 
ATOM     15  C   UNL     1       5.426   5.555  -1.797  1.00  0.00     0.074 A 
ATOM     16  C   UNL     1       4.847   4.559  -3.984  1.00  0.00     0.049 A 
ATOM     17  N   UNL     1       5.961   6.686  -2.174  1.00  0.00    -0.248 NA
ATOM     18  C   UNL     1       5.406   5.356  -0.339  1.00  0.00     0.031 C 
ATOM     19  C   UNL     1       4.270   3.576  -4.902  1.00  0.00     0.029 A 
ATOM     20  N   UNL     1       5.335   5.540  -4.807  1.00  0.00    -0.354 N 
ATOM     21  C   UNL     1       6.299   7.356  -1.004  1.00  0.00     0.074 A 
ATOM     22  C   UNL     1       5.910   6.502   0.098  1.00  0.00     0.031 C 
ATOM     23  C   UNL     1       4.426   4.009  -6.162  1.00  0.00     0.029 A 
ATOM     24  C   UNL     1       5.073   5.316  -6.138  1.00  0.00     0.049 A 
ATOM     25  H   UNL     1       5.825   6.328  -4.478  1.00  0.00     0.167 HD
ATOM     26  C   UNL     1       6.892   8.565  -0.863  1.00  0.00     0.034 A 
ATOM     27  C   UNL     1       5.301   6.088  -7.218  1.00  0.00     0.034 A 
ATOM     28  C   UNL     1       7.317   9.389  -1.963  1.00  0.00     0.049 A 
ATOM     29  C   UNL     1       5.987   7.411  -7.038  1.00  0.00     0.074 A 
ATOM     30  C   UNL     1       7.987  10.598  -1.924  1.00  0.00     0.029 A 
ATOM     31  N   UNL     1       7.110   9.089  -3.301  1.00  0.00    -0.354 N 
ATOM     32  N   UNL     1       6.411   7.972  -5.931  1.00  0.00    -0.248 NA
ATOM     33  C   UNL     1       6.254   8.196  -8.251  1.00  0.00     0.031 C 
ATOM     34  C   UNL     1       8.182  11.032  -3.240  1.00  0.00     0.029 A 
ATOM     35  C   UNL     1       7.638  10.090  -4.098  1.00  0.00     0.049 A 
ATOM     36  H   UNL     1       6.655   8.282  -3.635  1.00  0.00     0.167 HD
ATOM     37  C   UNL     1       7.017   9.162  -6.314  1.00  0.00     0.074 A 
ATOM     38  C   UNL     1       6.921   9.233  -7.759  1.00  0.00     0.031 C 
ATOM     39  C   UNL     1       7.587  10.116  -5.538  1.00  0.00     0.034 A 
BRANCH  26  40
ATOM     40  C   UNL     1       7.163   9.051   0.535  1.00  0.00     0.023 A 
ATOM     41  C   UNL     1       8.237   8.500   1.262  1.00  0.00     0.012 A 
ATOM     42  C   UNL     1       6.396  10.082   1.110  1.00  0.00     0.148 A 
ATOM     43  C   UNL     1       8.528   8.950   2.550  1.00  0.00     0.002 A 
ATOM     44  C   UNL     1       6.713  10.549   2.382  1.00  0.00     0.091 A 
ATOM     45  F   UNL     1       5.359  10.576   0.418  1.00  0.00    -0.205 F 
ATOM     46  C   UNL     1       7.774   9.980   3.105  1.00  0.00     0.022 A 
BRANCH  44  47
ATOM     47  S   UNL     1       5.826  11.918   3.136  1.00  0.00     0.127 S 
ATOM     48  O   UNL     1       4.832  11.217   3.947  1.00  0.00    -0.237 OA
ATOM     49  O   UNL     1       6.873  12.591   3.906  1.00  0.00    -0.237 OA
ATOM     50  O   UNL     1       5.306  12.700   2.022  1.00  0.00    -0.744 OA
ENDBRANCH  44  47
ENDBRANCH  26  40
BRANCH  27  51
ATOM     51  C   UNL     1       4.918   5.581  -8.564  1.00  0.00     0.023 A 
ATOM     52  C   UNL     1       5.922   5.146  -9.448  1.00  0.00     0.012 A 
ATOM     53  C   UNL     1       3.565   5.436  -8.931  1.00  0.00     0.148 A 
ATOM     54  C   UNL     1       5.587   4.581 -10.679  1.00  0.00     0.002 A 
ATOM     55  C   UNL     1       3.237   4.822 -10.135  1.00  0.00     0.091 A 
ATOM     56  F   UNL     1       2.625   5.871  -8.080  1.00  0.00    -0.205 F 
ATOM     57  C   UNL     1       4.247   4.405 -11.015  1.00  0.00     0.022 A 
BRANCH  55  58
ATOM     58  S   UNL     1       1.543   4.423 -10.579  1.00  0.00     0.127 S 
ATOM     59  O   UNL     1       1.270   5.402 -11.627  1.00  0.00    -0.237 OA
ATOM     60  O   UNL     1       1.668   3.040 -11.043  1.00  0.00    -0.237 OA
ATOM     61  O   UNL     1       0.772   4.573  -9.352  1.00  0.00    -0.744 OA
ENDBRANCH  55  58
ENDBRANCH  27  51
BRANCH  39  62
ATOM     62  C   UNL     1       8.179  11.314  -6.227  1.00  0.00     0.023 A 
ATOM     63  C   UNL     1       7.328  12.332  -6.700  1.00  0.00     0.012 A 
ATOM     64  C   UNL     1       9.575  11.476  -6.321  1.00  0.00     0.148 A 
ATOM     65  C   UNL     1       7.858  13.488  -7.270  1.00  0.00     0.002 A 
ATOM     66  C   UNL     1      10.097  12.647  -6.856  1.00  0.00     0.091 A 
ATOM     67  F   UNL     1      10.365  10.483  -5.885  1.00  0.00    -0.205 F 
ATOM     68  C   UNL     1       9.240  13.651  -7.336  1.00  0.00     0.022 A 
BRANCH  66  69
ATOM     69  S   UNL     1      11.863  12.974  -6.901  1.00  0.00     0.127 S 
ATOM     70  O   UNL     1      12.175  12.733  -8.308  1.00  0.00    -0.237 OA
ATOM     71  O   UNL     1      11.933  14.378  -6.492  1.00  0.00    -0.237 OA
ATOM     72  O   UNL     1      12.463  12.043  -5.954  1.00  0.00    -0.744 OA
ENDBRANCH  66  69
ENDBRANCH  39  62
ENDBRANCH  13  14
ENDBRANCH   6   8
ENDBRANCH   3   4
ENDBRANCH   2   3
ENDBRANCH   1   2
BRANCH   1  73
ATOM     73  C   UNL     1       4.160  -2.629   3.517  1.00  0.00     0.116 C 
BRANCH  73  74
ATOM     74  N   UNL     1       5.557  -2.898   3.776  1.00  0.00    -0.351 N 
ATOM     75  C   UNL     1       6.129  -4.074   4.184  1.00  0.00     0.262 C 
ATOM     76  H   UNL     1       6.173  -2.143   3.642  1.00  0.00     0.163 HD
ATOM     77  O   UNL     1       7.293  -4.035   4.579  1.00  0.00    -0.268 OA
BRANCH  75  78
ATOM     78  C   UNL     1       5.328  -5.271   4.234  1.00  0.00     0.112 A 
ATOM     79  S   UNL     1       5.089  -5.917   5.821  1.00  0.00    -0.137 S 
ATOM     80  C   UNL     1       4.746  -6.071   3.267  1.00  0.00     0.111 A 
ATOM     81  C   UNL     1       4.152  -7.212   5.241  1.00  0.00     0.067 A 
ATOM     82  C   UNL     1       4.035  -7.175   3.873  1.00  0.00     0.035 A 
BRANCH  80  83
ATOM     83  S   UNL     1       4.700  -5.876   1.544  1.00  0.00     0.263 S 
ATOM     84  O   UNL     1       4.455  -7.228   1.076  1.00  0.00    -0.201 OA
ATOM     85  O   UNL     1       3.650  -4.895   1.361  1.00  0.00    -0.201 OA
BRANCH  83  86
ATOM     86  N   UNL     1       5.997  -5.324   0.655  1.00  0.00    -0.277 N 
ATOM     87  H   UNL     1       5.925  -5.380  -0.326  1.00  0.00     0.180 HD
BRANCH  86  88
ATOM     88  C   UNL     1       7.201  -4.777   1.185  1.00  0.00     0.072 A 
ATOM     89  C   UNL     1       7.396  -3.399   0.999  1.00  0.00     0.029 A 
ATOM     90  C   UNL     1       8.202  -5.565   1.796  1.00  0.00     0.061 A 
ATOM     91  C   UNL     1       8.547  -2.768   1.465  1.00  0.00     0.002 A 
ATOM     92  C   UNL     1       9.345  -4.895   2.275  1.00  0.00     0.028 A 
ATOM     93  C   UNL     1       9.517  -3.516   2.117  1.00  0.00     0.002 A 
BRANCH  90  94
ATOM     94  N   UNL     1       8.189  -6.962   1.883  1.00  0.00    -0.370 N 
ATOM     95  C   UNL     1       7.985  -7.518   3.219  1.00  0.00     0.116 C 
ATOM     96  C   UNL     1       7.842  -7.724   0.683  1.00  0.00     0.116 C 
ATOM     97  C   UNL     1       8.306  -9.005   3.289  1.00  0.00     0.021 C 
ATOM     98  C   UNL     1       8.194  -9.200   0.824  1.00  0.00     0.021 C 
ATOM     99  C   UNL     1       7.662  -9.760   2.136  1.00  0.00     0.004 C 
ENDBRANCH  90  94
ENDBRANCH  86  88
ENDBRANCH  83  86
ENDBRANCH  80  83
ENDBRANCH  75  78
ENDBRANCH  73  74
ENDBRANCH   1  73
TORSDOF 18
