REMARK SMILES O=C(NCCCCNC(=O)c1ccc2c(c1)CCN2C(=O)c1ccn[nH]1)c1ccc(-c2c3nc(c(-c4cccc(S(=O)(=O)[O-])c4F)c4ccc([nH]4)c(-c4cccc(S(=O)(=O)[O-])c4F)c4nc(c(-c5cccc(S(=O)(=O)[O-])c5F)c5ccc2[nH]5)C=C4)C=C3)cc1
REMARK SMILES IDX 5 1 4 2 3 3 1 4 2 5 27 7 28 8 89 9 29 10 88 11 30 12 31 13
REMARK SMILES IDX 32 14 82 15 33 16 87 17 81 18 83 19 34 20 86 21 80 22 79 23
REMARK SMILES IDX 35 25 67 26 47 27 66 28 48 29 51 30 65 31 84 32 49 33 50 34
REMARK SMILES IDX 64 36 85 37 52 38 36 39 37 40 45 41 38 42 40 43 46 44 39 45
REMARK SMILES IDX 41 46 42 47 43 48 44 49 68 50 69 51 77 52 70 53 72 54 78 55
REMARK SMILES IDX 71 56 73 57 74 58 75 59 76 60 53 61 54 62 62 63 55 64 57 65
REMARK SMILES IDX 63 66 56 67 58 68 59 69 60 70 61 71 6 72 7 73 8 74 9 75
REMARK SMILES IDX 10 77 11 78 12 79 16 80 13 81 15 82 14 83 17 84 19 85 18 86
REMARK SMILES IDX 20 87 21 88 22 89 23 90 26 91 24 92 25 93
REMARK H PARENT 3 6 83 24 51 35 8 76 26 94
REMARK Flexibility Score: inf
ROOT
ATOM      1  C   UNL     1       4.908  -2.697  -0.043  1.00  0.00     0.023 C 
ENDROOT
BRANCH   1   2
ATOM      2  C   UNL     1       4.615  -1.266  -0.477  1.00  0.00     0.116 C 
BRANCH   2   3
ATOM      3  N   UNL     1       3.193  -0.989  -0.627  1.00  0.00    -0.352 N 
ATOM      4  O   UNL     1       1.201  -0.038  -0.167  1.00  0.00    -0.269 OA
ATOM      5  C   UNL     1       2.417  -0.038  -0.002  1.00  0.00     0.251 C 
ATOM      6  H   UNL     1       2.718  -1.564  -1.270  1.00  0.00     0.163 HD
BRANCH   5   7
ATOM      7  C   UNL     1       3.052   0.948   0.900  1.00  0.00     0.039 A 
ATOM      8  C   UNL     1       4.224   1.604   0.522  1.00  0.00     0.014 A 
ATOM      9  C   UNL     1       2.494   1.181   2.160  1.00  0.00     0.014 A 
ATOM     10  C   UNL     1       4.942   2.325   1.468  1.00  0.00     0.010 A 
ATOM     11  C   UNL     1       3.170   1.991   3.079  1.00  0.00     0.010 A 
ATOM     12  C   UNL     1       4.431   2.519   2.763  1.00  0.00    -0.014 A 
BRANCH  12  13
ATOM     13  C   UNL     1       5.236   3.286   3.752  1.00  0.00     0.031 A 
ATOM     14  C   UNL     1       5.744   2.642   5.017  1.00  0.00     0.074 A 
ATOM     15  C   UNL     1       5.546   4.569   3.483  1.00  0.00     0.049 A 
ATOM     16  N   UNL     1       6.526   3.146   5.937  1.00  0.00    -0.248 NA
ATOM     17  C   UNL     1       5.315   1.261   5.294  1.00  0.00     0.031 C 
ATOM     18  C   UNL     1       5.075   5.321   2.317  1.00  0.00     0.029 A 
ATOM     19  N   UNL     1       6.338   5.464   4.156  1.00  0.00    -0.354 N 
ATOM     20  C   UNL     1       6.643   2.171   6.921  1.00  0.00     0.074 A 
ATOM     21  C   UNL     1       5.847   1.043   6.490  1.00  0.00     0.031 C 
ATOM     22  C   UNL     1       5.624   6.543   2.330  1.00  0.00     0.029 A 
ATOM     23  C   UNL     1       6.450   6.681   3.525  1.00  0.00     0.049 A 
ATOM     24  H   UNL     1       6.783   5.256   5.009  1.00  0.00     0.167 HD
ATOM     25  C   UNL     1       7.363   2.202   8.069  1.00  0.00     0.034 A 
ATOM     26  C   UNL     1       7.145   7.784   3.862  1.00  0.00     0.034 A 
ATOM     27  C   UNL     1       8.206   3.299   8.466  1.00  0.00     0.049 A 
ATOM     28  C   UNL     1       7.989   7.763   5.104  1.00  0.00     0.074 A 
ATOM     29  C   UNL     1       9.031   3.393   9.575  1.00  0.00     0.029 A 
ATOM     30  N   UNL     1       8.338   4.490   7.770  1.00  0.00    -0.354 N 
ATOM     31  N   UNL     1       8.191   6.780   5.947  1.00  0.00    -0.248 NA
ATOM     32  C   UNL     1       8.725   8.994   5.425  1.00  0.00     0.031 C 
ATOM     33  C   UNL     1       9.657   4.644   9.550  1.00  0.00     0.029 A 
ATOM     34  C   UNL     1       9.228   5.325   8.423  1.00  0.00     0.049 A 
ATOM     35  H   UNL     1       7.867   4.710   6.934  1.00  0.00     0.167 HD
ATOM     36  C   UNL     1       9.096   7.263   6.884  1.00  0.00     0.074 A 
ATOM     37  C   UNL     1       9.424   8.618   6.488  1.00  0.00     0.031 C 
ATOM     38  C   UNL     1       9.592   6.648   7.985  1.00  0.00     0.034 A 
BRANCH  25  39
ATOM     39  C   UNL     1       7.317   0.991   8.963  1.00  0.00     0.023 A 
ATOM     40  C   UNL     1       8.040  -0.165   8.604  1.00  0.00     0.012 A 
ATOM     41  C   UNL     1       6.625   1.018  10.190  1.00  0.00     0.148 A 
ATOM     42  C   UNL     1       8.055  -1.282   9.438  1.00  0.00     0.002 A 
ATOM     43  C   UNL     1       6.674  -0.087  11.034  1.00  0.00     0.091 A 
ATOM     44  F   UNL     1       5.922   2.116  10.506  1.00  0.00    -0.205 F 
ATOM     45  C   UNL     1       7.382  -1.239  10.657  1.00  0.00     0.022 A 
BRANCH  43  46
ATOM     46  S   UNL     1       5.897  -0.093  12.655  1.00  0.00     0.127 S 
ATOM     47  O   UNL     1       4.688  -0.874  12.400  1.00  0.00    -0.237 OA
ATOM     48  O   UNL     1       6.897  -0.772  13.480  1.00  0.00    -0.237 OA
ATOM     49  O   UNL     1       5.686   1.307  12.996  1.00  0.00    -0.744 OA
ENDBRANCH  43  46
ENDBRANCH  25  39
BRANCH  26  50
ATOM     50  C   UNL     1       7.131   8.966   2.957  1.00  0.00     0.023 A 
ATOM     51  C   UNL     1       8.292   9.290   2.228  1.00  0.00     0.012 A 
ATOM     52  C   UNL     1       5.965   9.732   2.767  1.00  0.00     0.148 A 
ATOM     53  C   UNL     1       8.296  10.366   1.341  1.00  0.00     0.002 A 
ATOM     54  C   UNL     1       5.959  10.765   1.838  1.00  0.00     0.091 A 
ATOM     55  F   UNL     1       4.876   9.422   3.485  1.00  0.00    -0.205 F 
ATOM     56  C   UNL     1       7.127  11.095   1.135  1.00  0.00     0.022 A 
BRANCH  54  57
ATOM     57  S   UNL     1       4.453  11.647   1.412  1.00  0.00     0.127 S 
ATOM     58  O   UNL     1       4.604  12.884   2.171  1.00  0.00    -0.237 OA
ATOM     59  O   UNL     1       4.580  11.793  -0.039  1.00  0.00    -0.237 OA
ATOM     60  O   UNL     1       3.366  10.769   1.826  1.00  0.00    -0.744 OA
ENDBRANCH  54  57
ENDBRANCH  26  50
BRANCH  38  61
ATOM     61  C   UNL     1      10.562   7.425   8.834  1.00  0.00     0.023 A 
ATOM     62  C   UNL     1      10.084   8.459   9.663  1.00  0.00     0.012 A 
ATOM     63  C   UNL     1      11.930   7.095   8.857  1.00  0.00     0.148 A 
ATOM     64  C   UNL     1      10.960   9.172  10.481  1.00  0.00     0.002 A 
ATOM     65  C   UNL     1      12.790   7.784   9.705  1.00  0.00     0.091 A 
ATOM     66  F   UNL     1      12.372   6.125   8.042  1.00  0.00    -0.205 F 
ATOM     67  C   UNL     1      12.309   8.828  10.510  1.00  0.00     0.022 A 
BRANCH  65  68
ATOM     68  S   UNL     1      14.524   7.336   9.859  1.00  0.00     0.127 S 
ATOM     69  O   UNL     1      15.163   8.298   8.964  1.00  0.00    -0.237 OA
ATOM     70  O   UNL     1      14.786   7.561  11.282  1.00  0.00    -0.237 OA
ATOM     71  O   UNL     1      14.603   5.940   9.451  1.00  0.00    -0.744 OA
ENDBRANCH  65  68
ENDBRANCH  38  61
ENDBRANCH  12  13
ENDBRANCH   5   7
ENDBRANCH   2   3
ENDBRANCH   1   2
BRANCH   1  72
ATOM     72  C   UNL     1       4.462  -3.778  -1.021  1.00  0.00     0.023 C 
BRANCH  72  73
ATOM     73  C   UNL     1       4.953  -3.603  -2.453  1.00  0.00     0.116 C 
BRANCH  73  74
ATOM     74  N   UNL     1       6.404  -3.642  -2.576  1.00  0.00    -0.352 N 
ATOM     75  C   UNL     1       7.161  -4.359  -3.472  1.00  0.00     0.251 C 
ATOM     76  H   UNL     1       6.905  -3.086  -1.937  1.00  0.00     0.163 HD
ATOM     77  O   UNL     1       8.385  -4.377  -3.409  1.00  0.00    -0.269 OA
BRANCH  75  78
ATOM     78  C   UNL     1       6.467  -5.153  -4.502  1.00  0.00     0.040 A 
ATOM     79  C   UNL     1       5.542  -4.537  -5.357  1.00  0.00     0.016 A 
ATOM     80  C   UNL     1       6.663  -6.533  -4.536  1.00  0.00     0.019 A 
ATOM     81  C   UNL     1       4.712  -5.311  -6.172  1.00  0.00     0.027 A 
ATOM     82  C   UNL     1       5.854  -7.280  -5.381  1.00  0.00    -0.022 A 
ATOM     83  C   UNL     1       4.861  -6.688  -6.176  1.00  0.00     0.047 A 
ATOM     84  C   UNL     1       5.826  -8.770  -5.480  1.00  0.00     0.059 C 
ATOM     85  N   UNL     1       4.125  -7.692  -6.832  1.00  0.00    -0.306 N 
ATOM     86  C   UNL     1       4.757  -8.991  -6.549  1.00  0.00     0.131 C 
BRANCH  85  87
ATOM     87  C   UNL     1       2.952  -7.667  -7.579  1.00  0.00     0.276 C 
ATOM     88  O   UNL     1       2.420  -8.721  -7.934  1.00  0.00    -0.267 OA
BRANCH  87  89
ATOM     89  C   UNL     1       2.311  -6.419  -7.880  1.00  0.00     0.123 A 
ATOM     90  C   UNL     1       2.646  -5.392  -8.742  1.00  0.00     0.055 A 
ATOM     91  N   UNL     1       1.075  -6.090  -7.395  1.00  0.00    -0.273 N 
ATOM     92  C   UNL     1       1.605  -4.455  -8.611  1.00  0.00     0.135 A 
ATOM     93  N   UNL     1       0.652  -4.871  -7.775  1.00  0.00    -0.183 NA
ATOM     94  H   UNL     1       0.545  -6.689  -6.821  1.00  0.00     0.190 HD
ENDBRANCH  87  89
ENDBRANCH  85  87
ENDBRANCH  75  78
ENDBRANCH  73  74
ENDBRANCH  72  73
ENDBRANCH   1  72
TORSDOF 16
