REMARK SMILES Cc1csc([C@H](C)Nc2cc(C)c(N)c(C(=O)NCCCCNC(=O)c3ccc(-c4c5nc(c(-c6cccc(S(=O)(=O)[O-])c6F)c6ccc([nH]6)c(-c6cccc(S(=O)(=O)[O-])c6F)c6nc(c(-c7cccc(S(=O)(=O)[O-])c7F)c7ccc4[nH]7)C=C6)C=C5)cc3)c2)n1
REMARK SMILES IDX 20 1 19 2 18 3 16 4 17 5 15 7 9 8 10 9 89 10 11 11 12 12
REMARK SMILES IDX 13 13 8 14 6 16 7 17 5 18 1 19 2 20 3 21 90 22 4 23 14 24
REMARK SMILES IDX 21 27 22 28 23 29 24 30 25 32 26 33 27 34 88 35 28 36 87 37
REMARK SMILES IDX 29 38 30 39 31 40 81 41 32 42 86 43 80 44 82 45 33 46 85 47
REMARK SMILES IDX 79 48 78 49 34 51 66 52 46 53 65 54 47 55 50 56 64 57 83 58
REMARK SMILES IDX 48 59 49 60 63 62 84 63 51 64 35 65 36 66 44 67 37 68 39 69
REMARK SMILES IDX 45 70 38 71 40 72 41 73 42 74 43 75 67 76 68 77 76 78 69 79
REMARK SMILES IDX 71 80 77 81 70 82 72 83 73 84 74 85 75 86 52 87 53 88 61 89
REMARK SMILES IDX 54 90 56 91 62 92 55 93 57 94 58 95 59 96 60 97
REMARK H PARENT 18 6 8 15 14 25 14 26 23 31 82 50 50 61
REMARK Flexibility Score: inf
ROOT
ATOM      1  C   UNL     1      -0.000   1.691   5.569  1.00  0.00     0.023 C 
ENDROOT
BRANCH   1   2
ATOM      2  C   UNL     1       0.237   3.188   5.789  1.00  0.00     0.116 C 
BRANCH   2   3
ATOM      3  N   UNL     1       1.560   3.422   6.333  1.00  0.00    -0.352 N 
ATOM      4  C   UNL     1       2.787   3.678   5.769  1.00  0.00     0.253 C 
ATOM      5  O   UNL     1       3.723   3.805   6.566  1.00  0.00    -0.269 OA
ATOM      6  H   UNL     1       1.585   3.391   7.317  1.00  0.00     0.163 HD
BRANCH   4   7
ATOM      7  C   UNL     1       3.047   3.830   4.293  1.00  0.00     0.065 A 
ATOM      8  C   UNL     1       2.388   3.478   1.952  1.00  0.00     0.036 A 
ATOM      9  C   UNL     1       3.526   4.157   1.535  1.00  0.00     0.031 A 
ATOM     10  C   UNL     1       2.179   3.316   3.323  1.00  0.00     0.041 A 
ATOM     11  C   UNL     1       4.464   4.638   2.466  1.00  0.00    -0.025 A 
ATOM     12  C   UNL     1       5.690   5.347   1.957  1.00  0.00     0.046 C 
ATOM     13  C   UNL     1       4.239   4.467   3.853  1.00  0.00     0.047 A 
BRANCH   8  14
ATOM     14  N   UNL     1       1.357   3.114   1.100  1.00  0.00    -0.376 N 
ATOM     15  H   UNL     1       0.432   3.321   1.368  1.00  0.00     0.161 HD
BRANCH  14  16
ATOM     16  C   UNL     1       1.579   2.435  -0.182  1.00  0.00     0.135 C 
ATOM     17  C   UNL     1       0.655   1.206  -0.152  1.00  0.00     0.039 C 
BRANCH  16  18
ATOM     18  C   UNL     1       1.328   3.321  -1.404  1.00  0.00     0.115 A 
ATOM     19  C   UNL     1       1.164   6.638  -2.819  1.00  0.00     0.067 C 
ATOM     20  C   UNL     1       1.123   5.165  -2.640  1.00  0.00     0.049 A 
ATOM     21  C   UNL     1       0.877   4.221  -3.616  1.00  0.00     0.090 A 
ATOM     22  N   UNL     1       1.361   4.643  -1.380  1.00  0.00    -0.244 NA
ATOM     23  S   UNL     1       1.022   2.648  -2.964  1.00  0.00    -0.125 S 
ENDBRANCH  16  18
ENDBRANCH  14  16
ENDBRANCH   8  14
BRANCH  13  24
ATOM     24  N   UNL     1       5.117   5.073   4.763  1.00  0.00    -0.398 N 
ATOM     25  H   UNL     1       5.938   5.509   4.439  1.00  0.00     0.156 HD
ATOM     26  H   UNL     1       4.912   5.062   5.726  1.00  0.00     0.156 HD
ENDBRANCH  13  24
ENDBRANCH   4   7
ENDBRANCH   2   3
ENDBRANCH   1   2
BRANCH   1  27
ATOM     27  C   UNL     1      -0.394   0.920   6.833  1.00  0.00     0.023 C 
BRANCH  27  28
ATOM     28  C   UNL     1      -1.718   1.345   7.458  1.00  0.00     0.116 C 
BRANCH  28  29
ATOM     29  N   UNL     1      -2.844   1.254   6.540  1.00  0.00    -0.352 N 
ATOM     30  C   UNL     1      -4.172   1.052   6.836  1.00  0.00     0.251 C 
ATOM     31  H   UNL     1      -2.627   1.349   5.585  1.00  0.00     0.163 HD
ATOM     32  O   UNL     1      -4.989   0.899   5.939  1.00  0.00    -0.269 OA
BRANCH  30  33
ATOM     33  C   UNL     1      -4.590   0.979   8.252  1.00  0.00     0.039 A 
ATOM     34  C   UNL     1      -5.371  -0.103   8.666  1.00  0.00     0.014 A 
ATOM     35  C   UNL     1      -4.184   1.951   9.170  1.00  0.00     0.014 A 
ATOM     36  C   UNL     1      -5.692  -0.243  10.017  1.00  0.00     0.010 A 
ATOM     37  C   UNL     1      -4.448   1.773  10.524  1.00  0.00     0.010 A 
ATOM     38  C   UNL     1      -5.206   0.676  10.961  1.00  0.00    -0.014 A 
BRANCH  38  39
ATOM     39  C   UNL     1      -5.463   0.499  12.411  1.00  0.00     0.031 A 
ATOM     40  C   UNL     1      -6.277   1.513  13.166  1.00  0.00     0.074 A 
ATOM     41  C   UNL     1      -4.881  -0.525  13.067  1.00  0.00     0.049 A 
ATOM     42  N   UNL     1      -6.564   1.554  14.441  1.00  0.00    -0.248 NA
ATOM     43  C   UNL     1      -6.814   2.646  12.394  1.00  0.00     0.031 C 
ATOM     44  C   UNL     1      -3.994  -1.522  12.462  1.00  0.00     0.029 A 
ATOM     45  N   UNL     1      -4.926  -0.882  14.391  1.00  0.00    -0.354 N 
ATOM     46  C   UNL     1      -7.279   2.730  14.631  1.00  0.00     0.074 A 
ATOM     47  C   UNL     1      -7.356   3.391  13.347  1.00  0.00     0.031 C 
ATOM     48  C   UNL     1      -3.579  -2.375  13.412  1.00  0.00     0.029 A 
ATOM     49  C   UNL     1      -4.153  -1.978  14.694  1.00  0.00     0.049 A 
ATOM     50  H   UNL     1      -5.460  -0.398  15.062  1.00  0.00     0.167 HD
ATOM     51  C   UNL     1      -7.849   3.202  15.765  1.00  0.00     0.034 A 
ATOM     52  C   UNL     1      -3.932  -2.594  15.872  1.00  0.00     0.034 A 
ATOM     53  C   UNL     1      -7.819   2.514  17.027  1.00  0.00     0.049 A 
ATOM     54  C   UNL     1      -4.635  -2.089  17.103  1.00  0.00     0.074 A 
ATOM     55  C   UNL     1      -8.451   2.856  18.209  1.00  0.00     0.029 A 
ATOM     56  N   UNL     1      -7.117   1.344  17.272  1.00  0.00    -0.354 N 
ATOM     57  N   UNL     1      -5.455  -1.073  17.225  1.00  0.00    -0.248 NA
ATOM     58  C   UNL     1      -4.418  -2.839  18.348  1.00  0.00     0.031 C 
ATOM     59  C   UNL     1      -8.121   1.897  19.174  1.00  0.00     0.029 A 
ATOM     60  C   UNL     1      -7.296   0.951  18.587  1.00  0.00     0.049 A 
ATOM     61  H   UNL     1      -6.571   0.863  16.609  1.00  0.00     0.167 HD
ATOM     62  C   UNL     1      -5.877  -1.081  18.550  1.00  0.00     0.074 A 
ATOM     63  C   UNL     1      -5.240  -2.218  19.184  1.00  0.00     0.031 C 
ATOM     64  C   UNL     1      -6.703  -0.216  19.188  1.00  0.00     0.034 A 
BRANCH  51  65
ATOM     65  C   UNL     1      -8.616   4.495  15.676  1.00  0.00     0.023 A 
ATOM     66  C   UNL     1      -9.862   4.515  15.015  1.00  0.00     0.012 A 
ATOM     67  C   UNL     1      -8.139   5.671  16.287  1.00  0.00     0.148 A 
ATOM     68  C   UNL     1     -10.604   5.692  14.933  1.00  0.00     0.002 A 
ATOM     69  C   UNL     1      -8.906   6.830  16.238  1.00  0.00     0.091 A 
ATOM     70  F   UNL     1      -6.943   5.639  16.891  1.00  0.00    -0.205 F 
ATOM     71  C   UNL     1     -10.132   6.845  15.553  1.00  0.00     0.022 A 
BRANCH  69  72
ATOM     72  S   UNL     1      -8.420   8.347  17.070  1.00  0.00     0.127 S 
ATOM     73  O   UNL     1      -8.019   9.186  15.942  1.00  0.00    -0.237 OA
ATOM     74  O   UNL     1      -9.666   8.755  17.720  1.00  0.00    -0.237 OA
ATOM     75  O   UNL     1      -7.352   7.975  17.987  1.00  0.00    -0.744 OA
ENDBRANCH  69  72
ENDBRANCH  51  65
BRANCH  52  76
ATOM     76  C   UNL     1      -3.073  -3.811  15.924  1.00  0.00     0.023 A 
ATOM     77  C   UNL     1      -3.671  -5.067  16.141  1.00  0.00     0.012 A 
ATOM     78  C   UNL     1      -1.681  -3.739  15.725  1.00  0.00     0.148 A 
ATOM     79  C   UNL     1      -2.897  -6.226  16.190  1.00  0.00     0.002 A 
ATOM     80  C   UNL     1      -0.921  -4.904  15.721  1.00  0.00     0.091 A 
ATOM     81  F   UNL     1      -1.127  -2.533  15.532  1.00  0.00    -0.205 F 
ATOM     82  C   UNL     1      -1.525  -6.146  15.970  1.00  0.00     0.022 A 
BRANCH  80  83
ATOM     83  S   UNL     1       0.829  -4.908  15.316  1.00  0.00     0.127 S 
ATOM     84  O   UNL     1       1.438  -5.130  16.624  1.00  0.00    -0.237 OA
ATOM     85  O   UNL     1       0.925  -6.038  14.391  1.00  0.00    -0.237 OA
ATOM     86  O   UNL     1       1.089  -3.612  14.704  1.00  0.00    -0.744 OA
ENDBRANCH  80  83
ENDBRANCH  52  76
BRANCH  64  87
ATOM     87  C   UNL     1      -6.995  -0.474  20.642  1.00  0.00     0.023 A 
ATOM     88  C   UNL     1      -6.006  -0.212  21.610  1.00  0.00     0.012 A 
ATOM     89  C   UNL     1      -8.273  -0.900  21.056  1.00  0.00     0.148 A 
ATOM     90  C   UNL     1      -6.273  -0.397  22.965  1.00  0.00     0.002 A 
ATOM     91  C   UNL     1      -8.547  -1.039  22.412  1.00  0.00     0.091 A 
ATOM     92  F   UNL     1      -9.195  -1.165  20.119  1.00  0.00    -0.205 F 
ATOM     93  C   UNL     1      -7.546  -0.798  23.367  1.00  0.00     0.022 A 
BRANCH  91  94
ATOM     94  S   UNL     1     -10.184  -1.459  23.020  1.00  0.00     0.127 S 
ATOM     95  O   UNL     1     -10.017  -2.865  23.382  1.00  0.00    -0.237 OA
ATOM     96  O   UNL     1     -10.339  -0.550  24.157  1.00  0.00    -0.237 OA
ATOM     97  O   UNL     1     -11.097  -1.198  21.915  1.00  0.00    -0.744 OA
ENDBRANCH  91  94
ENDBRANCH  64  87
ENDBRANCH  38  39
ENDBRANCH  30  33
ENDBRANCH  28  29
ENDBRANCH  27  28
ENDBRANCH   1  27
TORSDOF 18
