REMARK SMILES O=C(CCCCCN1C(=O)[C@@H]2CC=CC[C@H]2C1=O)NCCCCNC(=O)c1ccc(-c2c3nc(c(-c4cccc(S(=O)(=O)[O-])c4F)c4ccc([nH]4)c(-c4cccc(S(=O)(=O)[O-])c4F)c4nc(c(-c5cccc(S(=O)(=O)[O-])c5F)c5ccc2[nH]5)C=C4)C=C3)cc1
REMARK SMILES IDX 20 1 19 2 1 3 2 4 3 6 4 7 5 8 6 9 7 10 8 11 9 12 17 13 10 14
REMARK SMILES IDX 11 15 16 16 18 17 12 18 15 19 13 20 14 21 21 22 22 23 23 24
REMARK SMILES IDX 24 25 25 26 26 28 27 29 28 30 89 31 29 32 88 33 30 34 31 35
REMARK SMILES IDX 32 36 82 37 33 38 87 39 81 40 83 41 34 42 86 43 80 44 79 45
REMARK SMILES IDX 35 47 67 48 47 49 66 50 48 51 51 52 65 53 84 54 49 55 50 56
REMARK SMILES IDX 64 58 85 59 52 60 36 61 37 62 45 63 38 64 40 65 46 66 39 67
REMARK SMILES IDX 41 68 42 69 43 70 44 71 68 72 69 73 77 74 70 75 72 76 78 77
REMARK SMILES IDX 71 78 73 79 74 80 75 81 76 82 53 83 54 84 62 85 55 86 57 87
REMARK SMILES IDX 63 88 56 89 58 90 59 91 60 92 61 93
REMARK H PARENT 19 5 24 27 83 46 51 57
REMARK Flexibility Score: inf
ROOT
ATOM      1  C   UNL     1       2.013   1.410  -1.949  1.00  0.00     0.116 C 
ENDROOT
BRANCH   1   2
ATOM      2  N   UNL     1       2.627   0.828  -0.776  1.00  0.00    -0.356 N 
ATOM      3  O   UNL     1       0.807  -0.395  -0.093  1.00  0.00    -0.275 OA
ATOM      4  C   UNL     1       1.982  -0.072   0.039  1.00  0.00     0.219 C 
ATOM      5  H   UNL     1       3.550   1.088  -0.552  1.00  0.00     0.163 HD
BRANCH   4   6
ATOM      6  C   UNL     1       2.866  -0.653   1.124  1.00  0.00     0.100 C 
BRANCH   6   7
ATOM      7  C   UNL     1       3.781  -1.762   0.601  1.00  0.00     0.010 C 
BRANCH   7   8
ATOM      8  C   UNL     1       4.941  -1.311  -0.295  1.00  0.00     0.002 C 
BRANCH   8   9
ATOM      9  C   UNL     1       5.920  -0.312   0.339  1.00  0.00     0.022 C 
BRANCH   9  10
ATOM     10  C   UNL     1       6.750  -0.877   1.500  1.00  0.00     0.128 C 
BRANCH  10  11
ATOM     11  N   UNL     1       7.563  -1.995   1.068  1.00  0.00    -0.282 N 
ATOM     12  C   UNL     1       8.708  -1.852   0.315  1.00  0.00     0.233 C 
ATOM     13  C   UNL     1       7.224  -3.317   1.250  1.00  0.00     0.233 C 
ATOM     14  O   UNL     1       9.168  -0.819  -0.139  1.00  0.00    -0.274 OA
ATOM     15  C   UNL     1       9.311  -3.220   0.206  1.00  0.00     0.095 C 
ATOM     16  C   UNL     1       8.057  -4.081   0.266  1.00  0.00     0.095 C 
ATOM     17  O   UNL     1       6.340  -3.777   1.952  1.00  0.00    -0.274 OA
ATOM     18  C   UNL     1      10.115  -3.571  -1.029  1.00  0.00     0.041 C 
ATOM     19  C   UNL     1       8.412  -5.525   0.536  1.00  0.00     0.041 C 
ATOM     20  C   UNL     1      10.253  -5.077  -1.129  1.00  0.00    -0.030 C 
ATOM     21  C   UNL     1       9.517  -5.947  -0.408  1.00  0.00    -0.030 C 
ENDBRANCH  10  11
ENDBRANCH   9  10
ENDBRANCH   8   9
ENDBRANCH   7   8
ENDBRANCH   6   7
ENDBRANCH   4   6
ENDBRANCH   1   2
BRANCH   1  22
ATOM     22  C   UNL     1       2.464   2.852  -2.167  1.00  0.00     0.023 C 
BRANCH  22  23
ATOM     23  C   UNL     1       3.966   3.038  -2.414  1.00  0.00     0.023 C 
BRANCH  23  24
ATOM     24  C   UNL     1       4.529   2.306  -3.629  1.00  0.00     0.116 C 
BRANCH  24  25
ATOM     25  N   UNL     1       3.948   2.773  -4.878  1.00  0.00    -0.352 N 
ATOM     26  C   UNL     1       4.559   3.293  -5.994  1.00  0.00     0.251 C 
ATOM     27  H   UNL     1       2.967   2.706  -4.933  1.00  0.00     0.163 HD
ATOM     28  O   UNL     1       3.873   3.794  -6.881  1.00  0.00    -0.269 OA
BRANCH  26  29
ATOM     29  C   UNL     1       6.035   3.273  -6.126  1.00  0.00     0.039 A 
ATOM     30  C   UNL     1       6.682   4.410  -6.618  1.00  0.00     0.014 A 
ATOM     31  C   UNL     1       6.780   2.141  -5.786  1.00  0.00     0.014 A 
ATOM     32  C   UNL     1       8.077   4.434  -6.707  1.00  0.00     0.010 A 
ATOM     33  C   UNL     1       8.174   2.195  -5.801  1.00  0.00     0.010 A 
ATOM     34  C   UNL     1       8.839   3.340  -6.263  1.00  0.00    -0.014 A 
BRANCH  34  35
ATOM     35  C   UNL     1      10.327   3.388  -6.257  1.00  0.00     0.031 A 
ATOM     36  C   UNL     1      11.130   2.415  -7.079  1.00  0.00     0.074 A 
ATOM     37  C   UNL     1      10.960   4.260  -5.446  1.00  0.00     0.049 A 
ATOM     38  N   UNL     1      12.428   2.272  -7.152  1.00  0.00    -0.248 NA
ATOM     39  C   UNL     1      10.376   1.462  -7.909  1.00  0.00     0.031 C 
ATOM     40  C   UNL     1      10.302   5.207  -4.543  1.00  0.00     0.029 A 
ATOM     41  N   UNL     1      12.300   4.473  -5.228  1.00  0.00    -0.354 N 
ATOM     42  C   UNL     1      12.647   1.199  -8.008  1.00  0.00     0.074 A 
ATOM     43  C   UNL     1      11.346   0.704  -8.401  1.00  0.00     0.031 C 
ATOM     44  C   UNL     1      11.236   5.897  -3.871  1.00  0.00     0.029 A 
ATOM     45  C   UNL     1      12.558   5.420  -4.263  1.00  0.00     0.049 A 
ATOM     46  H   UNL     1      13.008   3.994  -5.715  1.00  0.00     0.167 HD
ATOM     47  C   UNL     1      13.822   0.687  -8.449  1.00  0.00     0.034 A 
ATOM     48  C   UNL     1      13.724   5.845  -3.737  1.00  0.00     0.034 A 
ATOM     49  C   UNL     1      15.115   1.197  -8.078  1.00  0.00     0.049 A 
ATOM     50  C   UNL     1      15.015   5.273  -4.257  1.00  0.00     0.074 A 
ATOM     51  C   UNL     1      16.360   0.795  -8.531  1.00  0.00     0.029 A 
ATOM     52  N   UNL     1      15.335   2.207  -7.155  1.00  0.00    -0.354 N 
ATOM     53  N   UNL     1      15.201   4.359  -5.179  1.00  0.00    -0.248 NA
ATOM     54  C   UNL     1      16.259   5.816  -3.692  1.00  0.00     0.031 C 
ATOM     55  C   UNL     1      17.333   1.537  -7.855  1.00  0.00     0.029 A 
ATOM     56  C   UNL     1      16.694   2.434  -7.014  1.00  0.00     0.049 A 
ATOM     57  H   UNL     1      14.629   2.693  -6.671  1.00  0.00     0.167 HD
ATOM     58  C   UNL     1      16.579   4.245  -5.330  1.00  0.00     0.074 A 
ATOM     59  C   UNL     1      17.179   5.199  -4.420  1.00  0.00     0.031 C 
ATOM     60  C   UNL     1      17.282   3.417  -6.141  1.00  0.00     0.034 A 
BRANCH  47  61
ATOM     61  C   UNL     1      13.764  -0.465  -9.421  1.00  0.00     0.023 A 
ATOM     62  C   UNL     1      13.303  -0.246 -10.736  1.00  0.00     0.012 A 
ATOM     63  C   UNL     1      14.221  -1.746  -9.055  1.00  0.00     0.148 A 
ATOM     64  C   UNL     1      13.261  -1.291 -11.658  1.00  0.00     0.002 A 
ATOM     65  C   UNL     1      14.221  -2.771  -9.994  1.00  0.00     0.091 A 
ATOM     66  F   UNL     1      14.640  -1.941  -7.797  1.00  0.00    -0.205 F 
ATOM     67  C   UNL     1      13.729  -2.549 -11.291  1.00  0.00     0.022 A 
BRANCH  65  68
ATOM     68  S   UNL     1      14.878  -4.407  -9.647  1.00  0.00     0.127 S 
ATOM     69  O   UNL     1      13.663  -5.221  -9.657  1.00  0.00    -0.237 OA
ATOM     70  O   UNL     1      15.770  -4.627 -10.786  1.00  0.00    -0.237 OA
ATOM     71  O   UNL     1      15.549  -4.307  -8.358  1.00  0.00    -0.744 OA
ENDBRANCH  65  68
ENDBRANCH  47  61
BRANCH  48  72
ATOM     72  C   UNL     1      13.726   6.901  -2.685  1.00  0.00     0.023 A 
ATOM     73  C   UNL     1      14.230   8.182  -2.984  1.00  0.00     0.012 A 
ATOM     74  C   UNL     1      13.216   6.648  -1.397  1.00  0.00     0.148 A 
ATOM     75  C   UNL     1      14.261   9.180  -2.009  1.00  0.00     0.002 A 
ATOM     76  C   UNL     1      13.196   7.663  -0.448  1.00  0.00     0.091 A 
ATOM     77  F   UNL     1      12.750   5.420  -1.129  1.00  0.00    -0.205 F 
ATOM     78  C   UNL     1      13.736   8.924  -0.745  1.00  0.00     0.022 A 
BRANCH  76  79
ATOM     79  S   UNL     1      12.420   7.465   1.160  1.00  0.00     0.127 S 
ATOM     80  O   UNL     1      13.573   7.501   2.055  1.00  0.00    -0.237 OA
ATOM     81  O   UNL     1      11.553   8.643   1.222  1.00  0.00    -0.237 OA
ATOM     82  O   UNL     1      11.705   6.197   1.101  1.00  0.00    -0.744 OA
ENDBRANCH  76  79
ENDBRANCH  48  72
BRANCH  60  83
ATOM     83  C   UNL     1      18.785   3.530  -6.125  1.00  0.00     0.023 A 
ATOM     84  C   UNL     1      19.517   3.084  -5.007  1.00  0.00     0.012 A 
ATOM     85  C   UNL     1      19.476   4.017  -7.253  1.00  0.00     0.148 A 
ATOM     86  C   UNL     1      20.910   3.156  -4.997  1.00  0.00     0.002 A 
ATOM     87  C   UNL     1      20.866   4.034  -7.257  1.00  0.00     0.091 A 
ATOM     88  F   UNL     1      18.762   4.452  -8.302  1.00  0.00    -0.205 F 
ATOM     89  C   UNL     1      21.584   3.618  -6.125  1.00  0.00     0.022 A 
BRANCH  87  90
ATOM     90  S   UNL     1      21.821   4.519  -8.699  1.00  0.00     0.127 S 
ATOM     91  O   UNL     1      22.398   5.789  -8.261  1.00  0.00    -0.237 OA
ATOM     92  O   UNL     1      22.780   3.421  -8.817  1.00  0.00    -0.237 OA
ATOM     93  O   UNL     1      20.871   4.614  -9.799  1.00  0.00    -0.744 OA
ENDBRANCH  87  90
ENDBRANCH  60  83
ENDBRANCH  34  35
ENDBRANCH  26  29
ENDBRANCH  24  25
ENDBRANCH  23  24
ENDBRANCH  22  23
ENDBRANCH   1  22
TORSDOF 19
