REMARK SMILES COc1cc(/C=C2/CCc3c2nc2ccccc2c3C(=O)NCCCCNC(=O)c2ccc(-c3c4nc(c(-c5cccc(S(=O)(=O)[O-])c5F)c5ccc([nH]5)c(-c5cccc(S(=O)(=O)[O-])c5F)c5nc(c(-c6cccc(S(=O)(=O)[O-])c6F)c6ccc3[nH]6)C=C5)C=C4)cc2)cc(Br)c1O
REMARK SMILES IDX 25 1 24 2 23 3 22 4 20 5 21 6 19 8 6 9 7 10 8 11 11 12 9 13
REMARK SMILES IDX 10 14 12 15 13 16 18 17 14 18 17 19 15 20 16 21 5 22 3 23
REMARK SMILES IDX 4 24 96 25 94 26 93 27 95 28 2 29 1 30 97 31 26 33 27 34
REMARK SMILES IDX 28 35 29 37 30 38 31 39 92 40 32 41 91 42 33 43 34 44 35 45
REMARK SMILES IDX 85 46 36 47 90 48 84 49 86 50 37 51 89 52 83 53 82 54 38 56
REMARK SMILES IDX 70 57 50 58 69 59 51 60 54 61 68 62 87 63 52 64 53 65 67 67
REMARK SMILES IDX 88 68 55 69 39 70 40 71 48 72 41 73 43 74 49 75 42 76 44 77
REMARK SMILES IDX 45 78 46 79 47 80 71 81 72 82 80 83 73 84 75 85 81 86 74 87
REMARK SMILES IDX 76 88 77 89 78 90 79 91 56 92 57 93 65 94 58 95 60 96 66 97
REMARK SMILES IDX 59 98 61 99 62 100 63 101 64 102
REMARK H PARENT 22 7 97 32 27 36 86 55 54 66
REMARK Flexibility Score: inf
ROOT
ATOM      1  C   UNL     1       0.850 -10.655  -0.122  1.00  0.00     0.023 C 
ENDROOT
BRANCH   1   2
ATOM      2  C   UNL     1       0.146  -9.323   0.092  1.00  0.00     0.023 C 
BRANCH   2   3
ATOM      3  C   UNL     1       0.991  -8.169   0.596  1.00  0.00     0.116 C 
BRANCH   3   4
ATOM      4  N   UNL     1       2.074  -7.691  -0.244  1.00  0.00    -0.352 N 
ATOM      5  C   UNL     1       2.626  -6.421  -0.302  1.00  0.00     0.252 C 
ATOM      6  O   UNL     1       3.711  -6.263  -0.854  1.00  0.00    -0.269 OA
ATOM      7  H   UNL     1       2.469  -8.357  -0.852  1.00  0.00     0.163 HD
BRANCH   5   8
ATOM      8  C   UNL     1       1.869  -5.251   0.216  1.00  0.00     0.054 A 
ATOM      9  C   UNL     1      -0.082  -3.218   3.939  1.00  0.00     0.014 C 
ATOM     10  C   UNL     1       0.011  -4.331   3.184  1.00  0.00    -0.021 C 
ATOM     11  C   UNL     1       0.510  -5.676   3.681  1.00  0.00     0.042 C 
ATOM     12  C   UNL     1       0.430  -4.270   1.787  1.00  0.00     0.071 A 
ATOM     13  C   UNL     1       1.730  -5.959   2.761  1.00  0.00     0.043 C 
ATOM     14  C   UNL     1       1.359  -5.239   1.502  1.00  0.00    -0.008 A 
ATOM     15  N   UNL     1       0.001  -3.303   0.971  1.00  0.00    -0.248 NA
ATOM     16  C   UNL     1       0.653  -3.182  -0.178  1.00  0.00     0.072 A 
ATOM     17  C   UNL     1       1.625  -4.112  -0.624  1.00  0.00     0.013 A 
ATOM     18  C   UNL     1       0.369  -2.046  -0.915  1.00  0.00     0.029 A 
ATOM     19  C   UNL     1       2.299  -3.796  -1.832  1.00  0.00     0.011 A 
ATOM     20  C   UNL     1       1.079  -1.728  -2.067  1.00  0.00     0.002 A 
ATOM     21  C   UNL     1       2.053  -2.603  -2.522  1.00  0.00     0.001 A 
BRANCH   9  22
ATOM     22  C   UNL     1       0.948  -2.180   3.683  1.00  0.00    -0.020 A 
ATOM     23  C   UNL     1       1.599  -0.078   2.714  1.00  0.00     0.162 A 
ATOM     24  C   UNL     1       0.597  -0.925   3.195  1.00  0.00     0.058 A 
ATOM     25  C   UNL     1       2.944  -0.468   2.719  1.00  0.00     0.172 A 
ATOM     26  C   UNL     1       3.306  -1.698   3.250  1.00  0.00     0.064 A 
ATOM     27  C   UNL     1       2.316  -2.530   3.770  1.00  0.00     0.028 A 
ATOM     28  Br  UNL     1       5.100  -2.308   3.238  1.00  0.00    -0.047 Br
BRANCH  23  29
ATOM     29  O   UNL     1       1.291   1.189   2.288  1.00  0.00    -0.493 OA
ATOM     30  C   UNL     1       0.764   1.165   0.962  1.00  0.00     0.278 C 
ENDBRANCH  23  29
BRANCH  25  31
ATOM     31  O   UNL     1       3.888   0.369   2.187  1.00  0.00    -0.503 OA
ATOM     32  H   UNL     1       3.633   1.197   1.831  1.00  0.00     0.293 HD
ENDBRANCH  25  31
ENDBRANCH   9  22
ENDBRANCH   5   8
ENDBRANCH   3   4
ENDBRANCH   2   3
ENDBRANCH   1   2
BRANCH   1  33
ATOM     33  C   UNL     1       2.005 -11.003   0.807  1.00  0.00     0.116 C 
BRANCH  33  34
ATOM     34  N   UNL     1       1.670 -11.142   2.223  1.00  0.00    -0.352 N 
ATOM     35  C   UNL     1       1.924 -12.210   3.063  1.00  0.00     0.251 C 
ATOM     36  H   UNL     1       1.204 -10.377   2.631  1.00  0.00     0.163 HD
ATOM     37  O   UNL     1       1.654 -12.159   4.260  1.00  0.00    -0.269 OA
BRANCH  35  38
ATOM     38  C   UNL     1       2.455 -13.443   2.454  1.00  0.00     0.039 A 
ATOM     39  C   UNL     1       3.659 -13.385   1.754  1.00  0.00     0.014 A 
ATOM     40  C   UNL     1       1.592 -14.533   2.325  1.00  0.00     0.014 A 
ATOM     41  C   UNL     1       3.853 -14.280   0.709  1.00  0.00     0.010 A 
ATOM     42  C   UNL     1       1.857 -15.494   1.350  1.00  0.00     0.010 A 
ATOM     43  C   UNL     1       2.932 -15.317   0.465  1.00  0.00    -0.014 A 
BRANCH  43  44
ATOM     44  C   UNL     1       3.066 -16.160  -0.754  1.00  0.00     0.031 A 
ATOM     45  C   UNL     1       1.960 -16.226  -1.784  1.00  0.00     0.074 A 
ATOM     46  C   UNL     1       4.211 -16.836  -0.963  1.00  0.00     0.049 A 
ATOM     47  N   UNL     1       1.882 -16.973  -2.857  1.00  0.00    -0.248 NA
ATOM     48  C   UNL     1       0.790 -15.351  -1.589  1.00  0.00     0.031 C 
ATOM     49  C   UNL     1       5.359 -16.845  -0.054  1.00  0.00     0.029 A 
ATOM     50  N   UNL     1       4.605 -17.634  -2.006  1.00  0.00    -0.354 N 
ATOM     51  C   UNL     1       0.637 -16.712  -3.421  1.00  0.00     0.074 A 
ATOM     52  C   UNL     1      -0.005 -15.722  -2.586  1.00  0.00     0.031 C 
ATOM     53  C   UNL     1       6.346 -17.565  -0.601  1.00  0.00     0.029 A 
ATOM     54  C   UNL     1       5.873 -18.140  -1.855  1.00  0.00     0.049 A 
ATOM     55  H   UNL     1       4.036 -17.825  -2.786  1.00  0.00     0.167 HD
ATOM     56  C   UNL     1       0.087 -17.240  -4.540  1.00  0.00     0.034 A 
ATOM     57  C   UNL     1       6.575 -18.997  -2.618  1.00  0.00     0.034 A 
ATOM     58  C   UNL     1       0.759 -18.163  -5.416  1.00  0.00     0.049 A 
ATOM     59  C   UNL     1       5.953 -19.550  -3.862  1.00  0.00     0.074 A 
ATOM     60  C   UNL     1       0.289 -18.730  -6.588  1.00  0.00     0.029 A 
ATOM     61  N   UNL     1       2.048 -18.634  -5.232  1.00  0.00    -0.354 N 
ATOM     62  N   UNL     1       4.778 -19.283  -4.378  1.00  0.00    -0.248 NA
ATOM     63  C   UNL     1       6.746 -20.518  -4.630  1.00  0.00     0.031 C 
ATOM     64  C   UNL     1       1.298 -19.541  -7.116  1.00  0.00     0.029 A 
ATOM     65  C   UNL     1       2.395 -19.476  -6.273  1.00  0.00     0.049 A 
ATOM     66  H   UNL     1       2.631 -18.404  -4.472  1.00  0.00     0.167 HD
ATOM     67  C   UNL     1       4.693 -20.043  -5.536  1.00  0.00     0.074 A 
ATOM     68  C   UNL     1       5.943 -20.765  -5.658  1.00  0.00     0.031 C 
ATOM     69  C   UNL     1       3.660 -20.149  -6.406  1.00  0.00     0.034 A 
BRANCH  56  70
ATOM     70  C   UNL     1      -1.303 -16.812  -4.930  1.00  0.00     0.023 A 
ATOM     71  C   UNL     1      -1.484 -15.600  -5.623  1.00  0.00     0.012 A 
ATOM     72  C   UNL     1      -2.406 -17.668  -4.730  1.00  0.00     0.148 A 
ATOM     73  C   UNL     1      -2.742 -15.242  -6.108  1.00  0.00     0.002 A 
ATOM     74  C   UNL     1      -3.651 -17.318  -5.240  1.00  0.00     0.091 A 
ATOM     75  F   UNL     1      -2.211 -18.812  -4.058  1.00  0.00    -0.205 F 
ATOM     76  C   UNL     1      -3.821 -16.104  -5.928  1.00  0.00     0.022 A 
BRANCH  74  77
ATOM     77  S   UNL     1      -5.091 -18.385  -5.116  1.00  0.00     0.127 S 
ATOM     78  O   UNL     1      -5.948 -17.617  -4.213  1.00  0.00    -0.237 OA
ATOM     79  O   UNL     1      -5.558 -18.436  -6.502  1.00  0.00    -0.237 OA
ATOM     80  O   UNL     1      -4.610 -19.653  -4.586  1.00  0.00    -0.744 OA
ENDBRANCH  74  77
ENDBRANCH  56  70
BRANCH  57  81
ATOM     81  C   UNL     1       7.961 -19.346  -2.210  1.00  0.00     0.023 A 
ATOM     82  C   UNL     1       9.044 -18.774  -2.902  1.00  0.00     0.012 A 
ATOM     83  C   UNL     1       8.203 -20.131  -1.066  1.00  0.00     0.148 A 
ATOM     84  C   UNL     1      10.350 -18.974  -2.455  1.00  0.00     0.002 A 
ATOM     85  C   UNL     1       9.501 -20.280  -0.596  1.00  0.00     0.091 A 
ATOM     86  F   UNL     1       7.151 -20.668  -0.433  1.00  0.00    -0.205 F 
ATOM     87  C   UNL     1      10.577 -19.711  -1.294  1.00  0.00     0.022 A 
BRANCH  85  88
ATOM     88  S   UNL     1       9.871 -21.084   0.967  1.00  0.00     0.127 S 
ATOM     89  O   UNL     1      10.577 -22.284   0.525  1.00  0.00    -0.237 OA
ATOM     90  O   UNL     1      10.710 -20.083   1.628  1.00  0.00    -0.237 OA
ATOM     91  O   UNL     1       8.585 -21.310   1.611  1.00  0.00    -0.744 OA
ENDBRANCH  85  88
ENDBRANCH  57  81
BRANCH  69  92
ATOM     92  C   UNL     1       3.830 -21.067  -7.581  1.00  0.00     0.023 A 
ATOM     93  C   UNL     1       3.638 -22.450  -7.407  1.00  0.00     0.012 A 
ATOM     94  C   UNL     1       4.077 -20.552  -8.868  1.00  0.00     0.148 A 
ATOM     95  C   UNL     1       3.698 -23.313  -8.499  1.00  0.00     0.002 A 
ATOM     96  C   UNL     1       4.106 -21.414  -9.956  1.00  0.00     0.091 A 
ATOM     97  F   UNL     1       4.270 -19.231  -9.001  1.00  0.00    -0.205 F 
ATOM     98  C   UNL     1       3.921 -22.795  -9.773  1.00  0.00     0.022 A 
BRANCH  96  99
ATOM     99  S   UNL     1       4.319 -20.833 -11.643  1.00  0.00     0.127 S 
ATOM    100  O   UNL     1       5.658 -21.326 -11.960  1.00  0.00    -0.237 OA
ATOM    101  O   UNL     1       3.234 -21.518 -12.345  1.00  0.00    -0.237 OA
ATOM    102  O   UNL     1       4.185 -19.384 -11.589  1.00  0.00    -0.744 OA
ENDBRANCH  96  99
ENDBRANCH  69  92
ENDBRANCH  43  44
ENDBRANCH  35  38
ENDBRANCH  33  34
ENDBRANCH   1  33
TORSDOF 17
