REMARK SMILES CC(C)c1ccc2c(c1)c(SC(C)(C)C)c(CC(C)(C)C(=O)NCCCCNC(=O)c1ccc(-c3c4nc(c(-c5cccc(S(=O)(=O)[O-])c5F)c5ccc([nH]5)c(-c5cccc(S(=O)(=O)[O-])c5F)c5nc(c(-c6cccc(S(=O)(=O)[O-])c6F)c6ccc3[nH]6)C=C5)C=C4)cc1)n2Cc1ccc(Cl)cc1
REMARK SMILES IDX 25 1 24 2 23 3 21 4 22 5 18 7 19 8 20 9 17 10 16 11 4 12
REMARK SMILES IDX 5 13 9 14 6 15 8 16 7 17 10 18 94 19 2 20 1 21 3 22 11 23
REMARK SMILES IDX 12 24 13 25 14 26 15 27 95 28 96 29 97 30 102 31 98 32
REMARK SMILES IDX 101 33 99 34 100 35 26 36 27 37 28 38 29 39 30 41 31 42
REMARK SMILES IDX 32 43 93 44 33 45 92 46 34 47 35 48 36 49 86 50 37 51 91 52
REMARK SMILES IDX 85 53 87 54 38 55 90 56 84 57 83 58 39 60 71 61 51 62 70 63
REMARK SMILES IDX 52 64 55 65 69 66 88 67 53 68 54 69 68 71 89 72 56 73 40 74
REMARK SMILES IDX 41 75 49 76 42 77 44 78 50 79 43 80 45 81 46 82 47 83 48 84
REMARK SMILES IDX 72 85 73 86 81 87 74 88 76 89 82 90 75 91 77 92 78 93 79 94
REMARK SMILES IDX 80 95 57 96 58 97 66 98 59 99 61 100 67 101 60 102 62 103
REMARK SMILES IDX 63 104 64 105 65 106
REMARK H PARENT 23 6 28 40 87 59 55 70
REMARK Flexibility Score: inf
ROOT
ATOM      1  C   UNL     1      -8.263   5.985   5.638  1.00  0.00     0.023 C 
ENDROOT
BRANCH   1   2
ATOM      2  C   UNL     1      -7.048   5.628   4.824  1.00  0.00     0.116 C 
BRANCH   2   3
ATOM      3  N   UNL     1      -6.955   4.201   4.539  1.00  0.00    -0.356 N 
ATOM      4  C   UNL     1      -6.634   3.600   3.342  1.00  0.00     0.226 C 
ATOM      5  O   UNL     1      -6.156   2.472   3.383  1.00  0.00    -0.275 OA
ATOM      6  H   UNL     1      -7.144   3.595   5.292  1.00  0.00     0.163 HD
BRANCH   4   7
ATOM      7  C   UNL     1      -6.658   4.478   2.090  1.00  0.00     0.049 C 
ATOM      8  C   UNL     1      -5.316   5.210   2.384  1.00  0.00     0.022 C 
ATOM      9  C   UNL     1      -8.057   5.182   2.062  1.00  0.00     0.022 C 
BRANCH   7  10
ATOM     10  C   UNL     1      -6.634   3.848   0.668  1.00  0.00     0.071 C 
BRANCH  10  11
ATOM     11  C   UNL     1      -5.396   3.192   0.249  1.00  0.00     0.034 A 
ATOM     12  C   UNL     1      -1.088   1.473   0.051  1.00  0.00    -0.045 A 
ATOM     13  C   UNL     1      -1.821   0.299   0.251  1.00  0.00     0.006 A 
ATOM     14  C   UNL     1      -1.813   2.675  -0.119  1.00  0.00     0.015 A 
ATOM     15  C   UNL     1      -3.221   0.295   0.318  1.00  0.00     0.027 A 
ATOM     16  C   UNL     1      -3.234   2.715  -0.069  1.00  0.00     0.014 A 
ATOM     17  C   UNL     1      -3.909   1.513   0.193  1.00  0.00     0.050 A 
ATOM     18  C   UNL     1      -4.215   3.772  -0.187  1.00  0.00     0.037 A 
ATOM     19  N   UNL     1      -5.261   1.808   0.299  1.00  0.00    -0.339 N 
BRANCH  12  20
ATOM     20  C   UNL     1       0.441   1.496   0.117  1.00  0.00     0.013 C 
ATOM     21  C   UNL     1       1.119   0.115   0.071  1.00  0.00     0.012 C 
ATOM     22  C   UNL     1       1.072   2.370  -0.976  1.00  0.00     0.012 C 
ENDBRANCH  12  20
BRANCH  18  23
ATOM     23  S   UNL     1      -3.743   5.460  -0.560  1.00  0.00    -0.118 SA
BRANCH  23  24
ATOM     24  C   UNL     1      -5.067   6.780  -0.837  1.00  0.00     0.012 C 
ATOM     25  C   UNL     1      -5.845   6.477  -2.122  1.00  0.00     0.023 C 
ATOM     26  C   UNL     1      -6.082   7.260   0.231  1.00  0.00     0.023 C 
ATOM     27  C   UNL     1      -4.221   8.072  -1.025  1.00  0.00     0.023 C 
ENDBRANCH  23  24
ENDBRANCH  18  23
BRANCH  19  28
ATOM     28  C   UNL     1      -6.353   0.791   0.244  1.00  0.00     0.158 C 
BRANCH  28  29
ATOM     29  C   UNL     1      -7.245   0.608   1.465  1.00  0.00    -0.028 A 
ATOM     30  C   UNL     1      -8.480   1.280   1.582  1.00  0.00     0.007 A 
ATOM     31  C   UNL     1      -6.863  -0.223   2.532  1.00  0.00     0.007 A 
ATOM     32  C   UNL     1      -9.180   1.317   2.794  1.00  0.00     0.021 A 
ATOM     33  C   UNL     1      -7.603  -0.245   3.726  1.00  0.00     0.021 A 
ATOM     34  C   UNL     1      -8.719   0.576   3.873  1.00  0.00     0.041 A 
ATOM     35  Cl  UNL     1      -9.502   0.712   5.399  1.00  0.00    -0.084 Cl
ENDBRANCH  28  29
ENDBRANCH  19  28
ENDBRANCH  10  11
ENDBRANCH   7  10
ENDBRANCH   4   7
ENDBRANCH   2   3
ENDBRANCH   1   2
BRANCH   1  36
ATOM     36  C   UNL     1      -8.136   5.481   7.066  1.00  0.00     0.023 C 
BRANCH  36  37
ATOM     37  C   UNL     1      -6.776   5.801   7.709  1.00  0.00     0.116 C 
BRANCH  37  38
ATOM     38  N   UNL     1      -6.428   7.209   7.661  1.00  0.00    -0.352 N 
ATOM     39  C   UNL     1      -6.717   8.274   8.467  1.00  0.00     0.251 C 
ATOM     40  H   UNL     1      -5.868   7.446   6.887  1.00  0.00     0.163 HD
ATOM     41  O   UNL     1      -6.157   9.337   8.192  1.00  0.00    -0.269 OA
BRANCH  39  42
ATOM     42  C   UNL     1      -7.709   8.232   9.570  1.00  0.00     0.039 A 
ATOM     43  C   UNL     1      -8.412   7.094   9.962  1.00  0.00     0.014 A 
ATOM     44  C   UNL     1      -8.009   9.458  10.187  1.00  0.00     0.014 A 
ATOM     45  C   UNL     1      -9.492   7.194  10.813  1.00  0.00     0.010 A 
ATOM     46  C   UNL     1      -9.059   9.558  11.088  1.00  0.00     0.010 A 
ATOM     47  C   UNL     1      -9.833   8.434  11.343  1.00  0.00    -0.014 A 
BRANCH  47  48
ATOM     48  C   UNL     1     -10.947   8.448  12.273  1.00  0.00     0.031 A 
ATOM     49  C   UNL     1     -10.721   7.571  13.452  1.00  0.00     0.074 A 
ATOM     50  C   UNL     1     -12.050   9.196  12.081  1.00  0.00     0.049 A 
ATOM     51  N   UNL     1     -11.308   6.451  13.721  1.00  0.00    -0.248 NA
ATOM     52  C   UNL     1      -9.571   7.869  14.321  1.00  0.00     0.031 C 
ATOM     53  C   UNL     1     -12.244  10.254  11.085  1.00  0.00     0.029 A 
ATOM     54  N   UNL     1     -13.191   9.258  12.822  1.00  0.00    -0.354 N 
ATOM     55  C   UNL     1     -10.777   6.046  14.943  1.00  0.00     0.074 A 
ATOM     56  C   UNL     1      -9.594   6.834  15.164  1.00  0.00     0.031 C 
ATOM     57  C   UNL     1     -13.293  11.022  11.456  1.00  0.00     0.029 A 
ATOM     58  C   UNL     1     -13.930  10.420  12.612  1.00  0.00     0.049 A 
ATOM     59  H   UNL     1     -13.466   8.549  13.446  1.00  0.00     0.167 HD
ATOM     60  C   UNL     1     -11.519   5.319  15.820  1.00  0.00     0.034 A 
ATOM     61  C   UNL     1     -14.938  10.870  13.399  1.00  0.00     0.034 A 
ATOM     62  C   UNL     1     -12.695   4.778  15.201  1.00  0.00     0.049 A 
ATOM     63  C   UNL     1     -15.483   9.687  14.101  1.00  0.00     0.074 A 
ATOM     64  C   UNL     1     -12.995   3.749  14.337  1.00  0.00     0.029 A 
ATOM     65  N   UNL     1     -13.742   5.659  15.180  1.00  0.00    -0.354 N 
ATOM     66  N   UNL     1     -16.078   8.701  13.490  1.00  0.00    -0.248 NA
ATOM     67  C   UNL     1     -15.091   9.429  15.482  1.00  0.00     0.031 C 
ATOM     68  C   UNL     1     -14.177   4.151  13.647  1.00  0.00     0.029 A 
ATOM     69  C   UNL     1     -14.587   5.388  14.141  1.00  0.00     0.049 A 
ATOM     70  H   UNL     1     -13.869   6.391  15.826  1.00  0.00     0.167 HD
ATOM     71  C   UNL     1     -15.727   7.593  14.236  1.00  0.00     0.074 A 
ATOM     72  C   UNL     1     -15.302   8.112  15.529  1.00  0.00     0.031 C 
ATOM     73  C   UNL     1     -15.492   6.394  13.634  1.00  0.00     0.034 A 
BRANCH  60  74
ATOM     74  C   UNL     1     -11.456   5.513  17.316  1.00  0.00     0.023 A 
ATOM     75  C   UNL     1     -12.028   4.530  18.149  1.00  0.00     0.012 A 
ATOM     76  C   UNL     1     -11.117   6.750  17.915  1.00  0.00     0.148 A 
ATOM     77  C   UNL     1     -12.228   4.761  19.517  1.00  0.00     0.002 A 
ATOM     78  C   UNL     1     -11.245   6.946  19.285  1.00  0.00     0.091 A 
ATOM     79  F   UNL     1     -10.804   7.793  17.140  1.00  0.00    -0.205 F 
ATOM     80  C   UNL     1     -11.816   5.960  20.089  1.00  0.00     0.022 A 
BRANCH  78  81
ATOM     81  S   UNL     1     -10.702   8.469  20.067  1.00  0.00     0.127 S 
ATOM     82  O   UNL     1     -11.982   9.082  20.429  1.00  0.00    -0.237 OA
ATOM     83  O   UNL     1      -9.922   7.957  21.198  1.00  0.00    -0.237 OA
ATOM     84  O   UNL     1      -9.918   9.164  19.066  1.00  0.00    -0.744 OA
ENDBRANCH  78  81
ENDBRANCH  60  74
BRANCH  61  85
ATOM     85  C   UNL     1     -15.277  12.248  13.841  1.00  0.00     0.023 A 
ATOM     86  C   UNL     1     -16.471  12.443  14.573  1.00  0.00     0.012 A 
ATOM     87  C   UNL     1     -14.313  13.277  13.865  1.00  0.00     0.148 A 
ATOM     88  C   UNL     1     -16.648  13.566  15.388  1.00  0.00     0.002 A 
ATOM     89  C   UNL     1     -14.498  14.399  14.670  1.00  0.00     0.091 A 
ATOM     90  F   UNL     1     -13.172  13.118  13.183  1.00  0.00    -0.205 F 
ATOM     91  C   UNL     1     -15.651  14.533  15.454  1.00  0.00     0.022 A 
BRANCH  89  92
ATOM     92  S   UNL     1     -13.251  15.687  14.810  1.00  0.00     0.127 S 
ATOM     93  O   UNL     1     -14.062  16.904  14.751  1.00  0.00    -0.237 OA
ATOM     94  O   UNL     1     -12.668  15.403  16.117  1.00  0.00    -0.237 OA
ATOM     95  O   UNL     1     -12.368  15.504  13.665  1.00  0.00    -0.744 OA
ENDBRANCH  89  92
ENDBRANCH  61  85
BRANCH  73  96
ATOM     96  C   UNL     1     -16.085   6.173  12.276  1.00  0.00     0.023 A 
ATOM     97  C   UNL     1     -15.589   6.783  11.107  1.00  0.00     0.012 A 
ATOM     98  C   UNL     1     -17.109   5.219  12.176  1.00  0.00     0.148 A 
ATOM     99  C   UNL     1     -16.113   6.441   9.857  1.00  0.00     0.002 A 
ATOM    100  C   UNL     1     -17.602   4.858  10.932  1.00  0.00     0.091 A 
ATOM    101  F   UNL     1     -17.560   4.659  13.309  1.00  0.00    -0.205 F 
ATOM    102  C   UNL     1     -17.110   5.469   9.768  1.00  0.00     0.022 A 
BRANCH 100 103
ATOM    103  S   UNL     1     -18.817   3.553  10.748  1.00  0.00     0.127 S 
ATOM    104  O   UNL     1     -19.989   4.291  10.282  1.00  0.00    -0.237 OA
ATOM    105  O   UNL     1     -18.194   2.692   9.742  1.00  0.00    -0.237 OA
ATOM    106  O   UNL     1     -18.954   2.936  12.062  1.00  0.00    -0.744 OA
ENDBRANCH 100 103
ENDBRANCH  73  96
ENDBRANCH  47  48
ENDBRANCH  39  42
ENDBRANCH  37  38
ENDBRANCH  36  37
ENDBRANCH   1  36
TORSDOF 21
