REMARK SMILES Cc1ccc(C(=O)NCCCCNC(=O)c2ccc(-c3c4nc(c(-c5cccc(S(=O)(=O)[O-])c5F)c5ccc([nH]5)c(-c5cccc(S(=O)(=O)[O-])c5F)c5nc(c(-c6cccc(S(=O)(=O)[O-])c6F)c6ccc3[nH]6)C=C5)C=C4)cc2)cc1CNC(=O)C[N@@H+]1CCC[C@]2(CCOC2)C1
REMARK SMILES IDX 10 1 9 2 8 3 6 4 7 5 5 7 1 8 2 9 3 10 80 11 4 12 79 13 81 14
REMARK SMILES IDX 82 15 83 16 84 18 85 19 86 20 87 21 95 22 88 24 90 25 89 26
REMARK SMILES IDX 91 27 94 28 92 29 93 30 11 31 12 32 13 33 14 34 15 36 16 37
REMARK SMILES IDX 17 38 78 39 18 40 77 41 19 42 20 43 21 44 71 45 22 46 76 47
REMARK SMILES IDX 70 48 72 49 23 50 75 51 69 52 68 53 24 55 56 56 36 57 55 58
REMARK SMILES IDX 37 59 40 60 54 61 73 62 38 63 39 64 53 66 74 67 41 68 25 69
REMARK SMILES IDX 26 70 34 71 27 72 29 73 35 74 28 75 30 76 31 77 32 78 33 79
REMARK SMILES IDX 57 80 58 81 66 82 59 83 61 84 67 85 60 86 62 87 63 88 64 89
REMARK SMILES IDX 65 90 42 91 43 92 51 93 44 94 46 95 52 96 45 97 47 98 48 99
REMARK SMILES IDX 49 100 50 101
REMARK H PARENT 8 6 82 17 86 23 13 35 72 54 40 65
REMARK Flexibility Score: inf
ROOT
ATOM      1  C   UNL     1      -4.195   2.597  -1.945  1.00  0.00     0.023 C 
ENDROOT
BRANCH   1   2
ATOM      2  C   UNL     1      -3.947   2.127  -0.509  1.00  0.00     0.116 C 
BRANCH   2   3
ATOM      3  N   UNL     1      -4.038   0.693  -0.351  1.00  0.00    -0.352 N 
ATOM      4  C   UNL     1      -3.144  -0.330  -0.170  1.00  0.00     0.251 C 
ATOM      5  O   UNL     1      -3.660  -1.446  -0.027  1.00  0.00    -0.269 OA
ATOM      6  H   UNL     1      -4.968   0.374  -0.380  1.00  0.00     0.163 HD
BRANCH   4   7
ATOM      7  C   UNL     1      -1.640  -0.252  -0.150  1.00  0.00     0.040 A 
ATOM      8  C   UNL     1       2.716  -0.655  -0.068  1.00  0.00     0.044 C 
ATOM      9  C   UNL     1       1.227  -0.439  -0.092  1.00  0.00    -0.046 A 
ATOM     10  C   UNL     1       0.421  -1.583  -0.072  1.00  0.00     0.004 A 
ATOM     11  C   UNL     1       0.597   0.815  -0.150  1.00  0.00    -0.025 A 
ATOM     12  C   UNL     1      -0.975  -1.489  -0.099  1.00  0.00     0.014 A 
ATOM     13  C   UNL     1      -0.829   0.885  -0.164  1.00  0.00     0.019 A 
BRANCH  11  14
ATOM     14  C   UNL     1       1.350   2.125  -0.184  1.00  0.00     0.152 C 
BRANCH  14  15
ATOM     15  N   UNL     1       1.157   2.804  -1.450  1.00  0.00    -0.347 N 
ATOM     16  C   UNL     1       0.837   4.117  -1.652  1.00  0.00     0.275 C 
ATOM     17  H   UNL     1       1.268   2.254  -2.259  1.00  0.00     0.164 HD
ATOM     18  O   UNL     1       0.767   4.550  -2.803  1.00  0.00    -0.268 OA
BRANCH  16  19
ATOM     19  C   UNL     1       0.586   5.006  -0.434  1.00  0.00     0.363 C 
BRANCH  19  20
ATOM     20  N   UNL     1      -0.659   4.589   0.226  1.00  0.00    -0.327 N 
ATOM     21  C   UNL     1      -1.857   5.065  -0.472  1.00  0.00     0.262 C 
ATOM     22  C   UNL     1      -0.710   4.899   1.656  1.00  0.00     0.272 C 
ATOM     23  H   UNL     1      -0.654   3.571   0.162  1.00  0.00     0.348 HD
ATOM     24  C   UNL     1      -2.172   6.535  -0.245  1.00  0.00     0.062 C 
ATOM     25  C   UNL     1      -1.075   6.351   2.023  1.00  0.00     0.045 C 
ATOM     26  C   UNL     1      -2.328   6.796   1.248  1.00  0.00     0.021 C 
ATOM     27  C   UNL     1       0.086   7.335   1.850  1.00  0.00     0.043 C 
ATOM     28  C   UNL     1      -1.317   6.390   3.524  1.00  0.00     0.173 C 
ATOM     29  C   UNL     1       0.603   7.611   3.248  1.00  0.00     0.161 C 
ATOM     30  O   UNL     1      -0.065   6.713   4.130  1.00  0.00    -0.381 OA
ENDBRANCH  19  20
ENDBRANCH  16  19
ENDBRANCH  14  15
ENDBRANCH  11  14
ENDBRANCH   4   7
ENDBRANCH   2   3
ENDBRANCH   1   2
BRANCH   1  31
ATOM     31  C   UNL     1      -5.661   2.864  -2.327  1.00  0.00     0.023 C 
BRANCH  31  32
ATOM     32  C   UNL     1      -6.371   3.964  -1.536  1.00  0.00     0.116 C 
BRANCH  32  33
ATOM     33  N   UNL     1      -5.670   5.242  -1.618  1.00  0.00    -0.352 N 
ATOM     34  C   UNL     1      -5.933   6.421  -0.947  1.00  0.00     0.251 C 
ATOM     35  H   UNL     1      -4.905   5.267  -2.237  1.00  0.00     0.163 HD
ATOM     36  O   UNL     1      -5.637   7.481  -1.480  1.00  0.00    -0.269 OA
BRANCH  34  37
ATOM     37  C   UNL     1      -6.452   6.389   0.435  1.00  0.00     0.039 A 
ATOM     38  C   UNL     1      -7.091   7.504   1.003  1.00  0.00     0.014 A 
ATOM     39  C   UNL     1      -6.133   5.291   1.223  1.00  0.00     0.014 A 
ATOM     40  C   UNL     1      -7.368   7.523   2.370  1.00  0.00     0.010 A 
ATOM     41  C   UNL     1      -6.526   5.248   2.526  1.00  0.00     0.010 A 
ATOM     42  C   UNL     1      -7.037   6.407   3.121  1.00  0.00    -0.014 A 
BRANCH  42  43
ATOM     43  C   UNL     1      -7.077   6.314   4.569  1.00  0.00     0.031 A 
ATOM     44  C   UNL     1      -8.319   5.895   5.225  1.00  0.00     0.074 A 
ATOM     45  C   UNL     1      -5.849   6.070   5.075  1.00  0.00     0.049 A 
ATOM     46  N   UNL     1      -8.383   5.494   6.444  1.00  0.00    -0.248 NA
ATOM     47  C   UNL     1      -9.613   5.904   4.544  1.00  0.00     0.031 C 
ATOM     48  C   UNL     1      -5.438   5.053   6.036  1.00  0.00     0.029 A 
ATOM     49  N   UNL     1      -4.651   6.685   4.705  1.00  0.00    -0.354 N 
ATOM     50  C   UNL     1      -9.614   4.900   6.597  1.00  0.00     0.074 A 
ATOM     51  C   UNL     1     -10.393   5.336   5.468  1.00  0.00     0.031 C 
ATOM     52  C   UNL     1      -4.144   5.260   6.350  1.00  0.00     0.029 A 
ATOM     53  C   UNL     1      -3.788   6.563   5.795  1.00  0.00     0.049 A 
ATOM     54  H   UNL     1      -4.454   7.120   3.845  1.00  0.00     0.167 HD
ATOM     55  C   UNL     1      -9.759   3.962   7.570  1.00  0.00     0.034 A 
ATOM     56  C   UNL     1      -3.538   7.675   6.559  1.00  0.00     0.034 A 
ATOM     57  C   UNL     1      -8.579   3.952   8.448  1.00  0.00     0.049 A 
ATOM     58  C   UNL     1      -4.047   7.522   7.967  1.00  0.00     0.074 A 
ATOM     59  C   UNL     1      -7.482   3.114   8.533  1.00  0.00     0.029 A 
ATOM     60  N   UNL     1      -8.254   5.103   9.167  1.00  0.00    -0.354 N 
ATOM     61  N   UNL     1      -5.015   6.719   8.310  1.00  0.00    -0.248 NA
ATOM     62  C   UNL     1      -3.462   8.217   9.106  1.00  0.00     0.031 C 
ATOM     63  C   UNL     1      -6.441   3.837   9.186  1.00  0.00     0.029 A 
ATOM     64  C   UNL     1      -6.922   5.087   9.551  1.00  0.00     0.049 A 
ATOM     65  H   UNL     1      -8.886   5.829   9.374  1.00  0.00     0.167 HD
ATOM     66  C   UNL     1      -5.255   6.830   9.643  1.00  0.00     0.074 A 
ATOM     67  C   UNL     1      -4.219   7.742  10.109  1.00  0.00     0.031 C 
ATOM     68  C   UNL     1      -6.326   6.230  10.242  1.00  0.00     0.034 A 
BRANCH  55  69
ATOM     69  C   UNL     1     -10.857   2.914   7.641  1.00  0.00     0.023 A 
ATOM     70  C   UNL     1     -10.883   2.098   8.794  1.00  0.00     0.012 A 
ATOM     71  C   UNL     1     -11.807   2.594   6.635  1.00  0.00     0.148 A 
ATOM     72  C   UNL     1     -11.792   1.043   8.948  1.00  0.00     0.002 A 
ATOM     73  C   UNL     1     -12.765   1.592   6.823  1.00  0.00     0.091 A 
ATOM     74  F   UNL     1     -11.739   3.175   5.435  1.00  0.00    -0.205 F 
ATOM     75  C   UNL     1     -12.750   0.803   7.974  1.00  0.00     0.022 A 
BRANCH  73  76
ATOM     76  S   UNL     1     -14.081   1.270   5.630  1.00  0.00     0.127 S 
ATOM     77  O   UNL     1     -13.693  -0.030   5.085  1.00  0.00    -0.237 OA
ATOM     78  O   UNL     1     -15.273   1.242   6.478  1.00  0.00    -0.237 OA
ATOM     79  O   UNL     1     -14.049   2.376   4.681  1.00  0.00    -0.744 OA
ENDBRANCH  73  76
ENDBRANCH  55  69
BRANCH  56  80
ATOM     80  C   UNL     1      -3.537   8.963   5.780  1.00  0.00     0.023 A 
ATOM     81  C   UNL     1      -2.377   9.254   5.033  1.00  0.00     0.012 A 
ATOM     82  C   UNL     1      -4.747   9.591   5.410  1.00  0.00     0.148 A 
ATOM     83  C   UNL     1      -2.459   9.953   3.822  1.00  0.00     0.002 A 
ATOM     84  C   UNL     1      -4.815  10.309   4.215  1.00  0.00     0.091 A 
ATOM     85  F   UNL     1      -5.824   9.400   6.182  1.00  0.00    -0.205 F 
ATOM     86  C   UNL     1      -3.687  10.432   3.389  1.00  0.00     0.022 A 
BRANCH  84  87
ATOM     87  S   UNL     1      -6.328  11.060   3.601  1.00  0.00     0.127 S 
ATOM     88  O   UNL     1      -6.054  12.478   3.824  1.00  0.00    -0.237 OA
ATOM     89  O   UNL     1      -6.334  10.658   2.194  1.00  0.00    -0.237 OA
ATOM     90  O   UNL     1      -7.408  10.492   4.394  1.00  0.00    -0.744 OA
ENDBRANCH  84  87
ENDBRANCH  56  80
BRANCH  68  91
ATOM     91  C   UNL     1      -6.894   6.731  11.547  1.00  0.00     0.023 A 
ATOM     92  C   UNL     1      -6.658   8.053  11.986  1.00  0.00     0.012 A 
ATOM     93  C   UNL     1      -7.824   5.969  12.289  1.00  0.00     0.148 A 
ATOM     94  C   UNL     1      -7.223   8.562  13.154  1.00  0.00     0.002 A 
ATOM     95  C   UNL     1      -8.479   6.523  13.384  1.00  0.00     0.091 A 
ATOM     96  F   UNL     1      -8.074   4.699  11.940  1.00  0.00    -0.205 F 
ATOM     97  C   UNL     1      -8.150   7.802  13.845  1.00  0.00     0.022 A 
BRANCH  95  98
ATOM     98  S   UNL     1      -9.877   5.698  14.152  1.00  0.00     0.127 S 
ATOM     99  O   UNL     1      -9.251   5.062  15.309  1.00  0.00    -0.237 OA
ATOM    100  O   UNL     1     -10.761   6.820  14.476  1.00  0.00    -0.237 OA
ATOM    101  O   UNL     1     -10.404   4.800  13.133  1.00  0.00    -0.744 OA
ENDBRANCH  95  98
ENDBRANCH  68  91
ENDBRANCH  42  43
ENDBRANCH  34  37
ENDBRANCH  32  33
ENDBRANCH  31  32
ENDBRANCH   1  31
TORSDOF 18
