REMARK SMILES O=C(NCCCCNC(=O)c1ccc(NC(=O)c2ccc([N+](=O)[O-])cc2Cl)cc1Cl)c1ccc(-c2c3nc(c(-c4cccc(S(=O)(=O)[O-])c4F)c4ccc([nH]4)c(-c4cccc(S(=O)(=O)[O-])c4F)c4nc(c(-c5cccc(S(=O)(=O)[O-])c5F)c5ccc2[nH]5)C=C4)C=C3)cc1
REMARK SMILES IDX 5 1 4 2 3 3 1 4 2 5 31 7 32 8 93 9 33 10 92 11 34 12 35 13
REMARK SMILES IDX 36 14 86 15 37 16 91 17 85 18 87 19 38 20 90 21 84 22 83 23
REMARK SMILES IDX 39 25 71 26 51 27 70 28 52 29 55 30 69 31 88 32 53 33 54 34
REMARK SMILES IDX 68 36 89 37 56 38 40 39 41 40 49 41 42 42 44 43 50 44 43 45
REMARK SMILES IDX 45 46 46 47 47 48 48 49 72 50 73 51 81 52 74 53 76 54 82 55
REMARK SMILES IDX 75 56 77 57 78 58 79 59 80 60 57 61 58 62 66 63 59 64 61 65
REMARK SMILES IDX 67 66 60 67 62 68 63 69 64 70 65 71 6 72 7 73 8 74 9 75
REMARK SMILES IDX 10 77 11 78 12 79 29 80 13 81 28 82 30 83 14 84 15 85 16 86
REMARK SMILES IDX 17 88 18 89 19 90 26 91 20 92 25 93 27 94 21 95 22 96 23 97
REMARK SMILES IDX 24 98
REMARK H PARENT 3 6 87 24 55 35 8 76 15 87
REMARK Flexibility Score: inf
ROOT
ATOM      1  C   UNL     1       5.018   0.705  -2.714  1.00  0.00     0.023 C 
ENDROOT
BRANCH   1   2
ATOM      2  C   UNL     1       4.650   0.722  -1.238  1.00  0.00     0.116 C 
BRANCH   2   3
ATOM      3  N   UNL     1       3.218   0.690  -0.988  1.00  0.00    -0.352 N 
ATOM      4  O   UNL     1       1.277  -0.089  -0.141  1.00  0.00    -0.269 OA
ATOM      5  C   UNL     1       2.503  -0.144  -0.155  1.00  0.00     0.251 C 
ATOM      6  H   UNL     1       2.686   1.355  -1.481  1.00  0.00     0.163 HD
BRANCH   5   7
ATOM      7  C   UNL     1       3.221  -1.133   0.683  1.00  0.00     0.039 A 
ATOM      8  C   UNL     1       4.365  -0.764   1.391  1.00  0.00     0.014 A 
ATOM      9  C   UNL     1       2.766  -2.455   0.730  1.00  0.00     0.014 A 
ATOM     10  C   UNL     1       5.151  -1.744   1.986  1.00  0.00     0.010 A 
ATOM     11  C   UNL     1       3.507  -3.422   1.420  1.00  0.00     0.010 A 
ATOM     12  C   UNL     1       4.730  -3.085   2.017  1.00  0.00    -0.014 A 
BRANCH  12  13
ATOM     13  C   UNL     1       5.566  -4.077   2.744  1.00  0.00     0.031 A 
ATOM     14  C   UNL     1       6.215  -5.240   2.042  1.00  0.00     0.074 A 
ATOM     15  C   UNL     1       5.777  -3.885   4.061  1.00  0.00     0.049 A 
ATOM     16  N   UNL     1       7.049  -6.126   2.526  1.00  0.00    -0.248 NA
ATOM     17  C   UNL     1       5.885  -5.448   0.623  1.00  0.00     0.031 C 
ATOM     18  C   UNL     1       5.152  -2.830   4.864  1.00  0.00     0.029 A 
ATOM     19  N   UNL     1       6.583  -4.544   4.953  1.00  0.00    -0.354 N 
ATOM     20  C   UNL     1       7.321  -7.010   1.488  1.00  0.00     0.074 A 
ATOM     21  C   UNL     1       6.552  -6.562   0.346  1.00  0.00     0.031 C 
ATOM     22  C   UNL     1       5.634  -2.881   6.113  1.00  0.00     0.029 A 
ATOM     23  C   UNL     1       6.564  -3.999   6.216  1.00  0.00     0.049 A 
ATOM     24  H   UNL     1       7.124  -5.331   4.712  1.00  0.00     0.167 HD
ATOM     25  C   UNL     1       8.150  -8.082   1.482  1.00  0.00     0.034 A 
ATOM     26  C   UNL     1       7.220  -4.356   7.336  1.00  0.00     0.034 A 
ATOM     27  C   UNL     1       8.943  -8.502   2.609  1.00  0.00     0.049 A 
ATOM     28  C   UNL     1       8.180  -5.507   7.279  1.00  0.00     0.074 A 
ATOM     29  C   UNL     1       9.841  -9.553   2.687  1.00  0.00     0.029 A 
ATOM     30  N   UNL     1       8.938  -7.892   3.854  1.00  0.00    -0.354 N 
ATOM     31  N   UNL     1       8.511  -6.252   6.252  1.00  0.00    -0.248 NA
ATOM     32  C   UNL     1       8.879  -5.850   8.524  1.00  0.00     0.031 C 
ATOM     33  C   UNL     1      10.377  -9.579   3.979  1.00  0.00     0.029 A 
ATOM     34  C   UNL     1       9.818  -8.540   4.705  1.00  0.00     0.049 A 
ATOM     35  H   UNL     1       8.389  -7.111   4.098  1.00  0.00     0.167 HD
ATOM     36  C   UNL     1       9.458  -7.150   6.726  1.00  0.00     0.074 A 
ATOM     37  C   UNL     1       9.684  -6.822   8.119  1.00  0.00     0.031 C 
ATOM     38  C   UNL     1      10.061  -8.176   6.077  1.00  0.00     0.034 A 
BRANCH  25  39
ATOM     39  C   UNL     1       8.299  -8.854   0.195  1.00  0.00     0.023 A 
ATOM     40  C   UNL     1       9.081  -8.310  -0.844  1.00  0.00     0.012 A 
ATOM     41  C   UNL     1       7.755 -10.145   0.047  1.00  0.00     0.148 A 
ATOM     42  C   UNL     1       9.305  -9.030  -2.017  1.00  0.00     0.002 A 
ATOM     43  C   UNL     1       8.011 -10.871  -1.112  1.00  0.00     0.091 A 
ATOM     44  F   UNL     1       7.000 -10.638   1.038  1.00  0.00    -0.205 F 
ATOM     45  C   UNL     1       8.780 -10.313  -2.147  1.00  0.00     0.022 A 
BRANCH  43  46
ATOM     46  S   UNL     1       7.440 -12.559  -1.349  1.00  0.00     0.127 S 
ATOM     47  O   UNL     1       6.403 -12.378  -2.365  1.00  0.00    -0.237 OA
ATOM     48  O   UNL     1       8.649 -13.231  -1.827  1.00  0.00    -0.237 OA
ATOM     49  O   UNL     1       6.968 -13.009  -0.048  1.00  0.00    -0.744 OA
ENDBRANCH  43  46
ENDBRANCH  25  39
BRANCH  26  50
ATOM     50  C   UNL     1       7.020  -3.571   8.586  1.00  0.00     0.023 A 
ATOM     51  C   UNL     1       8.066  -2.772   9.082  1.00  0.00     0.012 A 
ATOM     52  C   UNL     1       5.777  -3.563   9.248  1.00  0.00     0.148 A 
ATOM     53  C   UNL     1       7.885  -1.995  10.228  1.00  0.00     0.002 A 
ATOM     54  C   UNL     1       5.583  -2.737  10.349  1.00  0.00     0.091 A 
ATOM     55  F   UNL     1       4.796  -4.347   8.778  1.00  0.00    -0.205 F 
ATOM     56  C   UNL     1       6.639  -1.965  10.852  1.00  0.00     0.022 A 
BRANCH  54  57
ATOM     57  S   UNL     1       3.956  -2.533  11.082  1.00  0.00     0.127 S 
ATOM     58  O   UNL     1       3.990  -3.506  12.169  1.00  0.00    -0.237 OA
ATOM     59  O   UNL     1       3.975  -1.133  11.508  1.00  0.00    -0.237 OA
ATOM     60  O   UNL     1       3.022  -2.807   9.998  1.00  0.00    -0.744 OA
ENDBRANCH  54  57
ENDBRANCH  26  50
BRANCH  38  61
ATOM     61  C   UNL     1      11.014  -9.023   6.876  1.00  0.00     0.023 A 
ATOM     62  C   UNL     1      10.499  -9.928   7.827  1.00  0.00     0.012 A 
ATOM     63  C   UNL     1      12.404  -8.954   6.668  1.00  0.00     0.148 A 
ATOM     64  C   UNL     1      11.355 -10.724   8.584  1.00  0.00     0.002 A 
ATOM     65  C   UNL     1      13.250  -9.781   7.399  1.00  0.00     0.091 A 
ATOM     66  F   UNL     1      12.878  -8.070   5.778  1.00  0.00    -0.205 F 
ATOM     67  C   UNL     1      12.729 -10.658   8.364  1.00  0.00     0.022 A 
BRANCH  65  68
ATOM     68  S   UNL     1      15.024  -9.810   7.119  1.00  0.00     0.127 S 
ATOM     69  O   UNL     1      15.512  -8.956   8.199  1.00  0.00    -0.237 OA
ATOM     70  O   UNL     1      15.346 -11.230   7.272  1.00  0.00    -0.237 OA
ATOM     71  O   UNL     1      15.215  -9.296   5.769  1.00  0.00    -0.744 OA
ENDBRANCH  65  68
ENDBRANCH  38  61
ENDBRANCH  12  13
ENDBRANCH   5   7
ENDBRANCH   2   3
ENDBRANCH   1   2
BRANCH   1  72
ATOM     72  C   UNL     1       4.550   1.903  -3.531  1.00  0.00     0.023 C 
BRANCH  72  73
ATOM     73  C   UNL     1       4.822   3.275  -2.923  1.00  0.00     0.116 C 
BRANCH  73  74
ATOM     74  N   UNL     1       6.218   3.517  -2.587  1.00  0.00    -0.352 N 
ATOM     75  C   UNL     1       6.995   4.620  -2.850  1.00  0.00     0.252 C 
ATOM     76  H   UNL     1       6.669   2.788  -2.103  1.00  0.00     0.163 HD
ATOM     77  O   UNL     1       8.158   4.681  -2.464  1.00  0.00    -0.269 OA
BRANCH  75  78
ATOM     78  C   UNL     1       6.473   5.682  -3.725  1.00  0.00     0.058 A 
ATOM     79  C   UNL     1       7.137   5.859  -4.939  1.00  0.00     0.017 A 
ATOM     80  C   UNL     1       5.349   6.454  -3.435  1.00  0.00     0.055 A 
ATOM     81  C   UNL     1       6.592   6.693  -5.915  1.00  0.00     0.027 A 
ATOM     82  C   UNL     1       4.775   7.237  -4.444  1.00  0.00     0.047 A 
ATOM     83  Cl  UNL     1       4.610   6.473  -1.875  1.00  0.00    -0.083 Cl
ATOM     84  C   UNL     1       5.348   7.294  -5.721  1.00  0.00     0.043 A 
BRANCH  84  85
ATOM     85  N   UNL     1       4.595   7.933  -6.728  1.00  0.00    -0.322 N 
ATOM     86  C   UNL     1       4.691   7.949  -8.103  1.00  0.00     0.257 C 
ATOM     87  H   UNL     1       3.853   8.477  -6.378  1.00  0.00     0.170 HD
ATOM     88  O   UNL     1       3.915   8.628  -8.773  1.00  0.00    -0.269 OA
BRANCH  86  89
ATOM     89  C   UNL     1       5.730   7.194  -8.817  1.00  0.00     0.059 A 
ATOM     90  C   UNL     1       6.764   7.949  -9.391  1.00  0.00     0.022 A 
ATOM     91  C   UNL     1       5.747   5.794  -8.883  1.00  0.00     0.060 A 
ATOM     92  C   UNL     1       7.870   7.304  -9.944  1.00  0.00     0.086 A 
ATOM     93  C   UNL     1       6.860   5.143  -9.426  1.00  0.00     0.107 A 
ATOM     94  Cl  UNL     1       4.462   4.825  -8.261  1.00  0.00    -0.083 Cl
ATOM     95  C   UNL     1       7.927   5.903  -9.931  1.00  0.00     0.270 A 
BRANCH  95  96
ATOM     96  N   UNL     1       9.136   5.228 -10.415  1.00  0.00     0.062 N 
ATOM     97  O   UNL     1       9.974   5.915 -11.016  1.00  0.00    -0.258 OA
ATOM     98  O   UNL     1       9.251   4.019 -10.178  1.00  0.00    -0.258 OA
ENDBRANCH  95  96
ENDBRANCH  86  89
ENDBRANCH  84  85
ENDBRANCH  75  78
ENDBRANCH  73  74
ENDBRANCH  72  73
ENDBRANCH   1  72
TORSDOF 17
