REMARK SMILES Cc1cccc(NC(=O)[C@H]2CCCCC[C@@H]2[NH3+])c1C(=O)NCCCCNC(=O)c1ccc(-c2c3nc(c(-c4cccc(S(=O)(=O)[O-])c4F)c4ccc([nH]4)c(-c4cccc(S(=O)(=O)[O-])c4F)c4nc(c(-c5cccc(S(=O)(=O)[O-])c5F)c5ccc2[nH]5)C=C4)C=C3)cc1
REMARK SMILES IDX 22 1 21 2 19 3 20 4 18 6 1 7 2 8 3 9 4 10 6 11 5 12 7 13
REMARK SMILES IDX 8 14 9 16 10 17 11 18 12 19 13 20 14 21 16 23 15 24 17 26
REMARK SMILES IDX 23 30 24 31 25 32 26 33 27 34 28 36 29 37 30 38 91 39 31 40
REMARK SMILES IDX 90 41 32 42 33 43 34 44 84 45 35 46 89 47 83 48 85 49 36 50
REMARK SMILES IDX 88 51 82 52 81 53 37 55 69 56 49 57 68 58 50 59 53 60 67 61
REMARK SMILES IDX 86 62 51 63 52 64 66 66 87 67 54 68 38 69 39 70 47 71 40 72
REMARK SMILES IDX 42 73 48 74 41 75 43 76 44 77 45 78 46 79 70 80 71 81 79 82
REMARK SMILES IDX 72 83 74 84 80 85 73 86 75 87 76 88 77 89 78 90 55 91 56 92
REMARK SMILES IDX 64 93 57 94 59 95 65 96 58 97 60 98 61 99 62 100 63 101
REMARK H PARENT 21 5 7 15 17 27 17 28 17 29 26 35 85 54 53 65
REMARK Flexibility Score: 90.00
ROOT
ATOM      1  C   UNL     1      -6.881   6.857   4.194  1.00  0.00     0.116 C 
ENDROOT
BRANCH   1   2
ATOM      2  N   UNL     1      -6.785   5.439   3.932  1.00  0.00    -0.352 N 
ATOM      3  C   UNL     1      -6.404   4.642   2.888  1.00  0.00     0.253 C 
ATOM      4  O   UNL     1      -6.812   3.479   3.022  1.00  0.00    -0.269 OA
ATOM      5  H   UNL     1      -7.069   4.907   4.710  1.00  0.00     0.163 HD
BRANCH   3   6
ATOM      6  C   UNL     1      -5.499   4.950   1.698  1.00  0.00     0.066 A 
ATOM      7  C   UNL     1      -6.184   7.431   1.162  1.00  0.00     0.045 C 
ATOM      8  C   UNL     1      -5.353   6.194   1.016  1.00  0.00    -0.036 A 
ATOM      9  C   UNL     1      -4.407   6.324  -0.025  1.00  0.00     0.004 A 
ATOM     10  C   UNL     1      -3.690   5.247  -0.489  1.00  0.00     0.002 A 
ATOM     11  C   UNL     1      -4.768   3.811   1.162  1.00  0.00     0.054 A 
ATOM     12  C   UNL     1      -3.890   4.006   0.088  1.00  0.00     0.027 A 
BRANCH  11  13
ATOM     13  N   UNL     1      -4.945   2.511   1.726  1.00  0.00    -0.325 N 
ATOM     14  C   UNL     1      -4.600   1.220   1.436  1.00  0.00     0.233 C 
ATOM     15  H   UNL     1      -5.462   2.557   2.563  1.00  0.00     0.169 HD
ATOM     16  O   UNL     1      -4.899   0.367   2.280  1.00  0.00    -0.274 OA
BRANCH  14  17
ATOM     17  C   UNL     1      -3.938   0.796   0.121  1.00  0.00     0.137 C 
BRANCH  17  18
ATOM     18  C   UNL     1      -3.228  -0.575   0.173  1.00  0.00     0.020 C 
BRANCH  18  19
ATOM     19  C   UNL     1      -4.084  -1.823   0.360  1.00  0.00     0.001 C 
BRANCH  19  20
ATOM     20  C   UNL     1      -4.710  -2.403  -0.900  1.00  0.00     0.000 C 
BRANCH  20  21
ATOM     21  C   UNL     1      -5.314  -1.427  -1.898  1.00  0.00     0.006 CG0
ATOM     22  G   UNL     1      -5.911  -0.156  -1.299  1.00  0.00     0.000 G0
ENDBRANCH  20  21
ENDBRANCH  19  20
ENDBRANCH  18  19
ENDBRANCH  17  18
BRANCH  17  23
ATOM     23  C   UNL     1      -4.919   0.999  -1.055  1.00  0.00     0.193 C 
BRANCH  23  24
ATOM     24  C   UNL     1      -5.911  -0.156  -1.299  1.00  0.00     0.066 CG0
ATOM     25  G   UNL     1      -5.314  -1.427  -1.898  1.00  0.00     0.000 G0
ENDBRANCH  23  24
BRANCH  23  26
ATOM     26  N   UNL     1      -4.180   1.336  -2.288  1.00  0.00    -0.354 N 
ATOM     27  H   UNL     1      -3.593   0.547  -2.558  1.00  0.00     0.344 HD
ATOM     28  H   UNL     1      -3.595   2.154  -2.120  1.00  0.00     0.344 HD
ATOM     29  H   UNL     1      -4.843   1.539  -3.036  1.00  0.00     0.344 HD
ENDBRANCH  23  26
ENDBRANCH  17  23
ENDBRANCH  14  17
ENDBRANCH  11  13
ENDBRANCH   3   6
ENDBRANCH   1   2
BRANCH   1  30
ATOM     30  C   UNL     1      -8.170   7.410   3.569  1.00  0.00     0.023 C 
BRANCH  30  31
ATOM     31  C   UNL     1      -9.494   7.179   4.307  1.00  0.00     0.023 C 
BRANCH  31  32
ATOM     32  C   UNL     1      -9.782   8.097   5.481  1.00  0.00     0.116 C 
BRANCH  32  33
ATOM     33  N   UNL     1      -9.709   9.505   5.099  1.00  0.00    -0.352 N 
ATOM     34  C   UNL     1      -9.504  10.624   5.880  1.00  0.00     0.251 C 
ATOM     35  H   UNL     1      -9.824   9.682   4.137  1.00  0.00     0.163 HD
ATOM     36  O   UNL     1      -9.990  11.686   5.514  1.00  0.00    -0.269 OA
BRANCH  34  37
ATOM     37  C   UNL     1      -8.634  10.537   7.069  1.00  0.00     0.039 A 
ATOM     38  C   UNL     1      -8.540  11.571   8.010  1.00  0.00     0.014 A 
ATOM     39  C   UNL     1      -7.743   9.476   7.128  1.00  0.00     0.014 A 
ATOM     40  C   UNL     1      -7.450  11.594   8.881  1.00  0.00     0.010 A 
ATOM     41  C   UNL     1      -6.891   9.337   8.168  1.00  0.00     0.010 A 
ATOM     42  C   UNL     1      -6.596  10.500   8.869  1.00  0.00    -0.014 A 
BRANCH  42  43
ATOM     43  C   UNL     1      -5.226  10.454   9.343  1.00  0.00     0.031 A 
ATOM     44  C   UNL     1      -4.975  10.025  10.718  1.00  0.00     0.074 A 
ATOM     45  C   UNL     1      -4.350  10.241   8.327  1.00  0.00     0.049 A 
ATOM     46  N   UNL     1      -3.807   9.914  11.241  1.00  0.00    -0.248 NA
ATOM     47  C   UNL     1      -6.061   9.678  11.628  1.00  0.00     0.031 C 
ATOM     48  C   UNL     1      -3.178   9.381   8.318  1.00  0.00     0.029 A 
ATOM     49  N   UNL     1      -4.406  10.713   7.006  1.00  0.00    -0.354 N 
ATOM     50  C   UNL     1      -3.964   9.137  12.371  1.00  0.00     0.074 A 
ATOM     51  C   UNL     1      -5.371   9.210  12.671  1.00  0.00     0.031 C 
ATOM     52  C   UNL     1      -2.487   9.608   7.186  1.00  0.00     0.029 A 
ATOM     53  C   UNL     1      -3.086  10.773   6.551  1.00  0.00     0.049 A 
ATOM     54  H   UNL     1      -5.215  10.954   6.500  1.00  0.00     0.167 HD
ATOM     55  C   UNL     1      -2.918   8.357  12.770  1.00  0.00     0.034 A 
ATOM     56  C   UNL     1      -2.453  11.971   6.350  1.00  0.00     0.034 A 
ATOM     57  C   UNL     1      -1.736   8.622  11.917  1.00  0.00     0.049 A 
ATOM     58  C   UNL     1      -1.339  12.202   7.365  1.00  0.00     0.074 A 
ATOM     59  C   UNL     1      -1.132   7.913  10.891  1.00  0.00     0.029 A 
ATOM     60  N   UNL     1      -1.212   9.913  11.851  1.00  0.00    -0.354 N 
ATOM     61  N   UNL     1      -1.073  11.391   8.354  1.00  0.00    -0.248 NA
ATOM     62  C   UNL     1      -0.438  13.350   7.357  1.00  0.00     0.031 C 
ATOM     63  C   UNL     1      -0.343   8.827  10.130  1.00  0.00     0.029 A 
ATOM     64  C   UNL     1      -0.430  10.081  10.713  1.00  0.00     0.049 A 
ATOM     65  H   UNL     1      -1.374  10.614  12.523  1.00  0.00     0.167 HD
ATOM     66  C   UNL     1      -0.133  11.933   9.183  1.00  0.00     0.074 A 
ATOM     67  C   UNL     1       0.300  13.120   8.460  1.00  0.00     0.031 C 
ATOM     68  C   UNL     1       0.156  11.392  10.410  1.00  0.00     0.034 A 
BRANCH  55  69
ATOM     69  C   UNL     1      -2.990   7.158  13.720  1.00  0.00     0.023 A 
ATOM     70  C   UNL     1      -1.816   6.380  13.852  1.00  0.00     0.012 A 
ATOM     71  C   UNL     1      -4.110   6.684  14.451  1.00  0.00     0.148 A 
ATOM     72  C   UNL     1      -1.767   5.196  14.601  1.00  0.00     0.002 A 
ATOM     73  C   UNL     1      -4.065   5.506  15.207  1.00  0.00     0.091 A 
ATOM     74  F   UNL     1      -5.257   7.355  14.443  1.00  0.00    -0.205 F 
ATOM     75  C   UNL     1      -2.895   4.752  15.274  1.00  0.00     0.022 A 
BRANCH  73  76
ATOM     76  S   UNL     1      -5.493   4.874  16.117  1.00  0.00     0.127 S 
ATOM     77  O   UNL     1      -5.666   3.544  15.532  1.00  0.00    -0.237 OA
ATOM     78  O   UNL     1      -5.006   4.872  17.496  1.00  0.00    -0.237 OA
ATOM     79  O   UNL     1      -6.595   5.794  15.859  1.00  0.00    -0.744 OA
ENDBRANCH  73  76
ENDBRANCH  55  69
BRANCH  56  80
ATOM     80  C   UNL     1      -3.367  13.014   5.777  1.00  0.00     0.023 A 
ATOM     81  C   UNL     1      -3.815  12.791   4.451  1.00  0.00     0.012 A 
ATOM     82  C   UNL     1      -4.130  13.847   6.616  1.00  0.00     0.148 A 
ATOM     83  C   UNL     1      -5.071  13.237   4.033  1.00  0.00     0.002 A 
ATOM     84  C   UNL     1      -5.396  14.266   6.201  1.00  0.00     0.091 A 
ATOM     85  F   UNL     1      -3.661  14.121   7.840  1.00  0.00    -0.205 F 
ATOM     86  C   UNL     1      -5.883  13.929   4.927  1.00  0.00     0.022 A 
BRANCH  84  87
ATOM     87  S   UNL     1      -6.537  15.095   7.320  1.00  0.00     0.127 S 
ATOM     88  O   UNL     1      -6.403  16.485   6.900  1.00  0.00    -0.237 OA
ATOM     89  O   UNL     1      -7.816  14.475   6.987  1.00  0.00    -0.237 OA
ATOM     90  O   UNL     1      -6.052  14.778   8.658  1.00  0.00    -0.744 OA
ENDBRANCH  84  87
ENDBRANCH  56  80
BRANCH  68  91
ATOM     91  C   UNL     1       1.009  12.063  11.471  1.00  0.00     0.023 A 
ATOM     92  C   UNL     1       1.208  13.456  11.513  1.00  0.00     0.012 A 
ATOM     93  C   UNL     1       1.516  11.315  12.565  1.00  0.00     0.148 A 
ATOM     94  C   UNL     1       1.930  14.068  12.544  1.00  0.00     0.002 A 
ATOM     95  C   UNL     1       2.111  11.944  13.653  1.00  0.00     0.091 A 
ATOM     96  F   UNL     1       1.444   9.976  12.553  1.00  0.00    -0.205 F 
ATOM     97  C   UNL     1       2.358  13.316  13.629  1.00  0.00     0.022 A 
BRANCH  95  98
ATOM     98  S   UNL     1       2.412  11.047  15.183  1.00  0.00     0.127 S 
ATOM     99  O   UNL     1       3.804  10.632  15.023  1.00  0.00    -0.237 OA
ATOM    100  O   UNL     1       2.196  12.079  16.199  1.00  0.00    -0.237 OA
ATOM    101  O   UNL     1       1.418   9.982  15.197  1.00  0.00    -0.744 OA
ENDBRANCH  95  98
ENDBRANCH  68  91
ENDBRANCH  42  43
ENDBRANCH  34  37
ENDBRANCH  32  33
ENDBRANCH  31  32
ENDBRANCH  30  31
ENDBRANCH   1  30
TORSDOF 17
