REMARK SMILES COc1ccc2c(c1)c(Cc1nc(-c3ccc(C(=O)NCCCCNC(=O)c4ccc(-c5c6nc(c(-c7cccc(S(=O)(=O)[O-])c7F)c7ccc([nH]7)c(-c7cccc(S(=O)(=O)[O-])c7F)c7nc(c(-c8cccc(S(=O)(=O)[O-])c8F)c8ccc5[nH]8)C=C7)C=C6)cc4)cc3)cs1)c(C)n2C(=O)c1ccc(Cl)cc1
REMARK SMILES IDX 21 1 20 2 18 3 19 4 17 6 14 7 15 8 92 9 16 10 91 11 13 12
REMARK SMILES IDX 11 13 12 14 94 15 93 16 10 17 9 18 3 19 4 20 8 21 5 22 7 23
REMARK SMILES IDX 6 24 97 25 95 26 96 27 2 28 1 29 98 30 99 31 100 32 101 33
REMARK SMILES IDX 106 34 102 35 105 36 103 37 104 38 22 39 23 40 24 41 25 42
REMARK SMILES IDX 26 43 27 45 28 46 29 47 90 48 30 49 89 50 31 51 32 52 33 53
REMARK SMILES IDX 83 54 34 55 88 56 82 57 84 58 35 59 87 60 81 61 80 62 36 64
REMARK SMILES IDX 68 65 48 66 67 67 49 68 52 69 66 70 85 71 50 72 51 73 65 75
REMARK SMILES IDX 86 76 53 77 37 78 38 79 46 80 39 81 41 82 47 83 40 84 42 85
REMARK SMILES IDX 43 86 44 87 45 88 69 89 70 90 78 91 71 92 73 93 79 94 72 95
REMARK SMILES IDX 74 96 75 97 76 98 77 99 54 100 55 101 63 102 56 103 58 104
REMARK SMILES IDX 64 105 57 106 59 107 60 108 61 109 62 110
REMARK H PARENT 20 5 25 44 84 63 52 74
REMARK Flexibility Score: inf
ROOT
ATOM      1  C   UNL     1      -4.096  -3.469  -5.124  1.00  0.00     0.116 C 
ENDROOT
BRANCH   1   2
ATOM      2  N   UNL     1      -3.035  -3.800  -6.060  1.00  0.00    -0.352 N 
ATOM      3  C   UNL     1      -1.982  -3.041  -6.517  1.00  0.00     0.251 C 
ATOM      4  O   UNL     1      -1.173  -3.547  -7.293  1.00  0.00    -0.269 OA
ATOM      5  H   UNL     1      -3.076  -4.714  -6.425  1.00  0.00     0.163 HD
BRANCH   3   6
ATOM      6  C   UNL     1      -1.847  -1.603  -6.164  1.00  0.00     0.039 A 
ATOM      7  C   UNL     1      -1.889   1.177  -5.750  1.00  0.00     0.001 A 
ATOM      8  C   UNL     1      -1.414   0.652  -6.957  1.00  0.00     0.011 A 
ATOM      9  C   UNL     1      -2.217   0.294  -4.712  1.00  0.00     0.011 A 
ATOM     10  C   UNL     1      -1.399  -0.731  -7.164  1.00  0.00     0.014 A 
ATOM     11  C   UNL     1      -2.163  -1.088  -4.907  1.00  0.00     0.014 A 
BRANCH   7  12
ATOM     12  C   UNL     1      -2.024   2.608  -5.532  1.00  0.00     0.081 A 
ATOM     13  C   UNL     1      -1.962   4.436  -4.287  1.00  0.00     0.098 A 
ATOM     14  N   UNL     1      -1.948   3.122  -4.257  1.00  0.00    -0.241 NA
ATOM     15  S   UNL     1      -2.274   5.124  -5.829  1.00  0.00    -0.126 S 
ATOM     16  C   UNL     1      -2.270   3.547  -6.514  1.00  0.00     0.095 A 
BRANCH  13  17
ATOM     17  C   UNL     1      -1.682   5.286  -3.085  1.00  0.00     0.105 C 
BRANCH  17  18
ATOM     18  C   UNL     1      -0.217   5.243  -2.716  1.00  0.00    -0.012 A 
ATOM     19  C   UNL     1       0.942   1.870  -1.330  1.00  0.00     0.119 A 
ATOM     20  C   UNL     1       2.243   2.256  -1.063  1.00  0.00     0.048 A 
ATOM     21  C   UNL     1       0.054   2.795  -1.874  1.00  0.00     0.057 A 
ATOM     22  C   UNL     1       2.668   3.563  -1.332  1.00  0.00     0.031 A 
ATOM     23  C   UNL     1       0.467   4.113  -2.184  1.00  0.00     0.008 A 
ATOM     24  C   UNL     1       1.792   4.485  -1.949  1.00  0.00     0.057 A 
ATOM     25  N   UNL     1       1.968   5.800  -2.426  1.00  0.00    -0.280 N 
ATOM     26  C   UNL     1       0.709   6.271  -2.838  1.00  0.00     0.028 A 
ATOM     27  C   UNL     1       0.410   7.641  -3.364  1.00  0.00     0.065 C 
BRANCH  19  28
ATOM     28  O   UNL     1       0.446   0.610  -1.139  1.00  0.00    -0.497 OA
ATOM     29  C   UNL     1       0.948  -0.062   0.011  1.00  0.00     0.278 C 
ENDBRANCH  19  28
BRANCH  25  30
ATOM     30  C   UNL     1       3.203   6.515  -2.471  1.00  0.00     0.262 C 
ATOM     31  O   UNL     1       3.205   7.707  -2.776  1.00  0.00    -0.268 OA
BRANCH  30  32
ATOM     32  C   UNL     1       4.524   5.957  -2.137  1.00  0.00     0.040 A 
ATOM     33  C   UNL     1       5.098   4.941  -2.910  1.00  0.00     0.015 A 
ATOM     34  C   UNL     1       5.176   6.447  -0.999  1.00  0.00     0.015 A 
ATOM     35  C   UNL     1       6.291   4.351  -2.483  1.00  0.00     0.021 A 
ATOM     36  C   UNL     1       6.371   5.861  -0.584  1.00  0.00     0.021 A 
ATOM     37  C   UNL     1       6.912   4.803  -1.316  1.00  0.00     0.041 A 
ATOM     38  Cl  UNL     1       8.347   4.033  -0.759  1.00  0.00    -0.084 Cl
ENDBRANCH  30  32
ENDBRANCH  25  30
ENDBRANCH  17  18
ENDBRANCH  13  17
ENDBRANCH   7  12
ENDBRANCH   3   6
ENDBRANCH   1   2
BRANCH   1  39
ATOM     39  C   UNL     1      -5.458  -4.051  -5.473  1.00  0.00     0.023 C 
BRANCH  39  40
ATOM     40  C   UNL     1      -5.551  -5.570  -5.586  1.00  0.00     0.023 C 
BRANCH  40  41
ATOM     41  C   UNL     1      -4.880  -6.379  -4.473  1.00  0.00     0.116 C 
BRANCH  41  42
ATOM     42  N   UNL     1      -5.243  -6.006  -3.121  1.00  0.00    -0.352 N 
ATOM     43  C   UNL     1      -6.201  -6.424  -2.236  1.00  0.00     0.251 C 
ATOM     44  H   UNL     1      -4.673  -5.291  -2.757  1.00  0.00     0.163 HD
ATOM     45  O   UNL     1      -6.044  -6.066  -1.066  1.00  0.00    -0.269 OA
BRANCH  43  46
ATOM     46  C   UNL     1      -7.429  -7.176  -2.605  1.00  0.00     0.039 A 
ATOM     47  C   UNL     1      -7.733  -7.620  -3.889  1.00  0.00     0.014 A 
ATOM     48  C   UNL     1      -8.398  -7.324  -1.594  1.00  0.00     0.014 A 
ATOM     49  C   UNL     1      -9.022  -8.020  -4.204  1.00  0.00     0.010 A 
ATOM     50  C   UNL     1      -9.680  -7.770  -1.894  1.00  0.00     0.010 A 
ATOM     51  C   UNL     1     -10.009  -8.032  -3.219  1.00  0.00    -0.014 A 
BRANCH  51  52
ATOM     52  C   UNL     1     -11.369  -8.325  -3.651  1.00  0.00     0.031 A 
ATOM     53  C   UNL     1     -11.560  -9.632  -4.340  1.00  0.00     0.074 A 
ATOM     54  C   UNL     1     -12.402  -7.488  -3.431  1.00  0.00     0.049 A 
ATOM     55  N   UNL     1     -11.894  -9.847  -5.574  1.00  0.00    -0.248 NA
ATOM     56  C   UNL     1     -11.223 -10.845  -3.583  1.00  0.00     0.031 C 
ATOM     57  C   UNL     1     -12.451  -6.301  -2.574  1.00  0.00     0.029 A 
ATOM     58  N   UNL     1     -13.689  -7.615  -3.854  1.00  0.00    -0.354 N 
ATOM     59  C   UNL     1     -12.003 -11.230  -5.696  1.00  0.00     0.074 A 
ATOM     60  C   UNL     1     -11.454 -11.797  -4.488  1.00  0.00     0.031 C 
ATOM     61  C   UNL     1     -13.743  -5.983  -2.334  1.00  0.00     0.029 A 
ATOM     62  C   UNL     1     -14.593  -6.844  -3.133  1.00  0.00     0.049 A 
ATOM     63  H   UNL     1     -13.955  -8.198  -4.601  1.00  0.00     0.167 HD
ATOM     64  C   UNL     1     -12.713 -11.834  -6.688  1.00  0.00     0.034 A 
ATOM     65  C   UNL     1     -15.939  -6.999  -3.138  1.00  0.00     0.034 A 
ATOM     66  C   UNL     1     -13.020 -10.957  -7.779  1.00  0.00     0.049 A 
ATOM     67  C   UNL     1     -16.284  -7.693  -4.403  1.00  0.00     0.074 A 
ATOM     68  C   UNL     1     -12.285 -10.249  -8.707  1.00  0.00     0.029 A 
ATOM     69  N   UNL     1     -14.286 -10.430  -7.825  1.00  0.00    -0.354 N 
ATOM     70  N   UNL     1     -16.121  -7.173  -5.587  1.00  0.00    -0.248 NA
ATOM     71  C   UNL     1     -16.460  -9.136  -4.369  1.00  0.00     0.031 C 
ATOM     72  C   UNL     1     -13.006  -9.033  -8.895  1.00  0.00     0.029 A 
ATOM     73  C   UNL     1     -14.144  -9.093  -8.088  1.00  0.00     0.049 A 
ATOM     74  H   UNL     1     -15.131 -10.917  -7.695  1.00  0.00     0.167 HD
ATOM     75  C   UNL     1     -15.753  -8.242  -6.391  1.00  0.00     0.074 A 
ATOM     76  C   UNL     1     -16.084  -9.434  -5.615  1.00  0.00     0.031 C 
ATOM     77  C   UNL     1     -14.960  -8.062  -7.488  1.00  0.00     0.034 A 
BRANCH  64  78
ATOM     78  C   UNL     1     -13.403 -13.158  -6.516  1.00  0.00     0.023 A 
ATOM     79  C   UNL     1     -13.750 -13.903  -7.660  1.00  0.00     0.012 A 
ATOM     80  C   UNL     1     -13.941 -13.573  -5.277  1.00  0.00     0.148 A 
ATOM     81  C   UNL     1     -14.589 -15.020  -7.571  1.00  0.00     0.002 A 
ATOM     82  C   UNL     1     -14.713 -14.724  -5.183  1.00  0.00     0.091 A 
ATOM     83  F   UNL     1     -13.811 -12.782  -4.205  1.00  0.00    -0.205 F 
ATOM     84  C   UNL     1     -15.057 -15.441  -6.330  1.00  0.00     0.022 A 
BRANCH  82  85
ATOM     85  S   UNL     1     -15.297 -15.324  -3.596  1.00  0.00     0.127 S 
ATOM     86  O   UNL     1     -16.691 -14.891  -3.615  1.00  0.00    -0.237 OA
ATOM     87  O   UNL     1     -15.093 -16.768  -3.725  1.00  0.00    -0.237 OA
ATOM     88  O   UNL     1     -14.434 -14.688  -2.609  1.00  0.00    -0.744 OA
ENDBRANCH  82  85
ENDBRANCH  64  78
BRANCH  65  89
ATOM     89  C   UNL     1     -16.895  -6.923  -2.004  1.00  0.00     0.023 A 
ATOM     90  C   UNL     1     -18.278  -6.957  -2.284  1.00  0.00     0.012 A 
ATOM     91  C   UNL     1     -16.486  -7.134  -0.668  1.00  0.00     0.148 A 
ATOM     92  C   UNL     1     -19.212  -7.265  -1.288  1.00  0.00     0.002 A 
ATOM     93  C   UNL     1     -17.421  -7.425   0.322  1.00  0.00     0.091 A 
ATOM     94  F   UNL     1     -15.179  -7.155  -0.379  1.00  0.00    -0.205 F 
ATOM     95  C   UNL     1     -18.783  -7.513   0.011  1.00  0.00     0.022 A 
BRANCH  93  96
ATOM     96  S   UNL     1     -16.930  -7.756   2.021  1.00  0.00     0.127 S 
ATOM     97  O   UNL     1     -17.960  -7.047   2.783  1.00  0.00    -0.237 OA
ATOM     98  O   UNL     1     -17.015  -9.211   2.085  1.00  0.00    -0.237 OA
ATOM     99  O   UNL     1     -15.595  -7.188   2.160  1.00  0.00    -0.744 OA
ENDBRANCH  93  96
ENDBRANCH  65  89
BRANCH  77 100
ATOM    100  C   UNL     1     -14.670  -6.648  -7.921  1.00  0.00     0.023 A 
ATOM    101  C   UNL     1     -13.863  -5.791  -7.141  1.00  0.00     0.012 A 
ATOM    102  C   UNL     1     -15.054  -6.239  -9.208  1.00  0.00     0.148 A 
ATOM    103  C   UNL     1     -13.459  -4.546  -7.630  1.00  0.00     0.002 A 
ATOM    104  C   UNL     1     -14.623  -5.013  -9.704  1.00  0.00     0.091 A 
ATOM    105  F   UNL     1     -15.800  -7.078  -9.941  1.00  0.00    -0.205 F 
ATOM    106  C   UNL     1     -13.830  -4.162  -8.916  1.00  0.00     0.022 A 
BRANCH 104 107
ATOM    107  S   UNL     1     -14.969  -4.496 -11.387  1.00  0.00     0.127 S 
ATOM    108  O   UNL     1     -15.857  -3.348 -11.176  1.00  0.00    -0.237 OA
ATOM    109  O   UNL     1     -13.634  -4.145 -11.882  1.00  0.00    -0.237 OA
ATOM    110  O   UNL     1     -15.575  -5.635 -12.049  1.00  0.00    -0.744 OA
ENDBRANCH 104 107
ENDBRANCH  77 100
ENDBRANCH  51  52
ENDBRANCH  43  46
ENDBRANCH  41  42
ENDBRANCH  40  41
ENDBRANCH  39  40
ENDBRANCH   1  39
TORSDOF 20
