REMARK SMILES C[C@@H]1CCCN(c2ccc(NC(=O)Cc3cccs3)c(C(=O)NCCCCNC(=O)c3ccc(-c4c5nc(c(-c6cccc(S(=O)(=O)[O-])c6F)c6ccc([nH]6)c(-c6cccc(S(=O)(=O)[O-])c6F)c6nc(c(-c7cccc(S(=O)(=O)[O-])c7F)c7ccc4[nH]7)C=C6)C=C5)cc3)c2)C1
REMARK SMILES IDX 25 1 24 2 23 3 21 4 22 5 20 7 7 8 8 9 94 10 9 11 10 12 6 13
REMARK SMILES IDX 1 14 2 15 3 16 95 17 4 18 5 19 11 20 12 21 13 23 14 24 15 25
REMARK SMILES IDX 16 26 19 27 17 28 18 29 26 30 27 31 28 32 29 33 30 35 31 36
REMARK SMILES IDX 32 37 93 38 33 39 92 40 34 41 35 42 36 43 86 44 37 45 91 46
REMARK SMILES IDX 85 47 87 48 38 49 90 50 84 51 83 52 39 54 71 55 51 56 70 57
REMARK SMILES IDX 52 58 55 59 69 60 88 61 53 62 54 63 68 65 89 66 56 67 40 68
REMARK SMILES IDX 41 69 49 70 42 71 44 72 50 73 43 74 45 75 46 76 47 77 48 78
REMARK SMILES IDX 72 79 73 80 81 81 74 82 76 83 82 84 75 85 77 86 78 87 79 88
REMARK SMILES IDX 80 89 57 90 58 91 66 92 59 93 61 94 67 95 60 96 62 97 63 98
REMARK SMILES IDX 64 99 65 100
REMARK H PARENT 23 6 11 22 28 34 87 53 55 64
REMARK Flexibility Score: inf
ROOT
ATOM      1  C   UNL     1       0.868  -0.507  -5.040  1.00  0.00     0.023 C 
ENDROOT
BRANCH   1   2
ATOM      2  C   UNL     1       1.842   0.051  -4.010  1.00  0.00     0.116 C 
BRANCH   2   3
ATOM      3  N   UNL     1       2.848   0.969  -4.517  1.00  0.00    -0.352 N 
ATOM      4  C   UNL     1       3.508   2.012  -3.892  1.00  0.00     0.253 C 
ATOM      5  O   UNL     1       4.356   2.637  -4.529  1.00  0.00    -0.269 OA
ATOM      6  H   UNL     1       3.101   0.826  -5.458  1.00  0.00     0.163 HD
BRANCH   4   7
ATOM      7  C   UNL     1       3.178   2.462  -2.502  1.00  0.00     0.065 A 
ATOM      8  C   UNL     1       2.144   1.905  -0.365  1.00  0.00     0.038 A 
ATOM      9  C   UNL     1       2.172   3.260  -0.043  1.00  0.00     0.028 A 
ATOM     10  C   UNL     1       2.770   1.518  -1.546  1.00  0.00     0.042 A 
ATOM     11  C   UNL     1       2.744   4.205  -0.900  1.00  0.00     0.029 A 
ATOM     12  C   UNL     1       3.198   3.841  -2.167  1.00  0.00     0.054 A 
BRANCH   8  13
ATOM     13  N   UNL     1       1.454   1.011   0.432  1.00  0.00    -0.371 N 
ATOM     14  C   UNL     1      -2.283   0.284   0.089  1.00  0.00     0.009 C 
ATOM     15  C   UNL     1      -0.783   0.144  -0.169  1.00  0.00     0.005 C 
ATOM     16  C   UNL     1      -0.300  -1.260   0.220  1.00  0.00     0.007 C 
ATOM     17  C   UNL     1       0.009   1.222   0.597  1.00  0.00     0.119 C 
ATOM     18  C   UNL     1       1.203  -1.395  -0.016  1.00  0.00     0.022 C 
ATOM     19  C   UNL     1       1.978  -0.317   0.738  1.00  0.00     0.116 C 
ENDBRANCH   8  13
BRANCH  12  20
ATOM     20  N   UNL     1       3.655   4.782  -3.122  1.00  0.00    -0.325 N 
ATOM     21  C   UNL     1       3.589   6.138  -3.263  1.00  0.00     0.229 C 
ATOM     22  H   UNL     1       4.137   4.353  -3.866  1.00  0.00     0.169 HD
ATOM     23  O   UNL     1       4.159   6.632  -4.246  1.00  0.00    -0.274 OA
BRANCH  21  24
ATOM     24  C   UNL     1       2.887   7.064  -2.291  1.00  0.00     0.147 C 
BRANCH  24  25
ATOM     25  C   UNL     1       1.387   6.929  -2.267  1.00  0.00     0.014 A 
ATOM     26  C   UNL     1       0.549   5.954  -2.777  1.00  0.00     0.016 A 
ATOM     27  S   UNL     1       0.477   8.150  -1.462  1.00  0.00    -0.148 S 
ATOM     28  C   UNL     1      -0.823   6.186  -2.470  1.00  0.00     0.012 A 
ATOM     29  C   UNL     1      -1.003   7.359  -1.778  1.00  0.00     0.065 A 
ENDBRANCH  24  25
ENDBRANCH  21  24
ENDBRANCH  12  20
ENDBRANCH   4   7
ENDBRANCH   2   3
ENDBRANCH   1   2
BRANCH   1  30
ATOM     30  C   UNL     1       1.460  -1.319  -6.188  1.00  0.00     0.023 C 
BRANCH  30  31
ATOM     31  C   UNL     1       2.468  -2.403  -5.816  1.00  0.00     0.116 C 
BRANCH  31  32
ATOM     32  N   UNL     1       1.953  -3.409  -4.894  1.00  0.00    -0.352 N 
ATOM     33  C   UNL     1       1.854  -4.777  -5.035  1.00  0.00     0.251 C 
ATOM     34  H   UNL     1       1.623  -3.055  -4.037  1.00  0.00     0.163 HD
ATOM     35  O   UNL     1       1.337  -5.445  -4.148  1.00  0.00    -0.269 OA
BRANCH  33  36
ATOM     36  C   UNL     1       2.327  -5.433  -6.276  1.00  0.00     0.039 A 
ATOM     37  C   UNL     1       1.473  -6.322  -6.935  1.00  0.00     0.014 A 
ATOM     38  C   UNL     1       3.580  -5.138  -6.816  1.00  0.00     0.014 A 
ATOM     39  C   UNL     1       1.825  -6.820  -8.193  1.00  0.00     0.010 A 
ATOM     40  C   UNL     1       3.894  -5.570  -8.102  1.00  0.00     0.010 A 
ATOM     41  C   UNL     1       3.011  -6.396  -8.815  1.00  0.00    -0.014 A 
BRANCH  41  42
ATOM     42  C   UNL     1       3.323  -6.742 -10.227  1.00  0.00     0.031 A 
ATOM     43  C   UNL     1       4.565  -7.519 -10.565  1.00  0.00     0.074 A 
ATOM     44  C   UNL     1       2.554  -6.242 -11.217  1.00  0.00     0.049 A 
ATOM     45  N   UNL     1       5.065  -7.805 -11.739  1.00  0.00    -0.248 NA
ATOM     46  C   UNL     1       5.369  -8.012  -9.434  1.00  0.00     0.031 C 
ATOM     47  C   UNL     1       1.367  -5.404 -11.027  1.00  0.00     0.029 A 
ATOM     48  N   UNL     1       2.676  -6.333 -12.582  1.00  0.00    -0.354 N 
ATOM     49  C   UNL     1       6.258  -8.473 -11.492  1.00  0.00     0.074 A 
ATOM     50  C   UNL     1       6.422  -8.525 -10.055  1.00  0.00     0.031 C 
ATOM     51  C   UNL     1       0.872  -5.060 -12.227  1.00  0.00     0.029 A 
ATOM     52  C   UNL     1       1.721  -5.622 -13.272  1.00  0.00     0.049 A 
ATOM     53  H   UNL     1       3.381  -6.859 -13.026  1.00  0.00     0.167 HD
ATOM     54  C   UNL     1       7.124  -9.020 -12.377  1.00  0.00     0.034 A 
ATOM     55  C   UNL     1       1.552  -5.432 -14.596  1.00  0.00     0.034 A 
ATOM     56  C   UNL     1       6.933  -9.017 -13.802  1.00  0.00     0.049 A 
ATOM     57  C   UNL     1       2.506  -6.086 -15.558  1.00  0.00     0.074 A 
ATOM     58  C   UNL     1       7.703  -9.630 -14.775  1.00  0.00     0.029 A 
ATOM     59  N   UNL     1       5.900  -8.368 -14.460  1.00  0.00    -0.354 N 
ATOM     60  N   UNL     1       3.539  -6.851 -15.301  1.00  0.00    -0.248 NA
ATOM     61  C   UNL     1       2.256  -5.876 -16.991  1.00  0.00     0.031 C 
ATOM     62  C   UNL     1       7.141  -9.342 -16.023  1.00  0.00     0.029 A 
ATOM     63  C   UNL     1       6.014  -8.560 -15.827  1.00  0.00     0.049 A 
ATOM     64  H   UNL     1       5.189  -7.847 -14.021  1.00  0.00     0.167 HD
ATOM     65  C   UNL     1       4.041  -7.241 -16.538  1.00  0.00     0.074 A 
ATOM     66  C   UNL     1       3.187  -6.643 -17.543  1.00  0.00     0.031 C 
ATOM     67  C   UNL     1       5.123  -8.009 -16.815  1.00  0.00     0.034 A 
BRANCH  54  68
ATOM     68  C   UNL     1       8.329  -9.734 -11.822  1.00  0.00     0.023 A 
ATOM     69  C   UNL     1       8.159 -10.984 -11.193  1.00  0.00     0.012 A 
ATOM     70  C   UNL     1       9.625  -9.202 -11.965  1.00  0.00     0.148 A 
ATOM     71  C   UNL     1       9.254 -11.678 -10.683  1.00  0.00     0.002 A 
ATOM     72  C   UNL     1      10.717  -9.920 -11.489  1.00  0.00     0.091 A 
ATOM     73  F   UNL     1       9.766  -8.002 -12.545  1.00  0.00    -0.205 F 
ATOM     74  C   UNL     1      10.533 -11.152 -10.840  1.00  0.00     0.022 A 
BRANCH  72  75
ATOM     75  S   UNL     1      12.410  -9.359 -11.709  1.00  0.00     0.127 S 
ATOM     76  O   UNL     1      12.742  -8.891 -10.364  1.00  0.00    -0.237 OA
ATOM     77  O   UNL     1      13.095 -10.587 -12.112  1.00  0.00    -0.237 OA
ATOM     78  O   UNL     1      12.358  -8.330 -12.738  1.00  0.00    -0.744 OA
ENDBRANCH  72  75
ENDBRANCH  54  68
BRANCH  55  79
ATOM     79  C   UNL     1       0.385  -4.647 -15.092  1.00  0.00     0.023 A 
ATOM     80  C   UNL     1      -0.669  -5.323 -15.736  1.00  0.00     0.012 A 
ATOM     81  C   UNL     1       0.294  -3.255 -14.902  1.00  0.00     0.148 A 
ATOM     82  C   UNL     1      -1.782  -4.624 -16.205  1.00  0.00     0.002 A 
ATOM     83  C   UNL     1      -0.842  -2.572 -15.326  1.00  0.00     0.091 A 
ATOM     84  F   UNL     1       1.314  -2.626 -14.301  1.00  0.00    -0.205 F 
ATOM     85  C   UNL     1      -1.873  -3.252 -15.991  1.00  0.00     0.022 A 
BRANCH  83  86
ATOM     86  S   UNL     1      -1.102  -0.830 -14.973  1.00  0.00     0.127 S 
ATOM     87  O   UNL     1      -0.881  -0.222 -16.282  1.00  0.00    -0.237 OA
ATOM     88  O   UNL     1      -2.492  -0.816 -14.513  1.00  0.00    -0.237 OA
ATOM     89  O   UNL     1      -0.130  -0.493 -13.941  1.00  0.00    -0.744 OA
ENDBRANCH  83  86
ENDBRANCH  55  79
BRANCH  67  90
ATOM     90  C   UNL     1       5.438  -8.279 -18.262  1.00  0.00     0.023 A 
ATOM     91  C   UNL     1       6.011  -7.261 -19.049  1.00  0.00     0.012 A 
ATOM     92  C   UNL     1       5.250  -9.561 -18.815  1.00  0.00     0.148 A 
ATOM     93  C   UNL     1       6.373  -7.509 -20.373  1.00  0.00     0.002 A 
ATOM     94  C   UNL     1       5.653  -9.812 -20.122  1.00  0.00     0.091 A 
ATOM     95  F   UNL     1       4.685 -10.509 -18.055  1.00  0.00    -0.205 F 
ATOM     96  C   UNL     1       6.206  -8.786 -20.905  1.00  0.00     0.022 A 
BRANCH  94  97
ATOM     97  S   UNL     1       5.560 -11.448 -20.859  1.00  0.00     0.127 S 
ATOM     98  O   UNL     1       4.439 -11.295 -21.785  1.00  0.00    -0.237 OA
ATOM     99  O   UNL     1       6.869 -11.576 -21.501  1.00  0.00    -0.237 OA
ATOM    100  O   UNL     1       5.339 -12.373 -19.755  1.00  0.00    -0.744 OA
ENDBRANCH  94  97
ENDBRANCH  67  90
ENDBRANCH  41  42
ENDBRANCH  33  36
ENDBRANCH  31  32
ENDBRANCH  30  31
ENDBRANCH   1  30
TORSDOF 18
