REMARK SMILES C[C@H]1[NH2+]CC[C@H]1C(=O)N1CC(C(=O)NCCCCNC(=O)c2ccc(-c3c4nc(c(-c5cccc(S(=O)(=O)[O-])c5F)c5ccc([nH]5)c(-c5cccc(S(=O)(=O)[O-])c5F)c5nc(c(-c6cccc(S(=O)(=O)[O-])c6F)c6ccc3[nH]6)C=C5)C=C4)cc2)C1
REMARK SMILES IDX 17 1 16 2 15 3 14 4 12 5 13 6 11 8 7 9 8 10 9 11 10 12 85 13
REMARK SMILES IDX 6 14 1 15 2 16 3 17 4 18 5 21 18 22 19 23 20 24 21 26 22 27
REMARK SMILES IDX 23 28 84 29 24 30 83 31 25 32 26 33 27 34 77 35 28 36 82 37
REMARK SMILES IDX 76 38 78 39 29 40 81 41 75 42 74 43 30 45 62 46 42 47 61 48
REMARK SMILES IDX 43 49 46 50 60 51 79 52 44 53 45 54 59 56 80 57 47 58 31 59
REMARK SMILES IDX 32 60 40 61 33 62 35 63 41 64 34 65 36 66 37 67 38 68 39 69
REMARK SMILES IDX 63 70 64 71 72 72 65 73 67 74 73 75 66 76 68 77 69 78 70 79
REMARK SMILES IDX 71 80 48 81 49 82 57 83 50 84 52 85 58 86 51 87 53 88 54 89
REMARK SMILES IDX 55 90 56 91
REMARK H PARENT 14 7 3 19 3 20 19 25 78 44 46 55
REMARK Flexibility Score: inf
ROOT
ATOM      1  C   UNL     1       2.261  -0.128   6.358  1.00  0.00     0.023 C 
ENDROOT
BRANCH   1   2
ATOM      2  C   UNL     1       1.839   0.185   4.921  1.00  0.00     0.023 C 
BRANCH   2   3
ATOM      3  C   UNL     1       1.425   1.632   4.663  1.00  0.00     0.116 C 
BRANCH   3   4
ATOM      4  N   UNL     1       2.515   2.570   4.844  1.00  0.00    -0.356 N 
ATOM      5  C   UNL     1       3.110   3.449   3.970  1.00  0.00     0.226 C 
ATOM      6  O   UNL     1       3.997   4.170   4.451  1.00  0.00    -0.275 OA
ATOM      7  H   UNL     1       2.897   2.579   5.752  1.00  0.00     0.163 HD
BRANCH   5   8
ATOM      8  C   UNL     1       2.732   3.533   2.489  1.00  0.00     0.117 C 
ATOM      9  C   UNL     1       0.973   2.374  -0.046  1.00  0.00     0.231 C 
ATOM     10  O   UNL     1       1.306   3.202  -0.893  1.00  0.00    -0.274 OA
ATOM     11  N   UNL     1       1.387   2.458   1.270  1.00  0.00    -0.341 N 
ATOM     12  C   UNL     1       1.296   3.725   2.033  1.00  0.00     0.134 C 
ATOM     13  C   UNL     1       2.810   2.287   1.632  1.00  0.00     0.134 C 
BRANCH   9  14
ATOM     14  C   UNL     1       0.083   1.190  -0.395  1.00  0.00     0.142 C 
ATOM     15  C   UNL     1       1.793  -0.593   0.444  1.00  0.00     0.076 C 
ATOM     16  C   UNL     1       0.759  -0.166  -0.593  1.00  0.00     0.192 C 
ATOM     17  N   UNL     1      -0.377  -1.108  -0.578  1.00  0.00    -0.343 N 
ATOM     18  C   UNL     1      -1.442  -0.535   0.248  1.00  0.00     0.261 C 
ATOM     19  H   UNL     1      -0.078  -2.001  -0.186  1.00  0.00     0.346 HD
ATOM     20  H   UNL     1      -0.715  -1.264  -1.528  1.00  0.00     0.346 HD
ATOM     21  C   UNL     1      -1.029   0.887   0.596  1.00  0.00     0.081 C 
ENDBRANCH   9  14
ENDBRANCH   5   8
ENDBRANCH   3   4
ENDBRANCH   2   3
ENDBRANCH   1   2
BRANCH   1  22
ATOM     22  C   UNL     1       1.261   0.262   7.443  1.00  0.00     0.116 C 
BRANCH  22  23
ATOM     23  N   UNL     1      -0.043  -0.361   7.276  1.00  0.00    -0.352 N 
ATOM     24  C   UNL     1      -0.850  -0.950   8.221  1.00  0.00     0.251 C 
ATOM     25  H   UNL     1      -0.398  -0.361   6.357  1.00  0.00     0.163 HD
ATOM     26  O   UNL     1      -1.879  -1.524   7.872  1.00  0.00    -0.269 OA
BRANCH  24  27
ATOM     27  C   UNL     1      -0.460  -0.922   9.649  1.00  0.00     0.039 A 
ATOM     28  C   UNL     1      -0.529  -2.105  10.391  1.00  0.00     0.014 A 
ATOM     29  C   UNL     1      -0.009   0.256  10.249  1.00  0.00     0.014 A 
ATOM     30  C   UNL     1      -0.076  -2.122  11.713  1.00  0.00     0.010 A 
ATOM     31  C   UNL     1       0.507   0.221  11.542  1.00  0.00     0.010 A 
ATOM     32  C   UNL     1       0.482  -0.968  12.287  1.00  0.00    -0.014 A 
BRANCH  32  33
ATOM     33  C   UNL     1       1.065  -0.987  13.654  1.00  0.00     0.031 A 
ATOM     34  C   UNL     1       0.477  -0.133  14.745  1.00  0.00     0.074 A 
ATOM     35  C   UNL     1       2.185  -1.701  13.890  1.00  0.00     0.049 A 
ATOM     36  N   UNL     1       0.889   0.032  15.975  1.00  0.00    -0.248 NA
ATOM     37  C   UNL     1      -0.714   0.661  14.400  1.00  0.00     0.031 C 
ATOM     38  C   UNL     1       2.899  -2.508  12.899  1.00  0.00     0.029 A 
ATOM     39  N   UNL     1       2.935  -1.841  15.032  1.00  0.00    -0.354 N 
ATOM     40  C   UNL     1       0.033   0.971  16.540  1.00  0.00     0.074 A 
ATOM     41  C   UNL     1      -0.900   1.365  15.506  1.00  0.00     0.031 C 
ATOM     42  C   UNL     1       3.978  -3.062  13.475  1.00  0.00     0.029 A 
ATOM     43  C   UNL     1       4.050  -2.630  14.867  1.00  0.00     0.049 A 
ATOM     44  H   UNL     1       2.697  -1.417  15.888  1.00  0.00     0.167 HD
ATOM     45  C   UNL     1       0.003   1.438  17.811  1.00  0.00     0.034 A 
ATOM     46  C   UNL     1       5.023  -2.965  15.737  1.00  0.00     0.034 A 
ATOM     47  C   UNL     1       0.902   1.011  18.849  1.00  0.00     0.049 A 
ATOM     48  C   UNL     1       4.945  -2.462  17.154  1.00  0.00     0.074 A 
ATOM     49  C   UNL     1       0.898   1.361  20.188  1.00  0.00     0.029 A 
ATOM     50  N   UNL     1       1.966   0.141  18.666  1.00  0.00    -0.354 N 
ATOM     51  N   UNL     1       4.034  -1.700  17.709  1.00  0.00    -0.248 NA
ATOM     52  C   UNL     1       6.008  -2.894  18.073  1.00  0.00     0.031 C 
ATOM     53  C   UNL     1       1.971   0.714  20.811  1.00  0.00     0.029 A 
ATOM     54  C   UNL     1       2.630  -0.053  19.865  1.00  0.00     0.049 A 
ATOM     55  H   UNL     1       2.213  -0.276  17.809  1.00  0.00     0.167 HD
ATOM     56  C   UNL     1       4.392  -1.592  19.049  1.00  0.00     0.074 A 
ATOM     57  C   UNL     1       5.593  -2.384  19.224  1.00  0.00     0.031 C 
ATOM     58  C   UNL     1       3.790  -0.890  20.040  1.00  0.00     0.034 A 
BRANCH  45  59
ATOM     59  C   UNL     1      -1.081   2.424  18.165  1.00  0.00     0.023 A 
ATOM     60  C   UNL     1      -2.415   1.978  18.261  1.00  0.00     0.012 A 
ATOM     61  C   UNL     1      -0.780   3.769  18.452  1.00  0.00     0.148 A 
ATOM     62  C   UNL     1      -3.439   2.862  18.598  1.00  0.00     0.002 A 
ATOM     63  C   UNL     1      -1.800   4.636  18.831  1.00  0.00     0.091 A 
ATOM     64  F   UNL     1       0.490   4.181  18.335  1.00  0.00    -0.205 F 
ATOM     65  C   UNL     1      -3.130   4.187  18.893  1.00  0.00     0.022 A 
BRANCH  63  66
ATOM     66  S   UNL     1      -1.494   6.341  19.305  1.00  0.00     0.127 S 
ATOM     67  O   UNL     1      -2.009   7.066  18.144  1.00  0.00    -0.237 OA
ATOM     68  O   UNL     1      -2.305   6.476  20.516  1.00  0.00    -0.237 OA
ATOM     69  O   UNL     1      -0.058   6.443  19.523  1.00  0.00    -0.744 OA
ENDBRANCH  63  66
ENDBRANCH  45  59
BRANCH  46  70
ATOM     70  C   UNL     1       6.114  -3.889  15.315  1.00  0.00     0.023 A 
ATOM     71  C   UNL     1       6.143  -5.198  15.833  1.00  0.00     0.012 A 
ATOM     72  C   UNL     1       7.098  -3.495  14.387  1.00  0.00     0.148 A 
ATOM     73  C   UNL     1       7.149  -6.090  15.459  1.00  0.00     0.002 A 
ATOM     74  C   UNL     1       8.066  -4.406  13.978  1.00  0.00     0.091 A 
ATOM     75  F   UNL     1       7.061  -2.241  13.915  1.00  0.00    -0.205 F 
ATOM     76  C   UNL     1       8.104  -5.698  14.525  1.00  0.00     0.022 A 
BRANCH  74  77
ATOM     77  S   UNL     1       9.254  -4.031  12.684  1.00  0.00     0.127 S 
ATOM     78  O   UNL     1      10.495  -3.905  13.444  1.00  0.00    -0.237 OA
ATOM     79  O   UNL     1       9.166  -5.222  11.838  1.00  0.00    -0.237 OA
ATOM     80  O   UNL     1       8.771  -2.812  12.050  1.00  0.00    -0.744 OA
ENDBRANCH  74  77
ENDBRANCH  46  70
BRANCH  58  81
ATOM     81  C   UNL     1       4.393  -0.967  21.418  1.00  0.00     0.023 A 
ATOM     82  C   UNL     1       5.599  -0.292  21.692  1.00  0.00     0.012 A 
ATOM     83  C   UNL     1       3.726  -1.642  22.459  1.00  0.00     0.148 A 
ATOM     84  C   UNL     1       6.148  -0.315  22.974  1.00  0.00     0.002 A 
ATOM     85  C   UNL     1       4.254  -1.620  23.744  1.00  0.00     0.091 A 
ATOM     86  F   UNL     1       2.590  -2.295  22.173  1.00  0.00    -0.205 F 
ATOM     87  C   UNL     1       5.470  -0.967  24.001  1.00  0.00     0.022 A 
BRANCH  85  88
ATOM     88  S   UNL     1       3.401  -2.352  25.146  1.00  0.00     0.127 S 
ATOM     89  O   UNL     1       4.202  -3.551  25.389  1.00  0.00    -0.237 OA
ATOM     90  O   UNL     1       3.533  -1.313  26.168  1.00  0.00    -0.237 OA
ATOM     91  O   UNL     1       2.034  -2.591  24.703  1.00  0.00    -0.744 OA
ENDBRANCH  85  88
ENDBRANCH  58  81
ENDBRANCH  32  33
ENDBRANCH  24  27
ENDBRANCH  22  23
ENDBRANCH   1  22
TORSDOF 15
