REMARK SMILES O=C(NCCCCNC(=O)c1cc(-c2ccccc2)nc(Nc2nc3ccccc3s2)n1)c1ccc(-c2c3nc(c(-c4cccc(S(=O)(=O)[O-])c4F)c4ccc([nH]4)c(-c4cccc(S(=O)(=O)[O-])c4F)c4nc(c(-c5cccc(S(=O)(=O)[O-])c5F)c5ccc2[nH]5)C=C4)C=C3)cc1
REMARK SMILES IDX 5 1 4 2 3 3 1 4 2 5 33 7 34 8 95 9 35 10 94 11 36 12 37 13
REMARK SMILES IDX 38 14 88 15 39 16 93 17 87 18 89 19 40 20 92 21 86 22 85 23
REMARK SMILES IDX 41 25 73 26 53 27 72 28 54 29 57 30 71 31 90 32 55 33 56 34
REMARK SMILES IDX 70 36 91 37 58 38 42 39 43 40 51 41 44 42 46 43 52 44 45 45
REMARK SMILES IDX 47 46 48 47 49 48 50 49 74 50 75 51 83 52 76 53 78 54 84 55
REMARK SMILES IDX 77 56 79 57 80 58 81 59 82 60 59 61 60 62 68 63 61 64 63 65
REMARK SMILES IDX 69 66 62 67 64 68 65 69 66 70 67 71 6 72 7 73 8 74 9 75
REMARK SMILES IDX 10 77 11 78 12 79 32 80 13 81 21 82 20 83 14 84 15 85 19 86
REMARK SMILES IDX 16 87 18 88 17 89 22 90 23 92 24 93 31 94 25 95 30 96 26 97
REMARK SMILES IDX 29 98 27 99 28 100
REMARK H PARENT 3 6 89 24 57 35 8 76 22 91
REMARK Flexibility Score: inf
ROOT
ATOM      1  C   UNL     1       4.981   0.235  -2.832  1.00  0.00     0.023 C 
ENDROOT
BRANCH   1   2
ATOM      2  C   UNL     1       4.646   0.427  -1.360  1.00  0.00     0.116 C 
BRANCH   2   3
ATOM      3  N   UNL     1       3.219   0.492  -1.087  1.00  0.00    -0.352 N 
ATOM      4  O   UNL     1       1.286  -0.053  -0.062  1.00  0.00    -0.269 OA
ATOM      5  C   UNL     1       2.500  -0.147  -0.096  1.00  0.00     0.251 C 
ATOM      6  H   UNL     1       2.696   1.070  -1.689  1.00  0.00     0.163 HD
BRANCH   5   7
ATOM      7  C   UNL     1       3.226  -0.981   0.893  1.00  0.00     0.039 A 
ATOM      8  C   UNL     1       4.388  -0.505   1.502  1.00  0.00     0.014 A 
ATOM      9  C   UNL     1       2.764  -2.270   1.172  1.00  0.00     0.014 A 
ATOM     10  C   UNL     1       5.179  -1.374   2.243  1.00  0.00     0.010 A 
ATOM     11  C   UNL     1       3.513  -3.112   2.003  1.00  0.00     0.010 A 
ATOM     12  C   UNL     1       4.750  -2.687   2.510  1.00  0.00    -0.014 A 
BRANCH  12  13
ATOM     13  C   UNL     1       5.596  -3.548   3.378  1.00  0.00     0.031 A 
ATOM     14  C   UNL     1       6.230  -4.814   2.868  1.00  0.00     0.074 A 
ATOM     15  C   UNL     1       5.833  -3.137   4.640  1.00  0.00     0.049 A 
ATOM     16  N   UNL     1       7.075  -5.607   3.477  1.00  0.00    -0.248 NA
ATOM     17  C   UNL     1       5.867  -5.259   1.513  1.00  0.00     0.031 C 
ATOM     18  C   UNL     1       5.223  -1.961   5.265  1.00  0.00     0.029 A 
ATOM     19  N   UNL     1       6.658  -3.639   5.612  1.00  0.00    -0.354 N 
ATOM     20  C   UNL     1       7.323  -6.656   2.598  1.00  0.00     0.074 A 
ATOM     21  C   UNL     1       6.527  -6.406   1.415  1.00  0.00     0.031 C 
ATOM     22  C   UNL     1       5.731  -1.802   6.494  1.00  0.00     0.029 A 
ATOM     23  C   UNL     1       6.667  -2.887   6.764  1.00  0.00     0.049 A 
ATOM     24  H   UNL     1       7.192  -4.458   5.498  1.00  0.00     0.167 HD
ATOM     25  C   UNL     1       8.154  -7.715   2.754  1.00  0.00     0.034 A 
ATOM     26  C   UNL     1       7.353  -3.046   7.911  1.00  0.00     0.034 A 
ATOM     27  C   UNL     1       8.974  -7.938   3.917  1.00  0.00     0.049 A 
ATOM     28  C   UNL     1       8.320  -4.188   8.025  1.00  0.00     0.074 A 
ATOM     29  C   UNL     1       9.874  -8.964   4.152  1.00  0.00     0.029 A 
ATOM     30  N   UNL     1       9.001  -7.122   5.038  1.00  0.00    -0.354 N 
ATOM     31  N   UNL     1       8.626  -5.098   7.133  1.00  0.00    -0.248 NA
ATOM     32  C   UNL     1       9.057  -4.309   9.290  1.00  0.00     0.031 C 
ATOM     33  C   UNL     1      10.444  -8.768   5.416  1.00  0.00     0.029 A 
ATOM     34  C   UNL     1       9.903  -7.617   5.965  1.00  0.00     0.049 A 
ATOM     35  H   UNL     1       8.458  -6.310   5.157  1.00  0.00     0.167 HD
ATOM     36  C   UNL     1       9.592  -5.900   7.726  1.00  0.00     0.074 A 
ATOM     37  C   UNL     1       9.856  -5.336   9.035  1.00  0.00     0.031 C 
ATOM     38  C   UNL     1      10.182  -7.022   7.246  1.00  0.00     0.034 A 
BRANCH  25  39
ATOM     39  C   UNL     1       8.274  -8.692   1.612  1.00  0.00     0.023 A 
ATOM     40  C   UNL     1       9.027  -8.332   0.476  1.00  0.00     0.012 A 
ATOM     41  C   UNL     1       7.726  -9.988   1.694  1.00  0.00     0.148 A 
ATOM     42  C   UNL     1       9.218  -9.236  -0.568  1.00  0.00     0.002 A 
ATOM     43  C   UNL     1       7.949 -10.897   0.664  1.00  0.00     0.091 A 
ATOM     44  F   UNL     1       6.997 -10.307   2.773  1.00  0.00    -0.205 F 
ATOM     45  C   UNL     1       8.689 -10.521  -0.469  1.00  0.00     0.022 A 
BRANCH  43  46
ATOM     46  S   UNL     1       7.370 -12.597   0.727  1.00  0.00     0.127 S 
ATOM     47  O   UNL     1       6.283 -12.574  -0.252  1.00  0.00    -0.237 OA
ATOM     48  O   UNL     1       8.555 -13.345   0.304  1.00  0.00    -0.237 OA
ATOM     49  O   UNL     1       6.966 -12.832   2.106  1.00  0.00    -0.744 OA
ENDBRANCH  43  46
ENDBRANCH  25  39
BRANCH  26  50
ATOM     50  C   UNL     1       7.182  -2.056   9.010  1.00  0.00     0.023 A 
ATOM     51  C   UNL     1       8.235  -1.177   9.327  1.00  0.00     0.012 A 
ATOM     52  C   UNL     1       5.957  -1.933   9.693  1.00  0.00     0.148 A 
ATOM     53  C   UNL     1       8.075  -0.206  10.318  1.00  0.00     0.002 A 
ATOM     54  C   UNL     1       5.784  -0.922  10.631  1.00  0.00     0.091 A 
ATOM     55  F   UNL     1       4.970  -2.792   9.398  1.00  0.00    -0.205 F 
ATOM     56  C   UNL     1       6.846  -0.068  10.958  1.00  0.00     0.022 A 
BRANCH  54  57
ATOM     57  S   UNL     1       4.173  -0.592  11.355  1.00  0.00     0.127 S 
ATOM     58  O   UNL     1       4.238  -1.353  12.599  1.00  0.00    -0.237 OA
ATOM     59  O   UNL     1       4.193   0.862  11.520  1.00  0.00    -0.237 OA
ATOM     60  O   UNL     1       3.215  -1.060  10.360  1.00  0.00    -0.744 OA
ENDBRANCH  54  57
ENDBRANCH  26  50
BRANCH  38  61
ATOM     61  C   UNL     1      11.161  -7.718   8.152  1.00  0.00     0.023 A 
ATOM     62  C   UNL     1      10.675  -8.451   9.254  1.00  0.00     0.012 A 
ATOM     63  C   UNL     1      12.545  -7.683   7.900  1.00  0.00     0.148 A 
ATOM     64  C   UNL     1      11.555  -9.109  10.112  1.00  0.00     0.002 A 
ATOM     65  C   UNL     1      13.414  -8.374   8.738  1.00  0.00     0.091 A 
ATOM     66  F   UNL     1      12.991  -6.960   6.862  1.00  0.00    -0.205 F 
ATOM     67  C   UNL     1      12.922  -9.078   9.849  1.00  0.00     0.022 A 
BRANCH  65  68
ATOM     68  S   UNL     1      15.180  -8.445   8.420  1.00  0.00     0.127 S 
ATOM     69  O   UNL     1      15.688  -7.409   9.317  1.00  0.00    -0.237 OA
ATOM     70  O   UNL     1      15.520  -9.813   8.816  1.00  0.00    -0.237 OA
ATOM     71  O   UNL     1      15.331  -8.181   6.995  1.00  0.00    -0.744 OA
ENDBRANCH  65  68
ENDBRANCH  38  61
ENDBRANCH  12  13
ENDBRANCH   5   7
ENDBRANCH   2   3
ENDBRANCH   1   2
BRANCH   1  72
ATOM     72  C   UNL     1       4.504   1.342  -3.768  1.00  0.00     0.023 C 
BRANCH  72  73
ATOM     73  C   UNL     1       4.819   2.762  -3.314  1.00  0.00     0.116 C 
BRANCH  73  74
ATOM     74  N   UNL     1       6.238   3.001  -3.099  1.00  0.00    -0.351 N 
ATOM     75  C   UNL     1       7.073   3.885  -3.745  1.00  0.00     0.270 C 
ATOM     76  H   UNL     1       6.658   2.456  -2.395  1.00  0.00     0.163 HD
ATOM     77  O   UNL     1       8.255   3.973  -3.429  1.00  0.00    -0.268 OA
BRANCH  75  78
ATOM     78  C   UNL     1       6.514   4.746  -4.810  1.00  0.00     0.134 A 
ATOM     79  C   UNL     1       5.561   5.675  -4.502  1.00  0.00     0.063 A 
ATOM     80  N   UNL     1       6.919   4.471  -6.054  1.00  0.00    -0.207 NA
ATOM     81  C   UNL     1       4.953   6.260  -5.588  1.00  0.00     0.077 A 
ATOM     82  C   UNL     1       6.333   5.125  -7.056  1.00  0.00     0.230 A 
ATOM     83  N   UNL     1       5.340   6.011  -6.865  1.00  0.00    -0.213 NA
BRANCH  81  84
ATOM     84  C   UNL     1       3.748   7.079  -5.393  1.00  0.00     0.000 A 
ATOM     85  C   UNL     1       2.554   6.758  -6.060  1.00  0.00     0.010 A 
ATOM     86  C   UNL     1       3.716   8.116  -4.443  1.00  0.00     0.010 A 
ATOM     87  C   UNL     1       1.363   7.425  -5.762  1.00  0.00     0.001 A 
ATOM     88  C   UNL     1       2.527   8.786  -4.148  1.00  0.00     0.001 A 
ATOM     89  C   UNL     1       1.349   8.433  -4.801  1.00  0.00     0.000 A 
ENDBRANCH  81  84
BRANCH  82  90
ATOM     90  N   UNL     1       6.800   4.949  -8.357  1.00  0.00    -0.300 N 
ATOM     91  H   UNL     1       6.393   5.482  -9.078  1.00  0.00     0.172 HD
BRANCH  90  92
ATOM     92  C   UNL     1       7.783   4.081  -8.675  1.00  0.00     0.190 A 
ATOM     93  N   UNL     1       7.986   2.921  -8.095  1.00  0.00    -0.220 NA
ATOM     94  S   UNL     1       8.918   4.447  -9.923  1.00  0.00    -0.097 S 
ATOM     95  C   UNL     1       9.202   2.390  -8.459  1.00  0.00     0.084 A 
ATOM     96  C   UNL     1       9.886   3.101  -9.443  1.00  0.00     0.056 A 
ATOM     97  C   UNL     1       9.792   1.236  -7.908  1.00  0.00     0.030 A 
ATOM     98  C   UNL     1      11.156   2.700  -9.891  1.00  0.00     0.021 A 
ATOM     99  C   UNL     1      11.061   0.837  -8.332  1.00  0.00     0.002 A 
ATOM    100  C   UNL     1      11.735   1.564  -9.310  1.00  0.00     0.002 A 
ENDBRANCH  90  92
ENDBRANCH  82  90
ENDBRANCH  75  78
ENDBRANCH  73  74
ENDBRANCH  72  73
ENDBRANCH   1  72
TORSDOF 17
