REMARK SMILES O=C(NCCCCNC(=O)[C@H]1CCCN(C(=O)C2CC[NH+](Cc3ccco3)CC2)C1)c1ccc(-c2c3nc(c(-c4cccc(S(=O)(=O)[O-])c4F)c4ccc([nH]4)c(-c4cccc(S(=O)(=O)[O-])c4F)c4nc(c(-c5cccc(S(=O)(=O)[O-])c5F)c5ccc2[nH]5)C=C4)C=C3)cc1
REMARK SMILES IDX 6 1 5 2 4 3 3 4 1 5 2 6 31 8 32 9 93 10 33 11 92 12 34 13
REMARK SMILES IDX 35 14 36 15 86 16 37 17 91 18 85 19 87 20 38 21 90 22 84 23
REMARK SMILES IDX 83 24 39 26 71 27 51 28 70 29 52 30 55 31 69 32 88 33 53 34
REMARK SMILES IDX 54 35 68 37 89 38 56 39 40 40 41 41 49 42 42 43 44 44 50 45
REMARK SMILES IDX 43 46 45 47 46 48 47 49 48 50 72 51 73 52 81 53 74 54 76 55
REMARK SMILES IDX 82 56 75 57 77 58 78 59 79 60 80 61 57 62 58 63 66 64 59 65
REMARK SMILES IDX 61 66 67 67 60 68 62 69 63 70 64 71 65 72 7 73 8 74 9 75
REMARK SMILES IDX 10 77 11 78 12 79 30 80 13 81 15 82 14 83 16 84 17 85 18 86
REMARK SMILES IDX 19 87 29 88 20 89 28 90 21 91 22 93 23 94 24 95 27 96 25 97
REMARK SMILES IDX 26 98
REMARK H PARENT 3 7 87 25 55 36 8 76 21 92
REMARK Flexibility Score: inf
ROOT
ATOM      1  C   UNL     1       7.030  -4.038  -3.735  1.00  0.00     0.023 C 
ENDROOT
BRANCH   1   2
ATOM      2  C   UNL     1       7.378  -4.218  -5.214  1.00  0.00     0.023 C 
BRANCH   2   3
ATOM      3  C   UNL     1       6.211  -4.064  -6.181  1.00  0.00     0.116 C 
BRANCH   3   4
ATOM      4  N   UNL     1       5.544  -2.777  -6.082  1.00  0.00    -0.352 N 
ATOM      5  O   UNL     1       4.509  -0.937  -6.882  1.00  0.00    -0.269 OA
ATOM      6  C   UNL     1       4.957  -2.054  -7.096  1.00  0.00     0.251 C 
ATOM      7  H   UNL     1       5.507  -2.374  -5.184  1.00  0.00     0.163 HD
BRANCH   6   8
ATOM      8  C   UNL     1       4.926  -2.643  -8.452  1.00  0.00     0.039 A 
ATOM      9  C   UNL     1       4.436  -3.937  -8.647  1.00  0.00     0.014 A 
ATOM     10  C   UNL     1       5.450  -1.912  -9.519  1.00  0.00     0.014 A 
ATOM     11  C   UNL     1       4.588  -4.548  -9.886  1.00  0.00     0.010 A 
ATOM     12  C   UNL     1       5.535  -2.504 -10.781  1.00  0.00     0.010 A 
ATOM     13  C   UNL     1       5.134  -3.836 -10.967  1.00  0.00    -0.014 A 
BRANCH  13  14
ATOM     14  C   UNL     1       5.205  -4.478 -12.302  1.00  0.00     0.031 A 
ATOM     15  C   UNL     1       6.523  -4.768 -12.963  1.00  0.00     0.074 A 
ATOM     16  C   UNL     1       4.051  -4.788 -12.923  1.00  0.00     0.049 A 
ATOM     17  N   UNL     1       6.753  -5.335 -14.119  1.00  0.00    -0.248 NA
ATOM     18  C   UNL     1       7.740  -4.365 -12.241  1.00  0.00     0.031 C 
ATOM     19  C   UNL     1       2.713  -4.509 -12.394  1.00  0.00     0.029 A 
ATOM     20  N   UNL     1       3.812  -5.398 -14.126  1.00  0.00    -0.354 N 
ATOM     21  C   UNL     1       8.132  -5.322 -14.286  1.00  0.00     0.074 A 
ATOM     22  C   UNL     1       8.690  -4.685 -13.111  1.00  0.00     0.031 C 
ATOM     23  C   UNL     1       1.795  -4.968 -13.255  1.00  0.00     0.029 A 
ATOM     24  C   UNL     1       2.475  -5.529 -14.417  1.00  0.00     0.049 A 
ATOM     25  H   UNL     1       4.528  -5.711 -14.725  1.00  0.00     0.167 HD
ATOM     26  C   UNL     1       8.865  -5.811 -15.315  1.00  0.00     0.034 A 
ATOM     27  C   UNL     1       1.861  -6.035 -15.503  1.00  0.00     0.034 A 
ATOM     28  C   UNL     1       8.303  -6.479 -16.460  1.00  0.00     0.049 A 
ATOM     29  C   UNL     1       2.698  -6.596 -16.614  1.00  0.00     0.074 A 
ATOM     30  C   UNL     1       8.964  -7.075 -17.520  1.00  0.00     0.029 A 
ATOM     31  N   UNL     1       6.946  -6.636 -16.700  1.00  0.00    -0.354 N 
ATOM     32  N   UNL     1       4.003  -6.694 -16.691  1.00  0.00    -0.248 NA
ATOM     33  C   UNL     1       1.982  -7.139 -17.775  1.00  0.00     0.031 C 
ATOM     34  C   UNL     1       8.006  -7.578 -18.408  1.00  0.00     0.029 A 
ATOM     35  C   UNL     1       6.747  -7.308 -17.895  1.00  0.00     0.049 A 
ATOM     36  H   UNL     1       6.228  -6.316 -16.107  1.00  0.00     0.167 HD
ATOM     37  C   UNL     1       4.266  -7.326 -17.899  1.00  0.00     0.074 A 
ATOM     38  C   UNL     1       2.981  -7.614 -18.506  1.00  0.00     0.031 C 
ATOM     39  C   UNL     1       5.462  -7.623 -18.464  1.00  0.00     0.034 A 
BRANCH  26  40
ATOM     40  C   UNL     1      10.364  -5.683 -15.233  1.00  0.00     0.023 A 
ATOM     41  C   UNL     1      11.085  -6.519 -14.356  1.00  0.00     0.012 A 
ATOM     42  C   UNL     1      11.066  -4.786 -16.062  1.00  0.00     0.148 A 
ATOM     43  C   UNL     1      12.476  -6.445 -14.284  1.00  0.00     0.002 A 
ATOM     44  C   UNL     1      12.456  -4.743 -16.011  1.00  0.00     0.091 A 
ATOM     45  F   UNL     1      10.365  -3.980 -16.872  1.00  0.00    -0.205 F 
ATOM     46  C   UNL     1      13.161  -5.565 -15.118  1.00  0.00     0.022 A 
BRANCH  44  47
ATOM     47  S   UNL     1      13.424  -3.689 -17.099  1.00  0.00     0.127 S 
ATOM     48  O   UNL     1      13.774  -2.586 -16.207  1.00  0.00    -0.237 OA
ATOM     49  O   UNL     1      14.545  -4.558 -17.461  1.00  0.00    -0.237 OA
ATOM     50  O   UNL     1      12.543  -3.352 -18.208  1.00  0.00    -0.744 OA
ENDBRANCH  44  47
ENDBRANCH  26  40
BRANCH  27  51
ATOM     51  C   UNL     1       0.373  -6.081 -15.543  1.00  0.00     0.023 A 
ATOM     52  C   UNL     1      -0.280  -7.322 -15.423  1.00  0.00     0.012 A 
ATOM     53  C   UNL     1      -0.394  -4.902 -15.615  1.00  0.00     0.148 A 
ATOM     54  C   UNL     1      -1.673  -7.389 -15.387  1.00  0.00     0.002 A 
ATOM     55  C   UNL     1      -1.779  -4.972 -15.519  1.00  0.00     0.091 A 
ATOM     56  F   UNL     1       0.248  -3.733 -15.745  1.00  0.00    -0.205 F 
ATOM     57  C   UNL     1      -2.421  -6.215 -15.419  1.00  0.00     0.022 A 
BRANCH  55  58
ATOM     58  S   UNL     1      -2.805  -3.502 -15.399  1.00  0.00     0.127 S 
ATOM     59  O   UNL     1      -3.425  -3.462 -16.720  1.00  0.00    -0.237 OA
ATOM     60  O   UNL     1      -3.710  -3.851 -14.303  1.00  0.00    -0.237 OA
ATOM     61  O   UNL     1      -1.889  -2.411 -15.092  1.00  0.00    -0.744 OA
ENDBRANCH  55  58
ENDBRANCH  27  51
BRANCH  39  62
ATOM     62  C   UNL     1       5.439  -8.303 -19.807  1.00  0.00     0.023 A 
ATOM     63  C   UNL     1       5.108  -7.556 -20.955  1.00  0.00     0.012 A 
ATOM     64  C   UNL     1       5.802  -9.656 -19.942  1.00  0.00     0.148 A 
ATOM     65  C   UNL     1       5.109  -8.155 -22.214  1.00  0.00     0.002 A 
ATOM     66  C   UNL     1       5.843 -10.235 -21.205  1.00  0.00     0.091 A 
ATOM     67  F   UNL     1       6.090 -10.356 -18.834  1.00  0.00    -0.205 F 
ATOM     68  C   UNL     1       5.487  -9.489 -22.340  1.00  0.00     0.022 A 
BRANCH  66  69
ATOM     69  S   UNL     1       6.401 -11.922 -21.466  1.00  0.00     0.127 S 
ATOM     70  O   UNL     1       5.138 -12.625 -21.680  1.00  0.00    -0.237 OA
ATOM     71  O   UNL     1       7.238 -11.795 -22.660  1.00  0.00    -0.237 OA
ATOM     72  O   UNL     1       7.129 -12.290 -20.259  1.00  0.00    -0.744 OA
ENDBRANCH  66  69
ENDBRANCH  39  62
ENDBRANCH  13  14
ENDBRANCH   6   8
ENDBRANCH   3   4
ENDBRANCH   2   3
ENDBRANCH   1   2
BRANCH   1  73
ATOM     73  C   UNL     1       5.791  -4.805  -3.289  1.00  0.00     0.116 C 
BRANCH  73  74
ATOM     74  N   UNL     1       5.912  -6.236  -3.509  1.00  0.00    -0.356 N 
ATOM     75  C   UNL     1       6.464  -7.269  -2.826  1.00  0.00     0.224 C 
ATOM     76  H   UNL     1       5.494  -6.524  -4.353  1.00  0.00     0.163 HD
ATOM     77  O   UNL     1       6.441  -8.356  -3.413  1.00  0.00    -0.275 OA
BRANCH  75  78
ATOM     78  C   UNL     1       7.131  -7.143  -1.451  1.00  0.00     0.098 C 
ATOM     79  C   UNL     1       6.546  -6.025  -0.577  1.00  0.00     0.017 C 
ATOM     80  C   UNL     1       7.070  -8.560  -0.789  1.00  0.00     0.133 C 
ATOM     81  C   UNL     1       6.756  -6.212   0.909  1.00  0.00     0.022 C 
ATOM     82  N   UNL     1       7.129  -8.553   0.679  1.00  0.00    -0.342 N 
ATOM     83  C   UNL     1       6.244  -7.584   1.260  1.00  0.00     0.119 C 
BRANCH  82  84
ATOM     84  C   UNL     1       7.918  -9.455   1.365  1.00  0.00     0.226 C 
ATOM     85  O   UNL     1       8.553 -10.317   0.741  1.00  0.00    -0.275 OA
BRANCH  84  86
ATOM     86  C   UNL     1       8.046  -9.473   2.913  1.00  0.00     0.090 C 
ATOM     87  C   UNL     1       6.960 -10.249   3.652  1.00  0.00     0.075 C 
ATOM     88  C   UNL     1       8.446  -8.195   3.651  1.00  0.00     0.075 C 
ATOM     89  C   UNL     1       5.798  -9.392   4.129  1.00  0.00     0.263 C 
ATOM     90  C   UNL     1       7.325  -7.415   4.355  1.00  0.00     0.263 C 
ATOM     91  N   UNL     1       6.189  -8.188   4.862  1.00  0.00    -0.329 N 
ATOM     92  H   UNL     1       6.566  -8.590   5.720  1.00  0.00     0.348 HD
BRANCH  91  93
ATOM     93  C   UNL     1       5.034  -7.322   5.206  1.00  0.00     0.338 C 
BRANCH  93  94
ATOM     94  C   UNL     1       4.208  -6.820   4.054  1.00  0.00     0.157 A 
ATOM     95  C   UNL     1       3.188  -7.376   3.301  1.00  0.00     0.052 A 
ATOM     96  O   UNL     1       4.448  -5.545   3.619  1.00  0.00    -0.463 OA
ATOM     97  C   UNL     1       2.809  -6.405   2.343  1.00  0.00     0.042 A 
ATOM     98  C   UNL     1       3.590  -5.303   2.591  1.00  0.00     0.195 A 
ENDBRANCH  93  94
ENDBRANCH  91  93
ENDBRANCH  84  86
ENDBRANCH  82  84
ENDBRANCH  75  78
ENDBRANCH  73  74
ENDBRANCH   1  73
TORSDOF 18
