REMARK SMILES O=C(NCCCCNC(=O)[C@H]1CCCCN1c1cc(-c2ccccc2)nc(-c2cccc(Cl)c2)n1)c1ccc(-c2c3nc(c(-c4cccc(S(=O)(=O)[O-])c4F)c4ccc([nH]4)c(-c4cccc(S(=O)(=O)[O-])c4F)c4nc(c(-c5cccc(S(=O)(=O)[O-])c5F)c5ccc2[nH]5)C=C4)C=C3)cc1
REMARK SMILES IDX 5 1 4 2 3 3 1 4 2 5 36 7 37 8 98 9 38 10 97 11 39 12 40 13
REMARK SMILES IDX 41 14 91 15 42 16 96 17 90 18 92 19 43 20 95 21 89 22 88 23
REMARK SMILES IDX 44 25 76 26 56 27 75 28 57 29 60 30 74 31 93 32 58 33 59 34
REMARK SMILES IDX 73 36 94 37 61 38 45 39 46 40 54 41 47 42 49 43 55 44 48 45
REMARK SMILES IDX 50 46 51 47 52 48 53 49 77 50 78 51 86 52 79 53 81 54 87 55
REMARK SMILES IDX 80 56 82 57 83 58 84 59 85 60 62 61 63 62 71 63 64 64 66 65
REMARK SMILES IDX 72 66 65 67 67 68 68 69 69 70 70 71 6 72 7 73 8 74 9 75
REMARK SMILES IDX 10 77 11 78 12 79 16 80 13 81 15 82 14 83 17 84 18 85 35 86
REMARK SMILES IDX 19 87 27 88 26 89 20 90 21 91 25 92 22 93 24 94 23 95 28 96
REMARK SMILES IDX 29 97 34 98 30 99 32 100 31 101 33 102
REMARK H PARENT 3 6 92 24 60 35 8 76
REMARK Flexibility Score: inf
ROOT
ATOM      1  C   UNL     1      10.789  -2.272  -6.115  1.00  0.00     0.023 C 
ENDROOT
BRANCH   1   2
ATOM      2  C   UNL     1      10.650  -0.876  -6.714  1.00  0.00     0.116 C 
BRANCH   2   3
ATOM      3  N   UNL     1      10.987   0.188  -5.782  1.00  0.00    -0.352 N 
ATOM      4  O   UNL     1      12.050   2.026  -5.027  1.00  0.00    -0.269 OA
ATOM      5  C   UNL     1      11.796   1.286  -5.973  1.00  0.00     0.251 C 
ATOM      6  H   UNL     1      10.580   0.113  -4.889  1.00  0.00     0.163 HD
BRANCH   5   7
ATOM      7  C   UNL     1      12.389   1.543  -7.306  1.00  0.00     0.039 A 
ATOM      8  C   UNL     1      11.614   1.453  -8.464  1.00  0.00     0.014 A 
ATOM      9  C   UNL     1      13.749   1.852  -7.397  1.00  0.00     0.014 A 
ATOM     10  C   UNL     1      12.229   1.505  -9.711  1.00  0.00     0.010 A 
ATOM     11  C   UNL     1      14.350   1.986  -8.653  1.00  0.00     0.010 A 
ATOM     12  C   UNL     1      13.607   1.762  -9.822  1.00  0.00    -0.014 A 
BRANCH  12  13
ATOM     13  C   UNL     1      14.232   1.813 -11.170  1.00  0.00     0.031 A 
ATOM     14  C   UNL     1      15.278   0.812 -11.586  1.00  0.00     0.074 A 
ATOM     15  C   UNL     1      13.829   2.760 -12.040  1.00  0.00     0.049 A 
ATOM     16  N   UNL     1      15.861   0.668 -12.749  1.00  0.00    -0.248 NA
ATOM     17  C   UNL     1      15.740  -0.146 -10.567  1.00  0.00     0.031 C 
ATOM     18  C   UNL     1      12.862   3.818 -11.741  1.00  0.00     0.029 A 
ATOM     19  N   UNL     1      14.169   2.982 -13.350  1.00  0.00    -0.354 N 
ATOM     20  C   UNL     1      16.785  -0.359 -12.594  1.00  0.00     0.074 A 
ATOM     21  C   UNL     1      16.692  -0.801 -11.219  1.00  0.00     0.031 C 
ATOM     22  C   UNL     1      12.656   4.551 -12.845  1.00  0.00     0.029 A 
ATOM     23  C   UNL     1      13.502   4.042 -13.919  1.00  0.00     0.049 A 
ATOM     24  H   UNL     1      14.828   2.436 -13.837  1.00  0.00     0.167 HD
ATOM     25  C   UNL     1      17.620  -0.899 -13.515  1.00  0.00     0.034 A 
ATOM     26  C   UNL     1      13.556   4.545 -15.167  1.00  0.00     0.034 A 
ATOM     27  C   UNL     1      17.670  -0.498 -14.896  1.00  0.00     0.049 A 
ATOM     28  C   UNL     1      14.446   3.887 -16.182  1.00  0.00     0.074 A 
ATOM     29  C   UNL     1      18.426  -1.039 -15.922  1.00  0.00     0.029 A 
ATOM     30  N   UNL     1      16.938   0.542 -15.447  1.00  0.00    -0.354 N 
ATOM     31  N   UNL     1      15.202   2.824 -16.050  1.00  0.00    -0.248 NA
ATOM     32  C   UNL     1      14.466   4.477 -17.528  1.00  0.00     0.031 C 
ATOM     33  C   UNL     1      18.157  -0.319 -17.092  1.00  0.00     0.029 A 
ATOM     34  C   UNL     1      17.226   0.663 -16.796  1.00  0.00     0.049 A 
ATOM     35  H   UNL     1      16.305   1.111 -14.952  1.00  0.00     0.167 HD
ATOM     36  C   UNL     1      15.767   2.602 -17.300  1.00  0.00     0.074 A 
ATOM     37  C   UNL     1      15.244   3.625 -18.183  1.00  0.00     0.031 C 
ATOM     38  C   UNL     1      16.655   1.649 -17.677  1.00  0.00     0.034 A 
BRANCH  25  39
ATOM     39  C   UNL     1      18.520  -2.025 -13.076  1.00  0.00     0.023 A 
ATOM     40  C   UNL     1      17.976  -3.310 -12.878  1.00  0.00     0.012 A 
ATOM     41  C   UNL     1      19.908  -1.833 -12.933  1.00  0.00     0.148 A 
ATOM     42  C   UNL     1      18.796  -4.381 -12.520  1.00  0.00     0.002 A 
ATOM     43  C   UNL     1      20.724  -2.913 -12.612  1.00  0.00     0.091 A 
ATOM     44  F   UNL     1      20.405  -0.599 -13.102  1.00  0.00    -0.205 F 
ATOM     45  C   UNL     1      20.169  -4.185 -12.398  1.00  0.00     0.022 A 
BRANCH  43  46
ATOM     46  S   UNL     1      22.512  -2.770 -12.506  1.00  0.00     0.127 S 
ATOM     47  O   UNL     1      22.721  -2.749 -11.059  1.00  0.00    -0.237 OA
ATOM     48  O   UNL     1      22.964  -3.994 -13.168  1.00  0.00    -0.237 OA
ATOM     49  O   UNL     1      22.854  -1.542 -13.211  1.00  0.00    -0.744 OA
ENDBRANCH  43  46
ENDBRANCH  25  39
BRANCH  26  50
ATOM     50  C   UNL     1      12.676   5.688 -15.539  1.00  0.00     0.023 A 
ATOM     51  C   UNL     1      11.594   5.468 -16.413  1.00  0.00     0.012 A 
ATOM     52  C   UNL     1      12.867   6.971 -14.991  1.00  0.00     0.148 A 
ATOM     53  C   UNL     1      10.730   6.510 -16.751  1.00  0.00     0.002 A 
ATOM     54  C   UNL     1      11.969   7.989 -15.286  1.00  0.00     0.091 A 
ATOM     55  F   UNL     1      13.914   7.166 -14.177  1.00  0.00    -0.205 F 
ATOM     56  C   UNL     1      10.909   7.766 -16.177  1.00  0.00     0.022 A 
BRANCH  54  57
ATOM     57  S   UNL     1      12.046   9.589 -14.472  1.00  0.00     0.127 S 
ATOM     58  O   UNL     1      12.649  10.423 -15.508  1.00  0.00    -0.237 OA
ATOM     59  O   UNL     1      10.635   9.866 -14.201  1.00  0.00    -0.237 OA
ATOM     60  O   UNL     1      12.850   9.373 -13.276  1.00  0.00    -0.744 OA
ENDBRANCH  54  57
ENDBRANCH  26  50
BRANCH  38  61
ATOM     61  C   UNL     1      17.105   1.651 -19.113  1.00  0.00     0.023 A 
ATOM     62  C   UNL     1      18.008   2.638 -19.557  1.00  0.00     0.012 A 
ATOM     63  C   UNL     1      16.683   0.647 -20.006  1.00  0.00     0.148 A 
ATOM     64  C   UNL     1      18.460   2.643 -20.876  1.00  0.00     0.002 A 
ATOM     65  C   UNL     1      17.171   0.634 -21.307  1.00  0.00     0.091 A 
ATOM     66  F   UNL     1      15.804  -0.269 -19.573  1.00  0.00    -0.205 F 
ATOM     67  C   UNL     1      18.051   1.635 -21.747  1.00  0.00     0.022 A 
BRANCH  65  68
ATOM     68  S   UNL     1      16.759  -0.681 -22.460  1.00  0.00     0.127 S 
ATOM     69  O   UNL     1      15.691  -0.068 -23.247  1.00  0.00    -0.237 OA
ATOM     70  O   UNL     1      18.016  -0.874 -23.185  1.00  0.00    -0.237 OA
ATOM     71  O   UNL     1      16.367  -1.816 -21.635  1.00  0.00    -0.744 OA
ENDBRANCH  65  68
ENDBRANCH  38  61
ENDBRANCH  12  13
ENDBRANCH   5   7
ENDBRANCH   2   3
ENDBRANCH   1   2
BRANCH   1  72
ATOM     72  C   UNL     1       9.907  -2.568  -4.899  1.00  0.00     0.023 C 
BRANCH  72  73
ATOM     73  C   UNL     1       8.423  -2.254  -5.078  1.00  0.00     0.116 C 
BRANCH  73  74
ATOM     74  N   UNL     1       7.846  -2.966  -6.202  1.00  0.00    -0.354 N 
ATOM     75  C   UNL     1       6.880  -3.927  -6.256  1.00  0.00     0.242 C 
ATOM     76  H   UNL     1       8.216  -2.712  -7.078  1.00  0.00     0.163 HD
ATOM     77  O   UNL     1       6.600  -4.359  -7.380  1.00  0.00    -0.273 OA
BRANCH  75  78
ATOM     78  C   UNL     1       6.188  -4.447  -4.971  1.00  0.00     0.173 C 
ATOM     79  C   UNL     1       4.668  -4.265  -5.066  1.00  0.00     0.035 C 
ATOM     80  N   UNL     1       6.532  -5.861  -4.753  1.00  0.00    -0.344 N 
ATOM     81  C   UNL     1       3.986  -5.290  -5.973  1.00  0.00     0.004 C 
ATOM     82  C   UNL     1       5.927  -6.874  -5.609  1.00  0.00     0.119 C 
ATOM     83  C   UNL     1       4.407  -6.711  -5.612  1.00  0.00     0.022 C 
BRANCH  80  84
ATOM     84  C   UNL     1       7.162  -6.218  -3.582  1.00  0.00     0.133 A 
ATOM     85  C   UNL     1       8.240  -7.080  -3.607  1.00  0.00     0.076 A 
ATOM     86  N   UNL     1       6.735  -5.676  -2.432  1.00  0.00    -0.211 NA
ATOM     87  C   UNL     1       8.881  -7.340  -2.411  1.00  0.00     0.076 A 
ATOM     88  C   UNL     1       7.391  -6.014  -1.307  1.00  0.00     0.162 A 
ATOM     89  N   UNL     1       8.459  -6.823  -1.242  1.00  0.00    -0.228 NA
BRANCH  87  90
ATOM     90  C   UNL     1      10.089  -8.173  -2.343  1.00  0.00     0.000 A 
ATOM     91  C   UNL     1      10.143  -9.299  -1.506  1.00  0.00     0.010 A 
ATOM     92  C   UNL     1      11.227  -7.860  -3.106  1.00  0.00     0.010 A 
ATOM     93  C   UNL     1      11.290 -10.097  -1.447  1.00  0.00     0.001 A 
ATOM     94  C   UNL     1      12.378  -8.650  -3.040  1.00  0.00     0.001 A 
ATOM     95  C   UNL     1      12.406  -9.771  -2.214  1.00  0.00     0.000 A 
ENDBRANCH  87  90
BRANCH  88  96
ATOM     96  C   UNL     1       6.902  -5.439  -0.052  1.00  0.00     0.021 A 
ATOM     97  C   UNL     1       5.540  -5.510   0.293  1.00  0.00     0.012 A 
ATOM     98  C   UNL     1       7.779  -4.795   0.837  1.00  0.00     0.032 A 
ATOM     99  C   UNL     1       5.067  -4.961   1.488  1.00  0.00     0.002 A 
ATOM    100  C   UNL     1       7.301  -4.230   2.020  1.00  0.00     0.041 A 
ATOM    101  C   UNL     1       5.949  -4.314   2.350  1.00  0.00     0.020 A 
ATOM    102  Cl  UNL     1       8.385  -3.412   3.077  1.00  0.00    -0.084 Cl
ENDBRANCH  88  96
ENDBRANCH  80  84
ENDBRANCH  75  78
ENDBRANCH  73  74
ENDBRANCH  72  73
ENDBRANCH   1  72
TORSDOF 17
