REMARK SMILES CC(C)C[C@H](CNc1cccc(F)c1C#N)CC(=O)NCCCCNC(=O)c1ccc(-c2c3nc(c(-c4cccc(S(=O)(=O)[O-])c4F)c4ccc([nH]4)c(-c4cccc(S(=O)(=O)[O-])c4F)c4nc(c(-c5cccc(S(=O)(=O)[O-])c5F)c5ccc2[nH]5)C=C4)C=C3)cc1
REMARK SMILES IDX 21 1 20 2 18 3 19 4 17 6 5 7 4 8 2 9 1 10 3 11 6 12 7 13
REMARK SMILES IDX 8 15 9 16 14 17 10 18 12 19 11 20 13 21 15 22 16 23 22 24
REMARK SMILES IDX 23 25 24 26 25 27 26 28 27 30 28 31 29 32 90 33 30 34 89 35
REMARK SMILES IDX 31 36 32 37 33 38 83 39 34 40 88 41 82 42 84 43 35 44 87 45
REMARK SMILES IDX 81 46 80 47 36 49 68 50 48 51 67 52 49 53 52 54 66 55 85 56
REMARK SMILES IDX 50 57 51 58 65 60 86 61 53 62 37 63 38 64 46 65 39 66 41 67
REMARK SMILES IDX 47 68 40 69 42 70 43 71 44 72 45 73 69 74 70 75 78 76 71 77
REMARK SMILES IDX 73 78 79 79 72 80 74 81 75 82 76 83 77 84 54 85 55 86 63 87
REMARK SMILES IDX 56 88 58 89 64 90 57 91 59 92 60 93 61 94 62 95
REMARK H PARENT 20 5 7 14 25 29 84 48 52 59
REMARK Flexibility Score: inf
ROOT
ATOM      1  C   UNL     1      -2.910  -0.583   2.085  1.00  0.00     0.116 C 
ENDROOT
BRANCH   1   2
ATOM      2  N   UNL     1      -3.390   0.380   1.122  1.00  0.00    -0.356 N 
ATOM      3  C   UNL     1      -3.283   0.365  -0.232  1.00  0.00     0.220 C 
ATOM      4  O   UNL     1      -3.583   1.385  -0.855  1.00  0.00    -0.275 OA
ATOM      5  H   UNL     1      -3.861   1.158   1.501  1.00  0.00     0.163 HD
BRANCH   3   6
ATOM      6  C   UNL     1      -2.907  -0.908  -0.973  1.00  0.00     0.105 C 
BRANCH   6   7
ATOM      7  C   UNL     1      -1.421  -1.150  -1.303  1.00  0.00     0.018 C 
BRANCH   7   8
ATOM      8  C   UNL     1      -1.228  -2.058  -2.554  1.00  0.00     0.009 C 
BRANCH   8   9
ATOM      9  C   UNL     1      -2.084  -3.344  -2.647  1.00  0.00    -0.017 C 
ATOM     10  C   UNL     1      -3.392  -3.116  -3.411  1.00  0.00     0.007 C 
ATOM     11  C   UNL     1      -1.284  -4.452  -3.339  1.00  0.00     0.007 C 
ENDBRANCH   8   9
ENDBRANCH   7   8
BRANCH   7  12
ATOM     12  C   UNL     1      -0.523  -1.680  -0.161  1.00  0.00     0.117 C 
BRANCH  12  13
ATOM     13  N   UNL     1      -1.053  -2.892   0.437  1.00  0.00    -0.384 N 
ATOM     14  H   UNL     1      -2.024  -3.032   0.354  1.00  0.00     0.160 HD
BRANCH  13  15
ATOM     15  C   UNL     1      -0.345  -3.872   1.110  1.00  0.00     0.055 A 
ATOM     16  C   UNL     1      -0.841  -5.186   0.959  1.00  0.00     0.027 A 
ATOM     17  C   UNL     1       0.834  -3.707   1.859  1.00  0.00     0.111 A 
ATOM     18  C   UNL     1      -0.205  -6.293   1.520  1.00  0.00     0.005 A 
ATOM     19  C   UNL     1       1.454  -4.825   2.433  1.00  0.00     0.143 A 
ATOM     20  C   UNL     1       0.949  -6.110   2.265  1.00  0.00     0.041 A 
ATOM     21  F   UNL     1       2.569  -4.680   3.166  1.00  0.00    -0.205 F 
BRANCH  17  22
ATOM     22  C   UNL     1       1.422  -2.431   2.122  1.00  0.00     0.104 C 
ATOM     23  N   UNL     1       1.893  -1.386   2.323  1.00  0.00    -0.192 NA
ENDBRANCH  17  22
ENDBRANCH  13  15
ENDBRANCH  12  13
ENDBRANCH   7  12
ENDBRANCH   6   7
ENDBRANCH   3   6
ENDBRANCH   1   2
BRANCH   1  24
ATOM     24  C   UNL     1      -1.552  -0.141   2.624  1.00  0.00     0.023 C 
BRANCH  24  25
ATOM     25  C   UNL     1      -1.600   0.737   3.859  1.00  0.00     0.023 C 
BRANCH  25  26
ATOM     26  C   UNL     1      -2.196   0.050   5.069  1.00  0.00     0.116 C 
BRANCH  26  27
ATOM     27  N   UNL     1      -1.483  -1.159   5.465  1.00  0.00    -0.352 N 
ATOM     28  C   UNL     1      -1.175  -1.579   6.738  1.00  0.00     0.251 C 
ATOM     29  H   UNL     1      -1.187  -1.746   4.733  1.00  0.00     0.163 HD
ATOM     30  O   UNL     1      -0.469  -2.565   6.919  1.00  0.00    -0.269 OA
BRANCH  28  31
ATOM     31  C   UNL     1      -1.682  -0.790   7.878  1.00  0.00     0.039 A 
ATOM     32  C   UNL     1      -0.801  -0.423   8.892  1.00  0.00     0.014 A 
ATOM     33  C   UNL     1      -3.002  -0.330   7.879  1.00  0.00     0.014 A 
ATOM     34  C   UNL     1      -1.238   0.455   9.882  1.00  0.00     0.010 A 
ATOM     35  C   UNL     1      -3.384   0.654   8.778  1.00  0.00     0.010 A 
ATOM     36  C   UNL     1      -2.519   1.033   9.810  1.00  0.00    -0.014 A 
BRANCH  36  37
ATOM     37  C   UNL     1      -2.954   2.026  10.822  1.00  0.00     0.031 A 
ATOM     38  C   UNL     1      -4.167   1.768  11.673  1.00  0.00     0.074 A 
ATOM     39  C   UNL     1      -2.258   3.173  10.959  1.00  0.00     0.049 A 
ATOM     40  N   UNL     1      -4.632   2.472  12.672  1.00  0.00    -0.248 NA
ATOM     41  C   UNL     1      -4.984   0.584  11.352  1.00  0.00     0.031 C 
ATOM     42  C   UNL     1      -1.130   3.585  10.119  1.00  0.00     0.029 A 
ATOM     43  N   UNL     1      -2.392   4.198  11.859  1.00  0.00    -0.354 N 
ATOM     44  C   UNL     1      -5.797   1.833  13.078  1.00  0.00     0.074 A 
ATOM     45  C   UNL     1      -6.003   0.717  12.186  1.00  0.00     0.031 C 
ATOM     46  C   UNL     1      -0.644   4.749  10.575  1.00  0.00     0.029 A 
ATOM     47  C   UNL     1      -1.448   5.187  11.710  1.00  0.00     0.049 A 
ATOM     48  H   UNL     1      -3.097   4.224  12.546  1.00  0.00     0.167 HD
ATOM     49  C   UNL     1      -6.606   2.127  14.122  1.00  0.00     0.034 A 
ATOM     50  C   UNL     1      -1.252   6.319  12.412  1.00  0.00     0.034 A 
ATOM     51  C   UNL     1      -6.387   3.232  15.014  1.00  0.00     0.049 A 
ATOM     52  C   UNL     1      -2.141   6.602  13.589  1.00  0.00     0.074 A 
ATOM     53  C   UNL     1      -7.099   3.574  16.149  1.00  0.00     0.029 A 
ATOM     54  N   UNL     1      -5.395   4.188  14.860  1.00  0.00    -0.354 N 
ATOM     55  N   UNL     1      -3.143   5.898  14.057  1.00  0.00    -0.248 NA
ATOM     56  C   UNL     1      -1.844   7.815  14.363  1.00  0.00     0.031 C 
ATOM     57  C   UNL     1      -6.574   4.770  16.648  1.00  0.00     0.029 A 
ATOM     58  C   UNL     1      -5.489   5.134  15.866  1.00  0.00     0.049 A 
ATOM     59  H   UNL     1      -4.723   4.194  14.140  1.00  0.00     0.167 HD
ATOM     60  C   UNL     1      -3.573   6.560  15.200  1.00  0.00     0.074 A 
ATOM     61  C   UNL     1      -2.702   7.706  15.367  1.00  0.00     0.031 C 
ATOM     62  C   UNL     1      -4.599   6.255  16.032  1.00  0.00     0.034 A 
BRANCH  49  63
ATOM     63  C   UNL     1      -7.793   1.229  14.363  1.00  0.00     0.023 A 
ATOM     64  C   UNL     1      -7.600  -0.103  14.785  1.00  0.00     0.012 A 
ATOM     65  C   UNL     1      -9.104   1.721  14.216  1.00  0.00     0.148 A 
ATOM     66  C   UNL     1      -8.690  -0.942  15.018  1.00  0.00     0.002 A 
ATOM     67  C   UNL     1     -10.185   0.897  14.503  1.00  0.00     0.091 A 
ATOM     68  F   UNL     1      -9.270   2.982  13.791  1.00  0.00    -0.205 F 
ATOM     69  C   UNL     1      -9.981  -0.438  14.889  1.00  0.00     0.022 A 
BRANCH  67  70
ATOM     70  S   UNL     1     -11.884   1.475  14.449  1.00  0.00     0.127 S 
ATOM     71  O   UNL     1     -12.421   0.705  13.328  1.00  0.00    -0.237 OA
ATOM     72  O   UNL     1     -12.384   1.070  15.763  1.00  0.00    -0.237 OA
ATOM     73  O   UNL     1     -11.816   2.914  14.239  1.00  0.00    -0.744 OA
ENDBRANCH  67  70
ENDBRANCH  49  63
BRANCH  50  74
ATOM     74  C   UNL     1      -0.141   7.241  12.046  1.00  0.00     0.023 A 
ATOM     75  C   UNL     1       0.960   7.402  12.911  1.00  0.00     0.012 A 
ATOM     76  C   UNL     1      -0.168   7.949  10.830  1.00  0.00     0.148 A 
ATOM     77  C   UNL     1       1.992   8.284  12.589  1.00  0.00     0.002 A 
ATOM     78  C   UNL     1       0.892   8.778  10.487  1.00  0.00     0.091 A 
ATOM     79  F   UNL     1      -1.227   7.785  10.025  1.00  0.00    -0.205 F 
ATOM     80  C   UNL     1       1.963   8.964  11.374  1.00  0.00     0.022 A 
BRANCH  78  81
ATOM     81  S   UNL     1       0.998   9.590   8.890  1.00  0.00     0.127 S 
ATOM     82  O   UNL     1       0.871  10.997   9.261  1.00  0.00    -0.237 OA
ATOM     83  O   UNL     1       2.330   9.188   8.439  1.00  0.00    -0.237 OA
ATOM     84  O   UNL     1      -0.096   9.047   8.096  1.00  0.00    -0.744 OA
ENDBRANCH  78  81
ENDBRANCH  50  74
BRANCH  62  85
ATOM     85  C   UNL     1      -4.800   7.143  17.233  1.00  0.00     0.023 A 
ATOM     86  C   UNL     1      -5.218   8.480  17.073  1.00  0.00     0.012 A 
ATOM     87  C   UNL     1      -4.588   6.637  18.531  1.00  0.00     0.148 A 
ATOM     88  C   UNL     1      -5.355   9.316  18.181  1.00  0.00     0.002 A 
ATOM     89  C   UNL     1      -4.790   7.457  19.633  1.00  0.00     0.091 A 
ATOM     90  F   UNL     1      -4.179   5.367  18.665  1.00  0.00    -0.205 F 
ATOM     91  C   UNL     1      -5.150   8.803  19.459  1.00  0.00     0.022 A 
BRANCH  89  92
ATOM     92  S   UNL     1      -4.651   6.852  21.317  1.00  0.00     0.127 S 
ATOM     93  O   UNL     1      -3.411   7.486  21.759  1.00  0.00    -0.237 OA
ATOM     94  O   UNL     1      -5.864   7.386  21.937  1.00  0.00    -0.237 OA
ATOM     95  O   UNL     1      -4.612   5.399  21.221  1.00  0.00    -0.744 OA
ENDBRANCH  89  92
ENDBRANCH  62  85
ENDBRANCH  36  37
ENDBRANCH  28  31
ENDBRANCH  26  27
ENDBRANCH  25  26
ENDBRANCH  24  25
ENDBRANCH   1  24
TORSDOF 21
