REMARK SMILES O=C(NCCCCNC(=O)[C@@H]1CCCCC[C@H]1NS(=O)(=O)c1cccnc1Cl)c1ccc(-c2c3nc(c(-c4cccc(S(=O)(=O)[O-])c4F)c4ccc([nH]4)c(-c4cccc(S(=O)(=O)[O-])c4F)c4nc(c(-c5cccc(S(=O)(=O)[O-])c5F)c5ccc2[nH]5)C=C4)C=C3)cc1
REMARK SMILES IDX 6 1 5 2 4 3 3 4 1 5 2 6 29 8 30 9 91 10 31 11 90 12 32 13
REMARK SMILES IDX 33 14 34 15 84 16 35 17 89 18 83 19 85 20 36 21 88 22 82 23
REMARK SMILES IDX 81 24 37 26 69 27 49 28 68 29 50 30 53 31 67 32 86 33 51 34
REMARK SMILES IDX 52 35 66 37 87 38 54 39 38 40 39 41 47 42 40 43 42 44 48 45
REMARK SMILES IDX 41 46 43 47 44 48 45 49 46 50 70 51 71 52 79 53 72 54 74 55
REMARK SMILES IDX 80 56 73 57 75 58 76 59 77 60 78 61 55 62 56 63 64 64 57 65
REMARK SMILES IDX 59 66 65 67 58 68 60 69 61 70 62 71 63 72 7 73 8 74 9 75
REMARK SMILES IDX 10 77 11 78 12 79 13 80 14 81 17 83 16 84 15 85 18 87 19 89
REMARK SMILES IDX 20 90 21 91 22 92 23 93 27 94 24 95 26 96 28 97 25 98
REMARK H PARENT 3 7 85 25 53 36 8 76 18 88
REMARK Flexibility Score: 100.00
ROOT
ATOM      1  C   UNL     1       4.826   1.620  -3.202  1.00  0.00     0.023 C 
ENDROOT
BRANCH   1   2
ATOM      2  C   UNL     1       5.076   0.262  -2.560  1.00  0.00     0.023 C 
BRANCH   2   3
ATOM      3  C   UNL     1       4.591   0.151  -1.125  1.00  0.00     0.116 C 
BRANCH   3   4
ATOM      4  N   UNL     1       3.165   0.384  -0.942  1.00  0.00    -0.352 N 
ATOM      5  O   UNL     1       1.173   0.085   0.116  1.00  0.00    -0.269 OA
ATOM      6  C   UNL     1       2.378  -0.124   0.073  1.00  0.00     0.251 C 
ATOM      7  H   UNL     1       2.719   0.959  -1.605  1.00  0.00     0.163 HD
BRANCH   6   8
ATOM      8  C   UNL     1       3.047  -0.977   1.077  1.00  0.00     0.039 A 
ATOM      9  C   UNL     1       4.187  -0.491   1.716  1.00  0.00     0.014 A 
ATOM     10  C   UNL     1       2.654  -2.308   1.225  1.00  0.00     0.014 A 
ATOM     11  C   UNL     1       5.042  -1.385   2.337  1.00  0.00     0.010 A 
ATOM     12  C   UNL     1       3.458  -3.180   1.966  1.00  0.00     0.010 A 
ATOM     13  C   UNL     1       4.682  -2.738   2.490  1.00  0.00    -0.014 A 
BRANCH  13  14
ATOM     14  C   UNL     1       5.582  -3.619   3.280  1.00  0.00     0.031 A 
ATOM     15  C   UNL     1       6.229  -4.845   2.693  1.00  0.00     0.074 A 
ATOM     16  C   UNL     1       5.847  -3.255   4.550  1.00  0.00     0.049 A 
ATOM     17  N   UNL     1       7.083  -5.664   3.253  1.00  0.00    -0.248 NA
ATOM     18  C   UNL     1       5.873  -5.212   1.313  1.00  0.00     0.031 C 
ATOM     19  C   UNL     1       5.229  -2.118   5.241  1.00  0.00     0.029 A 
ATOM     20  N   UNL     1       6.709  -3.774   5.479  1.00  0.00    -0.354 N 
ATOM     21  C   UNL     1       7.338  -6.660   2.318  1.00  0.00     0.074 A 
ATOM     22  C   UNL     1       6.542  -6.347   1.150  1.00  0.00     0.031 C 
ATOM     23  C   UNL     1       5.773  -1.989   6.456  1.00  0.00     0.029 A 
ATOM     24  C   UNL     1       6.717  -3.078   6.665  1.00  0.00     0.049 A 
ATOM     25  H   UNL     1       7.269  -4.568   5.314  1.00  0.00     0.167 HD
ATOM     26  C   UNL     1       8.168  -7.727   2.421  1.00  0.00     0.034 A 
ATOM     27  C   UNL     1       7.390  -3.299   7.809  1.00  0.00     0.034 A 
ATOM     28  C   UNL     1       8.980  -8.011   3.579  1.00  0.00     0.049 A 
ATOM     29  C   UNL     1       8.336  -4.458   7.871  1.00  0.00     0.074 A 
ATOM     30  C   UNL     1       9.878  -9.048   3.767  1.00  0.00     0.029 A 
ATOM     31  N   UNL     1       8.995  -7.258   4.744  1.00  0.00    -0.354 N 
ATOM     32  N   UNL     1       8.634  -5.327   6.936  1.00  0.00    -0.248 NA
ATOM     33  C   UNL     1       9.056  -4.654   9.134  1.00  0.00     0.031 C 
ATOM     34  C   UNL     1      10.427  -8.928   5.049  1.00  0.00     0.029 A 
ATOM     35  C   UNL     1       9.886  -7.804   5.653  1.00  0.00     0.049 A 
ATOM     36  H   UNL     1       8.451  -6.452   4.901  1.00  0.00     0.167 HD
ATOM     37  C   UNL     1       9.581  -6.173   7.496  1.00  0.00     0.074 A 
ATOM     38  C   UNL     1       9.843  -5.678   8.834  1.00  0.00     0.031 C 
ATOM     39  C   UNL     1      10.159  -7.278   6.966  1.00  0.00     0.034 A 
BRANCH  26  40
ATOM     40  C   UNL     1       8.288  -8.654   1.236  1.00  0.00     0.023 A 
ATOM     41  C   UNL     1       9.010  -8.234   0.100  1.00  0.00     0.012 A 
ATOM     42  C   UNL     1       7.777  -9.967   1.280  1.00  0.00     0.148 A 
ATOM     43  C   UNL     1       9.204  -9.097  -0.980  1.00  0.00     0.002 A 
ATOM     44  C   UNL     1       8.007 -10.834   0.216  1.00  0.00     0.091 A 
ATOM     45  F   UNL     1       7.080 -10.345   2.361  1.00  0.00    -0.205 F 
ATOM     46  C   UNL     1       8.713 -10.398  -0.917  1.00  0.00     0.022 A 
BRANCH  44  47
ATOM     47  S   UNL     1       7.484 -12.554   0.228  1.00  0.00     0.127 S 
ATOM     48  O   UNL     1       6.434 -12.549  -0.791  1.00  0.00    -0.237 OA
ATOM     49  O   UNL     1       8.709 -13.251  -0.164  1.00  0.00    -0.237 OA
ATOM     50  O   UNL     1       7.034 -12.828   1.585  1.00  0.00    -0.744 OA
ENDBRANCH  44  47
ENDBRANCH  26  40
BRANCH  27  51
ATOM     51  C   UNL     1       7.192  -2.383   8.966  1.00  0.00     0.023 A 
ATOM     52  C   UNL     1       8.241  -1.544   9.383  1.00  0.00     0.012 A 
ATOM     53  C   UNL     1       5.944  -2.298   9.614  1.00  0.00     0.148 A 
ATOM     54  C   UNL     1       8.057  -0.653  10.443  1.00  0.00     0.002 A 
ATOM     55  C   UNL     1       5.747  -1.360  10.619  1.00  0.00     0.091 A 
ATOM     56  F   UNL     1       4.962  -3.120   9.217  1.00  0.00    -0.205 F 
ATOM     57  C   UNL     1       6.807  -0.550  11.049  1.00  0.00     0.022 A 
BRANCH  55  58
ATOM     58  S   UNL     1       4.120  -1.056  11.315  1.00  0.00     0.127 S 
ATOM     59  O   UNL     1       4.187  -1.799  12.569  1.00  0.00    -0.237 OA
ATOM     60  O   UNL     1       4.113   0.401  11.460  1.00  0.00    -0.237 OA
ATOM     61  O   UNL     1       3.180  -1.556  10.320  1.00  0.00    -0.744 OA
ENDBRANCH  55  58
ENDBRANCH  27  51
BRANCH  39  62
ATOM     62  C   UNL     1      11.135  -8.018   7.840  1.00  0.00     0.023 A 
ATOM     63  C   UNL     1      10.659  -8.758   8.941  1.00  0.00     0.012 A 
ATOM     64  C   UNL     1      12.515  -7.997   7.564  1.00  0.00     0.148 A 
ATOM     65  C   UNL     1      11.546  -9.430   9.780  1.00  0.00     0.002 A 
ATOM     66  C   UNL     1      13.389  -8.708   8.378  1.00  0.00     0.091 A 
ATOM     67  F   UNL     1      12.951  -7.268   6.527  1.00  0.00    -0.205 F 
ATOM     68  C   UNL     1      12.908  -9.413   9.494  1.00  0.00     0.022 A 
BRANCH  66  69
ATOM     69  S   UNL     1      15.148  -8.809   8.032  1.00  0.00     0.127 S 
ATOM     70  O   UNL     1      15.699  -7.882   9.017  1.00  0.00    -0.237 OA
ATOM     71  O   UNL     1      15.438 -10.220   8.292  1.00  0.00    -0.237 OA
ATOM     72  O   UNL     1      15.301  -8.412   6.638  1.00  0.00    -0.744 OA
ENDBRANCH  66  69
ENDBRANCH  39  62
ENDBRANCH  13  14
ENDBRANCH   6   8
ENDBRANCH   3   4
ENDBRANCH   2   3
ENDBRANCH   1   2
BRANCH   1  73
ATOM     73  C   UNL     1       5.542   2.791  -2.520  1.00  0.00     0.116 C 
BRANCH  73  74
ATOM     74  N   UNL     1       6.770   3.122  -3.210  1.00  0.00    -0.356 N 
ATOM     75  C   UNL     1       7.046   3.968  -4.231  1.00  0.00     0.224 C 
ATOM     76  H   UNL     1       7.558   2.638  -2.872  1.00  0.00     0.163 HD
ATOM     77  O   UNL     1       8.204   3.929  -4.667  1.00  0.00    -0.275 OA
BRANCH  75  78
ATOM     78  C   UNL     1       6.080   5.026  -4.792  1.00  0.00     0.096 C 
BRANCH  78  79
ATOM     79  C   UNL     1       6.317   6.336  -4.023  1.00  0.00     0.015 C 
BRANCH  79  80
ATOM     80  C   UNL     1       5.611   7.548  -4.630  1.00  0.00     0.001 C 
BRANCH  80  81
ATOM     81  C   UNL     1       4.211   7.769  -4.072  1.00  0.00     0.000 CG0
ATOM     82  G   UNL     1       3.191   6.728  -4.507  1.00  0.00     0.000 G0
ENDBRANCH  80  81
ENDBRANCH  79  80
ENDBRANCH  78  79
BRANCH  78  83
ATOM     83  C   UNL     1       4.610   4.600  -5.016  1.00  0.00     0.082 C 
BRANCH  83  84
ATOM     84  C   UNL     1       3.565   5.299  -4.127  1.00  0.00     0.021 C 
BRANCH  84  85
ATOM     85  C   UNL     1       3.191   6.728  -4.507  1.00  0.00     0.002 CG0
ATOM     86  G   UNL     1       4.211   7.769  -4.072  1.00  0.00     0.000 G0
ENDBRANCH  84  85
ENDBRANCH  83  84
BRANCH  83  87
ATOM     87  N   UNL     1       4.281   4.723  -6.455  1.00  0.00    -0.207 NA
ATOM     88  H   UNL     1       5.081   4.338  -6.956  1.00  0.00     0.141 HD
BRANCH  87  89
ATOM     89  S   UNL     1       2.925   4.036  -7.166  1.00  0.00     0.243 S 
ATOM     90  O   UNL     1       1.761   4.491  -6.448  1.00  0.00    -0.207 OA
ATOM     91  O   UNL     1       3.061   4.328  -8.578  1.00  0.00    -0.207 OA
BRANCH  89  92
ATOM     92  C   UNL     1       3.180   2.312  -6.976  1.00  0.00     0.119 A 
ATOM     93  C   UNL     1       4.203   1.710  -7.722  1.00  0.00     0.026 A 
ATOM     94  C   UNL     1       2.404   1.505  -6.168  1.00  0.00     0.149 A 
ATOM     95  C   UNL     1       4.412   0.337  -7.628  1.00  0.00     0.022 A 
ATOM     96  N   UNL     1       2.601   0.166  -6.057  1.00  0.00    -0.243 NA
ATOM     97  Cl  UNL     1       1.133   2.007  -5.130  1.00  0.00    -0.061 Cl
ATOM     98  C   UNL     1       3.588  -0.390  -6.790  1.00  0.00     0.113 A 
ENDBRANCH  89  92
ENDBRANCH  87  89
ENDBRANCH  83  87
ENDBRANCH  78  83
ENDBRANCH  75  78
ENDBRANCH  73  74
ENDBRANCH   1  73
TORSDOF 17
