REMARK SMILES [NH3+][C@H](Cn1nnc2ccccc21)C(=O)NCCCCNC(=O)c1ccc(-c2c3nc(c(-c4cccc(S(=O)(=O)[O-])c4F)c4ccc([nH]4)c(-c4cccc(S(=O)(=O)[O-])c4F)c4nc(c(-c5cccc(S(=O)(=O)[O-])c5F)c5ccc2[nH]5)C=C4)C=C3)cc1
REMARK SMILES IDX 18 1 17 2 16 3 15 4 13 5 14 6 2 8 1 9 3 13 4 14 5 15 12 16
REMARK SMILES IDX 6 17 7 18 11 19 8 20 10 21 9 22 19 23 20 24 21 25 22 27
REMARK SMILES IDX 23 28 24 29 85 30 25 31 84 32 26 33 27 34 28 35 78 36 29 37
REMARK SMILES IDX 83 38 77 39 79 40 30 41 82 42 76 43 75 44 31 46 63 47 43 48
REMARK SMILES IDX 62 49 44 50 47 51 61 52 80 53 45 54 46 55 60 57 81 58 48 59
REMARK SMILES IDX 32 60 33 61 41 62 34 63 36 64 42 65 35 66 37 67 38 68 39 69
REMARK SMILES IDX 40 70 64 71 65 72 73 73 66 74 68 75 74 76 67 77 69 78 70 79
REMARK SMILES IDX 71 80 72 81 49 82 50 83 58 84 51 85 53 86 59 87 52 88 54 89
REMARK SMILES IDX 55 90 56 91 57 92
REMARK H PARENT 15 7 1 10 1 11 1 12 20 26 79 45 47 56
REMARK Flexibility Score: inf
ROOT
ATOM      1  C   UNL     1      -3.898  -1.001   2.955  1.00  0.00     0.023 C 
ENDROOT
BRANCH   1   2
ATOM      2  C   UNL     1      -2.677  -0.271   2.364  1.00  0.00     0.023 C 
BRANCH   2   3
ATOM      3  C   UNL     1      -2.259  -0.803   0.997  1.00  0.00     0.116 C 
BRANCH   3   4
ATOM      4  N   UNL     1      -1.832   0.190   0.019  1.00  0.00    -0.351 N 
ATOM      5  C   UNL     1      -1.145  -0.212  -1.114  1.00  0.00     0.280 C 
ATOM      6  O   UNL     1      -1.799  -0.476  -2.126  1.00  0.00    -0.268 OA
ATOM      7  H   UNL     1      -2.030   1.143   0.163  1.00  0.00     0.163 HD
BRANCH   5   8
ATOM      8  C   UNL     1       0.409  -0.080  -1.130  1.00  0.00     0.292 C 
BRANCH   8   9
ATOM      9  N   UNL     1       1.040  -0.848  -2.239  1.00  0.00    -0.346 N 
ATOM     10  H   UNL     1       0.506  -0.707  -3.097  1.00  0.00     0.345 HD
ATOM     11  H   UNL     1       1.049  -1.840  -2.003  1.00  0.00     0.345 HD
ATOM     12  H   UNL     1       1.997  -0.522  -2.377  1.00  0.00     0.345 HD
ENDBRANCH   8   9
BRANCH   8  13
ATOM     13  C   UNL     1       1.147  -0.234   0.196  1.00  0.00     0.222 C 
BRANCH  13  14
ATOM     14  N   UNL     1       1.221  -1.507   0.880  1.00  0.00    -0.238 N 
ATOM     15  N   UNL     1       1.873  -1.483   2.067  1.00  0.00    -0.066 NA
ATOM     16  C   UNL     1       0.500  -2.673   0.744  1.00  0.00     0.089 A 
ATOM     17  N   UNL     1       1.409  -2.477   2.805  1.00  0.00    -0.130 NA
ATOM     18  C   UNL     1       0.534  -3.191   2.042  1.00  0.00     0.113 A 
ATOM     19  C   UNL     1      -0.309  -3.247  -0.253  1.00  0.00     0.030 A 
ATOM     20  C   UNL     1      -0.323  -4.240   2.398  1.00  0.00     0.032 A 
ATOM     21  C   UNL     1      -1.190  -4.264   0.134  1.00  0.00     0.002 A 
ATOM     22  C   UNL     1      -1.216  -4.736   1.443  1.00  0.00     0.002 A 
ENDBRANCH  13  14
ENDBRANCH   8  13
ENDBRANCH   5   8
ENDBRANCH   3   4
ENDBRANCH   2   3
ENDBRANCH   1   2
BRANCH   1  23
ATOM     23  C   UNL     1      -3.857  -2.536   2.952  1.00  0.00     0.116 C 
BRANCH  23  24
ATOM     24  N   UNL     1      -3.019  -3.107   3.989  1.00  0.00    -0.352 N 
ATOM     25  C   UNL     1      -3.348  -4.226   4.734  1.00  0.00     0.251 C 
ATOM     26  H   UNL     1      -2.157  -2.669   4.175  1.00  0.00     0.163 HD
ATOM     27  O   UNL     1      -2.688  -5.257   4.667  1.00  0.00    -0.269 OA
BRANCH  25  28
ATOM     28  C   UNL     1      -4.289  -3.993   5.852  1.00  0.00     0.039 A 
ATOM     29  C   UNL     1      -5.321  -3.077   5.705  1.00  0.00     0.014 A 
ATOM     30  C   UNL     1      -3.930  -4.470   7.124  1.00  0.00     0.014 A 
ATOM     31  C   UNL     1      -5.798  -2.440   6.821  1.00  0.00     0.010 A 
ATOM     32  C   UNL     1      -4.485  -3.889   8.258  1.00  0.00     0.010 A 
ATOM     33  C   UNL     1      -5.348  -2.812   8.096  1.00  0.00    -0.014 A 
BRANCH  33  34
ATOM     34  C   UNL     1      -5.970  -2.084   9.195  1.00  0.00     0.031 A 
ATOM     35  C   UNL     1      -7.452  -2.079   9.073  1.00  0.00     0.074 A 
ATOM     36  C   UNL     1      -5.310  -1.458  10.187  1.00  0.00     0.049 A 
ATOM     37  N   UNL     1      -8.204  -1.081   8.738  1.00  0.00    -0.248 NA
ATOM     38  C   UNL     1      -8.135  -3.383   9.058  1.00  0.00     0.031 C 
ATOM     39  C   UNL     1      -3.899  -1.593  10.552  1.00  0.00     0.029 A 
ATOM     40  N   UNL     1      -5.807  -0.650  11.168  1.00  0.00    -0.354 N 
ATOM     41  C   UNL     1      -9.495  -1.597   8.716  1.00  0.00     0.074 A 
ATOM     42  C   UNL     1      -9.373  -3.031   8.710  1.00  0.00     0.031 C 
ATOM     43  C   UNL     1      -3.726  -1.134  11.812  1.00  0.00     0.029 A 
ATOM     44  C   UNL     1      -4.966  -0.534  12.271  1.00  0.00     0.049 A 
ATOM     45  H   UNL     1      -6.676  -0.192  11.102  1.00  0.00     0.167 HD
ATOM     46  C   UNL     1     -10.562  -0.818   9.033  1.00  0.00     0.034 A 
ATOM     47  C   UNL     1      -5.322  -0.063  13.490  1.00  0.00     0.034 A 
ATOM     48  C   UNL     1     -10.243   0.579   8.995  1.00  0.00     0.049 A 
ATOM     49  C   UNL     1      -6.493   0.820  13.289  1.00  0.00     0.074 A 
ATOM     50  C   UNL     1     -10.108   1.562   8.041  1.00  0.00     0.029 A 
ATOM     51  N   UNL     1      -9.623   1.018  10.134  1.00  0.00    -0.354 N 
ATOM     52  N   UNL     1      -6.442   1.940  12.623  1.00  0.00    -0.248 NA
ATOM     53  C   UNL     1      -7.834   0.324  13.586  1.00  0.00     0.031 C 
ATOM     54  C   UNL     1      -9.248   2.551   8.607  1.00  0.00     0.029 A 
ATOM     55  C   UNL     1      -8.907   2.158   9.899  1.00  0.00     0.049 A 
ATOM     56  H   UNL     1      -9.686   0.571  11.008  1.00  0.00     0.167 HD
ATOM     57  C   UNL     1      -7.697   2.043  12.055  1.00  0.00     0.074 A 
ATOM     58  C   UNL     1      -8.553   1.153  12.826  1.00  0.00     0.031 C 
ATOM     59  C   UNL     1      -7.861   2.563  10.809  1.00  0.00     0.034 A 
BRANCH  46  60
ATOM     60  C   UNL     1     -11.707  -1.331   9.868  1.00  0.00     0.023 A 
ATOM     61  C   UNL     1     -12.896  -0.579   9.920  1.00  0.00     0.012 A 
ATOM     62  C   UNL     1     -11.557  -2.369  10.818  1.00  0.00     0.148 A 
ATOM     63  C   UNL     1     -13.895  -0.868  10.859  1.00  0.00     0.002 A 
ATOM     64  C   UNL     1     -12.584  -2.710  11.684  1.00  0.00     0.091 A 
ATOM     65  F   UNL     1     -10.358  -2.937  10.994  1.00  0.00    -0.205 F 
ATOM     66  C   UNL     1     -13.751  -1.949  11.725  1.00  0.00     0.022 A 
BRANCH  64  67
ATOM     67  S   UNL     1     -12.446  -4.124  12.781  1.00  0.00     0.127 S 
ATOM     68  O   UNL     1     -12.230  -3.477  14.069  1.00  0.00    -0.237 OA
ATOM     69  O   UNL     1     -13.751  -4.761  12.612  1.00  0.00    -0.237 OA
ATOM     70  O   UNL     1     -11.331  -4.909  12.255  1.00  0.00    -0.744 OA
ENDBRANCH  64  67
ENDBRANCH  46  60
BRANCH  47  71
ATOM     71  C   UNL     1      -4.940  -0.528  14.848  1.00  0.00     0.023 A 
ATOM     72  C   UNL     1      -5.343   0.244  15.961  1.00  0.00     0.012 A 
ATOM     73  C   UNL     1      -4.502  -1.849  15.084  1.00  0.00     0.148 A 
ATOM     74  C   UNL     1      -5.409  -0.310  17.243  1.00  0.00     0.002 A 
ATOM     75  C   UNL     1      -4.558  -2.392  16.366  1.00  0.00     0.091 A 
ATOM     76  F   UNL     1      -4.128  -2.608  14.048  1.00  0.00    -0.205 F 
ATOM     77  C   UNL     1      -5.036  -1.635  17.442  1.00  0.00     0.022 A 
BRANCH  75  78
ATOM     78  S   UNL     1      -4.095  -4.098  16.695  1.00  0.00     0.127 S 
ATOM     79  O   UNL     1      -3.342  -3.975  17.944  1.00  0.00    -0.237 OA
ATOM     80  O   UNL     1      -5.397  -4.745  16.827  1.00  0.00    -0.237 OA
ATOM     81  O   UNL     1      -3.289  -4.513  15.554  1.00  0.00    -0.744 OA
ENDBRANCH  75  78
ENDBRANCH  47  71
BRANCH  59  82
ATOM     82  C   UNL     1      -6.794   3.474  10.290  1.00  0.00     0.023 A 
ATOM     83  C   UNL     1      -5.540   3.012   9.846  1.00  0.00     0.012 A 
ATOM     84  C   UNL     1      -7.125   4.829  10.143  1.00  0.00     0.148 A 
ATOM     85  C   UNL     1      -4.630   3.898   9.261  1.00  0.00     0.002 A 
ATOM     86  C   UNL     1      -6.235   5.697   9.530  1.00  0.00     0.091 A 
ATOM     87  F   UNL     1      -8.326   5.235  10.580  1.00  0.00    -0.205 F 
ATOM     88  C   UNL     1      -4.983   5.237   9.091  1.00  0.00     0.022 A 
BRANCH  86  89
ATOM     89  S   UNL     1      -6.668   7.404   9.194  1.00  0.00     0.127 S 
ATOM     90  O   UNL     1      -5.746   8.132  10.063  1.00  0.00    -0.237 OA
ATOM     91  O   UNL     1      -6.380   7.517   7.763  1.00  0.00    -0.237 OA
ATOM     92  O   UNL     1      -8.079   7.540   9.533  1.00  0.00    -0.744 OA
ENDBRANCH  86  89
ENDBRANCH  59  82
ENDBRANCH  33  34
ENDBRANCH  25  28
ENDBRANCH  23  24
ENDBRANCH   1  23
TORSDOF 17
