REMARK SMILES CC(C)CCn1cc(C(=O)NCCCCNC(=O)c2ccc(-c3c4nc(c(-c5cccc(S(=O)(=O)[O-])c5F)c5ccc([nH]5)c(-c5cccc(S(=O)(=O)[O-])c5F)c5nc(c(-c6cccc(S(=O)(=O)[O-])c6F)c6ccc3[nH]6)C=C5)C=C4)cc2)c(-c2ccoc2)n1
REMARK SMILES IDX 13 1 12 2 11 3 9 4 10 5 8 7 6 8 7 9 88 10 82 11 5 12 4 13
REMARK SMILES IDX 2 14 1 15 3 16 83 17 84 18 87 19 85 20 86 21 14 22 15 23
REMARK SMILES IDX 16 24 17 25 18 27 19 28 20 29 81 30 21 31 80 32 22 33 23 34
REMARK SMILES IDX 24 35 74 36 25 37 79 38 73 39 75 40 26 41 78 42 72 43 71 44
REMARK SMILES IDX 27 46 59 47 39 48 58 49 40 50 43 51 57 52 76 53 41 54 42 55
REMARK SMILES IDX 56 57 77 58 44 59 28 60 29 61 37 62 30 63 32 64 38 65 31 66
REMARK SMILES IDX 33 67 34 68 35 69 36 70 60 71 61 72 69 73 62 74 64 75 70 76
REMARK SMILES IDX 63 77 65 78 66 79 67 80 68 81 45 82 46 83 54 84 47 85 49 86
REMARK SMILES IDX 55 87 48 88 50 89 51 90 52 91 53 92
REMARK H PARENT 11 6 16 26 75 45 43 56
REMARK Flexibility Score: inf
ROOT
ATOM      1  C   UNL     1      -2.739   6.117   1.970  1.00  0.00     0.023 C 
ENDROOT
BRANCH   1   2
ATOM      2  C   UNL     1      -3.171   6.103   0.500  1.00  0.00     0.116 C 
BRANCH   2   3
ATOM      3  N   UNL     1      -2.155   6.699  -0.338  1.00  0.00    -0.352 N 
ATOM      4  C   UNL     1      -1.113   6.176  -1.062  1.00  0.00     0.255 C 
ATOM      5  O   UNL     1      -0.348   6.995  -1.565  1.00  0.00    -0.269 OA
ATOM      6  H   UNL     1      -2.223   7.679  -0.401  1.00  0.00     0.163 HD
BRANCH   4   7
ATOM      7  C   UNL     1      -0.935   4.740  -1.238  1.00  0.00     0.085 A 
ATOM      8  N   UNL     1      -1.093   2.534  -1.143  1.00  0.00    -0.271 N 
ATOM      9  C   UNL     1      -1.410   3.684  -0.478  1.00  0.00     0.123 A 
ATOM     10  N   UNL     1      -0.345   2.745  -2.229  1.00  0.00    -0.172 NA
ATOM     11  C   UNL     1      -0.183   4.075  -2.256  1.00  0.00     0.108 A 
BRANCH   8  12
ATOM     12  C   UNL     1      -1.517   1.202  -0.755  1.00  0.00     0.144 C 
BRANCH  12  13
ATOM     13  C   UNL     1      -0.904   0.020  -1.514  1.00  0.00     0.027 C 
BRANCH  13  14
ATOM     14  C   UNL     1       0.627  -0.130  -1.402  1.00  0.00    -0.016 C 
ATOM     15  C   UNL     1       1.095  -0.324   0.039  1.00  0.00     0.007 C 
ATOM     16  C   UNL     1       1.093  -1.297  -2.274  1.00  0.00     0.007 C 
ENDBRANCH  13  14
ENDBRANCH  12  13
ENDBRANCH   8  12
BRANCH  11  17
ATOM     17  C   UNL     1       0.715   4.689  -3.228  1.00  0.00     0.041 A 
ATOM     18  C   UNL     1       0.723   4.441  -4.621  1.00  0.00     0.052 A 
ATOM     19  C   UNL     1       1.758   5.554  -2.986  1.00  0.00     0.205 A 
ATOM     20  C   UNL     1       1.756   5.192  -5.134  1.00  0.00     0.195 A 
ATOM     21  O   UNL     1       2.406   5.856  -4.142  1.00  0.00    -0.472 OA
ENDBRANCH  11  17
ENDBRANCH   4   7
ENDBRANCH   2   3
ENDBRANCH   1   2
BRANCH   1  22
ATOM     22  C   UNL     1      -2.770   7.504   2.633  1.00  0.00     0.023 C 
BRANCH  22  23
ATOM     23  C   UNL     1      -4.162   8.113   2.772  1.00  0.00     0.116 C 
BRANCH  23  24
ATOM     24  N   UNL     1      -5.048   7.303   3.608  1.00  0.00    -0.352 N 
ATOM     25  C   UNL     1      -6.422   7.402   3.741  1.00  0.00     0.251 C 
ATOM     26  H   UNL     1      -4.613   6.600   4.143  1.00  0.00     0.163 HD
ATOM     27  O   UNL     1      -6.995   6.957   4.721  1.00  0.00    -0.269 OA
BRANCH  25  28
ATOM     28  C   UNL     1      -7.180   8.039   2.651  1.00  0.00     0.039 A 
ATOM     29  C   UNL     1      -8.182   8.978   2.907  1.00  0.00     0.014 A 
ATOM     30  C   UNL     1      -6.826   7.700   1.348  1.00  0.00     0.014 A 
ATOM     31  C   UNL     1      -8.768   9.638   1.830  1.00  0.00     0.010 A 
ATOM     32  C   UNL     1      -7.295   8.452   0.303  1.00  0.00     0.010 A 
ATOM     33  C   UNL     1      -8.304   9.382   0.531  1.00  0.00    -0.014 A 
BRANCH  33  34
ATOM     34  C   UNL     1      -8.771  10.175  -0.601  1.00  0.00     0.031 A 
ATOM     35  C   UNL     1      -8.548  11.641  -0.462  1.00  0.00     0.074 A 
ATOM     36  C   UNL     1      -9.139   9.608  -1.771  1.00  0.00     0.049 A 
ATOM     37  N   UNL     1      -9.442  12.571  -0.374  1.00  0.00    -0.248 NA
ATOM     38  C   UNL     1      -7.171  12.121  -0.254  1.00  0.00     0.031 C 
ATOM     39  C   UNL     1      -9.078   8.187  -2.143  1.00  0.00     0.029 A 
ATOM     40  N   UNL     1      -9.489  10.204  -2.942  1.00  0.00    -0.354 N 
ATOM     41  C   UNL     1      -8.733  13.771  -0.353  1.00  0.00     0.074 A 
ATOM     42  C   UNL     1      -7.366  13.427  -0.064  1.00  0.00     0.031 C 
ATOM     43  C   UNL     1      -9.109   8.072  -3.488  1.00  0.00     0.029 A 
ATOM     44  C   UNL     1      -9.369   9.379  -4.058  1.00  0.00     0.049 A 
ATOM     45  H   UNL     1      -9.801  11.137  -2.996  1.00  0.00     0.167 HD
ATOM     46  C   UNL     1      -9.273  14.924  -0.839  1.00  0.00     0.034 A 
ATOM     47  C   UNL     1      -9.421   9.757  -5.359  1.00  0.00     0.034 A 
ATOM     48  C   UNL     1     -10.699  14.807  -1.011  1.00  0.00     0.049 A 
ATOM     49  C   UNL     1     -10.098  11.073  -5.401  1.00  0.00     0.074 A 
ATOM     50  C   UNL     1     -11.756  14.493  -0.180  1.00  0.00     0.029 A 
ATOM     51  N   UNL     1     -11.159  14.616  -2.292  1.00  0.00    -0.354 N 
ATOM     52  N   UNL     1     -11.348  11.246  -5.072  1.00  0.00    -0.248 NA
ATOM     53  C   UNL     1      -9.267  12.264  -5.366  1.00  0.00     0.031 C 
ATOM     54  C   UNL     1     -12.598  13.655  -0.969  1.00  0.00     0.029 A 
ATOM     55  C   UNL     1     -12.055  13.581  -2.253  1.00  0.00     0.049 A 
ATOM     56  H   UNL     1     -10.893  15.129  -3.090  1.00  0.00     0.167 HD
ATOM     57  C   UNL     1     -11.347  12.428  -4.344  1.00  0.00     0.074 A 
ATOM     58  C   UNL     1     -10.066  13.063  -4.654  1.00  0.00     0.031 C 
ATOM     59  C   UNL     1     -12.242  12.636  -3.333  1.00  0.00     0.034 A 
BRANCH  46  60
ATOM     60  C   UNL     1      -8.488  16.032  -1.499  1.00  0.00     0.023 A 
ATOM     61  C   UNL     1      -9.161  17.245  -1.766  1.00  0.00     0.012 A 
ATOM     62  C   UNL     1      -7.219  15.861  -2.100  1.00  0.00     0.148 A 
ATOM     63  C   UNL     1      -8.614  18.219  -2.611  1.00  0.00     0.002 A 
ATOM     64  C   UNL     1      -6.640  16.868  -2.862  1.00  0.00     0.091 A 
ATOM     65  F   UNL     1      -6.617  14.669  -2.061  1.00  0.00    -0.205 F 
ATOM     66  C   UNL     1      -7.346  18.037  -3.148  1.00  0.00     0.022 A 
BRANCH  64  67
ATOM     67  S   UNL     1      -4.976  16.706  -3.520  1.00  0.00     0.127 S 
ATOM     68  O   UNL     1      -5.242  16.475  -4.936  1.00  0.00    -0.237 OA
ATOM     69  O   UNL     1      -4.401  18.014  -3.201  1.00  0.00    -0.237 OA
ATOM     70  O   UNL     1      -4.377  15.598  -2.787  1.00  0.00    -0.744 OA
ENDBRANCH  64  67
ENDBRANCH  46  60
BRANCH  47  71
ATOM     71  C   UNL     1      -8.711   9.201  -6.534  1.00  0.00     0.023 A 
ATOM     72  C   UNL     1      -9.189   9.466  -7.833  1.00  0.00     0.012 A 
ATOM     73  C   UNL     1      -7.417   8.650  -6.401  1.00  0.00     0.148 A 
ATOM     74  C   UNL     1      -8.392   9.225  -8.959  1.00  0.00     0.002 A 
ATOM     75  C   UNL     1      -6.632   8.404  -7.524  1.00  0.00     0.091 A 
ATOM     76  F   UNL     1      -6.921   8.458  -5.171  1.00  0.00    -0.205 F 
ATOM     77  C   UNL     1      -7.111   8.702  -8.805  1.00  0.00     0.022 A 
BRANCH  75  78
ATOM     78  S   UNL     1      -4.960   7.754  -7.396  1.00  0.00     0.127 S 
ATOM     79  O   UNL     1      -4.981   6.673  -8.383  1.00  0.00    -0.237 OA
ATOM     80  O   UNL     1      -4.158   8.914  -7.773  1.00  0.00    -0.237 OA
ATOM     81  O   UNL     1      -4.817   7.302  -6.018  1.00  0.00    -0.744 OA
ENDBRANCH  75  78
ENDBRANCH  47  71
BRANCH  59  82
ATOM     82  C   UNL     1     -13.378  11.654  -3.169  1.00  0.00     0.023 A 
ATOM     83  C   UNL     1     -13.169  10.290  -2.866  1.00  0.00     0.012 A 
ATOM     84  C   UNL     1     -14.688  12.158  -3.136  1.00  0.00     0.148 A 
ATOM     85  C   UNL     1     -14.243   9.448  -2.559  1.00  0.00     0.002 A 
ATOM     86  C   UNL     1     -15.748  11.330  -2.783  1.00  0.00     0.091 A 
ATOM     87  F   UNL     1     -14.874  13.456  -3.421  1.00  0.00    -0.205 F 
ATOM     88  C   UNL     1     -15.532   9.972  -2.503  1.00  0.00     0.022 A 
BRANCH  86  89
ATOM     89  S   UNL     1     -17.407  11.977  -2.568  1.00  0.00     0.127 S 
ATOM     90  O   UNL     1     -18.081  11.495  -3.772  1.00  0.00    -0.237 OA
ATOM     91  O   UNL     1     -17.838  11.333  -1.326  1.00  0.00    -0.237 OA
ATOM     92  O   UNL     1     -17.262  13.425  -2.466  1.00  0.00    -0.744 OA
ENDBRANCH  86  89
ENDBRANCH  59  82
ENDBRANCH  33  34
ENDBRANCH  25  28
ENDBRANCH  23  24
ENDBRANCH  22  23
ENDBRANCH   1  22
TORSDOF 18
