REMARK SMILES CCOc1ccc(N2C[C@H](C(=O)NCCCCNC(=O)c3ccc(-c4c5nc(c(-c6cccc(S(=O)(=O)[O-])c6F)c6ccc([nH]6)c(-c6cccc(S(=O)(=O)[O-])c6F)c6nc(c(-c7cccc(S(=O)(=O)[O-])c7F)c7ccc4[nH]7)C=C6)C=C5)cc3)CC2=O)cc1C(F)(F)F
REMARK SMILES IDX 15 1 14 2 13 3 11 4 12 5 10 7 8 8 9 9 85 10 84 11 86 12 7 13
REMARK SMILES IDX 4 14 5 15 88 16 6 17 87 18 3 19 2 20 1 21 89 22 90 23 91 24
REMARK SMILES IDX 92 25 16 26 17 27 18 28 19 29 20 31 21 32 22 33 83 34 23 35
REMARK SMILES IDX 82 36 24 37 25 38 26 39 76 40 27 41 81 42 75 43 77 44 28 45
REMARK SMILES IDX 80 46 74 47 73 48 29 50 61 51 41 52 60 53 42 54 45 55 59 56
REMARK SMILES IDX 78 57 43 58 44 59 58 61 79 62 46 63 30 64 31 65 39 66 32 67
REMARK SMILES IDX 34 68 40 69 33 70 35 71 36 72 37 73 38 74 62 75 63 76 71 77
REMARK SMILES IDX 64 78 66 79 72 80 65 81 67 82 68 83 69 84 70 85 47 86 48 87
REMARK SMILES IDX 56 88 49 89 51 90 57 91 50 92 52 93 53 94 54 95 55 96
REMARK H PARENT 13 6 18 30 77 49 45 60
REMARK Flexibility Score: inf
ROOT
ATOM      1  C   UNL     1      10.241   6.193   1.108  1.00  0.00     0.023 C 
ENDROOT
BRANCH   1   2
ATOM      2  C   UNL     1      10.588   5.321   2.319  1.00  0.00     0.116 C 
BRANCH   2   3
ATOM      3  N   UNL     1       9.524   5.365   3.302  1.00  0.00    -0.356 N 
ATOM      4  C   UNL     1       8.504   4.505   3.556  1.00  0.00     0.225 C 
ATOM      5  O   UNL     1       7.694   4.843   4.421  1.00  0.00    -0.275 OA
ATOM      6  H   UNL     1       9.545   6.156   3.888  1.00  0.00     0.163 HD
BRANCH   4   7
ATOM      7  C   UNL     1       8.451   3.121   2.919  1.00  0.00     0.107 C 
ATOM      8  N   UNL     1       6.326   2.640   2.018  1.00  0.00    -0.312 N 
ATOM      9  C   UNL     1       7.112   2.435   3.213  1.00  0.00     0.139 C 
ATOM     10  C   UNL     1       7.116   3.062   0.951  1.00  0.00     0.227 C 
ATOM     11  C   UNL     1       8.538   3.057   1.403  1.00  0.00     0.116 C 
ATOM     12  O   UNL     1       6.784   3.356  -0.189  1.00  0.00    -0.274 OA
BRANCH   8  13
ATOM     13  C   UNL     1       4.957   2.320   1.901  1.00  0.00     0.044 A 
ATOM     14  C   UNL     1       2.238   1.727   1.521  1.00  0.00     0.131 A 
ATOM     15  C   UNL     1       2.700   2.172   2.766  1.00  0.00     0.049 A 
ATOM     16  C   UNL     1       3.116   1.591   0.449  1.00  0.00     0.100 A 
ATOM     17  C   UNL     1       4.062   2.447   2.963  1.00  0.00     0.030 A 
ATOM     18  C   UNL     1       4.471   1.873   0.668  1.00  0.00     0.043 A 
BRANCH  14  19
ATOM     19  O   UNL     1       0.897   1.553   1.331  1.00  0.00    -0.493 OA
BRANCH  19  20
ATOM     20  C   UNL     1       0.418   0.298   1.826  1.00  0.00     0.226 C 
ATOM     21  C   UNL     1       0.140  -0.635   0.659  1.00  0.00     0.049 C 
ENDBRANCH  19  20
ENDBRANCH  14  19
BRANCH  16  22
ATOM     22  C   UNL     1       2.712   1.110  -0.916  1.00  0.00     0.420 C 
ATOM     23  F   UNL     1       3.482   1.631  -1.916  1.00  0.00    -0.166 F 
ATOM     24  F   UNL     1       2.857  -0.244  -1.034  1.00  0.00    -0.166 F 
ATOM     25  F   UNL     1       1.429   1.380  -1.275  1.00  0.00    -0.166 F 
ENDBRANCH  16  22
ENDBRANCH   8  13
ENDBRANCH   4   7
ENDBRANCH   2   3
ENDBRANCH   1   2
BRANCH   1  26
ATOM     26  C   UNL     1      10.239   7.697   1.390  1.00  0.00     0.023 C 
BRANCH  26  27
ATOM     27  C   UNL     1      11.548   8.246   1.937  1.00  0.00     0.116 C 
BRANCH  27  28
ATOM     28  N   UNL     1      12.684   7.964   1.071  1.00  0.00    -0.352 N 
ATOM     29  C   UNL     1      13.732   8.786   0.738  1.00  0.00     0.251 C 
ATOM     30  H   UNL     1      12.702   7.064   0.671  1.00  0.00     0.163 HD
ATOM     31  O   UNL     1      14.541   8.437  -0.116  1.00  0.00    -0.269 OA
BRANCH  29  32
ATOM     32  C   UNL     1      13.856  10.102   1.396  1.00  0.00     0.039 A 
ATOM     33  C   UNL     1      14.087  11.230   0.606  1.00  0.00     0.014 A 
ATOM     34  C   UNL     1      13.704  10.226   2.780  1.00  0.00     0.014 A 
ATOM     35  C   UNL     1      14.107  12.492   1.200  1.00  0.00     0.010 A 
ATOM     36  C   UNL     1      13.640  11.489   3.356  1.00  0.00     0.010 A 
ATOM     37  C   UNL     1      13.849  12.635   2.574  1.00  0.00    -0.014 A 
BRANCH  37  38
ATOM     38  C   UNL     1      13.772  13.978   3.201  1.00  0.00     0.031 A 
ATOM     39  C   UNL     1      14.732  14.371   4.289  1.00  0.00     0.074 A 
ATOM     40  C   UNL     1      12.775  14.815   2.850  1.00  0.00     0.049 A 
ATOM     41  N   UNL     1      14.801  15.490   4.962  1.00  0.00    -0.248 NA
ATOM     42  C   UNL     1      15.726  13.364   4.698  1.00  0.00     0.031 C 
ATOM     43  C   UNL     1      11.719  14.510   1.883  1.00  0.00     0.029 A 
ATOM     44  N   UNL     1      12.471  16.079   3.288  1.00  0.00    -0.354 N 
ATOM     45  C   UNL     1      15.811  15.310   5.898  1.00  0.00     0.074 A 
ATOM     46  C   UNL     1      16.306  13.961   5.729  1.00  0.00     0.031 C 
ATOM     47  C   UNL     1      10.885  15.558   1.798  1.00  0.00     0.029 A 
ATOM     48  C   UNL     1      11.329  16.596   2.724  1.00  0.00     0.049 A 
ATOM     49  H   UNL     1      13.018  16.569   3.943  1.00  0.00     0.167 HD
ATOM     50  C   UNL     1      16.302  16.194   6.799  1.00  0.00     0.034 A 
ATOM     51  C   UNL     1      10.701  17.770   2.934  1.00  0.00     0.034 A 
ATOM     52  C   UNL     1      15.831  17.546   6.937  1.00  0.00     0.049 A 
ATOM     53  C   UNL     1      11.299  18.759   3.894  1.00  0.00     0.074 A 
ATOM     54  C   UNL     1      16.340  18.556   7.733  1.00  0.00     0.029 A 
ATOM     55  N   UNL     1      14.728  18.071   6.281  1.00  0.00    -0.354 N 
ATOM     56  N   UNL     1      12.375  18.642   4.633  1.00  0.00    -0.248 NA
ATOM     57  C   UNL     1      10.621  20.057   4.019  1.00  0.00     0.031 C 
ATOM     58  C   UNL     1      15.519  19.680   7.589  1.00  0.00     0.029 A 
ATOM     59  C   UNL     1      14.523  19.383   6.672  1.00  0.00     0.049 A 
ATOM     60  H   UNL     1      14.171  17.582   5.632  1.00  0.00     0.167 HD
ATOM     61  C   UNL     1      12.519  19.857   5.293  1.00  0.00     0.074 A 
ATOM     62  C   UNL     1      11.433  20.705   4.844  1.00  0.00     0.031 C 
ATOM     63  C   UNL     1      13.458  20.231   6.197  1.00  0.00     0.034 A 
BRANCH  50  64
ATOM     64  C   UNL     1      17.430  15.732   7.685  1.00  0.00     0.023 A 
ATOM     65  C   UNL     1      18.705  15.489   7.132  1.00  0.00     0.012 A 
ATOM     66  C   UNL     1      17.240  15.576   9.072  1.00  0.00     0.148 A 
ATOM     67  C   UNL     1      19.758  15.052   7.935  1.00  0.00     0.002 A 
ATOM     68  C   UNL     1      18.308  15.188   9.874  1.00  0.00     0.091 A 
ATOM     69  F   UNL     1      16.018  15.789   9.579  1.00  0.00    -0.205 F 
ATOM     70  C   UNL     1      19.562  14.911   9.306  1.00  0.00     0.022 A 
BRANCH  68  71
ATOM     71  S   UNL     1      18.177  15.061  11.661  1.00  0.00     0.127 S 
ATOM     72  O   UNL     1      18.190  13.612  11.854  1.00  0.00    -0.237 OA
ATOM     73  O   UNL     1      19.389  15.747  12.108  1.00  0.00    -0.237 OA
ATOM     74  O   UNL     1      16.935  15.731  12.020  1.00  0.00    -0.744 OA
ENDBRANCH  68  71
ENDBRANCH  50  64
BRANCH  51  75
ATOM     75  C   UNL     1       9.460  18.082   2.171  1.00  0.00     0.023 A 
ATOM     76  C   UNL     1       9.495  19.049   1.148  1.00  0.00     0.012 A 
ATOM     77  C   UNL     1       8.264  17.379   2.415  1.00  0.00     0.148 A 
ATOM     78  C   UNL     1       8.353  19.326   0.396  1.00  0.00     0.002 A 
ATOM     79  C   UNL     1       7.148  17.619   1.625  1.00  0.00     0.091 A 
ATOM     80  F   UNL     1       8.255  16.469   3.399  1.00  0.00    -0.205 F 
ATOM     81  C   UNL     1       7.184  18.604   0.625  1.00  0.00     0.022 A 
BRANCH  79  82
ATOM     82  S   UNL     1       5.646  16.642   1.754  1.00  0.00     0.127 S 
ATOM     83  O   UNL     1       4.688  17.630   2.242  1.00  0.00    -0.237 OA
ATOM     84  O   UNL     1       5.446  16.220   0.367  1.00  0.00    -0.237 OA
ATOM     85  O   UNL     1       5.958  15.558   2.675  1.00  0.00    -0.744 OA
ENDBRANCH  79  82
ENDBRANCH  51  75
BRANCH  63  86
ATOM     86  C   UNL     1      13.374  21.629   6.753  1.00  0.00     0.023 A 
ATOM     87  C   UNL     1      12.343  21.969   7.651  1.00  0.00     0.012 A 
ATOM     88  C   UNL     1      14.357  22.588   6.436  1.00  0.00     0.148 A 
ATOM     89  C   UNL     1      12.271  23.250   8.197  1.00  0.00     0.002 A 
ATOM     90  C   UNL     1      14.309  23.846   7.025  1.00  0.00     0.091 A 
ATOM     91  F   UNL     1      15.321  22.253   5.566  1.00  0.00    -0.205 F 
ATOM     92  C   UNL     1      13.259  24.184   7.893  1.00  0.00     0.022 A 
BRANCH  90  93
ATOM     93  S   UNL     1      15.592  25.078   6.771  1.00  0.00     0.127 S 
ATOM     94  O   UNL     1      14.904  26.055   5.928  1.00  0.00    -0.237 OA
ATOM     95  O   UNL     1      15.861  25.531   8.135  1.00  0.00    -0.237 OA
ATOM     96  O   UNL     1      16.701  24.378   6.137  1.00  0.00    -0.744 OA
ENDBRANCH  90  93
ENDBRANCH  63  86
ENDBRANCH  37  38
ENDBRANCH  29  32
ENDBRANCH  27  28
ENDBRANCH  26  27
ENDBRANCH   1  26
TORSDOF 18
