REMARK SMILES Cc1ccc(F)cc1NC(=O)c1nn(C)cc1C(=O)NCCCCNC(=O)c1ccc(-c2c3nc(c(-c4cccc(S(=O)(=O)[O-])c4F)c4ccc([nH]4)c(-c4cccc(S(=O)(=O)[O-])c4F)c4nc(c(-c5cccc(S(=O)(=O)[O-])c5F)c5ccc2[nH]5)C=C4)C=C3)cc1
REMARK SMILES IDX 23 1 22 2 21 3 20 4 18 5 19 6 17 8 12 9 13 10 14 11 16 12
REMARK SMILES IDX 15 13 10 14 9 15 11 17 8 18 1 19 2 20 3 21 4 22 7 23 5 24
REMARK SMILES IDX 6 25 24 26 25 27 26 28 27 30 28 31 29 32 90 33 30 34 89 35
REMARK SMILES IDX 31 36 32 37 33 38 83 39 34 40 88 41 82 42 84 43 35 44 87 45
REMARK SMILES IDX 81 46 80 47 36 49 68 50 48 51 67 52 49 53 52 54 66 55 85 56
REMARK SMILES IDX 50 57 51 58 65 60 86 61 53 62 37 63 38 64 46 65 39 66 41 67
REMARK SMILES IDX 47 68 40 69 42 70 43 71 44 72 45 73 69 74 70 75 78 76 71 77
REMARK SMILES IDX 73 78 79 79 72 80 74 81 75 82 76 83 77 84 54 85 55 86 63 87
REMARK SMILES IDX 56 88 58 89 64 90 57 91 59 92 60 93 61 94 62 95
REMARK H PARENT 20 7 9 16 25 29 84 48 52 59
REMARK Flexibility Score: inf
ROOT
ATOM      1  C   UNL     1      -3.731   1.162  -2.867  1.00  0.00     0.023 C 
ENDROOT
BRANCH   1   2
ATOM      2  C   UNL     1      -3.942   0.021  -1.879  1.00  0.00     0.023 C 
BRANCH   2   3
ATOM      3  C   UNL     1      -3.600  -1.378  -2.383  1.00  0.00     0.116 C 
BRANCH   3   4
ATOM      4  N   UNL     1      -2.187  -1.594  -2.647  1.00  0.00    -0.352 N 
ATOM      5  C   UNL     1      -1.264  -2.452  -2.097  1.00  0.00     0.255 C 
ATOM      6  O   UNL     1      -0.117  -2.426  -2.556  1.00  0.00    -0.269 OA
ATOM      7  H   UNL     1      -1.821  -1.016  -3.355  1.00  0.00     0.163 HD
BRANCH   5   8
ATOM      8  C   UNL     1      -1.599  -3.322  -0.983  1.00  0.00     0.090 A 
ATOM      9  C   UNL     1      -0.702  -3.801   0.035  1.00  0.00     0.163 A 
ATOM     10  N   UNL     1      -1.360  -4.534   0.958  1.00  0.00    -0.167 NA
ATOM     11  N   UNL     1      -2.623  -4.549   0.528  1.00  0.00    -0.274 N 
ATOM     12  C   UNL     1      -2.795  -3.946  -0.678  1.00  0.00     0.123 A 
ATOM     13  C   UNL     1      -3.651  -5.133   1.354  1.00  0.00     0.173 C 
BRANCH   9  14
ATOM     14  C   UNL     1       0.749  -3.605   0.161  1.00  0.00     0.277 C 
ATOM     15  N   UNL     1       1.313  -2.349   0.246  1.00  0.00    -0.320 N 
ATOM     16  H   UNL     1       2.296  -2.361   0.199  1.00  0.00     0.170 HD
ATOM     17  O   UNL     1       1.522  -4.569   0.179  1.00  0.00    -0.267 OA
BRANCH  15  18
ATOM     18  C   UNL     1       0.779  -1.054   0.387  1.00  0.00     0.047 A 
ATOM     19  C   UNL     1       3.055   0.004  -0.257  1.00  0.00     0.046 C 
ATOM     20  C   UNL     1       1.586   0.065   0.079  1.00  0.00    -0.027 A 
ATOM     21  C   UNL     1       1.012   1.354   0.094  1.00  0.00     0.008 A 
ATOM     22  C   UNL     1      -0.319   1.543   0.452  1.00  0.00     0.039 A 
ATOM     23  C   UNL     1      -0.527  -0.833   0.833  1.00  0.00     0.065 A 
ATOM     24  C   UNL     1      -1.065   0.449   0.849  1.00  0.00     0.125 A 
ATOM     25  F   UNL     1      -2.331   0.621   1.252  1.00  0.00    -0.207 F 
ENDBRANCH  15  18
ENDBRANCH   9  14
ENDBRANCH   5   8
ENDBRANCH   3   4
ENDBRANCH   2   3
ENDBRANCH   1   2
BRANCH   1  26
ATOM     26  C   UNL     1      -4.380   0.980  -4.233  1.00  0.00     0.116 C 
BRANCH  26  27
ATOM     27  N   UNL     1      -5.819   0.752  -4.179  1.00  0.00    -0.352 N 
ATOM     28  C   UNL     1      -6.799   1.291  -4.985  1.00  0.00     0.251 C 
ATOM     29  H   UNL     1      -6.131   0.136  -3.478  1.00  0.00     0.163 HD
ATOM     30  O   UNL     1      -7.984   1.057  -4.772  1.00  0.00    -0.269 OA
BRANCH  28  31
ATOM     31  C   UNL     1      -6.397   2.190  -6.086  1.00  0.00     0.039 A 
ATOM     32  C   UNL     1      -6.950   3.472  -6.157  1.00  0.00     0.014 A 
ATOM     33  C   UNL     1      -5.405   1.793  -6.984  1.00  0.00     0.014 A 
ATOM     34  C   UNL     1      -6.439   4.392  -7.078  1.00  0.00     0.010 A 
ATOM     35  C   UNL     1      -4.848   2.732  -7.843  1.00  0.00     0.010 A 
ATOM     36  C   UNL     1      -5.353   4.043  -7.895  1.00  0.00    -0.014 A 
BRANCH  36  37
ATOM     37  C   UNL     1      -4.705   5.012  -8.817  1.00  0.00     0.031 A 
ATOM     38  C   UNL     1      -4.677   4.715 -10.292  1.00  0.00     0.074 A 
ATOM     39  C   UNL     1      -4.018   6.062  -8.322  1.00  0.00     0.049 A 
ATOM     40  N   UNL     1      -3.999   5.306 -11.240  1.00  0.00    -0.248 NA
ATOM     41  C   UNL     1      -5.488   3.575 -10.756  1.00  0.00     0.031 C 
ATOM     42  C   UNL     1      -3.909   6.417  -6.905  1.00  0.00     0.029 A 
ATOM     43  N   UNL     1      -3.235   6.998  -8.955  1.00  0.00    -0.354 N 
ATOM     44  C   UNL     1      -4.245   4.571 -12.394  1.00  0.00     0.074 A 
ATOM     45  C   UNL     1      -5.127   3.485 -12.028  1.00  0.00     0.031 C 
ATOM     46  C   UNL     1      -3.095   7.477  -6.775  1.00  0.00     0.029 A 
ATOM     47  C   UNL     1      -2.591   7.856  -8.091  1.00  0.00     0.049 A 
ATOM     48  H   UNL     1      -3.144   7.051  -9.934  1.00  0.00     0.167 HD
ATOM     49  C   UNL     1      -3.791   4.792 -13.649  1.00  0.00     0.034 A 
ATOM     50  C   UNL     1      -1.679   8.821  -8.331  1.00  0.00     0.034 A 
ATOM     51  C   UNL     1      -2.984   5.920 -14.022  1.00  0.00     0.049 A 
ATOM     52  C   UNL     1      -1.253   9.088  -9.752  1.00  0.00     0.074 A 
ATOM     53  C   UNL     1      -2.575   6.298 -15.288  1.00  0.00     0.029 A 
ATOM     54  N   UNL     1      -2.467   6.849 -13.136  1.00  0.00    -0.354 N 
ATOM     55  N   UNL     1      -1.628   8.482 -10.852  1.00  0.00    -0.248 NA
ATOM     56  C   UNL     1      -0.306  10.192  -9.972  1.00  0.00     0.031 C 
ATOM     57  C   UNL     1      -1.794   7.450 -15.165  1.00  0.00     0.029 A 
ATOM     58  C   UNL     1      -1.739   7.800 -13.826  1.00  0.00     0.049 A 
ATOM     59  H   UNL     1      -2.598   6.835 -12.160  1.00  0.00     0.167 HD
ATOM     60  C   UNL     1      -1.005   9.162 -11.893  1.00  0.00     0.074 A 
ATOM     61  C   UNL     1      -0.235  10.231 -11.295  1.00  0.00     0.031 C 
ATOM     62  C   UNL     1      -1.054   8.913 -13.224  1.00  0.00     0.034 A 
BRANCH  49  63
ATOM     63  C   UNL     1      -4.196   3.832 -14.733  1.00  0.00     0.023 A 
ATOM     64  C   UNL     1      -5.515   3.856 -15.229  1.00  0.00     0.012 A 
ATOM     65  C   UNL     1      -3.244   2.983 -15.331  1.00  0.00     0.148 A 
ATOM     66  C   UNL     1      -5.887   3.032 -16.290  1.00  0.00     0.002 A 
ATOM     67  C   UNL     1      -3.611   2.198 -16.417  1.00  0.00     0.091 A 
ATOM     68  F   UNL     1      -2.001   2.964 -14.831  1.00  0.00    -0.205 F 
ATOM     69  C   UNL     1      -4.933   2.215 -16.892  1.00  0.00     0.022 A 
BRANCH  67  70
ATOM     70  S   UNL     1      -2.440   1.175 -17.317  1.00  0.00     0.127 S 
ATOM     71  O   UNL     1      -2.927  -0.169 -17.008  1.00  0.00    -0.237 OA
ATOM     72  O   UNL     1      -2.661   1.601 -18.699  1.00  0.00    -0.237 OA
ATOM     73  O   UNL     1      -1.126   1.498 -16.780  1.00  0.00    -0.744 OA
ENDBRANCH  67  70
ENDBRANCH  49  63
BRANCH  50  74
ATOM     74  C   UNL     1      -1.135   9.645  -7.212  1.00  0.00     0.023 A 
ATOM     75  C   UNL     1      -1.478  11.009  -7.131  1.00  0.00     0.012 A 
ATOM     76  C   UNL     1      -0.278   9.097  -6.239  1.00  0.00     0.148 A 
ATOM     77  C   UNL     1      -0.941  11.822  -6.131  1.00  0.00     0.002 A 
ATOM     78  C   UNL     1       0.209   9.899  -5.212  1.00  0.00     0.091 A 
ATOM     79  F   UNL     1       0.053   7.801  -6.337  1.00  0.00    -0.205 F 
ATOM     80  C   UNL     1      -0.105  11.266  -5.168  1.00  0.00     0.022 A 
BRANCH  78  81
ATOM     81  S   UNL     1       1.184   9.228  -3.860  1.00  0.00     0.127 S 
ATOM     82  O   UNL     1       2.537   9.623  -4.239  1.00  0.00    -0.237 OA
ATOM     83  O   UNL     1       0.636   9.938  -2.702  1.00  0.00    -0.237 OA
ATOM     84  O   UNL     1       0.909   7.797  -3.862  1.00  0.00    -0.744 OA
ENDBRANCH  78  81
ENDBRANCH  50  74
BRANCH  62  85
ATOM     85  C   UNL     1      -0.324   9.846 -14.151  1.00  0.00     0.023 A 
ATOM     86  C   UNL     1       1.077   9.776 -14.260  1.00  0.00     0.012 A 
ATOM     87  C   UNL     1      -1.047  10.700 -15.007  1.00  0.00     0.148 A 
ATOM     88  C   UNL     1       1.752  10.556 -15.198  1.00  0.00     0.002 A 
ATOM     89  C   UNL     1      -0.373  11.438 -15.972  1.00  0.00     0.091 A 
ATOM     90  F   UNL     1      -2.380  10.761 -14.873  1.00  0.00    -0.205 F 
ATOM     91  C   UNL     1       1.027  11.374 -16.062  1.00  0.00     0.022 A 
BRANCH  89  92
ATOM     92  S   UNL     1      -1.231  12.435 -17.195  1.00  0.00     0.127 S 
ATOM     93  O   UNL     1      -0.890  13.791 -16.766  1.00  0.00    -0.237 OA
ATOM     94  O   UNL     1      -0.595  12.011 -18.442  1.00  0.00    -0.237 OA
ATOM     95  O   UNL     1      -2.641  12.085 -17.085  1.00  0.00    -0.744 OA
ENDBRANCH  89  92
ENDBRANCH  62  85
ENDBRANCH  36  37
ENDBRANCH  28  31
ENDBRANCH  26  27
ENDBRANCH   1  26
TORSDOF 16
