REMARK SMILES CN(C)Nc1ncnc(Nc2ccc(C(=O)NCCCCNC(=O)c3ccc(-c4c5nc(c(-c6cccc(S(=O)(=O)[O-])c6F)c6ccc([nH]6)c(-c6cccc(S(=O)(=O)[O-])c6F)c6nc(c(-c7cccc(S(=O)(=O)[O-])c7F)c7ccc4[nH]7)C=C6)C=C5)cc3)cc2)c1[N+](=O)[O-]
REMARK SMILES IDX 19 1 18 2 17 3 15 4 16 5 14 7 11 8 12 9 89 10 13 11 88 12
REMARK SMILES IDX 10 13 9 15 5 16 6 17 90 18 7 19 8 20 4 21 2 23 1 24 3 25
REMARK SMILES IDX 91 26 92 27 93 28 20 29 21 30 22 31 23 32 24 34 25 35 26 36
REMARK SMILES IDX 87 37 27 38 86 39 28 40 29 41 30 42 80 43 31 44 85 45 79 46
REMARK SMILES IDX 81 47 32 48 84 49 78 50 77 51 33 53 65 54 45 55 64 56 46 57
REMARK SMILES IDX 49 58 63 59 82 60 47 61 48 62 62 64 83 65 50 66 34 67 35 68
REMARK SMILES IDX 43 69 36 70 38 71 44 72 37 73 39 74 40 75 41 76 42 77 66 78
REMARK SMILES IDX 67 79 75 80 68 81 70 82 76 83 69 84 71 85 72 86 73 87 74 88
REMARK SMILES IDX 51 89 52 90 60 91 53 92 55 93 61 94 54 95 56 96 57 97 58 98
REMARK SMILES IDX 59 99
REMARK H PARENT 17 6 10 14 4 22 22 33 81 52 49 63
REMARK Flexibility Score: inf
ROOT
ATOM      1  C   UNL     1       5.540   0.682  -8.917  1.00  0.00     0.023 C 
ENDROOT
BRANCH   1   2
ATOM      2  C   UNL     1       6.155  -0.636  -8.442  1.00  0.00     0.116 C 
BRANCH   2   3
ATOM      3  N   UNL     1       7.508  -0.424  -7.965  1.00  0.00    -0.352 N 
ATOM      4  C   UNL     1       8.034  -0.291  -6.706  1.00  0.00     0.251 C 
ATOM      5  O   UNL     1       9.252  -0.140  -6.604  1.00  0.00    -0.269 OA
ATOM      6  H   UNL     1       8.178  -0.364  -8.684  1.00  0.00     0.163 HD
BRANCH   4   7
ATOM      7  C   UNL     1       7.221  -0.379  -5.460  1.00  0.00     0.039 A 
ATOM      8  C   UNL     1       5.809  -0.758  -3.043  1.00  0.00     0.040 A 
ATOM      9  C   UNL     1       7.175  -1.024  -3.107  1.00  0.00     0.027 A 
ATOM     10  C   UNL     1       5.184  -0.189  -4.160  1.00  0.00     0.027 A 
ATOM     11  C   UNL     1       7.869  -0.859  -4.311  1.00  0.00     0.016 A 
ATOM     12  C   UNL     1       5.888   0.015  -5.353  1.00  0.00     0.016 A 
BRANCH   8  13
ATOM     13  N   UNL     1       5.106  -0.957  -1.838  1.00  0.00    -0.334 N 
ATOM     14  H   UNL     1       5.477  -0.556  -1.019  1.00  0.00     0.168 HD
BRANCH  13  15
ATOM     15  C   UNL     1       3.908  -1.692  -1.725  1.00  0.00     0.215 A 
ATOM     16  C   UNL     1       1.892  -2.334  -0.646  1.00  0.00     0.225 A 
ATOM     17  N   UNL     1       1.605  -3.181  -1.658  1.00  0.00    -0.212 NA
ATOM     18  C   UNL     1       3.089  -1.647  -0.609  1.00  0.00     0.354 A 
ATOM     19  C   UNL     1       2.482  -3.241  -2.661  1.00  0.00     0.227 A 
ATOM     20  N   UNL     1       3.593  -2.511  -2.755  1.00  0.00    -0.212 NA
BRANCH  16  21
ATOM     21  N   UNL     1       0.806  -2.168   0.220  1.00  0.00    -0.298 N 
ATOM     22  H   UNL     1       0.287  -2.970   0.458  1.00  0.00     0.184 HD
BRANCH  21  23
ATOM     23  N   UNL     1       0.397  -0.931   0.781  1.00  0.00    -0.228 NA
ATOM     24  C   UNL     1       0.274   0.117  -0.249  1.00  0.00     0.130 C 
ATOM     25  C   UNL     1      -0.940  -1.147   1.366  1.00  0.00     0.130 C 
ENDBRANCH  21  23
ENDBRANCH  16  21
BRANCH  18  26
ATOM     26  N   UNL     1       3.496  -0.929   0.560  1.00  0.00     0.070 N 
ATOM     27  O   UNL     1       3.845   0.253   0.402  1.00  0.00    -0.258 OA
ATOM     28  O   UNL     1       3.576  -1.557   1.625  1.00  0.00    -0.258 OA
ENDBRANCH  18  26
ENDBRANCH  13  15
ENDBRANCH   8  13
ENDBRANCH   4   7
ENDBRANCH   2   3
ENDBRANCH   1   2
BRANCH   1  29
ATOM     29  C   UNL     1       6.048   1.157 -10.283  1.00  0.00     0.023 C 
BRANCH  29  30
ATOM     30  C   UNL     1       5.696   0.247 -11.456  1.00  0.00     0.116 C 
BRANCH  30  31
ATOM     31  N   UNL     1       4.262   0.052 -11.617  1.00  0.00    -0.352 N 
ATOM     32  C   UNL     1       3.551  -0.154 -12.777  1.00  0.00     0.251 C 
ATOM     33  H   UNL     1       3.732   0.070 -10.788  1.00  0.00     0.163 HD
ATOM     34  O   UNL     1       2.329  -0.192 -12.751  1.00  0.00    -0.269 OA
BRANCH  32  35
ATOM     35  C   UNL     1       4.280  -0.289 -14.056  1.00  0.00     0.039 A 
ATOM     36  C   UNL     1       3.878   0.489 -15.145  1.00  0.00     0.014 A 
ATOM     37  C   UNL     1       5.372  -1.154 -14.170  1.00  0.00     0.014 A 
ATOM     38  C   UNL     1       4.612   0.447 -16.332  1.00  0.00     0.010 A 
ATOM     39  C   UNL     1       6.138  -1.147 -15.331  1.00  0.00     0.010 A 
ATOM     40  C   UNL     1       5.767  -0.347 -16.423  1.00  0.00    -0.014 A 
BRANCH  40  41
ATOM     41  C   UNL     1       6.614  -0.340 -17.642  1.00  0.00     0.031 A 
ATOM     42  C   UNL     1       6.774  -1.591 -18.461  1.00  0.00     0.074 A 
ATOM     43  C   UNL     1       7.319   0.766 -17.952  1.00  0.00     0.049 A 
ATOM     44  N   UNL     1       7.517  -1.793 -19.518  1.00  0.00    -0.248 NA
ATOM     45  C   UNL     1       6.026  -2.779 -18.018  1.00  0.00     0.031 C 
ATOM     46  C   UNL     1       7.319   2.013 -17.183  1.00  0.00     0.029 A 
ATOM     47  N   UNL     1       8.198   1.010 -18.978  1.00  0.00    -0.354 N 
ATOM     48  C   UNL     1       7.359  -3.135 -19.842  1.00  0.00     0.074 A 
ATOM     49  C   UNL     1       6.471  -3.707 -18.853  1.00  0.00     0.031 C 
ATOM     50  C   UNL     1       8.158   2.887 -17.762  1.00  0.00     0.029 A 
ATOM     51  C   UNL     1       8.772   2.259 -18.928  1.00  0.00     0.049 A 
ATOM     52  H   UNL     1       8.399   0.353 -19.683  1.00  0.00     0.167 HD
ATOM     53  C   UNL     1       7.881  -3.823 -20.885  1.00  0.00     0.034 A 
ATOM     54  C   UNL     1       9.692   2.833 -19.729  1.00  0.00     0.034 A 
ATOM     55  C   UNL     1       8.716  -3.236 -21.898  1.00  0.00     0.049 A 
ATOM     56  C   UNL     1      10.204   2.067 -20.918  1.00  0.00     0.074 A 
ATOM     57  C   UNL     1       9.205  -3.820 -23.053  1.00  0.00     0.029 A 
ATOM     58  N   UNL     1       9.191  -1.935 -21.875  1.00  0.00    -0.354 N 
ATOM     59  N   UNL     1       9.899   0.854 -21.311  1.00  0.00    -0.248 NA
ATOM     60  C   UNL     1      11.156   2.760 -21.797  1.00  0.00     0.031 C 
ATOM     61  C   UNL     1       9.988  -2.874 -23.723  1.00  0.00     0.029 A 
ATOM     62  C   UNL     1       9.973  -1.696 -22.992  1.00  0.00     0.049 A 
ATOM     63  H   UNL     1       8.999  -1.276 -21.169  1.00  0.00     0.167 HD
ATOM     64  C   UNL     1      10.592   0.652 -22.499  1.00  0.00     0.074 A 
ATOM     65  C   UNL     1      11.316   1.876 -22.773  1.00  0.00     0.031 C 
ATOM     66  C   UNL     1      10.639  -0.453 -23.283  1.00  0.00     0.034 A 
BRANCH  53  67
ATOM     67  C   UNL     1       7.510  -5.276 -21.022  1.00  0.00     0.023 A 
ATOM     68  C   UNL     1       6.205  -5.622 -21.428  1.00  0.00     0.012 A 
ATOM     69  C   UNL     1       8.462  -6.293 -20.812  1.00  0.00     0.148 A 
ATOM     70  C   UNL     1       5.843  -6.958 -21.592  1.00  0.00     0.002 A 
ATOM     71  C   UNL     1       8.104  -7.621 -21.018  1.00  0.00     0.091 A 
ATOM     72  F   UNL     1       9.691  -5.946 -20.404  1.00  0.00    -0.205 F 
ATOM     73  C   UNL     1       6.794  -7.955 -21.398  1.00  0.00     0.022 A 
BRANCH  71  74
ATOM     74  S   UNL     1       9.278  -8.973 -20.868  1.00  0.00     0.127 S 
ATOM     75  O   UNL     1       8.844  -9.602 -19.621  1.00  0.00    -0.237 OA
ATOM     76  O   UNL     1       9.003  -9.756 -22.073  1.00  0.00    -0.237 OA
ATOM     77  O   UNL     1      10.596  -8.357 -20.834  1.00  0.00    -0.744 OA
ENDBRANCH  71  74
ENDBRANCH  53  67
BRANCH  54  78
ATOM     78  C   UNL     1      10.128   4.235 -19.475  1.00  0.00     0.023 A 
ATOM     79  C   UNL     1       9.717   5.254 -20.357  1.00  0.00     0.012 A 
ATOM     80  C   UNL     1      10.915   4.572 -18.358  1.00  0.00     0.148 A 
ATOM     81  C   UNL     1      10.108   6.577 -20.149  1.00  0.00     0.002 A 
ATOM     82  C   UNL     1      11.257   5.900 -18.126  1.00  0.00     0.091 A 
ATOM     83  F   UNL     1      11.309   3.587 -17.537  1.00  0.00    -0.205 F 
ATOM     84  C   UNL     1      10.868   6.901 -19.029  1.00  0.00     0.022 A 
BRANCH  82  85
ATOM     85  S   UNL     1      12.119   6.422 -16.639  1.00  0.00     0.127 S 
ATOM     86  O   UNL     1      13.460   6.691 -17.150  1.00  0.00    -0.237 OA
ATOM     87  O   UNL     1      11.359   7.610 -16.247  1.00  0.00    -0.237 OA
ATOM     88  O   UNL     1      12.002   5.306 -15.710  1.00  0.00    -0.744 OA
ENDBRANCH  82  85
ENDBRANCH  54  78
BRANCH  66  89
ATOM     89  C   UNL     1      11.476  -0.389 -24.533  1.00  0.00     0.023 A 
ATOM     90  C   UNL     1      12.881  -0.426 -24.434  1.00  0.00     0.012 A 
ATOM     91  C   UNL     1      10.871  -0.376 -25.805  1.00  0.00     0.148 A 
ATOM     92  C   UNL     1      13.671  -0.422 -25.583  1.00  0.00     0.002 A 
ATOM     93  C   UNL     1      11.664  -0.420 -26.945  1.00  0.00     0.091 A 
ATOM     94  F   UNL     1       9.533  -0.321 -25.877  1.00  0.00    -0.205 F 
ATOM     95  C   UNL     1      13.064  -0.432 -26.837  1.00  0.00     0.022 A 
BRANCH  93  96
ATOM     96  S   UNL     1      10.964  -0.531 -28.597  1.00  0.00     0.127 S 
ATOM     97  O   UNL     1      11.167   0.826 -29.099  1.00  0.00    -0.237 OA
ATOM     98  O   UNL     1      11.809  -1.547 -29.226  1.00  0.00    -0.237 OA
ATOM     99  O   UNL     1       9.576  -0.934 -28.415  1.00  0.00    -0.744 OA
ENDBRANCH  93  96
ENDBRANCH  66  89
ENDBRANCH  40  41
ENDBRANCH  32  35
ENDBRANCH  30  31
ENDBRANCH  29  30
ENDBRANCH   1  29
TORSDOF 19
