REMARK SMILES O=C(NCCCCNC(=O)[C@H]1CCc2[nH]nc(C(F)(F)F)c2C1)c1ccc(-c2c3nc(c(-c4cccc(S(=O)(=O)[O-])c4F)c4ccc([nH]4)c(-c4cccc(S(=O)(=O)[O-])c4F)c4nc(c(-c5cccc(S(=O)(=O)[O-])c5F)c5ccc2[nH]5)C=C4)C=C3)cc1
REMARK SMILES IDX 4 1 3 2 1 3 2 4 24 6 25 7 86 8 26 9 85 10 27 11 28 12 29 13
REMARK SMILES IDX 79 14 30 15 84 16 78 17 80 18 31 19 83 20 77 21 76 22 32 24
REMARK SMILES IDX 64 25 44 26 63 27 45 28 48 29 62 30 81 31 46 32 47 33 61 35
REMARK SMILES IDX 82 36 49 37 33 38 34 39 42 40 35 41 37 42 43 43 36 44 38 45
REMARK SMILES IDX 39 46 40 47 41 48 65 49 66 50 74 51 67 52 69 53 75 54 68 55
REMARK SMILES IDX 70 56 71 57 72 58 73 59 50 60 51 61 59 62 52 63 54 64 60 65
REMARK SMILES IDX 53 66 55 67 56 68 57 69 58 70 5 71 6 72 7 73 8 74 9 75 10 77
REMARK SMILES IDX 11 78 12 79 23 80 13 81 22 82 14 83 17 84 15 85 16 86 18 88
REMARK SMILES IDX 19 89 20 90 21 91
REMARK H PARENT 3 5 80 23 48 34 8 76 15 87
REMARK Flexibility Score: inf
ROOT
ATOM      1  C   UNL     1       5.784  -8.942  -1.142  1.00  0.00     0.116 C 
ENDROOT
BRANCH   1   2
ATOM      2  N   UNL     1       6.913  -9.848  -0.984  1.00  0.00    -0.352 N 
ATOM      3  O   UNL     1       8.126 -11.538  -0.130  1.00  0.00    -0.269 OA
ATOM      4  C   UNL     1       7.022 -11.013  -0.260  1.00  0.00     0.251 C 
ATOM      5  H   UNL     1       7.726  -9.585  -1.472  1.00  0.00     0.163 HD
BRANCH   4   6
ATOM      6  C   UNL     1       5.833 -11.611   0.390  1.00  0.00     0.039 A 
ATOM      7  C   UNL     1       4.618 -11.710  -0.290  1.00  0.00     0.014 A 
ATOM      8  C   UNL     1       5.933 -12.080   1.703  1.00  0.00     0.014 A 
ATOM      9  C   UNL     1       3.470 -12.089   0.399  1.00  0.00     0.010 A 
ATOM     10  C   UNL     1       4.793 -12.554   2.364  1.00  0.00     0.010 A 
ATOM     11  C   UNL     1       3.539 -12.507   1.738  1.00  0.00    -0.014 A 
BRANCH  11  12
ATOM     12  C   UNL     1       2.288 -12.900   2.443  1.00  0.00     0.031 A 
ATOM     13  C   UNL     1       1.793 -12.136   3.645  1.00  0.00     0.074 A 
ATOM     14  C   UNL     1       1.567 -13.937   1.969  1.00  0.00     0.049 A 
ATOM     15  N   UNL     1       0.681 -12.293   4.318  1.00  0.00    -0.248 NA
ATOM     16  C   UNL     1       2.656 -11.065   4.168  1.00  0.00     0.031 C 
ATOM     17  C   UNL     1       1.962 -14.789   0.845  1.00  0.00     0.029 A 
ATOM     18  N   UNL     1       0.352 -14.441   2.357  1.00  0.00    -0.354 N 
ATOM     19  C   UNL     1       0.731 -11.381   5.366  1.00  0.00     0.074 A 
ATOM     20  C   UNL     1       1.987 -10.674   5.246  1.00  0.00     0.031 C 
ATOM     21  C   UNL     1       0.988 -15.678   0.604  1.00  0.00     0.029 A 
ATOM     22  C   UNL     1      -0.082 -15.489   1.579  1.00  0.00     0.049 A 
ATOM     23  H   UNL     1      -0.161 -14.086   3.118  1.00  0.00     0.167 HD
ATOM     24  C   UNL     1      -0.192 -11.138   6.328  1.00  0.00     0.034 A 
ATOM     25  C   UNL     1      -1.215 -16.216   1.635  1.00  0.00     0.034 A 
ATOM     26  C   UNL     1      -1.469 -11.796   6.411  1.00  0.00     0.049 A 
ATOM     27  C   UNL     1      -2.249 -15.879   2.671  1.00  0.00     0.074 A 
ATOM     28  C   UNL     1      -2.501 -11.563   7.304  1.00  0.00     0.029 A 
ATOM     29  N   UNL     1      -1.893 -12.813   5.570  1.00  0.00    -0.354 N 
ATOM     30  N   UNL     1      -2.238 -14.919   3.564  1.00  0.00    -0.248 NA
ATOM     31  C   UNL     1      -3.464 -16.704   2.688  1.00  0.00     0.031 C 
ATOM     32  C   UNL     1      -3.546 -12.446   7.009  1.00  0.00     0.029 A 
ATOM     33  C   UNL     1      -3.168 -13.221   5.925  1.00  0.00     0.049 A 
ATOM     34  H   UNL     1      -1.365 -13.190   4.830  1.00  0.00     0.167 HD
ATOM     35  C   UNL     1      -3.453 -15.008   4.232  1.00  0.00     0.074 A 
ATOM     36  C   UNL     1      -4.187 -16.098   3.621  1.00  0.00     0.031 C 
ATOM     37  C   UNL     1      -3.911 -14.268   5.272  1.00  0.00     0.034 A 
BRANCH  24  38
ATOM     38  C   UNL     1       0.118 -10.075   7.349  1.00  0.00     0.023 A 
ATOM     39  C   UNL     1       0.030  -8.716   6.986  1.00  0.00     0.012 A 
ATOM     40  C   UNL     1       0.423 -10.415   8.682  1.00  0.00     0.148 A 
ATOM     41  C   UNL     1       0.265  -7.712   7.926  1.00  0.00     0.002 A 
ATOM     42  C   UNL     1       0.620  -9.409   9.623  1.00  0.00     0.091 A 
ATOM     43  F   UNL     1       0.527 -11.712   9.005  1.00  0.00    -0.205 F 
ATOM     44  C   UNL     1       0.549  -8.058   9.245  1.00  0.00     0.022 A 
BRANCH  42  45
ATOM     45  S   UNL     1       0.918  -9.761  11.360  1.00  0.00     0.127 S 
ATOM     46  O   UNL     1       2.358  -9.535  11.464  1.00  0.00    -0.237 OA
ATOM     47  O   UNL     1       0.094  -8.753  12.030  1.00  0.00    -0.237 OA
ATOM     48  O   UNL     1       0.476 -11.133  11.566  1.00  0.00    -0.744 OA
ENDBRANCH  42  45
ENDBRANCH  24  38
BRANCH  25  49
ATOM     49  C   UNL     1      -1.457 -17.282   0.623  1.00  0.00     0.023 A 
ATOM     50  C   UNL     1      -2.448 -17.089  -0.359  1.00  0.00     0.012 A 
ATOM     51  C   UNL     1      -0.677 -18.454   0.590  1.00  0.00     0.148 A 
ATOM     52  C   UNL     1      -2.671 -18.052  -1.343  1.00  0.00     0.002 A 
ATOM     53  C   UNL     1      -0.864 -19.381  -0.428  1.00  0.00     0.091 A 
ATOM     54  F   UNL     1       0.247 -18.631   1.545  1.00  0.00    -0.205 F 
ATOM     55  C   UNL     1      -1.871 -19.191  -1.386  1.00  0.00     0.022 A 
BRANCH  53  56
ATOM     56  S   UNL     1       0.227 -20.793  -0.637  1.00  0.00     0.127 S 
ATOM     57  O   UNL     1      -0.579 -21.880  -0.089  1.00  0.00    -0.237 OA
ATOM     58  O   UNL     1       0.408 -20.831  -2.089  1.00  0.00    -0.237 OA
ATOM     59  O   UNL     1       1.436 -20.456   0.103  1.00  0.00    -0.744 OA
ENDBRANCH  53  56
ENDBRANCH  25  49
BRANCH  37  60
ATOM     60  C   UNL     1      -5.279 -14.596   5.806  1.00  0.00     0.023 A 
ATOM     61  C   UNL     1      -5.462 -15.757   6.582  1.00  0.00     0.012 A 
ATOM     62  C   UNL     1      -6.367 -13.728   5.592  1.00  0.00     0.148 A 
ATOM     63  C   UNL     1      -6.714 -16.066   7.112  1.00  0.00     0.002 A 
ATOM     64  C   UNL     1      -7.603 -14.021   6.158  1.00  0.00     0.091 A 
ATOM     65  F   UNL     1      -6.181 -12.640   4.830  1.00  0.00    -0.205 F 
ATOM     66  C   UNL     1      -7.781 -15.193   6.909  1.00  0.00     0.022 A 
BRANCH  64  67
ATOM     67  S   UNL     1      -9.000 -12.900   6.014  1.00  0.00     0.127 S 
ATOM     68  O   UNL     1      -9.754 -13.500   4.915  1.00  0.00    -0.237 OA
ATOM     69  O   UNL     1      -9.638 -13.018   7.327  1.00  0.00    -0.237 OA
ATOM     70  O   UNL     1      -8.423 -11.589   5.747  1.00  0.00    -0.744 OA
ENDBRANCH  64  67
ENDBRANCH  37  60
ENDBRANCH  11  12
ENDBRANCH   4   6
ENDBRANCH   1   2
BRANCH   1  71
ATOM     71  C   UNL     1       5.985  -7.616  -0.417  1.00  0.00     0.023 C 
BRANCH  71  72
ATOM     72  C   UNL     1       7.103  -6.726  -0.964  1.00  0.00     0.023 C 
BRANCH  72  73
ATOM     73  C   UNL     1       7.066  -6.449  -2.466  1.00  0.00     0.116 C 
BRANCH  73  74
ATOM     74  N   UNL     1       5.801  -5.912  -2.917  1.00  0.00    -0.356 N 
ATOM     75  C   UNL     1       5.489  -5.178  -4.016  1.00  0.00     0.223 C 
ATOM     76  H   UNL     1       5.038  -6.112  -2.328  1.00  0.00     0.163 HD
ATOM     77  O   UNL     1       4.303  -4.863  -4.138  1.00  0.00    -0.275 OA
BRANCH  75  78
ATOM     78  C   UNL     1       6.565  -4.690  -4.996  1.00  0.00     0.083 C 
ATOM     79  C   UNL     1       7.510  -5.784  -5.559  1.00  0.00     0.020 C 
ATOM     80  C   UNL     1       5.864  -3.970  -6.192  1.00  0.00     0.053 C 
ATOM     81  C   UNL     1       6.765  -6.898  -6.317  1.00  0.00     0.057 C 
ATOM     82  C   UNL     1       5.287  -4.979  -7.134  1.00  0.00     0.006 A 
ATOM     83  C   UNL     1       5.724  -6.284  -7.172  1.00  0.00     0.039 A 
ATOM     84  C   UNL     1       4.231  -4.915  -8.085  1.00  0.00     0.169 A 
ATOM     85  N   UNL     1       4.950  -6.929  -8.082  1.00  0.00    -0.282 N 
ATOM     86  N   UNL     1       4.066  -6.117  -8.685  1.00  0.00    -0.171 NA
ATOM     87  H   UNL     1       5.029  -7.890  -8.280  1.00  0.00     0.190 HD
BRANCH  84  88
ATOM     88  C   UNL     1       3.371  -3.725  -8.427  1.00  0.00     0.435 C 
ATOM     89  F   UNL     1       3.308  -3.498  -9.769  1.00  0.00    -0.164 F 
ATOM     90  F   UNL     1       2.089  -3.860  -7.992  1.00  0.00    -0.164 F 
ATOM     91  F   UNL     1       3.843  -2.568  -7.879  1.00  0.00    -0.164 F 
ENDBRANCH  84  88
ENDBRANCH  75  78
ENDBRANCH  73  74
ENDBRANCH  72  73
ENDBRANCH  71  72
ENDBRANCH   1  71
TORSDOF 15
