REMARK SMILES C[C@]1(c2ccccc2C(=O)NCCCCNC(=O)c2ccc(-c3c4nc(c(-c5cccc(S(=O)(=O)[O-])c5F)c5ccc([nH]5)c(-c5cccc(S(=O)(=O)[O-])c5F)c5nc(c(-c6cccc(S(=O)(=O)[O-])c6F)c6ccc3[nH]6)C=C5)C=C4)cc2)NN=C(c2ccccc2)S1
REMARK SMILES IDX 14 1 13 2 12 3 11 4 9 5 10 6 8 8 3 9 4 10 5 11 7 12 6 13
REMARK SMILES IDX 2 14 1 15 82 16 91 17 83 18 84 20 85 21 86 22 90 23 87 24
REMARK SMILES IDX 89 25 88 26 15 27 16 28 17 29 18 31 19 32 20 33 81 34 21 35
REMARK SMILES IDX 80 36 22 37 23 38 24 39 74 40 25 41 79 42 73 43 75 44 26 45
REMARK SMILES IDX 78 46 72 47 71 48 27 50 59 51 39 52 58 53 40 54 43 55 57 56
REMARK SMILES IDX 76 57 41 58 42 59 56 61 77 62 44 63 28 64 29 65 37 66 30 67
REMARK SMILES IDX 32 68 38 69 31 70 33 71 34 72 35 73 36 74 60 75 61 76 69 77
REMARK SMILES IDX 62 78 64 79 70 80 63 81 65 82 66 83 67 84 68 85 45 86 46 87
REMARK SMILES IDX 54 88 47 89 49 90 55 91 48 92 50 93 51 94 52 95 53 96
REMARK H PARENT 11 7 82 19 16 30 75 49 43 60
REMARK Flexibility Score: inf
ROOT
ATOM      1  C   UNL     1       0.033  -3.201   3.821  1.00  0.00     0.023 C 
ENDROOT
BRANCH   1   2
ATOM      2  C   UNL     1       0.637  -2.049   3.042  1.00  0.00     0.023 C 
BRANCH   2   3
ATOM      3  C   UNL     1       1.908  -2.275   2.215  1.00  0.00     0.116 C 
BRANCH   3   4
ATOM      4  N   UNL     1       1.702  -2.814   0.880  1.00  0.00    -0.352 N 
ATOM      5  C   UNL     1       1.755  -2.331  -0.413  1.00  0.00     0.251 C 
ATOM      6  O   UNL     1       1.886  -3.200  -1.286  1.00  0.00    -0.269 OA
ATOM      7  H   UNL     1       1.464  -3.769   0.904  1.00  0.00     0.163 HD
BRANCH   5   8
ATOM      8  C   UNL     1       1.669  -0.894  -0.907  1.00  0.00     0.046 A 
ATOM      9  C   UNL     1       0.661   0.100  -0.653  1.00  0.00     0.002 A 
ATOM     10  C   UNL     1       0.716   1.322  -1.369  1.00  0.00     0.008 A 
ATOM     11  C   UNL     1       1.627   1.526  -2.401  1.00  0.00     0.000 A 
ATOM     12  C   UNL     1       2.553  -0.657  -1.985  1.00  0.00     0.014 A 
ATOM     13  C   UNL     1       2.522   0.523  -2.733  1.00  0.00     0.001 A 
BRANCH   9  14
ATOM     14  C   UNL     1      -0.496  -0.070   0.332  1.00  0.00     0.129 C 
ATOM     15  C   UNL     1       0.017   0.527   1.661  1.00  0.00     0.054 C 
ATOM     16  N   UNL     1      -1.776   0.660   0.078  1.00  0.00    -0.288 NA
ATOM     17  S   UNL     1      -1.093  -1.783   0.165  1.00  0.00    -0.070 SA
ATOM     18  N   UNL     1      -2.949  -0.022   0.432  1.00  0.00    -0.171 NA
ATOM     19  H   UNL     1      -1.794   1.563  -0.314  1.00  0.00     0.185 HD
ATOM     20  C   UNL     1      -2.714  -1.297   0.459  1.00  0.00     0.126 C 
BRANCH  20  21
ATOM     21  C   UNL     1      -3.603  -2.448   0.634  1.00  0.00     0.009 A 
ATOM     22  C   UNL     1      -4.071  -3.040  -0.546  1.00  0.00     0.011 A 
ATOM     23  C   UNL     1      -3.521  -3.200   1.817  1.00  0.00     0.011 A 
ATOM     24  C   UNL     1      -4.415  -4.392  -0.553  1.00  0.00     0.001 A 
ATOM     25  C   UNL     1      -3.873  -4.552   1.801  1.00  0.00     0.001 A 
ATOM     26  C   UNL     1      -4.303  -5.149   0.614  1.00  0.00     0.000 A 
ENDBRANCH  20  21
ENDBRANCH   9  14
ENDBRANCH   5   8
ENDBRANCH   3   4
ENDBRANCH   2   3
ENDBRANCH   1   2
BRANCH   1  27
ATOM     27  C   UNL     1       0.580  -3.287   5.228  1.00  0.00     0.116 C 
BRANCH  27  28
ATOM     28  N   UNL     1       0.288  -2.097   6.041  1.00  0.00    -0.352 N 
ATOM     29  C   UNL     1      -0.142  -2.018   7.345  1.00  0.00     0.251 C 
ATOM     30  H   UNL     1       0.418  -1.234   5.587  1.00  0.00     0.163 HD
ATOM     31  O   UNL     1      -0.419  -0.932   7.849  1.00  0.00    -0.269 OA
BRANCH  29  32
ATOM     32  C   UNL     1      -0.310  -3.268   8.105  1.00  0.00     0.039 A 
ATOM     33  C   UNL     1      -1.492  -3.493   8.813  1.00  0.00     0.014 A 
ATOM     34  C   UNL     1       0.654  -4.267   7.989  1.00  0.00     0.014 A 
ATOM     35  C   UNL     1      -1.746  -4.768   9.319  1.00  0.00     0.010 A 
ATOM     36  C   UNL     1       0.327  -5.560   8.349  1.00  0.00     0.010 A 
ATOM     37  C   UNL     1      -0.864  -5.823   9.040  1.00  0.00    -0.014 A 
BRANCH  37  38
ATOM     38  C   UNL     1      -1.131  -7.218   9.464  1.00  0.00     0.031 A 
ATOM     39  C   UNL     1      -0.105  -7.943  10.294  1.00  0.00     0.074 A 
ATOM     40  C   UNL     1      -2.208  -7.873   8.988  1.00  0.00     0.049 A 
ATOM     41  N   UNL     1      -0.065  -9.200  10.643  1.00  0.00    -0.248 NA
ATOM     42  C   UNL     1       1.067  -7.164  10.735  1.00  0.00     0.031 C 
ATOM     43  C   UNL     1      -3.211  -7.314   8.077  1.00  0.00     0.029 A 
ATOM     44  N   UNL     1      -2.618  -9.169   9.174  1.00  0.00    -0.354 N 
ATOM     45  C   UNL     1       1.160  -9.374  11.275  1.00  0.00     0.074 A 
ATOM     46  C   UNL     1       1.857  -8.111  11.213  1.00  0.00     0.031 C 
ATOM     47  C   UNL     1      -4.121  -8.257   7.791  1.00  0.00     0.029 A 
ATOM     48  C   UNL     1      -3.750  -9.497   8.465  1.00  0.00     0.049 A 
ATOM     49  H   UNL     1      -2.147  -9.805   9.760  1.00  0.00     0.167 HD
ATOM     50  C   UNL     1       1.646 -10.475  11.893  1.00  0.00     0.034 A 
ATOM     51  C   UNL     1      -4.407 -10.669   8.360  1.00  0.00     0.034 A 
ATOM     52  C   UNL     1       0.904 -11.695  12.031  1.00  0.00     0.049 A 
ATOM     53  C   UNL     1      -3.902 -11.855   9.134  1.00  0.00     0.074 A 
ATOM     54  C   UNL     1       1.221 -12.815  12.776  1.00  0.00     0.029 A 
ATOM     55  N   UNL     1      -0.304 -11.956  11.403  1.00  0.00    -0.354 N 
ATOM     56  N   UNL     1      -2.842 -11.945   9.902  1.00  0.00    -0.248 NA
ATOM     57  C   UNL     1      -4.695 -13.089   9.057  1.00  0.00     0.031 C 
ATOM     58  C   UNL     1       0.216 -13.766  12.574  1.00  0.00     0.029 A 
ATOM     59  C   UNL     1      -0.737 -13.229  11.721  1.00  0.00     0.049 A 
ATOM     60  H   UNL     1      -0.783 -11.326  10.817  1.00  0.00     0.167 HD
ATOM     61  C   UNL     1      -2.845 -13.239  10.408  1.00  0.00     0.074 A 
ATOM     62  C   UNL     1      -4.032 -13.886   9.886  1.00  0.00     0.031 C 
ATOM     63  C   UNL     1      -1.938 -13.844  11.215  1.00  0.00     0.034 A 
BRANCH  50  64
ATOM     64  C   UNL     1       3.015 -10.377  12.514  1.00  0.00     0.023 A 
ATOM     65  C   UNL     1       3.218  -9.553  13.641  1.00  0.00     0.012 A 
ATOM     66  C   UNL     1       4.098 -11.105  11.988  1.00  0.00     0.148 A 
ATOM     67  C   UNL     1       4.486  -9.413  14.202  1.00  0.00     0.002 A 
ATOM     68  C   UNL     1       5.350 -11.002  12.585  1.00  0.00     0.091 A 
ATOM     69  F   UNL     1       3.896 -11.862  10.900  1.00  0.00    -0.205 F 
ATOM     70  C   UNL     1       5.549 -10.145  13.680  1.00  0.00     0.022 A 
BRANCH  68  71
ATOM     71  S   UNL     1       6.761 -11.966  12.036  1.00  0.00     0.127 S 
ATOM     72  O   UNL     1       7.556 -10.956  11.339  1.00  0.00    -0.237 OA
ATOM     73  O   UNL     1       7.333 -12.424  13.303  1.00  0.00    -0.237 OA
ATOM     74  O   UNL     1       6.218 -13.027  11.200  1.00  0.00    -0.744 OA
ENDBRANCH  68  71
ENDBRANCH  50  64
BRANCH  51  75
ATOM     75  C   UNL     1      -5.644 -10.744   7.533  1.00  0.00     0.023 A 
ATOM     76  C   UNL     1      -6.897 -10.840   8.168  1.00  0.00     0.012 A 
ATOM     77  C   UNL     1      -5.591 -10.643   6.129  1.00  0.00     0.148 A 
ATOM     78  C   UNL     1      -8.075 -10.849   7.420  1.00  0.00     0.002 A 
ATOM     79  C   UNL     1      -6.770 -10.597   5.393  1.00  0.00     0.091 A 
ATOM     80  F   UNL     1      -4.388 -10.561   5.544  1.00  0.00    -0.205 F 
ATOM     81  C   UNL     1      -8.012 -10.715   6.035  1.00  0.00     0.022 A 
BRANCH  79  82
ATOM     82  S   UNL     1      -6.792 -10.280   3.625  1.00  0.00     0.127 S 
ATOM     83  O   UNL     1      -7.251 -11.561   3.096  1.00  0.00    -0.237 OA
ATOM     84  O   UNL     1      -7.762  -9.188   3.527  1.00  0.00    -0.237 OA
ATOM     85  O   UNL     1      -5.429  -9.902   3.274  1.00  0.00    -0.744 OA
ENDBRANCH  79  82
ENDBRANCH  51  75
BRANCH  63  86
ATOM     86  C   UNL     1      -2.182 -15.283  11.583  1.00  0.00     0.023 A 
ATOM     87  C   UNL     1      -1.970 -16.288  10.620  1.00  0.00     0.012 A 
ATOM     88  C   UNL     1      -2.519 -15.644  12.902  1.00  0.00     0.148 A 
ATOM     89  C   UNL     1      -2.112 -17.633  10.959  1.00  0.00     0.002 A 
ATOM     90  C   UNL     1      -2.612 -16.987  13.244  1.00  0.00     0.091 A 
ATOM     91  F   UNL     1      -2.730 -14.668  13.798  1.00  0.00    -0.205 F 
ATOM     92  C   UNL     1      -2.420 -17.982  12.272  1.00  0.00     0.022 A 
BRANCH  90  93
ATOM     93  S   UNL     1      -2.906 -17.536  14.929  1.00  0.00     0.127 S 
ATOM     94  O   UNL     1      -4.258 -18.082  14.832  1.00  0.00    -0.237 OA
ATOM     95  O   UNL     1      -1.855 -18.536  15.116  1.00  0.00    -0.237 OA
ATOM     96  O   UNL     1      -2.771 -16.352  15.768  1.00  0.00    -0.744 OA
ENDBRANCH  90  93
ENDBRANCH  63  86
ENDBRANCH  37  38
ENDBRANCH  29  32
ENDBRANCH  27  28
ENDBRANCH   1  27
TORSDOF 16
