REMARK SMILES [NH3+][C@]1(C(=O)NCCCCNC(=O)c2ccc(-c3c4nc(c(-c5cccc(S(=O)(=O)[O-])c5F)c5ccc([nH]5)c(-c5cccc(S(=O)(=O)[O-])c5F)c5nc(c(-c6cccc(S(=O)(=O)[O-])c6F)c6ccc3[nH]6)C=C5)C=C4)cc2)CC[N@H+](Cc2ccccc2O)C1
REMARK SMILES IDX 7 1 6 2 5 3 3 4 4 5 2 7 76 8 87 9 77 10 78 11 1 13 79 17
REMARK SMILES IDX 80 18 81 19 85 20 82 21 84 22 83 23 86 24 8 26 9 27 10 28
REMARK SMILES IDX 11 29 12 31 13 32 14 33 75 34 15 35 74 36 16 37 17 38 18 39
REMARK SMILES IDX 68 40 19 41 73 42 67 43 69 44 20 45 72 46 66 47 65 48 21 50
REMARK SMILES IDX 53 51 33 52 52 53 34 54 37 55 51 56 70 57 35 58 36 59 50 61
REMARK SMILES IDX 71 62 38 63 22 64 23 65 31 66 24 67 26 68 32 69 25 70 27 71
REMARK SMILES IDX 28 72 29 73 30 74 54 75 55 76 63 77 56 78 58 79 64 80 57 81
REMARK SMILES IDX 59 82 60 83 61 84 62 85 39 86 40 87 48 88 41 89 43 90 49 91
REMARK SMILES IDX 42 92 44 93 45 94 46 95 47 96
REMARK H PARENT 5 6 78 12 1 14 1 15 1 16 86 25 10 30 69 49 37 60
REMARK Flexibility Score: inf
ROOT
ATOM      1  C   UNL     1       4.707  -0.448   0.549  1.00  0.00     0.023 C 
ENDROOT
BRANCH   1   2
ATOM      2  C   UNL     1       3.551   0.500   0.850  1.00  0.00     0.116 C 
BRANCH   2   3
ATOM      3  N   UNL     1       2.529   0.477  -0.181  1.00  0.00    -0.350 N 
ATOM      4  C   UNL     1       1.207   0.168  -0.118  1.00  0.00     0.287 C 
ATOM      5  O   UNL     1       0.549   0.314  -1.156  1.00  0.00    -0.268 OA
ATOM      6  H   UNL     1       2.849   0.727  -1.078  1.00  0.00     0.163 HD
BRANCH   4   7
ATOM      7  C   UNL     1       0.528  -0.347   1.175  1.00  0.00     0.228 C 
ATOM      8  C   UNL     1       1.136  -1.634   1.720  1.00  0.00     0.146 C 
ATOM      9  C   UNL     1       0.623   0.657   2.344  1.00  0.00     0.342 C 
ATOM     10  C   UNL     1       0.887  -1.533   3.214  1.00  0.00     0.270 C 
ATOM     11  N   UNL     1       1.034  -0.112   3.534  1.00  0.00    -0.325 N 
ATOM     12  H   UNL     1       2.015   0.083   3.737  1.00  0.00     0.348 HD
BRANCH   7  13
ATOM     13  N   UNL     1      -0.916  -0.615   0.873  1.00  0.00    -0.340 N 
ATOM     14  H   UNL     1      -1.382  -0.956   1.713  1.00  0.00     0.345 HD
ATOM     15  H   UNL     1      -0.985  -1.318   0.137  1.00  0.00     0.345 HD
ATOM     16  H   UNL     1      -1.364   0.247   0.562  1.00  0.00     0.345 HD
ENDBRANCH   7  13
BRANCH  11  17
ATOM     17  C   UNL     1       0.420   0.317   4.800  1.00  0.00     0.303 C 
BRANCH  17  18
ATOM     18  C   UNL     1      -1.098   0.357   4.835  1.00  0.00     0.048 A 
ATOM     19  C   UNL     1      -1.738   1.575   4.528  1.00  0.00     0.013 A 
ATOM     20  C   UNL     1      -1.911  -0.762   5.061  1.00  0.00     0.124 A 
ATOM     21  C   UNL     1      -3.119   1.643   4.339  1.00  0.00     0.001 A 
ATOM     22  C   UNL     1      -3.289  -0.701   4.855  1.00  0.00     0.046 A 
ATOM     23  C   UNL     1      -3.892   0.495   4.474  1.00  0.00     0.004 A 
BRANCH  20  24
ATOM     24  O   UNL     1      -1.437  -1.973   5.484  1.00  0.00    -0.507 OA
ATOM     25  H   UNL     1      -0.520  -2.088   5.643  1.00  0.00     0.293 HD
ENDBRANCH  20  24
ENDBRANCH  17  18
ENDBRANCH  11  17
ENDBRANCH   4   7
ENDBRANCH   2   3
ENDBRANCH   1   2
BRANCH   1  26
ATOM     26  C   UNL     1       5.473  -0.145  -0.736  1.00  0.00     0.023 C 
BRANCH  26  27
ATOM     27  C   UNL     1       5.905   1.306  -0.913  1.00  0.00     0.116 C 
BRANCH  27  28
ATOM     28  N   UNL     1       6.714   1.803   0.191  1.00  0.00    -0.352 N 
ATOM     29  C   UNL     1       7.894   2.512   0.149  1.00  0.00     0.251 C 
ATOM     30  H   UNL     1       6.370   1.605   1.092  1.00  0.00     0.163 HD
ATOM     31  O   UNL     1       8.499   2.765   1.174  1.00  0.00    -0.269 OA
BRANCH  29  32
ATOM     32  C   UNL     1       8.432   2.926  -1.166  1.00  0.00     0.039 A 
ATOM     33  C   UNL     1       9.761   2.628  -1.473  1.00  0.00     0.014 A 
ATOM     34  C   UNL     1       7.611   3.554  -2.107  1.00  0.00     0.014 A 
ATOM     35  C   UNL     1      10.247   2.890  -2.756  1.00  0.00     0.010 A 
ATOM     36  C   UNL     1       8.073   3.742  -3.405  1.00  0.00     0.010 A 
ATOM     37  C   UNL     1       9.395   3.411  -3.744  1.00  0.00    -0.014 A 
BRANCH  37  38
ATOM     38  C   UNL     1       9.856   3.599  -5.143  1.00  0.00     0.031 A 
ATOM     39  C   UNL     1       9.888   4.975  -5.749  1.00  0.00     0.074 A 
ATOM     40  C   UNL     1      10.153   2.521  -5.897  1.00  0.00     0.049 A 
ATOM     41  N   UNL     1      10.191   5.330  -6.970  1.00  0.00    -0.248 NA
ATOM     42  C   UNL     1       9.501   6.097  -4.878  1.00  0.00     0.031 C 
ATOM     43  C   UNL     1      10.084   1.128  -5.449  1.00  0.00     0.029 A 
ATOM     44  N   UNL     1      10.552   2.427  -7.207  1.00  0.00    -0.354 N 
ATOM     45  C   UNL     1       9.994   6.704  -7.026  1.00  0.00     0.074 A 
ATOM     46  C   UNL     1       9.514   7.116  -5.725  1.00  0.00     0.031 C 
ATOM     47  C   UNL     1      10.441   0.321  -6.462  1.00  0.00     0.029 A 
ATOM     48  C   UNL     1      10.737   1.133  -7.638  1.00  0.00     0.049 A 
ATOM     49  H   UNL     1      10.692   3.212  -7.785  1.00  0.00     0.167 HD
ATOM     50  C   UNL     1      10.223   7.552  -8.056  1.00  0.00     0.034 A 
ATOM     51  C   UNL     1      11.106   0.656  -8.842  1.00  0.00     0.034 A 
ATOM     52  C   UNL     1      10.758   7.149  -9.328  1.00  0.00     0.049 A 
ATOM     53  C   UNL     1      11.406   1.627  -9.953  1.00  0.00     0.074 A 
ATOM     54  C   UNL     1      11.111   7.945 -10.403  1.00  0.00     0.029 A 
ATOM     55  N   UNL     1      11.020   5.839  -9.696  1.00  0.00    -0.354 N 
ATOM     56  N   UNL     1      11.360   2.937  -9.938  1.00  0.00    -0.248 NA
ATOM     57  C   UNL     1      11.842   1.056 -11.236  1.00  0.00     0.031 C 
ATOM     58  C   UNL     1      11.578   7.114 -11.426  1.00  0.00     0.029 A 
ATOM     59  C   UNL     1      11.529   5.803 -10.982  1.00  0.00     0.049 A 
ATOM     60  H   UNL     1      10.866   5.051  -9.127  1.00  0.00     0.167 HD
ATOM     61  C   UNL     1      11.797   3.348 -11.192  1.00  0.00     0.074 A 
ATOM     62  C   UNL     1      12.120   2.148 -11.936  1.00  0.00     0.031 C 
ATOM     63  C   UNL     1      11.905   4.605 -11.688  1.00  0.00     0.034 A 
BRANCH  50  64
ATOM     64  C   UNL     1       9.962   9.017  -7.827  1.00  0.00     0.023 A 
ATOM     65  C   UNL     1      10.842   9.756  -7.010  1.00  0.00     0.012 A 
ATOM     66  C   UNL     1       8.893   9.676  -8.464  1.00  0.00     0.148 A 
ATOM     67  C   UNL     1      10.647  11.120  -6.806  1.00  0.00     0.002 A 
ATOM     68  C   UNL     1       8.729  11.046  -8.290  1.00  0.00     0.091 A 
ATOM     69  F   UNL     1       8.054   8.952  -9.219  1.00  0.00    -0.205 F 
ATOM     70  C   UNL     1       9.598  11.767  -7.454  1.00  0.00     0.022 A 
BRANCH  68  71
ATOM     71  S   UNL     1       7.455  11.985  -9.139  1.00  0.00     0.127 S 
ATOM     72  O   UNL     1       6.544  12.306  -8.040  1.00  0.00    -0.237 OA
ATOM     73  O   UNL     1       8.209  13.127  -9.659  1.00  0.00    -0.237 OA
ATOM     74  O   UNL     1       6.915  11.098 -10.160  1.00  0.00    -0.744 OA
ENDBRANCH  68  71
ENDBRANCH  50  64
BRANCH  51  75
ATOM     75  C   UNL     1      11.304  -0.808  -9.035  1.00  0.00     0.023 A 
ATOM     76  C   UNL     1      12.614  -1.307  -9.183  1.00  0.00     0.012 A 
ATOM     77  C   UNL     1      10.223  -1.709  -9.041  1.00  0.00     0.148 A 
ATOM     78  C   UNL     1      12.841  -2.671  -9.363  1.00  0.00     0.002 A 
ATOM     79  C   UNL     1      10.460  -3.074  -9.168  1.00  0.00     0.091 A 
ATOM     80  F   UNL     1       8.983  -1.215  -8.911  1.00  0.00    -0.205 F 
ATOM     81  C   UNL     1      11.766  -3.555  -9.345  1.00  0.00     0.022 A 
BRANCH  79  82
ATOM     82  S   UNL     1       9.150  -4.296  -9.030  1.00  0.00     0.127 S 
ATOM     83  O   UNL     1       9.022  -4.755 -10.411  1.00  0.00    -0.237 OA
ATOM     84  O   UNL     1       9.740  -5.269  -8.109  1.00  0.00    -0.237 OA
ATOM     85  O   UNL     1       8.002  -3.580  -8.490  1.00  0.00    -0.744 OA
ENDBRANCH  79  82
ENDBRANCH  51  75
BRANCH  63  86
ATOM     86  C   UNL     1      12.425   4.761 -13.092  1.00  0.00     0.023 A 
ATOM     87  C   UNL     1      11.598   4.433 -14.183  1.00  0.00     0.012 A 
ATOM     88  C   UNL     1      13.699   5.314 -13.329  1.00  0.00     0.148 A 
ATOM     89  C   UNL     1      12.041   4.627 -15.491  1.00  0.00     0.002 A 
ATOM     90  C   UNL     1      14.116   5.546 -14.635  1.00  0.00     0.091 A 
ATOM     91  F   UNL     1      14.480   5.601 -12.277  1.00  0.00    -0.205 F 
ATOM     92  C   UNL     1      13.293   5.194 -15.716  1.00  0.00     0.022 A 
BRANCH  90  93
ATOM     93  S   UNL     1      15.673   6.360 -15.014  1.00  0.00     0.127 S 
ATOM     94  O   UNL     1      16.493   5.239 -15.466  1.00  0.00    -0.237 OA
ATOM     95  O   UNL     1      15.287   7.298 -16.069  1.00  0.00    -0.237 OA
ATOM     96  O   UNL     1      16.103   6.994 -13.774  1.00  0.00    -0.744 OA
ENDBRANCH  90  93
ENDBRANCH  63  86
ENDBRANCH  37  38
ENDBRANCH  29  32
ENDBRANCH  27  28
ENDBRANCH  26  27
ENDBRANCH   1  26
TORSDOF 18
