REMARK SMILES O=C(NCCCCNC(=O)[C@H]1[C@H]2CC[C@H](CC2)[C@@H]1C(=O)Nc1ccc(Cc2ccncc2)cc1)c1ccc(-c2c3nc(c(-c4cccc(S(=O)(=O)[O-])c4F)c4ccc([nH]4)c(-c4cccc(S(=O)(=O)[O-])c4F)c4nc(c(-c5cccc(S(=O)(=O)[O-])c5F)c5ccc2[nH]5)C=C4)C=C3)cc1
REMARK SMILES IDX 6 1 5 2 4 3 3 4 1 5 2 6 35 8 36 9 97 10 37 11 96 12 38 13
REMARK SMILES IDX 39 14 40 15 90 16 41 17 95 18 89 19 91 20 42 21 94 22 88 23
REMARK SMILES IDX 87 24 43 26 75 27 55 28 74 29 56 30 59 31 73 32 92 33 57 34
REMARK SMILES IDX 58 35 72 37 93 38 60 39 44 40 45 41 53 42 46 43 48 44 54 45
REMARK SMILES IDX 47 46 49 47 50 48 51 49 52 50 76 51 77 52 85 53 78 54 80 55
REMARK SMILES IDX 86 56 79 57 81 58 82 59 83 60 84 61 61 62 62 63 70 64 63 65
REMARK SMILES IDX 65 66 71 67 64 68 66 69 67 70 68 71 69 72 7 73 8 74 9 75
REMARK SMILES IDX 10 77 11 78 12 79 18 80 13 81 17 82 15 83 14 84 16 85 19 86
REMARK SMILES IDX 20 87 21 88 22 90 23 91 34 92 24 93 33 94 25 95 26 96 27 97
REMARK SMILES IDX 28 98 32 99 29 100 31 101 30 102
REMARK H PARENT 3 7 91 25 59 36 8 76 21 89
REMARK Flexibility Score: inf
ROOT
ATOM      1  C   UNL     1       4.451   2.825   2.556  1.00  0.00     0.023 C 
ENDROOT
BRANCH   1   2
ATOM      2  C   UNL     1       4.912   2.389   1.163  1.00  0.00     0.023 C 
BRANCH   2   3
ATOM      3  C   UNL     1       4.598   0.941   0.817  1.00  0.00     0.116 C 
BRANCH   3   4
ATOM      4  N   UNL     1       3.174   0.658   0.853  1.00  0.00    -0.352 N 
ATOM      5  O   UNL     1       1.210  -0.071   0.023  1.00  0.00    -0.269 OA
ATOM      6  C   UNL     1       2.429  -0.059  -0.053  1.00  0.00     0.251 C 
ATOM      7  H   UNL     1       2.681   1.025   1.621  1.00  0.00     0.163 HD
BRANCH   6   8
ATOM      8  C   UNL     1       3.132  -0.789  -1.130  1.00  0.00     0.039 A 
ATOM      9  C   UNL     1       4.234  -1.596  -0.832  1.00  0.00     0.014 A 
ATOM     10  C   UNL     1       2.686  -0.655  -2.446  1.00  0.00     0.014 A 
ATOM     11  C   UNL     1       4.954  -2.190  -1.862  1.00  0.00     0.010 A 
ATOM     12  C   UNL     1       3.366  -1.313  -3.472  1.00  0.00     0.010 A 
ATOM     13  C   UNL     1       4.511  -2.075  -3.189  1.00  0.00    -0.014 A 
BRANCH  13  14
ATOM     14  C   UNL     1       5.173  -2.871  -4.250  1.00  0.00     0.031 A 
ATOM     15  C   UNL     1       5.900  -2.213  -5.387  1.00  0.00     0.074 A 
ATOM     16  C   UNL     1       5.056  -4.212  -4.196  1.00  0.00     0.049 A 
ATOM     17  N   UNL     1       6.496  -2.773  -6.407  1.00  0.00    -0.248 NA
ATOM     18  C   UNL     1       5.964  -0.743  -5.389  1.00  0.00     0.031 C 
ATOM     19  C   UNL     1       4.320  -4.950  -3.164  1.00  0.00     0.029 A 
ATOM     20  N   UNL     1       5.523  -5.192  -5.033  1.00  0.00    -0.354 N 
ATOM     21  C   UNL     1       6.964  -1.731  -7.198  1.00  0.00     0.074 A 
ATOM     22  C   UNL     1       6.593  -0.500  -6.533  1.00  0.00     0.031 C 
ATOM     23  C   UNL     1       4.379  -6.261  -3.433  1.00  0.00     0.029 A 
ATOM     24  C   UNL     1       5.108  -6.455  -4.680  1.00  0.00     0.049 A 
ATOM     25  H   UNL     1       6.099  -5.010  -5.811  1.00  0.00     0.167 HD
ATOM     26  C   UNL     1       7.646  -1.802  -8.365  1.00  0.00     0.034 A 
ATOM     27  C   UNL     1       5.259  -7.636  -5.307  1.00  0.00     0.034 A 
ATOM     28  C   UNL     1       8.046  -3.035  -8.991  1.00  0.00     0.049 A 
ATOM     29  C   UNL     1       6.032  -7.677  -6.593  1.00  0.00     0.074 A 
ATOM     30  C   UNL     1       8.847  -3.211 -10.107  1.00  0.00     0.029 A 
ATOM     31  N   UNL     1       7.657  -4.299  -8.576  1.00  0.00    -0.354 N 
ATOM     32  N   UNL     1       6.629  -6.696  -7.225  1.00  0.00    -0.248 NA
ATOM     33  C   UNL     1       6.173  -8.987  -7.242  1.00  0.00     0.031 C 
ATOM     34  C   UNL     1       8.912  -4.579 -10.387  1.00  0.00     0.029 A 
ATOM     35  C   UNL     1       8.170  -5.257  -9.434  1.00  0.00     0.049 A 
ATOM     36  H   UNL     1       7.097  -4.488  -7.789  1.00  0.00     0.167 HD
ATOM     37  C   UNL     1       7.226  -7.270  -8.338  1.00  0.00     0.074 A 
ATOM     38  C   UNL     1       6.950  -8.691  -8.275  1.00  0.00     0.031 C 
ATOM     39  C   UNL     1       7.920  -6.672  -9.337  1.00  0.00     0.034 A 
BRANCH  26  40
ATOM     40  C   UNL     1       8.045  -0.519  -9.044  1.00  0.00     0.023 A 
ATOM     41  C   UNL     1       9.130   0.226  -8.544  1.00  0.00     0.012 A 
ATOM     42  C   UNL     1       7.423  -0.120 -10.244  1.00  0.00     0.148 A 
ATOM     43  C   UNL     1       9.585   1.357  -9.222  1.00  0.00     0.002 A 
ATOM     44  C   UNL     1       7.905   0.988 -10.933  1.00  0.00     0.091 A 
ATOM     45  F   UNL     1       6.381  -0.834 -10.692  1.00  0.00    -0.205 F 
ATOM     46  C   UNL     1       8.981   1.730 -10.421  1.00  0.00     0.022 A 
BRANCH  44  47
ATOM     47  S   UNL     1       7.245   1.506 -12.522  1.00  0.00     0.127 S 
ATOM     48  O   UNL     1       6.593   2.767 -12.173  1.00  0.00    -0.237 OA
ATOM     49  O   UNL     1       8.459   1.651 -13.326  1.00  0.00    -0.237 OA
ATOM     50  O   UNL     1       6.351   0.442 -12.955  1.00  0.00    -0.744 OA
ENDBRANCH  44  47
ENDBRANCH  26  40
BRANCH  27  51
ATOM     51  C   UNL     1       4.670  -8.868  -4.716  1.00  0.00     0.023 A 
ATOM     52  C   UNL     1       5.516  -9.864  -4.195  1.00  0.00     0.012 A 
ATOM     53  C   UNL     1       3.273  -9.037  -4.629  1.00  0.00     0.148 A 
ATOM     54  C   UNL     1       4.983 -11.019  -3.622  1.00  0.00     0.002 A 
ATOM     55  C   UNL     1       2.749 -10.161  -4.002  1.00  0.00     0.091 A 
ATOM     56  F   UNL     1       2.482  -8.088  -5.148  1.00  0.00    -0.205 F 
ATOM     57  C   UNL     1       3.601 -11.162  -3.514  1.00  0.00     0.022 A 
BRANCH  55  58
ATOM     58  S   UNL     1       0.989 -10.338  -3.693  1.00  0.00     0.127 S 
ATOM     59  O   UNL     1       0.587 -11.249  -4.761  1.00  0.00    -0.237 OA
ATOM     60  O   UNL     1       0.967 -10.916  -2.349  1.00  0.00    -0.237 OA
ATOM     61  O   UNL     1       0.449  -8.986  -3.767  1.00  0.00    -0.744 OA
ENDBRANCH  55  58
ENDBRANCH  27  51
BRANCH  39  62
ATOM     62  C   UNL     1       8.433  -7.550 -10.445  1.00  0.00     0.023 A 
ATOM     63  C   UNL     1       7.529  -8.057 -11.399  1.00  0.00     0.012 A 
ATOM     64  C   UNL     1       9.810  -7.810 -10.586  1.00  0.00     0.148 A 
ATOM     65  C   UNL     1       7.985  -8.832 -12.464  1.00  0.00     0.002 A 
ATOM     66  C   UNL     1      10.262  -8.544 -11.676  1.00  0.00     0.091 A 
ATOM     67  F   UNL     1      10.649  -7.331  -9.656  1.00  0.00    -0.205 F 
ATOM     68  C   UNL     1       9.351  -9.064 -12.609  1.00  0.00     0.022 A 
BRANCH  66  69
ATOM     69  S   UNL     1      12.008  -8.820 -11.997  1.00  0.00     0.127 S 
ATOM     70  O   UNL     1      12.134 -10.254 -11.740  1.00  0.00    -0.237 OA
ATOM     71  O   UNL     1      12.127  -8.439 -13.404  1.00  0.00    -0.237 OA
ATOM     72  O   UNL     1      12.729  -7.957 -11.072  1.00  0.00    -0.744 OA
ENDBRANCH  66  69
ENDBRANCH  39  62
ENDBRANCH  13  14
ENDBRANCH   6   8
ENDBRANCH   3   4
ENDBRANCH   2   3
ENDBRANCH   1   2
BRANCH   1  73
ATOM     73  C   UNL     1       4.971   1.942   3.692  1.00  0.00     0.116 C 
BRANCH  73  74
ATOM     74  N   UNL     1       6.417   2.033   3.783  1.00  0.00    -0.356 N 
ATOM     75  C   UNL     1       7.192   2.780   4.613  1.00  0.00     0.224 C 
ATOM     76  H   UNL     1       6.912   1.467   3.147  1.00  0.00     0.163 HD
ATOM     77  O   UNL     1       8.369   2.946   4.292  1.00  0.00    -0.275 OA
BRANCH  75  78
ATOM     78  C   UNL     1       6.613   3.350   5.903  1.00  0.00     0.094 C 
ATOM     79  C   UNL     1       7.435   2.854   7.134  1.00  0.00     0.002 C 
ATOM     80  C   UNL     1       6.539   4.919   5.859  1.00  0.00     0.094 C 
ATOM     81  C   UNL     1       8.861   3.425   7.155  1.00  0.00     0.005 C 
ATOM     82  C   UNL     1       6.727   3.378   8.397  1.00  0.00     0.005 C 
ATOM     83  C   UNL     1       7.349   5.435   7.076  1.00  0.00     0.002 C 
ATOM     84  C   UNL     1       8.805   4.936   6.950  1.00  0.00     0.005 C 
ATOM     85  C   UNL     1       6.757   4.908   8.396  1.00  0.00     0.005 C 
BRANCH  80  86
ATOM     86  C   UNL     1       5.053   5.335   5.697  1.00  0.00     0.228 C 
ATOM     87  O   UNL     1       4.266   4.594   5.092  1.00  0.00    -0.274 OA
ATOM     88  N   UNL     1       4.477   6.478   6.154  1.00  0.00    -0.326 N 
ATOM     89  H   UNL     1       3.531   6.590   5.903  1.00  0.00     0.169 HD
BRANCH  88  90
ATOM     90  C   UNL     1       5.001   7.514   6.914  1.00  0.00     0.041 A 
ATOM     91  C   UNL     1       4.472   7.690   8.190  1.00  0.00     0.026 A 
ATOM     92  C   UNL     1       6.034   8.325   6.455  1.00  0.00     0.026 A 
ATOM     93  C   UNL     1       5.114   8.541   9.082  1.00  0.00     0.006 A 
ATOM     94  C   UNL     1       6.644   9.220   7.338  1.00  0.00     0.006 A 
ATOM     95  C   UNL     1       6.228   9.290   8.677  1.00  0.00    -0.043 A 
BRANCH  95  96
ATOM     96  C   UNL     1       6.984  10.125   9.683  1.00  0.00     0.071 C 
BRANCH  96  97
ATOM     97  C   UNL     1       6.311  11.428  10.026  1.00  0.00    -0.041 A 
ATOM     98  C   UNL     1       5.194  11.464  10.867  1.00  0.00     0.024 A 
ATOM     99  C   UNL     1       6.776  12.631   9.494  1.00  0.00     0.024 A 
ATOM    100  C   UNL     1       4.590  12.683  11.124  1.00  0.00     0.111 A 
ATOM    101  C   UNL     1       6.112  13.803   9.822  1.00  0.00     0.111 A 
ATOM    102  N   UNL     1       5.028  13.856  10.626  1.00  0.00    -0.265 NA
ENDBRANCH  96  97
ENDBRANCH  95  96
ENDBRANCH  88  90
ENDBRANCH  80  86
ENDBRANCH  75  78
ENDBRANCH  73  74
ENDBRANCH   1  73
TORSDOF 18
