REMARK SMILES NC(=O)COc1ccc(/C=C2\SC(=S)N(CCC(=O)NCCCCNC(=O)c3ccc(-c4c5nc(c(-c6cccc(S(=O)(=O)[O-])c6F)c6ccc([nH]6)c(-c6cccc(S(=O)(=O)[O-])c6F)c6nc(c(-c7cccc(S(=O)(=O)[O-])c7F)c7ccc4[nH]7)C=C6)C=C5)cc3)C2=O)cc1
REMARK SMILES IDX 21 1 20 2 18 3 19 4 17 6 16 7 15 8 10 9 11 10 12 11 91 12
REMARK SMILES IDX 13 13 92 14 14 15 9 16 6 17 7 18 94 19 8 20 93 21 5 22 4 23
REMARK SMILES IDX 2 24 1 25 3 28 22 29 23 30 24 31 25 32 26 33 27 35 28 36
REMARK SMILES IDX 29 37 90 38 30 39 89 40 31 41 32 42 33 43 83 44 34 45 88 46
REMARK SMILES IDX 82 47 84 48 35 49 87 50 81 51 80 52 36 54 68 55 48 56 67 57
REMARK SMILES IDX 49 58 52 59 66 60 85 61 50 62 51 63 65 65 86 66 53 67 37 68
REMARK SMILES IDX 38 69 46 70 39 71 41 72 47 73 40 74 42 75 43 76 44 77 45 78
REMARK SMILES IDX 69 79 70 80 78 81 71 82 73 83 79 84 72 85 74 86 75 87 76 88
REMARK SMILES IDX 77 89 54 90 55 91 63 92 56 93 58 94 64 95 57 96 59 97 60 98
REMARK SMILES IDX 61 99 62 100
REMARK H PARENT 20 5 1 26 1 27 25 34 84 53 52 64
REMARK Flexibility Score: inf
ROOT
ATOM      1  C   UNL     1       0.679  -9.585   1.733  1.00  0.00     0.116 C 
ENDROOT
BRANCH   1   2
ATOM      2  N   UNL     1      -0.311 -10.635   1.871  1.00  0.00    -0.356 N 
ATOM      3  C   UNL     1      -1.102 -11.200   0.915  1.00  0.00     0.221 C 
ATOM      4  O   UNL     1      -2.035 -11.921   1.265  1.00  0.00    -0.275 OA
ATOM      5  H   UNL     1      -0.429 -10.989   2.782  1.00  0.00     0.163 HD
BRANCH   3   6
ATOM      6  C   UNL     1      -0.794 -10.990  -0.552  1.00  0.00     0.122 C 
BRANCH   6   7
ATOM      7  C   UNL     1      -1.784 -10.062  -1.265  1.00  0.00     0.137 C 
BRANCH   7   8
ATOM      8  N   UNL     1      -1.402  -8.640  -1.266  1.00  0.00    -0.292 N 
ATOM      9  C   UNL     1      -1.794  -5.486   0.410  1.00  0.00     0.029 C 
ATOM     10  C   UNL     1      -1.497  -6.405  -0.521  1.00  0.00     0.081 C 
ATOM     11  S   UNL     1      -0.204  -6.384  -1.650  1.00  0.00    -0.054 SA
ATOM     12  C   UNL     1      -2.169  -7.732  -0.550  1.00  0.00     0.266 C 
ATOM     13  C   UNL     1      -0.361  -8.101  -1.998  1.00  0.00     0.148 C 
ATOM     14  O   UNL     1      -3.217  -7.973   0.035  1.00  0.00    -0.268 OA
ATOM     15  S   UNL     1       0.658  -8.874  -3.071  1.00  0.00    -0.052 S 
BRANCH   9  16
ATOM     16  C   UNL     1      -1.009  -4.274   0.660  1.00  0.00    -0.024 A 
ATOM     17  C   UNL     1       0.601  -2.037   1.129  1.00  0.00     0.120 A 
ATOM     18  C   UNL     1       0.710  -3.153   1.940  1.00  0.00     0.047 A 
ATOM     19  C   UNL     1      -0.291  -2.037   0.062  1.00  0.00     0.047 A 
ATOM     20  C   UNL     1      -0.109  -4.257   1.728  1.00  0.00     0.012 A 
ATOM     21  C   UNL     1      -1.098  -3.156  -0.172  1.00  0.00     0.012 A 
BRANCH  17  22
ATOM     22  O   UNL     1       1.452  -0.993   1.367  1.00  0.00    -0.484 OA
BRANCH  22  23
ATOM     23  C   UNL     1       0.775   0.090   2.014  1.00  0.00     0.329 C 
BRANCH  23  24
ATOM     24  C   UNL     1       0.196   1.062   0.992  1.00  0.00     0.255 C 
ATOM     25  N   UNL     1       0.950   1.212  -0.141  1.00  0.00    -0.367 N 
ATOM     26  H   UNL     1       0.650   1.821  -0.854  1.00  0.00     0.159 HD
ATOM     27  H   UNL     1       1.792   0.712  -0.241  1.00  0.00     0.159 HD
ATOM     28  O   UNL     1      -0.840   1.697   1.151  1.00  0.00    -0.271 OA
ENDBRANCH  23  24
ENDBRANCH  22  23
ENDBRANCH  17  22
ENDBRANCH   9  16
ENDBRANCH   7   8
ENDBRANCH   6   7
ENDBRANCH   3   6
ENDBRANCH   1   2
BRANCH   1  29
ATOM     29  C   UNL     1       0.017  -8.231   1.928  1.00  0.00     0.023 C 
BRANCH  29  30
ATOM     30  C   UNL     1      -0.193  -7.820   3.373  1.00  0.00     0.023 C 
BRANCH  30  31
ATOM     31  C   UNL     1       1.084  -7.565   4.152  1.00  0.00     0.116 C 
BRANCH  31  32
ATOM     32  N   UNL     1       2.051  -6.699   3.484  1.00  0.00    -0.352 N 
ATOM     33  C   UNL     1       2.666  -5.545   3.915  1.00  0.00     0.251 C 
ATOM     34  H   UNL     1       2.303  -6.986   2.577  1.00  0.00     0.163 HD
ATOM     35  O   UNL     1       3.452  -4.960   3.175  1.00  0.00    -0.269 OA
BRANCH  33  36
ATOM     36  C   UNL     1       2.325  -4.974   5.232  1.00  0.00     0.039 A 
ATOM     37  C   UNL     1       2.139  -3.591   5.354  1.00  0.00     0.014 A 
ATOM     38  C   UNL     1       2.157  -5.802   6.339  1.00  0.00     0.014 A 
ATOM     39  C   UNL     1       1.674  -3.056   6.549  1.00  0.00     0.010 A 
ATOM     40  C   UNL     1       1.607  -5.292   7.500  1.00  0.00     0.010 A 
ATOM     41  C   UNL     1       1.403  -3.910   7.620  1.00  0.00    -0.014 A 
BRANCH  41  42
ATOM     42  C   UNL     1       1.179  -3.367   8.968  1.00  0.00     0.031 A 
ATOM     43  C   UNL     1       2.298  -3.540   9.954  1.00  0.00     0.074 A 
ATOM     44  C   UNL     1       0.013  -2.792   9.299  1.00  0.00     0.049 A 
ATOM     45  N   UNL     1       2.311  -3.328  11.238  1.00  0.00    -0.248 NA
ATOM     46  C   UNL     1       3.568  -4.074   9.419  1.00  0.00     0.031 C 
ATOM     47  C   UNL     1      -1.122  -2.586   8.398  1.00  0.00     0.029 A 
ATOM     48  N   UNL     1      -0.415  -2.295  10.499  1.00  0.00    -0.354 N 
ATOM     49  C   UNL     1       3.556  -3.766  11.670  1.00  0.00     0.074 A 
ATOM     50  C   UNL     1       4.257  -4.292  10.524  1.00  0.00     0.031 C 
ATOM     51  C   UNL     1      -2.124  -2.008   9.084  1.00  0.00     0.029 A 
ATOM     52  C   UNL     1      -1.713  -1.844  10.475  1.00  0.00     0.049 A 
ATOM     53  H   UNL     1       0.152  -2.264  11.304  1.00  0.00     0.167 HD
ATOM     54  C   UNL     1       4.078  -3.706  12.914  1.00  0.00     0.034 A 
ATOM     55  C   UNL     1      -2.475  -1.375  11.481  1.00  0.00     0.034 A 
ATOM     56  C   UNL     1       3.382  -3.117  14.019  1.00  0.00     0.049 A 
ATOM     57  C   UNL     1      -1.859  -1.292  12.855  1.00  0.00     0.074 A 
ATOM     58  C   UNL     1       3.816  -2.939  15.317  1.00  0.00     0.029 A 
ATOM     59  N   UNL     1       2.096  -2.600  13.944  1.00  0.00    -0.354 N 
ATOM     60  N   UNL     1      -0.650  -1.632  13.242  1.00  0.00    -0.248 NA
ATOM     61  C   UNL     1      -2.697  -0.738  13.925  1.00  0.00     0.031 C 
ATOM     62  C   UNL     1       2.780  -2.335  16.035  1.00  0.00     0.029 A 
ATOM     63  C   UNL     1       1.715  -2.105  15.175  1.00  0.00     0.049 A 
ATOM     64  H   UNL     1       1.538  -2.588  13.133  1.00  0.00     0.167 HD
ATOM     65  C   UNL     1      -0.572  -1.304  14.590  1.00  0.00     0.074 A 
ATOM     66  C   UNL     1      -1.849  -0.715  14.944  1.00  0.00     0.031 C 
ATOM     67  C   UNL     1       0.448  -1.483  15.466  1.00  0.00     0.034 A 
BRANCH  54  68
ATOM     68  C   UNL     1       5.457  -4.272  13.114  1.00  0.00     0.023 A 
ATOM     69  C   UNL     1       6.576  -3.633  12.537  1.00  0.00     0.012 A 
ATOM     70  C   UNL     1       5.644  -5.448  13.864  1.00  0.00     0.148 A 
ATOM     71  C   UNL     1       7.851  -4.182  12.665  1.00  0.00     0.002 A 
ATOM     72  C   UNL     1       6.925  -5.959  14.032  1.00  0.00     0.091 A 
ATOM     73  F   UNL     1       4.566  -6.059  14.374  1.00  0.00    -0.205 F 
ATOM     74  C   UNL     1       8.027  -5.338  13.420  1.00  0.00     0.022 A 
BRANCH  72  75
ATOM     75  S   UNL     1       7.267  -7.400  15.046  1.00  0.00     0.127 S 
ATOM     76  O   UNL     1       7.705  -8.370  14.043  1.00  0.00    -0.237 OA
ATOM     77  O   UNL     1       8.330  -6.908  15.923  1.00  0.00    -0.237 OA
ATOM     78  O   UNL     1       6.019  -7.724  15.722  1.00  0.00    -0.744 OA
ENDBRANCH  72  75
ENDBRANCH  54  68
BRANCH  55  79
ATOM     79  C   UNL     1      -3.870  -0.918  11.224  1.00  0.00     0.023 A 
ATOM     80  C   UNL     1      -4.186   0.450  11.339  1.00  0.00     0.012 A 
ATOM     81  C   UNL     1      -4.881  -1.825  10.850  1.00  0.00     0.148 A 
ATOM     82  C   UNL     1      -5.489   0.902  11.121  1.00  0.00     0.002 A 
ATOM     83  C   UNL     1      -6.164  -1.361  10.581  1.00  0.00     0.091 A 
ATOM     84  F   UNL     1      -4.566  -3.124  10.757  1.00  0.00    -0.205 F 
ATOM     85  C   UNL     1      -6.475  -0.001  10.733  1.00  0.00     0.022 A 
BRANCH  83  86
ATOM     86  S   UNL     1      -7.466  -2.431   9.957  1.00  0.00     0.127 S 
ATOM     87  O   UNL     1      -8.371  -2.499  11.101  1.00  0.00    -0.237 OA
ATOM     88  O   UNL     1      -7.968  -1.663   8.818  1.00  0.00    -0.237 OA
ATOM     89  O   UNL     1      -6.808  -3.679   9.596  1.00  0.00    -0.744 OA
ENDBRANCH  83  86
ENDBRANCH  55  79
BRANCH  67  90
ATOM     90  C   UNL     1       0.237  -1.003  16.876  1.00  0.00     0.023 A 
ATOM     91  C   UNL     1      -0.626  -1.709  17.736  1.00  0.00     0.012 A 
ATOM     92  C   UNL     1       0.963   0.098  17.367  1.00  0.00     0.148 A 
ATOM     93  C   UNL     1      -0.791  -1.302  19.058  1.00  0.00     0.002 A 
ATOM     94  C   UNL     1       0.837   0.463  18.700  1.00  0.00     0.091 A 
ATOM     95  F   UNL     1       1.768   0.762  16.524  1.00  0.00    -0.205 F 
ATOM     96  C   UNL     1      -0.051  -0.226  19.543  1.00  0.00     0.022 A 
BRANCH  94  97
ATOM     97  S   UNL     1       1.833   1.762  19.436  1.00  0.00     0.127 S 
ATOM     98  O   UNL     1       0.847   2.826  19.618  1.00  0.00    -0.237 OA
ATOM     99  O   UNL     1       2.292   1.136  20.676  1.00  0.00    -0.237 OA
ATOM    100  O   UNL     1       2.892   2.049  18.477  1.00  0.00    -0.744 OA
ENDBRANCH  94  97
ENDBRANCH  67  90
ENDBRANCH  41  42
ENDBRANCH  33  36
ENDBRANCH  31  32
ENDBRANCH  30  31
ENDBRANCH  29  30
ENDBRANCH   1  29
TORSDOF 20
