REMARK SMILES [NH3+]CC1([C@H](O)C(=O)NCCCCNC(=O)c2ccc(-c3c4nc(c(-c5cccc(S(=O)(=O)[O-])c5F)c5ccc([nH]5)c(-c5cccc(S(=O)(=O)[O-])c5F)c5nc(c(-c6cccc(S(=O)(=O)[O-])c6F)c6ccc3[nH]6)C=C5)C=C4)cc2)Cc2ccccc2C1
REMARK SMILES IDX 10 1 9 2 8 3 6 4 7 5 4 7 3 8 79 9 86 10 80 11 85 12 81 13
REMARK SMILES IDX 84 14 82 15 83 16 2 17 1 18 5 22 11 24 12 25 13 26 14 27
REMARK SMILES IDX 15 29 16 30 17 31 78 32 18 33 77 34 19 35 20 36 21 37 71 38
REMARK SMILES IDX 22 39 76 40 70 41 72 42 23 43 75 44 69 45 68 46 24 48 56 49
REMARK SMILES IDX 36 50 55 51 37 52 40 53 54 54 73 55 38 56 39 57 53 59 74 60
REMARK SMILES IDX 41 61 25 62 26 63 34 64 27 65 29 66 35 67 28 68 30 69 31 70
REMARK SMILES IDX 32 71 33 72 57 73 58 74 66 75 59 76 61 77 67 78 60 79 62 80
REMARK SMILES IDX 63 81 64 82 65 83 42 84 43 85 51 86 44 87 46 88 52 89 45 90
REMARK SMILES IDX 47 91 48 92 49 93 50 94
REMARK H PARENT 8 6 1 19 1 20 1 21 5 23 13 28 72 47 40 58
REMARK Flexibility Score: inf
ROOT
ATOM      1  C   UNL     1      -0.119   0.774  -0.618  1.00  0.00     0.023 C 
ENDROOT
BRANCH   1   2
ATOM      2  C   UNL     1       1.176  -0.018  -0.501  1.00  0.00     0.116 C 
BRANCH   2   3
ATOM      3  N   UNL     1       1.982   0.364   0.640  1.00  0.00    -0.354 N 
ATOM      4  C   UNL     1       2.756  -0.418   1.446  1.00  0.00     0.249 C 
ATOM      5  O   UNL     1       3.459   0.138   2.292  1.00  0.00    -0.272 OA
ATOM      6  H   UNL     1       1.969   1.323   0.866  1.00  0.00     0.163 HD
BRANCH   4   7
ATOM      7  C   UNL     1       2.700  -1.962   1.353  1.00  0.00     0.215 C 
BRANCH   7   8
ATOM      8  C   UNL     1       3.448  -2.660   0.148  1.00  0.00     0.062 C 
ATOM      9  C   UNL     1       4.527  -3.648   0.732  1.00  0.00     0.052 C 
ATOM     10  C   UNL     1       4.316  -1.667  -0.695  1.00  0.00     0.052 C 
ATOM     11  C   UNL     1       5.742  -2.780   0.845  1.00  0.00    -0.044 A 
ATOM     12  C   UNL     1       5.611  -1.644   0.047  1.00  0.00    -0.044 A 
ATOM     13  C   UNL     1       6.900  -3.011   1.566  1.00  0.00     0.004 A 
ATOM     14  C   UNL     1       6.618  -0.698  -0.033  1.00  0.00     0.004 A 
ATOM     15  C   UNL     1       7.923  -2.062   1.497  1.00  0.00     0.000 A 
ATOM     16  C   UNL     1       7.780  -0.910   0.708  1.00  0.00     0.000 A 
BRANCH   8  17
ATOM     17  C   UNL     1       2.522  -3.447  -0.819  1.00  0.00     0.269 C 
BRANCH  17  18
ATOM     18  N   UNL     1       1.711  -4.495  -0.200  1.00  0.00    -0.357 N 
ATOM     19  H   UNL     1       1.141  -4.950  -0.913  1.00  0.00     0.344 HD
ATOM     20  H   UNL     1       1.103  -4.081   0.508  1.00  0.00     0.344 HD
ATOM     21  H   UNL     1       2.322  -5.184   0.238  1.00  0.00     0.344 HD
ENDBRANCH  17  18
ENDBRANCH   8  17
ENDBRANCH   7   8
BRANCH   7  22
ATOM     22  O   UNL     1       1.338  -2.402   1.485  1.00  0.00    -0.382 OA
ATOM     23  H   UNL     1       0.822  -2.086   0.727  1.00  0.00     0.211 HD
ENDBRANCH   7  22
ENDBRANCH   4   7
ENDBRANCH   2   3
ENDBRANCH   1   2
BRANCH   1  24
ATOM     24  C   UNL     1       0.042   2.285  -0.785  1.00  0.00     0.023 C 
BRANCH  24  25
ATOM     25  C   UNL     1       0.999   2.733  -1.885  1.00  0.00     0.116 C 
BRANCH  25  26
ATOM     26  N   UNL     1       0.633   2.240  -3.204  1.00  0.00    -0.352 N 
ATOM     27  C   UNL     1       0.468   2.938  -4.377  1.00  0.00     0.251 C 
ATOM     28  H   UNL     1       0.482   1.269  -3.265  1.00  0.00     0.163 HD
ATOM     29  O   UNL     1       0.046   2.365  -5.378  1.00  0.00    -0.269 OA
BRANCH  27  30
ATOM     30  C   UNL     1       0.767   4.385  -4.420  1.00  0.00     0.039 A 
ATOM     31  C   UNL     1      -0.179   5.255  -4.969  1.00  0.00     0.014 A 
ATOM     32  C   UNL     1       1.960   4.884  -3.892  1.00  0.00     0.014 A 
ATOM     33  C   UNL     1       0.040   6.635  -4.919  1.00  0.00     0.010 A 
ATOM     34  C   UNL     1       2.142   6.260  -3.778  1.00  0.00     0.010 A 
ATOM     35  C   UNL     1       1.184   7.150  -4.289  1.00  0.00    -0.014 A 
BRANCH  35  36
ATOM     36  C   UNL     1       1.394   8.613  -4.140  1.00  0.00     0.031 A 
ATOM     37  C   UNL     1       2.573   9.279  -4.796  1.00  0.00     0.074 A 
ATOM     38  C   UNL     1       0.581   9.326  -3.334  1.00  0.00     0.049 A 
ATOM     39  N   UNL     1       2.960  10.526  -4.724  1.00  0.00    -0.248 NA
ATOM     40  C   UNL     1       3.450   8.426  -5.615  1.00  0.00     0.031 C 
ATOM     41  C   UNL     1      -0.545   8.782  -2.571  1.00  0.00     0.029 A 
ATOM     42  N   UNL     1       0.596  10.657  -2.997  1.00  0.00    -0.354 N 
ATOM     43  C   UNL     1       4.142  10.600  -5.451  1.00  0.00     0.074 A 
ATOM     44  C   UNL     1       4.428   9.264  -5.929  1.00  0.00     0.031 C 
ATOM     45  C   UNL     1      -1.113   9.769  -1.859  1.00  0.00     0.029 A 
ATOM     46  C   UNL     1      -0.380  11.009  -2.094  1.00  0.00     0.049 A 
ATOM     47  H   UNL     1       1.244  11.299  -3.368  1.00  0.00     0.167 HD
ATOM     48  C   UNL     1       4.904  11.684  -5.727  1.00  0.00     0.034 A 
ATOM     49  C   UNL     1      -0.653  12.197  -1.518  1.00  0.00     0.034 A 
ATOM     50  C   UNL     1       4.588  13.021  -5.302  1.00  0.00     0.049 A 
ATOM     51  C   UNL     1       0.174  13.399  -1.889  1.00  0.00     0.074 A 
ATOM     52  C   UNL     1       5.240  14.200  -5.615  1.00  0.00     0.029 A 
ATOM     53  N   UNL     1       3.529  13.356  -4.472  1.00  0.00    -0.354 N 
ATOM     54  N   UNL     1       1.186  13.479  -2.718  1.00  0.00    -0.248 NA
ATOM     55  C   UNL     1      -0.202  14.681  -1.275  1.00  0.00     0.031 C 
ATOM     56  C   UNL     1       4.582  15.249  -4.964  1.00  0.00     0.029 A 
ATOM     57  C   UNL     1       3.512  14.724  -4.258  1.00  0.00     0.049 A 
ATOM     58  H   UNL     1       2.885  12.717  -4.092  1.00  0.00     0.167 HD
ATOM     59  C   UNL     1       1.546  14.821  -2.752  1.00  0.00     0.074 A 
ATOM     60  C   UNL     1       0.629  15.522  -1.877  1.00  0.00     0.031 C 
ATOM     61  C   UNL     1       2.556  15.417  -3.433  1.00  0.00     0.034 A 
BRANCH  48  62
ATOM     62  C   UNL     1       6.123  11.480  -6.587  1.00  0.00     0.023 A 
ATOM     63  C   UNL     1       5.961  11.219  -7.963  1.00  0.00     0.012 A 
ATOM     64  C   UNL     1       7.421  11.599  -6.054  1.00  0.00     0.148 A 
ATOM     65  C   UNL     1       7.070  11.045  -8.790  1.00  0.00     0.002 A 
ATOM     66  C   UNL     1       8.523  11.465  -6.893  1.00  0.00     0.091 A 
ATOM     67  F   UNL     1       7.557  11.825  -4.740  1.00  0.00    -0.205 F 
ATOM     68  C   UNL     1       8.349  11.178  -8.257  1.00  0.00     0.022 A 
BRANCH  66  69
ATOM     69  S   UNL     1      10.210  11.693  -6.318  1.00  0.00     0.127 S 
ATOM     70  O   UNL     1      10.705  10.317  -6.304  1.00  0.00    -0.237 OA
ATOM     71  O   UNL     1      10.783  12.536  -7.367  1.00  0.00    -0.237 OA
ATOM     72  O   UNL     1      10.104  12.335  -5.016  1.00  0.00    -0.744 OA
ENDBRANCH  66  69
ENDBRANCH  48  62
BRANCH  49  73
ATOM     73  C   UNL     1      -1.814  12.325  -0.590  1.00  0.00     0.023 A 
ATOM     74  C   UNL     1      -2.956  13.032  -1.013  1.00  0.00     0.012 A 
ATOM     75  C   UNL     1      -1.808  11.731   0.686  1.00  0.00     0.148 A 
ATOM     76  C   UNL     1      -4.060  13.172  -0.171  1.00  0.00     0.002 A 
ATOM     77  C   UNL     1      -2.932  11.829   1.500  1.00  0.00     0.091 A 
ATOM     78  F   UNL     1      -0.707  11.074   1.077  1.00  0.00    -0.205 F 
ATOM     79  C   UNL     1      -4.052  12.562   1.080  1.00  0.00     0.022 A 
BRANCH  77  80
ATOM     80  S   UNL     1      -3.058  10.965   3.070  1.00  0.00     0.127 S 
ATOM     81  O   UNL     1      -2.909  12.058   4.027  1.00  0.00    -0.237 OA
ATOM     82  O   UNL     1      -4.401  10.389   2.995  1.00  0.00    -0.237 OA
ATOM     83  O   UNL     1      -1.985   9.979   3.059  1.00  0.00    -0.744 OA
ENDBRANCH  77  80
ENDBRANCH  49  73
BRANCH  61  84
ATOM     84  C   UNL     1       2.715  16.907  -3.289  1.00  0.00     0.023 A 
ATOM     85  C   UNL     1       3.240  17.440  -2.095  1.00  0.00     0.012 A 
ATOM     86  C   UNL     1       2.425  17.770  -4.364  1.00  0.00     0.148 A 
ATOM     87  C   UNL     1       3.449  18.812  -1.964  1.00  0.00     0.002 A 
ATOM     88  C   UNL     1       2.679  19.132  -4.242  1.00  0.00     0.091 A 
ATOM     89  F   UNL     1       1.907  17.246  -5.484  1.00  0.00    -0.205 F 
ATOM     90  C   UNL     1       3.181  19.655  -3.039  1.00  0.00     0.022 A 
BRANCH  88  91
ATOM     91  S   UNL     1       2.452  20.277  -5.608  1.00  0.00     0.127 S 
ATOM     92  O   UNL     1       1.229  20.974  -5.213  1.00  0.00    -0.237 OA
ATOM     93  O   UNL     1       3.667  21.090  -5.538  1.00  0.00    -0.237 OA
ATOM     94  O   UNL     1       2.346  19.454  -6.805  1.00  0.00    -0.744 OA
ENDBRANCH  88  91
ENDBRANCH  61  84
ENDBRANCH  35  36
ENDBRANCH  27  30
ENDBRANCH  25  26
ENDBRANCH  24  25
ENDBRANCH   1  24
TORSDOF 18
