REMARK SMILES CCC[C@@H](CNc1cc(C)c([N+](=O)[O-])cn1)C(=O)NCCCCNC(=O)c1ccc(-c2c3nc(c(-c4cccc(S(=O)(=O)[O-])c4F)c4ccc([nH]4)c(-c4cccc(S(=O)(=O)[O-])c4F)c4nc(c(-c5cccc(S(=O)(=O)[O-])c5F)c5ccc2[nH]5)C=C4)C=C3)cc1
REMARK SMILES IDX 21 1 20 2 19 3 17 4 18 5 4 7 3 8 2 9 1 10 5 11 6 12 7 14
REMARK SMILES IDX 8 15 16 16 9 17 15 18 10 19 11 20 12 21 13 22 14 23 22 24
REMARK SMILES IDX 23 25 24 26 25 27 26 29 27 30 28 31 89 32 29 33 88 34 30 35
REMARK SMILES IDX 31 36 32 37 82 38 33 39 87 40 81 41 83 42 34 43 86 44 80 45
REMARK SMILES IDX 79 46 35 48 67 49 47 50 66 51 48 52 51 53 65 54 84 55 49 56
REMARK SMILES IDX 50 57 64 59 85 60 52 61 36 62 37 63 45 64 38 65 40 66 46 67
REMARK SMILES IDX 39 68 41 69 42 70 43 71 44 72 68 73 69 74 77 75 70 76 72 77
REMARK SMILES IDX 78 78 71 79 73 80 74 81 75 82 76 83 53 84 54 85 62 86 55 87
REMARK SMILES IDX 57 88 63 89 56 90 58 91 59 92 60 93 61 94
REMARK H PARENT 19 6 6 13 24 28 83 47 51 58
REMARK Flexibility Score: inf
ROOT
ATOM      1  C   UNL     1       1.268   6.080  -1.604  1.00  0.00     0.023 C 
ENDROOT
BRANCH   1   2
ATOM      2  C   UNL     1       0.338   5.050  -2.231  1.00  0.00     0.116 C 
BRANCH   2   3
ATOM      3  N   UNL     1       1.009   4.125  -3.117  1.00  0.00    -0.356 N 
ATOM      4  C   UNL     1       0.914   2.775  -3.231  1.00  0.00     0.224 C 
ATOM      5  O   UNL     1       1.377   2.263  -4.256  1.00  0.00    -0.275 OA
ATOM      6  H   UNL     1       1.642   4.545  -3.744  1.00  0.00     0.163 HD
BRANCH   4   7
ATOM      7  C   UNL     1       0.277   1.869  -2.174  1.00  0.00     0.097 C 
BRANCH   7   8
ATOM      8  C   UNL     1       0.761   2.113  -0.735  1.00  0.00     0.015 C 
BRANCH   8   9
ATOM      9  C   UNL     1       0.356   1.052   0.294  1.00  0.00    -0.003 C 
ATOM     10  C   UNL     1       0.902  -0.336   0.005  1.00  0.00     0.004 C 
ENDBRANCH   8   9
ENDBRANCH   7   8
BRANCH   7  11
ATOM     11  C   UNL     1      -1.226   1.644  -2.415  1.00  0.00     0.127 C 
BRANCH  11  12
ATOM     12  N   UNL     1      -2.091   2.751  -2.037  1.00  0.00    -0.369 N 
ATOM     13  H   UNL     1      -2.133   3.046  -1.098  1.00  0.00     0.162 HD
BRANCH  12  14
ATOM     14  C   UNL     1      -2.853   3.388  -2.995  1.00  0.00     0.126 A 
ATOM     15  C   UNL     1      -3.639   2.697  -3.915  1.00  0.00     0.057 A 
ATOM     16  N   UNL     1      -2.782   4.729  -3.000  1.00  0.00    -0.232 NA
ATOM     17  C   UNL     1      -4.347   3.384  -4.918  1.00  0.00     0.032 A 
ATOM     18  C   UNL     1      -3.410   5.395  -4.004  1.00  0.00     0.199 A 
ATOM     19  C   UNL     1      -5.222   2.592  -5.848  1.00  0.00     0.052 C 
ATOM     20  C   UNL     1      -4.182   4.775  -4.978  1.00  0.00     0.290 A 
BRANCH  20  21
ATOM     21  N   UNL     1      -4.764   5.621  -6.016  1.00  0.00     0.064 N 
ATOM     22  O   UNL     1      -4.203   6.702  -6.244  1.00  0.00    -0.258 OA
ATOM     23  O   UNL     1      -5.785   5.225  -6.593  1.00  0.00    -0.258 OA
ENDBRANCH  20  21
ENDBRANCH  12  14
ENDBRANCH  11  12
ENDBRANCH   7  11
ENDBRANCH   4   7
ENDBRANCH   2   3
ENDBRANCH   1   2
BRANCH   1  24
ATOM     24  C   UNL     1       1.642   7.243  -2.522  1.00  0.00     0.023 C 
BRANCH  24  25
ATOM     25  C   UNL     1       0.477   7.943  -3.218  1.00  0.00     0.116 C 
BRANCH  25  26
ATOM     26  N   UNL     1      -0.590   8.367  -2.317  1.00  0.00    -0.352 N 
ATOM     27  C   UNL     1      -1.366   9.502  -2.410  1.00  0.00     0.251 C 
ATOM     28  H   UNL     1      -0.777   7.774  -1.554  1.00  0.00     0.163 HD
ATOM     29  O   UNL     1      -2.205   9.775  -1.563  1.00  0.00    -0.269 OA
BRANCH  27  30
ATOM     30  C   UNL     1      -1.125  10.403  -3.552  1.00  0.00     0.039 A 
ATOM     31  C   UNL     1      -0.644  11.692  -3.310  1.00  0.00     0.014 A 
ATOM     32  C   UNL     1      -1.233   9.905  -4.852  1.00  0.00     0.014 A 
ATOM     33  C   UNL     1      -0.178  12.457  -4.380  1.00  0.00     0.010 A 
ATOM     34  C   UNL     1      -0.712  10.645  -5.905  1.00  0.00     0.010 A 
ATOM     35  C   UNL     1      -0.162  11.918  -5.676  1.00  0.00    -0.014 A 
BRANCH  35  36
ATOM     36  C   UNL     1       0.462  12.632  -6.818  1.00  0.00     0.031 A 
ATOM     37  C   UNL     1      -0.383  13.027  -7.995  1.00  0.00     0.074 A 
ATOM     38  C   UNL     1       1.801  12.785  -6.859  1.00  0.00     0.049 A 
ATOM     39  N   UNL     1      -0.011  13.491  -9.158  1.00  0.00    -0.248 NA
ATOM     40  C   UNL     1      -1.837  12.842  -7.856  1.00  0.00     0.031 C 
ATOM     41  C   UNL     1       2.735  12.372  -5.808  1.00  0.00     0.029 A 
ATOM     42  N   UNL     1       2.614  13.289  -7.843  1.00  0.00    -0.354 N 
ATOM     43  C   UNL     1      -1.174  13.600  -9.908  1.00  0.00     0.074 A 
ATOM     44  C   UNL     1      -2.263  13.141  -9.075  1.00  0.00     0.031 C 
ATOM     45  C   UNL     1       3.991  12.630  -6.208  1.00  0.00     0.029 A 
ATOM     46  C   UNL     1       3.956  13.195  -7.553  1.00  0.00     0.049 A 
ATOM     47  H   UNL     1       2.270  13.681  -8.678  1.00  0.00     0.167 HD
ATOM     48  C   UNL     1      -1.325  14.066 -11.170  1.00  0.00     0.034 A 
ATOM     49  C   UNL     1       5.036  13.515  -8.293  1.00  0.00     0.034 A 
ATOM     50  C   UNL     1      -0.250  14.586 -11.968  1.00  0.00     0.049 A 
ATOM     51  C   UNL     1       4.834  14.094  -9.668  1.00  0.00     0.074 A 
ATOM     52  C   UNL     1      -0.314  15.171 -13.220  1.00  0.00     0.029 A 
ATOM     53  N   UNL     1       1.083  14.592 -11.589  1.00  0.00    -0.354 N 
ATOM     54  N   UNL     1       3.713  14.332 -10.304  1.00  0.00    -0.248 NA
ATOM     55  C   UNL     1       6.041  14.477 -10.417  1.00  0.00     0.031 C 
ATOM     56  C   UNL     1       0.983  15.532 -13.598  1.00  0.00     0.029 A 
ATOM     57  C   UNL     1       1.853  15.174 -12.580  1.00  0.00     0.049 A 
ATOM     58  H   UNL     1       1.431  14.234 -10.740  1.00  0.00     0.167 HD
ATOM     59  C   UNL     1       4.075  14.924 -11.508  1.00  0.00     0.074 A 
ATOM     60  C   UNL     1       5.520  15.022 -11.509  1.00  0.00     0.031 C 
ATOM     61  C   UNL     1       3.283  15.333 -12.529  1.00  0.00     0.034 A 
BRANCH  48  62
ATOM     62  C   UNL     1      -2.717  14.100 -11.737  1.00  0.00     0.023 A 
ATOM     63  C   UNL     1      -3.622  15.079 -11.279  1.00  0.00     0.012 A 
ATOM     64  C   UNL     1      -3.116  13.206 -12.749  1.00  0.00     0.148 A 
ATOM     65  C   UNL     1      -4.914  15.149 -11.798  1.00  0.00     0.002 A 
ATOM     66  C   UNL     1      -4.394  13.308 -13.289  1.00  0.00     0.091 A 
ATOM     67  F   UNL     1      -2.251  12.265 -13.152  1.00  0.00    -0.205 F 
ATOM     68  C   UNL     1      -5.296  14.271 -12.808  1.00  0.00     0.022 A 
BRANCH  66  69
ATOM     69  S   UNL     1      -4.949  12.269 -14.646  1.00  0.00     0.127 S 
ATOM     70  O   UNL     1      -5.798  11.303 -13.952  1.00  0.00    -0.237 OA
ATOM     71  O   UNL     1      -5.673  13.220 -15.491  1.00  0.00    -0.237 OA
ATOM     72  O   UNL     1      -3.739  11.728 -15.250  1.00  0.00    -0.744 OA
ENDBRANCH  66  69
ENDBRANCH  48  62
BRANCH  49  73
ATOM     73  C   UNL     1       6.403  13.371  -7.717  1.00  0.00     0.023 A 
ATOM     74  C   UNL     1       7.117  14.530  -7.357  1.00  0.00     0.012 A 
ATOM     75  C   UNL     1       6.983  12.109  -7.486  1.00  0.00     0.148 A 
ATOM     76  C   UNL     1       8.394  14.438  -6.802  1.00  0.00     0.002 A 
ATOM     77  C   UNL     1       8.236  12.022  -6.886  1.00  0.00     0.091 A 
ATOM     78  F   UNL     1       6.298  11.016  -7.850  1.00  0.00    -0.205 F 
ATOM     79  C   UNL     1       8.949  13.185  -6.556  1.00  0.00     0.022 A 
BRANCH  77  80
ATOM     80  S   UNL     1       8.962  10.446  -6.418  1.00  0.00     0.127 S 
ATOM     81  O   UNL     1       9.934  10.234  -7.486  1.00  0.00    -0.237 OA
ATOM     82  O   UNL     1       9.542  10.750  -5.109  1.00  0.00    -0.237 OA
ATOM     83  O   UNL     1       7.847   9.509  -6.370  1.00  0.00    -0.744 OA
ENDBRANCH  77  80
ENDBRANCH  49  73
BRANCH  61  84
ATOM     84  C   UNL     1       3.944  15.963 -13.724  1.00  0.00     0.023 A 
ATOM     85  C   UNL     1       4.584  15.145 -14.674  1.00  0.00     0.012 A 
ATOM     86  C   UNL     1       3.829  17.347 -13.962  1.00  0.00     0.148 A 
ATOM     87  C   UNL     1       5.113  15.697 -15.839  1.00  0.00     0.002 A 
ATOM     88  C   UNL     1       4.324  17.884 -15.144  1.00  0.00     0.091 A 
ATOM     89  F   UNL     1       3.232  18.109 -13.034  1.00  0.00    -0.205 F 
ATOM     90  C   UNL     1       4.972  17.061 -16.081  1.00  0.00     0.022 A 
BRANCH  88  91
ATOM     91  S   UNL     1       4.107  19.614 -15.579  1.00  0.00     0.127 S 
ATOM     92  O   UNL     1       5.453  20.145 -15.370  1.00  0.00    -0.237 OA
ATOM     93  O   UNL     1       3.693  19.535 -16.980  1.00  0.00    -0.237 OA
ATOM     94  O   UNL     1       3.084  20.127 -14.677  1.00  0.00    -0.744 OA
ENDBRANCH  88  91
ENDBRANCH  61  84
ENDBRANCH  35  36
ENDBRANCH  27  30
ENDBRANCH  25  26
ENDBRANCH  24  25
ENDBRANCH   1  24
TORSDOF 20
