REMARK SMILES COc1cc([C@@H]2CC(=O)Nc3c(C(=O)NCCCCNC(=O)c4ccc(-c5c6nc(c(-c7cccc(S(=O)(=O)[O-])c7F)c7ccc([nH]7)c(-c7cccc(S(=O)(=O)[O-])c7F)c7nc(c(-c8cccc(S(=O)(=O)[O-])c8F)c8ccc5[nH]8)C=C7)C=C6)cc4)cn(-c4ccc(F)cc4)c32)c(OC)c2c1OCO2
REMARK SMILES IDX 18 1 17 2 16 3 15 4 13 5 14 6 12 8 6 9 7 10 95 11 8 12 11 13
REMARK SMILES IDX 87 14 9 15 10 16 86 17 5 19 3 20 4 21 100 22 99 23 101 24
REMARK SMILES IDX 96 25 103 26 102 27 2 28 1 29 97 30 98 31 88 32 89 33 94 34
REMARK SMILES IDX 90 35 93 36 91 37 92 38 19 39 20 40 21 41 22 43 23 44 24 45
REMARK SMILES IDX 85 46 25 47 84 48 26 49 27 50 28 51 78 52 29 53 83 54 77 55
REMARK SMILES IDX 79 56 30 57 82 58 76 59 75 60 31 62 63 63 43 64 62 65 44 66
REMARK SMILES IDX 47 67 61 68 80 69 45 70 46 71 60 73 81 74 48 75 32 76 33 77
REMARK SMILES IDX 41 78 34 79 36 80 42 81 35 82 37 83 38 84 39 85 40 86 64 87
REMARK SMILES IDX 65 88 73 89 66 90 68 91 74 92 67 93 69 94 70 95 71 96 72 97
REMARK SMILES IDX 49 98 50 99 58 100 51 101 53 102 59 103 52 104 54 105 55 106
REMARK SMILES IDX 56 107 57 108
REMARK H PARENT 15 7 10 18 20 42 79 61 47 72
REMARK Flexibility Score: inf
ROOT
ATOM      1  C   UNL     1       0.197  -4.225  12.326  1.00  0.00     0.023 C 
ENDROOT
BRANCH   1   2
ATOM      2  C   UNL     1       0.298  -3.781  10.864  1.00  0.00     0.023 C 
BRANCH   2   3
ATOM      3  C   UNL     1       0.983  -4.768   9.900  1.00  0.00     0.116 C 
BRANCH   3   4
ATOM      4  N   UNL     1       0.034  -5.718   9.377  1.00  0.00    -0.352 N 
ATOM      5  C   UNL     1      -0.870  -5.684   8.349  1.00  0.00     0.254 C 
ATOM      6  O   UNL     1      -1.594  -6.681   8.261  1.00  0.00    -0.269 OA
ATOM      7  H   UNL     1       0.036  -6.574   9.863  1.00  0.00     0.163 HD
BRANCH   5   8
ATOM      8  C   UNL     1      -1.022  -4.583   7.382  1.00  0.00     0.081 A 
ATOM      9  C   UNL     1      -0.803  -1.348   5.519  1.00  0.00     0.082 C 
ATOM     10  C   UNL     1      -0.650  -0.396   6.707  1.00  0.00     0.115 C 
ATOM     11  C   UNL     1      -1.040  -2.746   6.014  1.00  0.00     0.055 A 
ATOM     12  C   UNL     1       0.153  -0.987   7.839  1.00  0.00     0.225 C 
ATOM     13  C   UNL     1      -0.652  -3.208   7.258  1.00  0.00     0.076 A 
ATOM     14  N   UNL     1      -1.748  -3.743   5.385  1.00  0.00    -0.317 N 
ATOM     15  O   UNL     1       0.813  -0.282   8.602  1.00  0.00    -0.275 OA
ATOM     16  N   UNL     1      -0.002  -2.324   8.088  1.00  0.00    -0.324 N 
ATOM     17  C   UNL     1      -1.778  -4.822   6.229  1.00  0.00     0.107 A 
ATOM     18  H   UNL     1       0.380  -2.679   8.923  1.00  0.00     0.170 HD
BRANCH   9  19
ATOM     19  C   UNL     1       0.354  -1.182   4.530  1.00  0.00     0.012 A 
ATOM     20  C   UNL     1       1.024  -0.254   2.353  1.00  0.00     0.165 A 
ATOM     21  C   UNL     1       0.083  -0.412   3.369  1.00  0.00     0.059 A 
ATOM     22  C   UNL     1       2.269  -0.820   2.543  1.00  0.00     0.211 A 
ATOM     23  C   UNL     1       2.574  -1.530   3.691  1.00  0.00     0.211 A 
ATOM     24  O   UNL     1       3.333  -0.734   1.694  1.00  0.00    -0.449 OA
ATOM     25  C   UNL     1       1.647  -1.731   4.705  1.00  0.00     0.168 A 
ATOM     26  O   UNL     1       3.866  -1.969   3.673  1.00  0.00    -0.449 OA
ATOM     27  C   UNL     1       4.345  -1.435   2.436  1.00  0.00     0.468 C 
BRANCH  20  28
ATOM     28  O   UNL     1       0.620   0.492   1.285  1.00  0.00    -0.493 OA
ATOM     29  C   UNL     1       1.040  -0.020   0.025  1.00  0.00     0.278 C 
ENDBRANCH  20  28
BRANCH  25  30
ATOM     30  O   UNL     1       1.871  -2.399   5.869  1.00  0.00    -0.492 OA
ATOM     31  C   UNL     1       3.153  -2.953   6.133  1.00  0.00     0.278 C 
ENDBRANCH  25  30
ENDBRANCH   9  19
BRANCH  14  32
ATOM     32  C   UNL     1      -2.447  -3.649   4.160  1.00  0.00     0.046 A 
ATOM     33  C   UNL     1      -1.785  -3.212   3.010  1.00  0.00     0.029 A 
ATOM     34  C   UNL     1      -3.817  -3.933   4.129  1.00  0.00     0.029 A 
ATOM     35  C   UNL     1      -2.509  -2.968   1.844  1.00  0.00     0.041 A 
ATOM     36  C   UNL     1      -4.538  -3.681   2.960  1.00  0.00     0.041 A 
ATOM     37  C   UNL     1      -3.881  -3.185   1.837  1.00  0.00     0.123 A 
ATOM     38  F   UNL     1      -4.584  -2.912   0.729  1.00  0.00    -0.207 F 
ENDBRANCH  14  32
ENDBRANCH   5   8
ENDBRANCH   3   4
ENDBRANCH   2   3
ENDBRANCH   1   2
BRANCH   1  39
ATOM     39  C   UNL     1       1.514  -4.144  13.092  1.00  0.00     0.116 C 
BRANCH  39  40
ATOM     40  N   UNL     1       2.053  -2.773  13.185  1.00  0.00    -0.352 N 
ATOM     41  C   UNL     1       3.349  -2.364  13.487  1.00  0.00     0.251 C 
ATOM     42  H   UNL     1       1.409  -2.050  13.009  1.00  0.00     0.163 HD
ATOM     43  O   UNL     1       3.584  -1.257  13.935  1.00  0.00    -0.269 OA
BRANCH  41  44
ATOM     44  C   UNL     1       4.443  -3.308  13.196  1.00  0.00     0.039 A 
ATOM     45  C   UNL     1       5.566  -3.490  14.012  1.00  0.00     0.014 A 
ATOM     46  C   UNL     1       4.248  -4.087  12.068  1.00  0.00     0.014 A 
ATOM     47  C   UNL     1       6.469  -4.497  13.669  1.00  0.00     0.010 A 
ATOM     48  C   UNL     1       4.912  -5.264  11.974  1.00  0.00     0.010 A 
ATOM     49  C   UNL     1       6.122  -5.369  12.631  1.00  0.00    -0.014 A 
BRANCH  49  50
ATOM     50  C   UNL     1       6.946  -6.459  12.153  1.00  0.00     0.031 A 
ATOM     51  C   UNL     1       7.073  -7.581  13.106  1.00  0.00     0.074 A 
ATOM     52  C   UNL     1       7.261  -6.555  10.840  1.00  0.00     0.049 A 
ATOM     53  N   UNL     1       8.122  -7.903  13.781  1.00  0.00    -0.248 NA
ATOM     54  C   UNL     1       5.860  -8.315  13.498  1.00  0.00     0.031 C 
ATOM     55  C   UNL     1       6.855  -5.676   9.728  1.00  0.00     0.029 A 
ATOM     56  N   UNL     1       7.885  -7.568  10.192  1.00  0.00    -0.354 N 
ATOM     57  C   UNL     1       7.765  -9.041  14.495  1.00  0.00     0.074 A 
ATOM     58  C   UNL     1       6.328  -9.080  14.487  1.00  0.00     0.031 C 
ATOM     59  C   UNL     1       7.037  -6.319   8.552  1.00  0.00     0.029 A 
ATOM     60  C   UNL     1       7.704  -7.580   8.812  1.00  0.00     0.049 A 
ATOM     61  H   UNL     1       8.426  -8.244  10.661  1.00  0.00     0.167 HD
ATOM     62  C   UNL     1       8.685 -10.000  14.795  1.00  0.00     0.034 A 
ATOM     63  C   UNL     1       8.031  -8.591   7.967  1.00  0.00     0.034 A 
ATOM     64  C   UNL     1      10.019  -9.546  14.472  1.00  0.00     0.049 A 
ATOM     65  C   UNL     1       9.032  -9.430   8.672  1.00  0.00     0.074 A 
ATOM     66  C   UNL     1      10.805  -8.486  14.877  1.00  0.00     0.029 A 
ATOM     67  N   UNL     1      10.539  -9.970  13.269  1.00  0.00    -0.354 N 
ATOM     68  N   UNL     1      10.219  -8.993   8.995  1.00  0.00    -0.248 NA
ATOM     69  C   UNL     1       8.545 -10.553   9.457  1.00  0.00     0.031 C 
ATOM     70  C   UNL     1      11.430  -8.022  13.683  1.00  0.00     0.029 A 
ATOM     71  C   UNL     1      11.074  -8.877  12.637  1.00  0.00     0.049 A 
ATOM     72  H   UNL     1      10.528 -10.892  12.925  1.00  0.00     0.167 HD
ATOM     73  C   UNL     1      10.409  -9.446  10.295  1.00  0.00     0.074 A 
ATOM     74  C   UNL     1       9.400 -10.491  10.485  1.00  0.00     0.031 C 
ATOM     75  C   UNL     1      11.140  -8.724  11.197  1.00  0.00     0.034 A 
BRANCH  62  76
ATOM     76  C   UNL     1       8.401 -11.461  15.038  1.00  0.00     0.023 A 
ATOM     77  C   UNL     1       9.470 -12.246  15.526  1.00  0.00     0.012 A 
ATOM     78  C   UNL     1       7.250 -12.153  14.599  1.00  0.00     0.148 A 
ATOM     79  C   UNL     1       9.418 -13.643  15.528  1.00  0.00     0.002 A 
ATOM     80  C   UNL     1       7.171 -13.540  14.675  1.00  0.00     0.091 A 
ATOM     81  F   UNL     1       6.267 -11.496  13.979  1.00  0.00    -0.205 F 
ATOM     82  C   UNL     1       8.264 -14.291  15.109  1.00  0.00     0.022 A 
BRANCH  80  83
ATOM     83  S   UNL     1       5.686 -14.428  14.187  1.00  0.00     0.127 S 
ATOM     84  O   UNL     1       6.109 -15.037  12.930  1.00  0.00    -0.237 OA
ATOM     85  O   UNL     1       5.515 -15.360  15.302  1.00  0.00    -0.237 OA
ATOM     86  O   UNL     1       4.639 -13.418  14.088  1.00  0.00    -0.744 OA
ENDBRANCH  80  83
ENDBRANCH  62  76
BRANCH  63  87
ATOM     87  C   UNL     1       7.344  -9.039   6.730  1.00  0.00     0.023 A 
ATOM     88  C   UNL     1       8.012  -9.856   5.796  1.00  0.00     0.012 A 
ATOM     89  C   UNL     1       5.945  -8.894   6.598  1.00  0.00     0.148 A 
ATOM     90  C   UNL     1       7.307 -10.525   4.784  1.00  0.00     0.002 A 
ATOM     91  C   UNL     1       5.250  -9.554   5.590  1.00  0.00     0.091 A 
ATOM     92  F   UNL     1       5.281  -8.188   7.523  1.00  0.00    -0.205 F 
ATOM     93  C   UNL     1       5.925 -10.381   4.685  1.00  0.00     0.022 A 
BRANCH  91  94
ATOM     94  S   UNL     1       3.463  -9.428   5.433  1.00  0.00     0.127 S 
ATOM     95  O   UNL     1       3.301  -9.176   4.001  1.00  0.00    -0.237 OA
ATOM     96  O   UNL     1       3.031 -10.750   5.879  1.00  0.00    -0.237 OA
ATOM     97  O   UNL     1       3.073  -8.311   6.286  1.00  0.00    -0.744 OA
ENDBRANCH  91  94
ENDBRANCH  63  87
BRANCH  75  98
ATOM     98  C   UNL     1      11.889  -7.508  10.694  1.00  0.00     0.023 A 
ATOM     99  C   UNL     1      11.233  -6.377  10.161  1.00  0.00     0.012 A 
ATOM    100  C   UNL     1      13.266  -7.423  10.950  1.00  0.00     0.148 A 
ATOM    101  C   UNL     1      11.931  -5.200   9.875  1.00  0.00     0.002 A 
ATOM    102  C   UNL     1      13.950  -6.237  10.711  1.00  0.00     0.091 A 
ATOM    103  F   UNL     1      13.881  -8.500  11.463  1.00  0.00    -0.205 F 
ATOM    104  C   UNL     1      13.290  -5.125  10.164  1.00  0.00     0.022 A 
BRANCH 102 105
ATOM    105  S   UNL     1      15.666  -6.037  11.191  1.00  0.00     0.127 S 
ATOM    106  O   UNL     1      16.353  -6.121   9.904  1.00  0.00    -0.237 OA
ATOM    107  O   UNL     1      15.670  -4.706  11.801  1.00  0.00    -0.237 OA
ATOM    108  O   UNL     1      15.948  -7.118  12.127  1.00  0.00    -0.744 OA
ENDBRANCH 102 105
ENDBRANCH  75  98
ENDBRANCH  49  50
ENDBRANCH  41  44
ENDBRANCH  39  40
ENDBRANCH   1  39
TORSDOF 18
