REMARK SMILES CSc1ccc(Cl)c(C(=O)N[C@@H](CO)C(=O)NCCCCNC(=O)c2ccc(-c3c4nc(c(-c5cccc(S(=O)(=O)[O-])c5F)c5ccc([nH]5)c(-c5cccc(S(=O)(=O)[O-])c5F)c5nc(c(-c6cccc(S(=O)(=O)[O-])c6F)c6ccc3[nH]6)C=C5)C=C4)cc2)c1
REMARK SMILES IDX 19 1 18 2 17 3 15 4 16 5 12 7 11 8 9 9 10 10 8 12 3 13 4 14
REMARK SMILES IDX 88 15 5 16 6 17 7 18 2 19 1 20 13 21 14 22 20 24 21 25 22 26
REMARK SMILES IDX 23 27 24 29 25 30 26 31 87 32 27 33 86 34 28 35 29 36 30 37
REMARK SMILES IDX 80 38 31 39 85 40 79 41 81 42 32 43 84 44 78 45 77 46 33 48
REMARK SMILES IDX 65 49 45 50 64 51 46 52 49 53 63 54 82 55 47 56 48 57 62 59
REMARK SMILES IDX 83 60 50 61 34 62 35 63 43 64 36 65 38 66 44 67 37 68 39 69
REMARK SMILES IDX 40 70 41 71 42 72 66 73 67 74 75 75 68 76 70 77 76 78 69 79
REMARK SMILES IDX 71 80 72 81 73 82 74 83 51 84 52 85 60 86 53 87 55 88 61 89
REMARK SMILES IDX 54 90 56 91 57 92 58 93 59 94
REMARK H PARENT 17 6 11 11 14 23 22 28 81 47 49 58
REMARK Flexibility Score: inf
ROOT
ATOM      1  C   UNL     1      -0.252  10.014   5.627  1.00  0.00     0.023 C 
ENDROOT
BRANCH   1   2
ATOM      2  C   UNL     1       0.859   9.050   6.031  1.00  0.00     0.116 C 
BRANCH   2   3
ATOM      3  N   UNL     1       0.341   7.840   6.638  1.00  0.00    -0.354 N 
ATOM      4  C   UNL     1       0.712   6.540   6.515  1.00  0.00     0.244 C 
ATOM      5  O   UNL     1       0.202   5.744   7.312  1.00  0.00    -0.273 OA
ATOM      6  H   UNL     1      -0.416   7.988   7.249  1.00  0.00     0.163 HD
BRANCH   4   7
ATOM      7  C   UNL     1       1.794   6.037   5.537  1.00  0.00     0.197 C 
BRANCH   7   8
ATOM      8  N   UNL     1       1.591   6.340   4.116  1.00  0.00    -0.338 N 
ATOM      9  C   UNL     1       1.581   5.596   2.966  1.00  0.00     0.253 C 
ATOM     10  O   UNL     1       1.504   6.245   1.918  1.00  0.00    -0.269 OA
ATOM     11  H   UNL     1       1.424   7.296   3.951  1.00  0.00     0.164 HD
BRANCH   9  12
ATOM     12  C   UNL     1       1.546   4.104   2.859  1.00  0.00     0.059 A 
ATOM     13  C   UNL     1       0.657   2.252   1.474  1.00  0.00     0.008 A 
ATOM     14  C   UNL     1       1.225   1.335   2.349  1.00  0.00     0.016 A 
ATOM     15  C   UNL     1       0.776   3.621   1.769  1.00  0.00     0.030 A 
ATOM     16  C   UNL     1       2.019   1.782   3.401  1.00  0.00     0.022 A 
ATOM     17  C   UNL     1       2.245   3.153   3.607  1.00  0.00     0.053 A 
ATOM     18  Cl  UNL     1       3.579   3.484   4.643  1.00  0.00    -0.083 Cl
BRANCH  13  19
ATOM     19  S   UNL     1      -0.188   1.762  -0.023  1.00  0.00    -0.130 SA
ATOM     20  C   UNL     1       0.629   0.185  -0.424  1.00  0.00     0.091 C 
ENDBRANCH  13  19
ENDBRANCH   9  12
ENDBRANCH   7   8
BRANCH   7  21
ATOM     21  C   UNL     1       3.192   6.498   6.007  1.00  0.00     0.191 C 
BRANCH  21  22
ATOM     22  O   UNL     1       3.507   7.839   5.623  1.00  0.00    -0.394 OA
ATOM     23  H   UNL     1       3.516   7.905   4.655  1.00  0.00     0.210 HD
ENDBRANCH  21  22
ENDBRANCH   7  21
ENDBRANCH   4   7
ENDBRANCH   2   3
ENDBRANCH   1   2
BRANCH   1  24
ATOM     24  C   UNL     1      -1.142  10.507   6.768  1.00  0.00     0.023 C 
BRANCH  24  25
ATOM     25  C   UNL     1      -0.407  11.080   7.975  1.00  0.00     0.116 C 
BRANCH  25  26
ATOM     26  N   UNL     1       0.478  12.184   7.633  1.00  0.00    -0.352 N 
ATOM     27  C   UNL     1       0.558  13.434   8.199  1.00  0.00     0.251 C 
ATOM     28  H   UNL     1       1.106  12.012   6.894  1.00  0.00     0.163 HD
ATOM     29  O   UNL     1       1.284  14.293   7.706  1.00  0.00    -0.269 OA
BRANCH  27  30
ATOM     30  C   UNL     1      -0.261  13.743   9.388  1.00  0.00     0.039 A 
ATOM     31  C   UNL     1      -1.050  14.896   9.387  1.00  0.00     0.014 A 
ATOM     32  C   UNL     1      -0.284  12.871  10.480  1.00  0.00     0.014 A 
ATOM     33  C   UNL     1      -1.919  15.136  10.452  1.00  0.00     0.010 A 
ATOM     34  C   UNL     1      -1.206  13.072  11.501  1.00  0.00     0.010 A 
ATOM     35  C   UNL     1      -2.032  14.207  11.500  1.00  0.00    -0.014 A 
BRANCH  35  36
ATOM     36  C   UNL     1      -3.016  14.394  12.596  1.00  0.00     0.031 A 
ATOM     37  C   UNL     1      -2.544  14.557  14.015  1.00  0.00     0.074 A 
ATOM     38  C   UNL     1      -4.335  14.321  12.326  1.00  0.00     0.049 A 
ATOM     39  N   UNL     1      -3.250  14.674  15.110  1.00  0.00    -0.248 NA
ATOM     40  C   UNL     1      -1.089  14.558  14.238  1.00  0.00     0.031 C 
ATOM     41  C   UNL     1      -4.917  14.073  11.005  1.00  0.00     0.029 A 
ATOM     42  N   UNL     1      -5.425  14.419  13.154  1.00  0.00    -0.354 N 
ATOM     43  C   UNL     1      -2.330  14.721  16.150  1.00  0.00     0.074 A 
ATOM     44  C   UNL     1      -1.017  14.585  15.561  1.00  0.00     0.031 C 
ATOM     45  C   UNL     1      -6.255  14.044  11.111  1.00  0.00     0.029 A 
ATOM     46  C   UNL     1      -6.628  14.246  12.508  1.00  0.00     0.049 A 
ATOM     47  H   UNL     1      -5.354  14.596  14.120  1.00  0.00     0.167 HD
ATOM     48  C   UNL     1      -2.555  14.897  17.474  1.00  0.00     0.034 A 
ATOM     49  C   UNL     1      -7.887  14.251  12.987  1.00  0.00     0.034 A 
ATOM     50  C   UNL     1      -3.858  15.090  18.049  1.00  0.00     0.049 A 
ATOM     51  C   UNL     1      -8.110  14.513  14.452  1.00  0.00     0.074 A 
ATOM     52  C   UNL     1      -4.186  15.376  19.362  1.00  0.00     0.029 A 
ATOM     53  N   UNL     1      -5.051  15.014  17.346  1.00  0.00    -0.354 N 
ATOM     54  N   UNL     1      -7.224  14.728  15.395  1.00  0.00    -0.248 NA
ATOM     55  C   UNL     1      -9.504  14.572  14.913  1.00  0.00     0.031 C 
ATOM     56  C   UNL     1      -5.579  15.460  19.456  1.00  0.00     0.029 A 
ATOM     57  C   UNL     1      -6.117  15.243  18.198  1.00  0.00     0.049 A 
ATOM     58  H   UNL     1      -5.128  14.825  16.383  1.00  0.00     0.167 HD
ATOM     59  C   UNL     1      -7.952  14.983  16.551  1.00  0.00     0.074 A 
ATOM     60  C   UNL     1      -9.353  14.917  16.185  1.00  0.00     0.031 C 
ATOM     61  C   UNL     1      -7.504  15.232  17.806  1.00  0.00     0.034 A 
BRANCH  48  62
ATOM     62  C   UNL     1      -1.356  14.958  18.383  1.00  0.00     0.023 A 
ATOM     63  C   UNL     1      -0.512  16.087  18.342  1.00  0.00     0.012 A 
ATOM     64  C   UNL     1      -1.090  13.931  19.310  1.00  0.00     0.148 A 
ATOM     65  C   UNL     1       0.597  16.178  19.181  1.00  0.00     0.002 A 
ATOM     66  C   UNL     1      -0.007  14.049  20.174  1.00  0.00     0.091 A 
ATOM     67  F   UNL     1      -1.889  12.854  19.320  1.00  0.00    -0.205 F 
ATOM     68  C   UNL     1       0.843  15.165  20.103  1.00  0.00     0.022 A 
BRANCH  66  69
ATOM     69  S   UNL     1       0.349  12.835  21.450  1.00  0.00     0.127 S 
ATOM     70  O   UNL     1       1.536  12.176  20.907  1.00  0.00    -0.237 OA
ATOM     71  O   UNL     1       0.602  13.680  22.618  1.00  0.00    -0.237 OA
ATOM     72  O   UNL     1      -0.840  12.001  21.552  1.00  0.00    -0.744 OA
ENDBRANCH  66  69
ENDBRANCH  48  62
BRANCH  49  73
ATOM     73  C   UNL     1      -9.038  14.082  12.055  1.00  0.00     0.023 A 
ATOM     74  C   UNL     1      -9.864  15.189  11.775  1.00  0.00     0.012 A 
ATOM     75  C   UNL     1      -9.302  12.852  11.423  1.00  0.00     0.148 A 
ATOM     76  C   UNL     1     -10.949  15.066  10.906  1.00  0.00     0.002 A 
ATOM     77  C   UNL     1     -10.353  12.750  10.518  1.00  0.00     0.091 A 
ATOM     78  F   UNL     1      -8.513  11.807  11.712  1.00  0.00    -0.205 F 
ATOM     79  C   UNL     1     -11.188  13.851  10.271  1.00  0.00     0.022 A 
BRANCH  77  80
ATOM     80  S   UNL     1     -10.652  11.263   9.556  1.00  0.00     0.127 S 
ATOM     81  O   UNL     1     -11.856  10.733  10.190  1.00  0.00    -0.237 OA
ATOM     82  O   UNL     1     -10.851  11.805   8.211  1.00  0.00    -0.237 OA
ATOM     83  O   UNL     1      -9.449  10.455   9.702  1.00  0.00    -0.744 OA
ENDBRANCH  77  80
ENDBRANCH  49  73
BRANCH  61  84
ATOM     84  C   UNL     1      -8.530  15.485  18.878  1.00  0.00     0.023 A 
ATOM     85  C   UNL     1      -9.294  14.413  19.381  1.00  0.00     0.012 A 
ATOM     86  C   UNL     1      -8.682  16.767  19.442  1.00  0.00     0.148 A 
ATOM     87  C   UNL     1     -10.214  14.619  20.407  1.00  0.00     0.002 A 
ATOM     88  C   UNL     1      -9.567  16.955  20.497  1.00  0.00     0.091 A 
ATOM     89  F   UNL     1      -7.961  17.778  18.936  1.00  0.00    -0.205 F 
ATOM     90  C   UNL     1     -10.342  15.885  20.973  1.00  0.00     0.022 A 
BRANCH  88  91
ATOM     91  S   UNL     1      -9.725  18.529  21.348  1.00  0.00     0.127 S 
ATOM     92  O   UNL     1     -11.001  19.021  20.832  1.00  0.00    -0.237 OA
ATOM     93  O   UNL     1      -9.750  18.124  22.753  1.00  0.00    -0.237 OA
ATOM     94  O   UNL     1      -8.553  19.307  20.967  1.00  0.00    -0.744 OA
ENDBRANCH  88  91
ENDBRANCH  61  84
ENDBRANCH  35  36
ENDBRANCH  27  30
ENDBRANCH  25  26
ENDBRANCH  24  25
ENDBRANCH   1  24
TORSDOF 19
