REMARK SMILES CCN1C(=O)C[C@H](C(=O)Nc2cccc(C(=O)NCCCCNC(=O)c3ccc(-c4c5nc(c(-c6cccc(S(=O)(=O)[O-])c6F)c6ccc([nH]6)c(-c6cccc(S(=O)(=O)[O-])c6F)c6nc(c(-c7cccc(S(=O)(=O)[O-])c7F)c7ccc4[nH]7)C=C6)C=C5)cc3)c2)S/C1=[NH+]/c1cccc(C(F)(F)F)c1
REMARK SMILES IDX 20 1 19 2 18 3 16 4 17 5 15 7 11 8 12 9 89 10 13 11 14 12
REMARK SMILES IDX 10 13 8 14 9 15 7 17 3 18 4 19 91 20 5 21 6 22 90 23 92 24
REMARK SMILES IDX 2 26 1 27 93 28 94 29 102 30 95 31 97 32 96 33 98 34 99 35
REMARK SMILES IDX 100 36 101 37 21 38 22 39 23 40 24 41 25 43 26 44 27 45
REMARK SMILES IDX 88 46 28 47 87 48 29 49 30 50 31 51 81 52 32 53 86 54 80 55
REMARK SMILES IDX 82 56 33 57 85 58 79 59 78 60 34 62 66 63 46 64 65 65 47 66
REMARK SMILES IDX 50 67 64 68 83 69 48 70 49 71 63 73 84 74 51 75 35 76 36 77
REMARK SMILES IDX 44 78 37 79 39 80 45 81 38 82 40 83 41 84 42 85 43 86 67 87
REMARK SMILES IDX 68 88 76 89 69 90 71 91 77 92 70 93 72 94 73 95 74 96 75 97
REMARK SMILES IDX 52 98 53 99 61 100 54 101 56 102 62 103 55 104 57 105 58 106
REMARK SMILES IDX 59 107 60 108
REMARK H PARENT 18 6 10 16 92 25 23 42 82 61 50 72
REMARK Flexibility Score: inf
ROOT
ATOM      1  C   UNL     1       1.087  -9.343   1.104  1.00  0.00     0.023 C 
ENDROOT
BRANCH   1   2
ATOM      2  C   UNL     1       0.575  -8.320   0.093  1.00  0.00     0.116 C 
BRANCH   2   3
ATOM      3  N   UNL     1      -0.855  -8.442  -0.095  1.00  0.00    -0.352 N 
ATOM      4  C   UNL     1      -1.946  -7.873   0.511  1.00  0.00     0.251 C 
ATOM      5  O   UNL     1      -3.052  -8.229   0.102  1.00  0.00    -0.269 OA
ATOM      6  H   UNL     1      -1.097  -9.070  -0.813  1.00  0.00     0.163 HD
BRANCH   4   7
ATOM      7  C   UNL     1      -1.882  -6.816   1.567  1.00  0.00     0.041 A 
ATOM      8  C   UNL     1      -0.739  -5.321   3.092  1.00  0.00     0.041 A 
ATOM      9  C   UNL     1      -1.922  -4.624   3.333  1.00  0.00     0.026 A 
ATOM     10  C   UNL     1      -0.751  -6.483   2.318  1.00  0.00     0.040 A 
ATOM     11  C   UNL     1      -3.080  -4.987   2.655  1.00  0.00     0.003 A 
ATOM     12  C   UNL     1      -3.048  -6.051   1.753  1.00  0.00     0.014 A 
BRANCH   8  13
ATOM     13  N   UNL     1       0.438  -4.774   3.608  1.00  0.00    -0.325 N 
ATOM     14  C   UNL     1       1.670  -4.588   3.049  1.00  0.00     0.238 C 
ATOM     15  O   UNL     1       2.547  -4.203   3.833  1.00  0.00    -0.273 OA
ATOM     16  H   UNL     1       0.366  -4.467   4.541  1.00  0.00     0.169 HD
BRANCH  14  17
ATOM     17  C   UNL     1       1.982  -4.820   1.548  1.00  0.00     0.160 C 
ATOM     18  N   UNL     1       1.250  -2.128   0.502  1.00  0.00    -0.191 N 
ATOM     19  C   UNL     1       0.347  -3.177   0.584  1.00  0.00     0.311 C 
ATOM     20  C   UNL     1       2.488  -2.186   1.128  1.00  0.00     0.319 C 
ATOM     21  O   UNL     1      -0.870  -3.005   0.627  1.00  0.00    -0.247 OA
ATOM     22  C   UNL     1       0.935  -4.551   0.493  1.00  0.00     0.153 C 
ATOM     23  S   UNL     1       3.352  -3.716   1.010  1.00  0.00    -0.024 SA
ATOM     24  N   UNL     1       3.075  -1.284   1.842  1.00  0.00    -0.235 N 
ATOM     25  H   UNL     1       4.022  -1.415   2.075  1.00  0.00     0.313 HD
BRANCH  18  26
ATOM     26  C   UNL     1       0.945  -1.232  -0.618  1.00  0.00     0.243 C 
ATOM     27  C   UNL     1       1.166   0.256  -0.490  1.00  0.00     0.054 C 
ENDBRANCH  18  26
BRANCH  24  28
ATOM     28  C   UNL     1       2.432  -0.133   2.300  1.00  0.00     0.126 A 
ATOM     29  C   UNL     1       3.046   1.106   2.107  1.00  0.00     0.052 A 
ATOM     30  C   UNL     1       1.229  -0.192   3.014  1.00  0.00     0.064 A 
ATOM     31  C   UNL     1       2.426   2.280   2.532  1.00  0.00     0.005 A 
ATOM     32  C   UNL     1       0.592   0.979   3.450  1.00  0.00     0.060 A 
ATOM     33  C   UNL     1       1.198   2.218   3.189  1.00  0.00     0.013 A 
BRANCH  32  34
ATOM     34  C   UNL     1      -0.732   0.917   4.165  1.00  0.00     0.416 C 
ATOM     35  F   UNL     1      -0.711   1.565   5.364  1.00  0.00    -0.166 F 
ATOM     36  F   UNL     1      -1.735   1.496   3.449  1.00  0.00    -0.166 F 
ATOM     37  F   UNL     1      -1.152  -0.351   4.437  1.00  0.00    -0.166 F 
ENDBRANCH  32  34
ENDBRANCH  24  28
ENDBRANCH  14  17
ENDBRANCH   8  13
ENDBRANCH   4   7
ENDBRANCH   2   3
ENDBRANCH   1   2
BRANCH   1  38
ATOM     38  C   UNL     1       1.390 -10.708   0.485  1.00  0.00     0.023 C 
BRANCH  38  39
ATOM     39  C   UNL     1       2.517 -10.705  -0.543  1.00  0.00     0.116 C 
BRANCH  39  40
ATOM     40  N   UNL     1       3.781 -10.209  -0.015  1.00  0.00    -0.352 N 
ATOM     41  C   UNL     1       5.051 -10.610  -0.351  1.00  0.00     0.251 C 
ATOM     42  H   UNL     1       3.717  -9.500   0.665  1.00  0.00     0.163 HD
ATOM     43  O   UNL     1       6.024 -10.171   0.255  1.00  0.00    -0.269 OA
BRANCH  41  44
ATOM     44  C   UNL     1       5.222 -11.611  -1.423  1.00  0.00     0.039 A 
ATOM     45  C   UNL     1       5.960 -12.765  -1.157  1.00  0.00     0.014 A 
ATOM     46  C   UNL     1       4.589 -11.437  -2.656  1.00  0.00     0.014 A 
ATOM     47  C   UNL     1       6.005 -13.784  -2.110  1.00  0.00     0.010 A 
ATOM     48  C   UNL     1       4.576 -12.481  -3.573  1.00  0.00     0.010 A 
ATOM     49  C   UNL     1       5.283 -13.665  -3.309  1.00  0.00    -0.014 A 
BRANCH  49  50
ATOM     50  C   UNL     1       5.238 -14.774  -4.294  1.00  0.00     0.031 A 
ATOM     51  C   UNL     1       5.801 -14.581  -5.674  1.00  0.00     0.074 A 
ATOM     52  C   UNL     1       4.603 -15.919  -3.976  1.00  0.00     0.049 A 
ATOM     53  N   UNL     1       5.804 -15.409  -6.686  1.00  0.00    -0.248 NA
ATOM     54  C   UNL     1       6.414 -13.274  -5.968  1.00  0.00     0.031 C 
ATOM     55  C   UNL     1       3.938 -16.193  -2.699  1.00  0.00     0.029 A 
ATOM     56  N   UNL     1       4.389 -17.058  -4.711  1.00  0.00    -0.354 N 
ATOM     57  C   UNL     1       6.383 -14.716  -7.741  1.00  0.00     0.074 A 
ATOM     58  C   UNL     1       6.684 -13.386  -7.260  1.00  0.00     0.031 C 
ATOM     59  C   UNL     1       3.398 -17.421  -2.739  1.00  0.00     0.029 A 
ATOM     60  C   UNL     1       3.654 -18.013  -4.048  1.00  0.00     0.049 A 
ATOM     61  H   UNL     1       4.730 -17.180  -5.626  1.00  0.00     0.167 HD
ATOM     62  C   UNL     1       6.670 -15.156  -8.989  1.00  0.00     0.034 A 
ATOM     63  C   UNL     1       3.231 -19.228  -4.452  1.00  0.00     0.034 A 
ATOM     64  C   UNL     1       6.415 -16.495  -9.447  1.00  0.00     0.049 A 
ATOM     65  C   UNL     1       3.607 -19.712  -5.826  1.00  0.00     0.074 A 
ATOM     66  C   UNL     1       6.757 -17.069 -10.658  1.00  0.00     0.029 A 
ATOM     67  N   UNL     1       5.750 -17.467  -8.716  1.00  0.00    -0.354 N 
ATOM     68  N   UNL     1       4.308 -19.103  -6.752  1.00  0.00    -0.248 NA
ATOM     69  C   UNL     1       3.168 -21.064  -6.198  1.00  0.00     0.031 C 
ATOM     70  C   UNL     1       6.282 -18.385 -10.666  1.00  0.00     0.029 A 
ATOM     71  C   UNL     1       5.662 -18.636  -9.453  1.00  0.00     0.049 A 
ATOM     72  H   UNL     1       5.392 -17.344  -7.808  1.00  0.00     0.167 HD
ATOM     73  C   UNL     1       4.421 -20.007  -7.801  1.00  0.00     0.074 A 
ATOM     74  C   UNL     1       3.736 -21.215  -7.387  1.00  0.00     0.031 C 
ATOM     75  C   UNL     1       5.023 -19.848  -9.006  1.00  0.00     0.034 A 
BRANCH  62  76
ATOM     76  C   UNL     1       7.352 -14.195  -9.927  1.00  0.00     0.023 A 
ATOM     77  C   UNL     1       8.699 -13.842  -9.698  1.00  0.00     0.012 A 
ATOM     78  C   UNL     1       6.684 -13.676 -11.052  1.00  0.00     0.148 A 
ATOM     79  C   UNL     1       9.357 -12.959 -10.552  1.00  0.00     0.002 A 
ATOM     80  C   UNL     1       7.361 -12.831 -11.924  1.00  0.00     0.091 A 
ATOM     81  F   UNL     1       5.397 -14.003 -11.241  1.00  0.00    -0.205 F 
ATOM     82  C   UNL     1       8.693 -12.463 -11.670  1.00  0.00     0.022 A 
BRANCH  80  83
ATOM     83  S   UNL     1       6.616 -12.199 -13.432  1.00  0.00     0.127 S 
ATOM     84  O   UNL     1       6.385 -10.799 -13.082  1.00  0.00    -0.237 OA
ATOM     85  O   UNL     1       7.679 -12.414 -14.415  1.00  0.00    -0.237 OA
ATOM     86  O   UNL     1       5.418 -12.997 -13.650  1.00  0.00    -0.744 OA
ENDBRANCH  80  83
ENDBRANCH  62  76
BRANCH  63  87
ATOM     87  C   UNL     1       2.474 -20.101  -3.511  1.00  0.00     0.023 A 
ATOM     88  C   UNL     1       3.100 -21.246  -2.980  1.00  0.00     0.012 A 
ATOM     89  C   UNL     1       1.160 -19.790  -3.113  1.00  0.00     0.148 A 
ATOM     90  C   UNL     1       2.421 -22.082  -2.093  1.00  0.00     0.002 A 
ATOM     91  C   UNL     1       0.508 -20.598  -2.188  1.00  0.00     0.091 A 
ATOM     92  F   UNL     1       0.578 -18.703  -3.638  1.00  0.00    -0.205 F 
ATOM     93  C   UNL     1       1.130 -21.753  -1.689  1.00  0.00     0.022 A 
BRANCH  91  94
ATOM     94  S   UNL     1      -1.103 -20.180  -1.512  1.00  0.00     0.127 S 
ATOM     95  O   UNL     1      -1.959 -21.185  -2.135  1.00  0.00    -0.237 OA
ATOM     96  O   UNL     1      -0.884 -20.361  -0.076  1.00  0.00    -0.237 OA
ATOM     97  O   UNL     1      -1.350 -18.801  -1.910  1.00  0.00    -0.744 OA
ENDBRANCH  91  94
ENDBRANCH  63  87
BRANCH  75  98
ATOM     98  C   UNL     1       4.997 -21.012  -9.960  1.00  0.00     0.023 A 
ATOM     99  C   UNL     1       3.797 -21.350 -10.617  1.00  0.00     0.012 A 
ATOM    100  C   UNL     1       6.176 -21.721 -10.265  1.00  0.00     0.148 A 
ATOM    101  C   UNL     1       3.765 -22.394 -11.541  1.00  0.00     0.002 A 
ATOM    102  C   UNL     1       6.146 -22.728 -11.222  1.00  0.00     0.091 A 
ATOM    103  F   UNL     1       7.303 -21.397  -9.614  1.00  0.00    -0.205 F 
ATOM    104  C   UNL     1       4.940 -23.073 -11.852  1.00  0.00     0.022 A 
BRANCH 102 105
ATOM    105  S   UNL     1       7.629 -23.591 -11.755  1.00  0.00     0.127 S 
ATOM    106  O   UNL     1       7.456 -24.899 -11.125  1.00  0.00    -0.237 OA
ATOM    107  O   UNL     1       7.482 -23.591 -13.211  1.00  0.00    -0.237 OA
ATOM    108  O   UNL     1       8.750 -22.802 -11.263  1.00  0.00    -0.744 OA
ENDBRANCH 102 105
ENDBRANCH  75  98
ENDBRANCH  49  50
ENDBRANCH  41  44
ENDBRANCH  39  40
ENDBRANCH  38  39
ENDBRANCH   1  38
TORSDOF 19
