REMARK SMILES O=C(NCCCCNC(=O)[C@]1(NC(=O)c2nc(C3CC3)n[nH]2)CCSC1)c1ccc(-c2c3nc(c(-c4cccc(S(=O)(=O)[O-])c4F)c4ccc([nH]4)c(-c4cccc(S(=O)(=O)[O-])c4F)c4nc(c(-c5cccc(S(=O)(=O)[O-])c5F)c5ccc2[nH]5)C=C4)C=C3)cc1
REMARK SMILES IDX 5 1 4 2 3 3 1 4 2 5 27 7 28 8 89 9 29 10 88 11 30 12 31 13
REMARK SMILES IDX 32 14 82 15 33 16 87 17 81 18 83 19 34 20 86 21 80 22 79 23
REMARK SMILES IDX 35 25 67 26 47 27 66 28 48 29 51 30 65 31 84 32 49 33 50 34
REMARK SMILES IDX 64 36 85 37 52 38 36 39 37 40 45 41 38 42 40 43 46 44 39 45
REMARK SMILES IDX 41 46 42 47 43 48 44 49 68 50 69 51 77 52 70 53 72 54 78 55
REMARK SMILES IDX 71 56 73 57 74 58 75 59 76 60 53 61 54 62 62 63 55 64 57 65
REMARK SMILES IDX 63 66 56 67 58 68 59 69 60 70 61 71 6 72 7 73 8 74 9 75
REMARK SMILES IDX 10 77 11 78 23 79 26 80 24 81 25 82 12 83 13 84 14 86 15 87
REMARK SMILES IDX 16 88 22 89 17 90 21 91 18 93 19 94 20 95
REMARK H PARENT 3 6 83 24 51 35 8 76 12 85 22 92
REMARK Flexibility Score: inf
ROOT
ATOM      1  C   UNL     1       4.533   2.720  -0.090  1.00  0.00     0.023 C 
ENDROOT
BRANCH   1   2
ATOM      2  C   UNL     1       4.296   1.240   0.158  1.00  0.00     0.116 C 
BRANCH   2   3
ATOM      3  N   UNL     1       2.890   0.948   0.377  1.00  0.00    -0.352 N 
ATOM      4  O   UNL     1       0.954  -0.134  -0.028  1.00  0.00    -0.269 OA
ATOM      5  C   UNL     1       2.168  -0.110  -0.124  1.00  0.00     0.251 C 
ATOM      6  H   UNL     1       2.398   1.579   0.951  1.00  0.00     0.163 HD
BRANCH   5   7
ATOM      7  C   UNL     1       2.914  -1.193  -0.794  1.00  0.00     0.039 A 
ATOM      8  C   UNL     1       4.032  -1.751  -0.166  1.00  0.00     0.014 A 
ATOM      9  C   UNL     1       2.519  -1.615  -2.064  1.00  0.00     0.014 A 
ATOM     10  C   UNL     1       4.817  -2.666  -0.851  1.00  0.00     0.010 A 
ATOM     11  C   UNL     1       3.263  -2.599  -2.716  1.00  0.00     0.010 A 
ATOM     12  C   UNL     1       4.417  -3.127  -2.115  1.00  0.00    -0.014 A 
BRANCH  12  13
ATOM     13  C   UNL     1       5.129  -4.279  -2.713  1.00  0.00     0.031 A 
ATOM     14  C   UNL     1       5.889  -4.158  -3.999  1.00  0.00     0.074 A 
ATOM     15  C   UNL     1       5.040  -5.461  -2.071  1.00  0.00     0.049 A 
ATOM     16  N   UNL     1       6.545  -5.085  -4.647  1.00  0.00    -0.248 NA
ATOM     17  C   UNL     1       5.914  -2.839  -4.651  1.00  0.00     0.031 C 
ATOM     18  C   UNL     1       4.274  -5.692  -0.840  1.00  0.00     0.029 A 
ATOM     19  N   UNL     1       5.573  -6.688  -2.361  1.00  0.00    -0.354 N 
ATOM     20  C   UNL     1       7.023  -4.481  -5.802  1.00  0.00     0.074 A 
ATOM     21  C   UNL     1       6.591  -3.099  -5.764  1.00  0.00     0.031 C 
ATOM     22  C   UNL     1       4.395  -6.976  -0.478  1.00  0.00     0.029 A 
ATOM     23  C   UNL     1       5.190  -7.672  -1.480  1.00  0.00     0.049 A 
ATOM     24  H   UNL     1       6.172  -6.851  -3.126  1.00  0.00     0.167 HD
ATOM     25  C   UNL     1       7.759  -5.034  -6.795  1.00  0.00     0.034 A 
ATOM     26  C   UNL     1       5.419  -8.997  -1.494  1.00  0.00     0.034 A 
ATOM     27  C   UNL     1       8.210  -6.402  -6.796  1.00  0.00     0.049 A 
ATOM     28  C   UNL     1       6.253  -9.568  -2.601  1.00  0.00     0.074 A 
ATOM     29  C   UNL     1       9.047  -7.028  -7.704  1.00  0.00     0.029 A 
ATOM     30  N   UNL     1       7.848  -7.359  -5.861  1.00  0.00    -0.354 N 
ATOM     31  N   UNL     1       6.838  -8.944  -3.595  1.00  0.00    -0.248 NA
ATOM     32  C   UNL     1       6.478 -11.018  -2.580  1.00  0.00     0.031 C 
ATOM     33  C   UNL     1       9.162  -8.372  -7.337  1.00  0.00     0.029 A 
ATOM     34  C   UNL     1       8.418  -8.578  -6.187  1.00  0.00     0.049 A 
ATOM     35  H   UNL     1       7.269  -7.197  -5.081  1.00  0.00     0.167 HD
ATOM     36  C   UNL     1       7.512  -9.924  -4.311  1.00  0.00     0.074 A 
ATOM     37  C   UNL     1       7.296 -11.175  -3.612  1.00  0.00     0.031 C 
ATOM     38  C   UNL     1       8.222  -9.805  -5.458  1.00  0.00     0.034 A 
BRANCH  25  39
ATOM     39  C   UNL     1       8.161  -4.171  -7.961  1.00  0.00     0.023 A 
ATOM     40  C   UNL     1       9.206  -3.238  -7.811  1.00  0.00     0.012 A 
ATOM     41  C   UNL     1       7.591  -4.376  -9.234  1.00  0.00     0.148 A 
ATOM     42  C   UNL     1       9.674  -2.516  -8.909  1.00  0.00     0.002 A 
ATOM     43  C   UNL     1       8.088  -3.680 -10.330  1.00  0.00     0.091 A 
ATOM     44  F   UNL     1       6.587  -5.256  -9.349  1.00  0.00    -0.205 F 
ATOM     45  C   UNL     1       9.125  -2.746 -10.169  1.00  0.00     0.022 A 
BRANCH  43  46
ATOM     46  S   UNL     1       7.503  -3.958 -12.006  1.00  0.00     0.127 S 
ATOM     47  O   UNL     1       6.863  -2.678 -12.310  1.00  0.00    -0.237 OA
ATOM     48  O   UNL     1       8.751  -4.202 -12.729  1.00  0.00    -0.237 OA
ATOM     49  O   UNL     1       6.602  -5.099 -11.936  1.00  0.00    -0.744 OA
ENDBRANCH  43  46
ENDBRANCH  25  39
BRANCH  26  50
ATOM     50  C   UNL     1       4.851  -9.861  -0.423  1.00  0.00     0.023 A 
ATOM     51  C   UNL     1       5.711 -10.483   0.500  1.00  0.00     0.012 A 
ATOM     52  C   UNL     1       3.459 -10.040  -0.294  1.00  0.00     0.148 A 
ATOM     53  C   UNL     1       5.197 -11.295   1.512  1.00  0.00     0.002 A 
ATOM     54  C   UNL     1       2.951 -10.797   0.754  1.00  0.00     0.091 A 
ATOM     55  F   UNL     1       2.654  -9.454  -1.193  1.00  0.00    -0.205 F 
ATOM     56  C   UNL     1       3.818 -11.442   1.647  1.00  0.00     0.022 A 
BRANCH  54  57
ATOM     57  S   UNL     1       1.187 -10.899   1.077  1.00  0.00     0.127 S 
ATOM     58  O   UNL     1       0.852 -12.199   0.504  1.00  0.00    -0.237 OA
ATOM     59  O   UNL     1       1.137 -10.838   2.539  1.00  0.00    -0.237 OA
ATOM     60  O   UNL     1       0.609  -9.737   0.415  1.00  0.00    -0.744 OA
ENDBRANCH  54  57
ENDBRANCH  26  50
BRANCH  38  61
ATOM     61  C   UNL     1       8.821 -11.062  -6.026  1.00  0.00     0.023 A 
ATOM     62  C   UNL     1       7.981 -12.017  -6.634  1.00  0.00     0.012 A 
ATOM     63  C   UNL     1      10.213 -11.274  -6.007  1.00  0.00     0.148 A 
ATOM     64  C   UNL     1       8.515 -13.181  -7.184  1.00  0.00     0.002 A 
ATOM     65  C   UNL     1      10.742 -12.412  -6.601  1.00  0.00     0.091 A 
ATOM     66  F   UNL     1      10.991 -10.361  -5.406  1.00  0.00    -0.205 F 
ATOM     67  C   UNL     1       9.895 -13.373  -7.177  1.00  0.00     0.022 A 
BRANCH  65  68
ATOM     68  S   UNL     1      12.510 -12.702  -6.722  1.00  0.00     0.127 S 
ATOM     69  O   UNL     1      12.699 -13.794  -5.768  1.00  0.00    -0.237 OA
ATOM     70  O   UNL     1      12.666 -13.083  -8.126  1.00  0.00    -0.237 OA
ATOM     71  O   UNL     1      13.149 -11.443  -6.362  1.00  0.00    -0.744 OA
ENDBRANCH  65  68
ENDBRANCH  38  61
ENDBRANCH  12  13
ENDBRANCH   5   7
ENDBRANCH   2   3
ENDBRANCH   1   2
BRANCH   1  72
ATOM     72  C   UNL     1       4.131   3.611   1.087  1.00  0.00     0.023 C 
BRANCH  72  73
ATOM     73  C   UNL     1       4.925   3.323   2.359  1.00  0.00     0.116 C 
BRANCH  73  74
ATOM     74  N   UNL     1       6.297   3.724   2.147  1.00  0.00    -0.354 N 
ATOM     75  C   UNL     1       6.931   4.872   2.520  1.00  0.00     0.246 C 
ATOM     76  H   UNL     1       6.855   3.074   1.663  1.00  0.00     0.163 HD
ATOM     77  O   UNL     1       7.828   5.269   1.773  1.00  0.00    -0.272 OA
BRANCH  75  78
ATOM     78  C   UNL     1       6.428   5.709   3.731  1.00  0.00     0.129 C 
ATOM     79  C   UNL     1       5.225   6.563   3.253  1.00  0.00     0.050 C 
ATOM     80  C   UNL     1       7.487   6.739   4.172  1.00  0.00     0.108 C 
ATOM     81  C   UNL     1       5.755   7.646   2.332  1.00  0.00     0.072 C 
ATOM     82  S   UNL     1       7.196   8.277   3.220  1.00  0.00    -0.159 SA
BRANCH  78  83
ATOM     83  N   UNL     1       5.979   4.893   4.894  1.00  0.00    -0.334 N 
ATOM     84  C   UNL     1       6.547   3.811   5.530  1.00  0.00     0.289 C 
ATOM     85  H   UNL     1       5.119   5.179   5.277  1.00  0.00     0.165 HD
ATOM     86  O   UNL     1       6.018   3.454   6.585  1.00  0.00    -0.266 OA
BRANCH  84  87
ATOM     87  C   UNL     1       7.567   3.024   4.889  1.00  0.00     0.214 A 
ATOM     88  N   UNL     1       8.624   3.428   4.211  1.00  0.00    -0.207 NA
ATOM     89  N   UNL     1       7.489   1.663   4.807  1.00  0.00    -0.255 N 
ATOM     90  C   UNL     1       9.048   2.276   3.584  1.00  0.00     0.154 A 
ATOM     91  N   UNL     1       8.351   1.179   3.904  1.00  0.00    -0.158 NA
ATOM     92  H   UNL     1       6.877   1.109   5.343  1.00  0.00     0.192 HD
BRANCH  90  93
ATOM     93  C   UNL     1      10.134   2.223   2.522  1.00  0.00     0.060 C 
ATOM     94  C   UNL     1      10.560   3.507   1.842  1.00  0.00     0.012 C 
ATOM     95  C   UNL     1      11.488   2.837   2.796  1.00  0.00     0.012 C 
ENDBRANCH  90  93
ENDBRANCH  84  87
ENDBRANCH  78  83
ENDBRANCH  75  78
ENDBRANCH  73  74
ENDBRANCH  72  73
ENDBRANCH   1  72
TORSDOF 17
