REMARK SMILES C[C@H]1CC=C(C2=NN=C(C(=O)NCCCCNC(=O)c3ccc(-c4c5nc(c(-c6cccc(S(=O)(=O)[O-])c6F)c6ccc([nH]6)c(-c6cccc(S(=O)(=O)[O-])c6F)c6nc(c(-c7cccc(S(=O)(=O)[O-])c7F)c7ccc4[nH]7)C=C6)C=C5)cc3)C2)O1
REMARK SMILES IDX 15 1 14 2 13 3 12 4 10 5 11 6 9 8 6 9 7 10 83 11 8 12 5 13
REMARK SMILES IDX 1 14 2 15 3 16 84 17 4 18 16 19 17 20 18 21 19 23 20 24
REMARK SMILES IDX 21 25 82 26 22 27 81 28 23 29 24 30 25 31 75 32 26 33 80 34
REMARK SMILES IDX 74 35 76 36 27 37 79 38 73 39 72 40 28 42 60 43 40 44 59 45
REMARK SMILES IDX 41 46 44 47 58 48 77 49 42 50 43 51 57 53 78 54 45 55 29 56
REMARK SMILES IDX 30 57 38 58 31 59 33 60 39 61 32 62 34 63 35 64 36 65 37 66
REMARK SMILES IDX 61 67 62 68 70 69 63 70 65 71 71 72 64 73 66 74 67 75 68 76
REMARK SMILES IDX 69 77 46 78 47 79 55 80 48 81 50 82 56 83 49 84 51 85 52 86
REMARK SMILES IDX 53 87 54 88
REMARK H PARENT 12 7 17 22 76 41 44 52
REMARK Flexibility Score: inf
ROOT
ATOM      1  C   UNL     1       1.363  10.998  -1.974  1.00  0.00     0.023 C 
ENDROOT
BRANCH   1   2
ATOM      2  C   UNL     1       0.555   9.940  -1.206  1.00  0.00     0.023 C 
BRANCH   2   3
ATOM      3  C   UNL     1      -0.126   8.871  -2.069  1.00  0.00     0.116 C 
BRANCH   3   4
ATOM      4  N   UNL     1       0.843   8.012  -2.724  1.00  0.00    -0.351 N 
ATOM      5  C   UNL     1       1.245   6.734  -2.428  1.00  0.00     0.267 C 
ATOM      6  O   UNL     1       2.175   6.216  -3.038  1.00  0.00    -0.268 OA
ATOM      7  H   UNL     1       1.284   8.412  -3.509  1.00  0.00     0.163 HD
BRANCH   5   8
ATOM      8  C   UNL     1       0.582   5.905  -1.365  1.00  0.00     0.134 C 
ATOM      9  C   UNL     1      -0.004   4.146  -0.122  1.00  0.00     0.111 C 
ATOM     10  N   UNL     1      -0.699   5.168   0.274  1.00  0.00    -0.151 NA
ATOM     11  C   UNL     1       0.949   4.469  -1.223  1.00  0.00     0.126 C 
ATOM     12  N   UNL     1      -0.309   6.299  -0.506  1.00  0.00    -0.149 NA
BRANCH   9  13
ATOM     13  C   UNL     1      -0.105   2.780   0.405  1.00  0.00     0.139 C 
ATOM     14  C   UNL     1       1.121   0.157   2.317  1.00  0.00     0.053 C 
ATOM     15  C   UNL     1       0.547   0.753   1.041  1.00  0.00     0.174 C 
ATOM     16  C   UNL     1      -0.988   0.774   1.034  1.00  0.00     0.076 C 
ATOM     17  O   UNL     1       1.015   2.112   0.882  1.00  0.00    -0.489 OA
ATOM     18  C   UNL     1      -1.249   2.102   0.440  1.00  0.00     0.025 C 
ENDBRANCH   9  13
ENDBRANCH   5   8
ENDBRANCH   3   4
ENDBRANCH   2   3
ENDBRANCH   1   2
BRANCH   1  19
ATOM     19  C   UNL     1       0.552  11.830  -2.960  1.00  0.00     0.116 C 
BRANCH  19  20
ATOM     20  N   UNL     1      -0.472  12.654  -2.313  1.00  0.00    -0.352 N 
ATOM     21  C   UNL     1      -1.415  13.452  -2.932  1.00  0.00     0.251 C 
ATOM     22  H   UNL     1      -0.491  12.636  -1.328  1.00  0.00     0.163 HD
ATOM     23  O   UNL     1      -1.952  14.384  -2.333  1.00  0.00    -0.269 OA
BRANCH  21  24
ATOM     24  C   UNL     1      -1.775  13.150  -4.325  1.00  0.00     0.039 A 
ATOM     25  C   UNL     1      -1.895  14.150  -5.294  1.00  0.00     0.014 A 
ATOM     26  C   UNL     1      -1.933  11.807  -4.658  1.00  0.00     0.014 A 
ATOM     27  C   UNL     1      -2.085  13.771  -6.621  1.00  0.00     0.010 A 
ATOM     28  C   UNL     1      -1.955  11.433  -5.975  1.00  0.00     0.010 A 
ATOM     29  C   UNL     1      -2.088  12.406  -6.957  1.00  0.00    -0.014 A 
BRANCH  29  30
ATOM     30  C   UNL     1      -2.110  11.976  -8.349  1.00  0.00     0.031 A 
ATOM     31  C   UNL     1      -1.032  12.563  -9.189  1.00  0.00     0.074 A 
ATOM     32  C   UNL     1      -2.905  10.981  -8.802  1.00  0.00     0.049 A 
ATOM     33  N   UNL     1      -1.162  13.475 -10.094  1.00  0.00    -0.248 NA
ATOM     34  C   UNL     1       0.366  12.226  -8.884  1.00  0.00     0.031 C 
ATOM     35  C   UNL     1      -3.779  10.089  -8.029  1.00  0.00     0.029 A 
ATOM     36  N   UNL     1      -2.993  10.464 -10.056  1.00  0.00    -0.354 N 
ATOM     37  C   UNL     1       0.103  13.635 -10.654  1.00  0.00     0.074 A 
ATOM     38  C   UNL     1       1.023  13.019  -9.735  1.00  0.00     0.031 C 
ATOM     39  C   UNL     1      -4.089   9.004  -8.772  1.00  0.00     0.029 A 
ATOM     40  C   UNL     1      -3.598   9.212 -10.120  1.00  0.00     0.049 A 
ATOM     41  H   UNL     1      -2.657  10.935 -10.852  1.00  0.00     0.167 HD
ATOM     42  C   UNL     1       0.250  14.026 -11.951  1.00  0.00     0.034 A 
ATOM     43  C   UNL     1      -3.654   8.394 -11.199  1.00  0.00     0.034 A 
ATOM     44  C   UNL     1      -0.999  14.512 -12.488  1.00  0.00     0.049 A 
ATOM     45  C   UNL     1      -3.442   9.242 -12.393  1.00  0.00     0.074 A 
ATOM     46  C   UNL     1      -1.887  15.516 -12.154  1.00  0.00     0.029 A 
ATOM     47  N   UNL     1      -1.694  13.649 -13.301  1.00  0.00    -0.354 N 
ATOM     48  N   UNL     1      -4.280  10.167 -12.770  1.00  0.00    -0.248 NA
ATOM     49  C   UNL     1      -2.088   9.375 -12.901  1.00  0.00     0.031 C 
ATOM     50  C   UNL     1      -3.176  14.946 -12.371  1.00  0.00     0.029 A 
ATOM     51  C   UNL     1      -3.003  13.666 -12.902  1.00  0.00     0.049 A 
ATOM     52  H   UNL     1      -1.318  13.114 -14.038  1.00  0.00     0.167 HD
ATOM     53  C   UNL     1      -3.467  11.229 -13.143  1.00  0.00     0.074 A 
ATOM     54  C   UNL     1      -2.136  10.646 -13.310  1.00  0.00     0.031 C 
ATOM     55  C   UNL     1      -3.883  12.521 -12.990  1.00  0.00     0.034 A 
BRANCH  42  56
ATOM     56  C   UNL     1       1.379  13.624 -12.876  1.00  0.00     0.023 A 
ATOM     57  C   UNL     1       1.408  14.234 -14.153  1.00  0.00     0.012 A 
ATOM     58  C   UNL     1       2.220  12.505 -12.686  1.00  0.00     0.148 A 
ATOM     59  C   UNL     1       2.171  13.713 -15.203  1.00  0.00     0.002 A 
ATOM     60  C   UNL     1       3.035  12.035 -13.711  1.00  0.00     0.091 A 
ATOM     61  F   UNL     1       2.150  11.797 -11.557  1.00  0.00    -0.205 F 
ATOM     62  C   UNL     1       2.988  12.613 -14.981  1.00  0.00     0.022 A 
BRANCH  60  63
ATOM     63  S   UNL     1       4.146  10.641 -13.474  1.00  0.00     0.127 S 
ATOM     64  O   UNL     1       3.494   9.610 -14.276  1.00  0.00    -0.237 OA
ATOM     65  O   UNL     1       5.395  11.162 -14.029  1.00  0.00    -0.237 OA
ATOM     66  O   UNL     1       4.181  10.406 -12.037  1.00  0.00    -0.744 OA
ENDBRANCH  60  63
ENDBRANCH  42  56
BRANCH  43  67
ATOM     67  C   UNL     1      -3.609   6.915 -11.272  1.00  0.00     0.023 A 
ATOM     68  C   UNL     1      -4.045   6.259 -12.441  1.00  0.00     0.012 A 
ATOM     69  C   UNL     1      -2.863   6.172 -10.330  1.00  0.00     0.148 A 
ATOM     70  C   UNL     1      -3.714   4.920 -12.684  1.00  0.00     0.002 A 
ATOM     71  C   UNL     1      -2.537   4.841 -10.575  1.00  0.00     0.091 A 
ATOM     72  F   UNL     1      -2.394   6.798  -9.242  1.00  0.00    -0.205 F 
ATOM     73  C   UNL     1      -2.950   4.215 -11.758  1.00  0.00     0.022 A 
BRANCH  71  74
ATOM     74  S   UNL     1      -1.524   3.877  -9.444  1.00  0.00     0.127 S 
ATOM     75  O   UNL     1      -2.322   2.661  -9.285  1.00  0.00    -0.237 OA
ATOM     76  O   UNL     1      -0.294   3.705 -10.212  1.00  0.00    -0.237 OA
ATOM     77  O   UNL     1      -1.406   4.678  -8.232  1.00  0.00    -0.744 OA
ENDBRANCH  71  74
ENDBRANCH  43  67
BRANCH  55  78
ATOM     78  C   UNL     1      -5.333  12.770 -12.654  1.00  0.00     0.023 A 
ATOM     79  C   UNL     1      -5.926  12.332 -11.451  1.00  0.00     0.012 A 
ATOM     80  C   UNL     1      -6.064  13.619 -13.500  1.00  0.00     0.148 A 
ATOM     81  C   UNL     1      -7.227  12.718 -11.111  1.00  0.00     0.002 A 
ATOM     82  C   UNL     1      -7.337  14.039 -13.137  1.00  0.00     0.091 A 
ATOM     83  F   UNL     1      -5.485  14.028 -14.639  1.00  0.00    -0.205 F 
ATOM     84  C   UNL     1      -7.927  13.584 -11.948  1.00  0.00     0.022 A 
BRANCH  82  85
ATOM     85  S   UNL     1      -8.234  15.248 -14.112  1.00  0.00     0.127 S 
ATOM     86  O   UNL     1      -9.249  14.423 -14.762  1.00  0.00    -0.237 OA
ATOM     87  O   UNL     1      -8.749  16.159 -13.088  1.00  0.00    -0.237 OA
ATOM     88  O   UNL     1      -7.252  15.853 -15.004  1.00  0.00    -0.744 OA
ENDBRANCH  82  85
ENDBRANCH  55  78
ENDBRANCH  29  30
ENDBRANCH  21  24
ENDBRANCH  19  20
ENDBRANCH   1  19
TORSDOF 15
