REMARK SMILES C=CCCC[C@@]1(C(=O)NCCCCNC(=O)c2ccc(-c3c4nc(c(-c5cccc(S(=O)(=O)[O-])c5F)c5ccc([nH]5)c(-c5cccc(S(=O)(=O)[O-])c5F)c5nc(c(-c6cccc(S(=O)(=O)[O-])c6F)c6ccc3[nH]6)C=C5)C=C4)cc2)CCCN(C(=O)OC(C)(C)C)C1
REMARK SMILES IDX 11 1 10 2 9 3 7 4 8 5 6 7 80 8 91 9 81 10 83 11 82 12 5 13
REMARK SMILES IDX 4 14 3 15 2 16 1 17 84 18 85 19 86 20 87 21 88 22 89 23
REMARK SMILES IDX 90 24 12 25 13 26 14 27 15 28 16 30 17 31 18 32 79 33 19 34
REMARK SMILES IDX 78 35 20 36 21 37 22 38 72 39 23 40 77 41 71 42 73 43 24 44
REMARK SMILES IDX 76 45 70 46 69 47 25 49 57 50 37 51 56 52 38 53 41 54 55 55
REMARK SMILES IDX 74 56 39 57 40 58 54 60 75 61 42 62 26 63 27 64 35 65 28 66
REMARK SMILES IDX 30 67 36 68 29 69 31 70 32 71 33 72 34 73 58 74 59 75 67 76
REMARK SMILES IDX 60 77 62 78 68 79 61 80 63 81 64 82 65 83 66 84 43 85 44 86
REMARK SMILES IDX 52 87 45 88 47 89 53 90 46 91 48 92 49 93 50 94 51 95
REMARK H PARENT 9 6 14 29 73 48 41 59
REMARK Flexibility Score: inf
ROOT
ATOM      1  C   UNL     1       0.671  -2.522   6.362  1.00  0.00     0.023 C 
ENDROOT
BRANCH   1   2
ATOM      2  C   UNL     1       0.603  -1.336   5.419  1.00  0.00     0.116 C 
BRANCH   2   3
ATOM      3  N   UNL     1      -0.063  -1.584   4.167  1.00  0.00    -0.356 N 
ATOM      4  C   UNL     1      -0.887  -0.785   3.440  1.00  0.00     0.228 C 
ATOM      5  O   UNL     1      -1.128  -1.192   2.295  1.00  0.00    -0.274 OA
ATOM      6  H   UNL     1       0.105  -2.472   3.776  1.00  0.00     0.163 HD
BRANCH   4   7
ATOM      7  C   UNL     1      -1.662   0.441   4.013  1.00  0.00     0.067 C 
ATOM      8  C   UNL     1      -2.108   1.300   2.785  1.00  0.00     0.020 C 
ATOM      9  C   UNL     1      -0.901   1.462   4.902  1.00  0.00     0.140 C 
ATOM     10  C   UNL     1      -0.911   1.972   2.078  1.00  0.00     0.023 C 
ATOM     11  N   UNL     1       0.259   2.039   4.242  1.00  0.00    -0.307 N 
ATOM     12  C   UNL     1      -0.027   2.780   3.025  1.00  0.00     0.123 C 
BRANCH   7  13
ATOM     13  C   UNL     1      -2.820  -0.188   4.868  1.00  0.00     0.019 C 
BRANCH  13  14
ATOM     14  C   UNL     1      -4.287   0.114   4.532  1.00  0.00     0.005 C 
BRANCH  14  15
ATOM     15  C   UNL     1      -4.886  -0.531   3.275  1.00  0.00     0.027 C 
BRANCH  15  16
ATOM     16  C   UNL     1      -4.769  -2.026   3.207  1.00  0.00    -0.035 C 
ATOM     17  C   UNL     1      -5.814  -2.854   3.076  1.00  0.00     0.004 C 
ENDBRANCH  15  16
ENDBRANCH  14  15
ENDBRANCH  13  14
ENDBRANCH   7  13
BRANCH  11  18
ATOM     18  C   UNL     1       1.514   1.919   4.821  1.00  0.00     0.410 C 
ATOM     19  O   UNL     1       1.702   1.379   5.899  1.00  0.00    -0.224 OA
BRANCH  18  20
ATOM     20  O   UNL     1       2.506   2.425   4.042  1.00  0.00    -0.444 OA
BRANCH  20  21
ATOM     21  C   UNL     1       3.903   2.165   4.359  1.00  0.00     0.106 C 
ATOM     22  C   UNL     1       4.293   2.600   5.778  1.00  0.00     0.056 C 
ATOM     23  C   UNL     1       4.234   0.688   4.117  1.00  0.00     0.056 C 
ATOM     24  C   UNL     1       4.695   3.018   3.358  1.00  0.00     0.056 C 
ENDBRANCH  20  21
ENDBRANCH  18  20
ENDBRANCH  11  18
ENDBRANCH   4   7
ENDBRANCH   2   3
ENDBRANCH   1   2
BRANCH   1  25
ATOM     25  C   UNL     1       1.620  -3.638   5.953  1.00  0.00     0.023 C 
BRANCH  25  26
ATOM     26  C   UNL     1       3.026  -3.202   5.561  1.00  0.00     0.116 C 
BRANCH  26  27
ATOM     27  N   UNL     1       3.693  -2.369   6.555  1.00  0.00    -0.352 N 
ATOM     28  C   UNL     1       4.984  -2.464   7.022  1.00  0.00     0.251 C 
ATOM     29  H   UNL     1       3.150  -1.645   6.942  1.00  0.00     0.163 HD
ATOM     30  O   UNL     1       5.385  -1.729   7.920  1.00  0.00    -0.269 OA
BRANCH  28  31
ATOM     31  C   UNL     1       5.877  -3.490   6.446  1.00  0.00     0.039 A 
ATOM     32  C   UNL     1       6.544  -4.369   7.299  1.00  0.00     0.014 A 
ATOM     33  C   UNL     1       5.990  -3.622   5.059  1.00  0.00     0.014 A 
ATOM     34  C   UNL     1       7.273  -5.429   6.757  1.00  0.00     0.010 A 
ATOM     35  C   UNL     1       6.634  -4.731   4.527  1.00  0.00     0.010 A 
ATOM     36  C   UNL     1       7.294  -5.641   5.368  1.00  0.00    -0.014 A 
BRANCH  36  37
ATOM     37  C   UNL     1       8.009  -6.801   4.776  1.00  0.00     0.031 A 
ATOM     38  C   UNL     1       9.149  -6.574   3.819  1.00  0.00     0.074 A 
ATOM     39  C   UNL     1       7.588  -8.055   5.038  1.00  0.00     0.049 A 
ATOM     40  N   UNL     1       9.875  -7.452   3.178  1.00  0.00    -0.248 NA
ATOM     41  C   UNL     1       9.499  -5.175   3.516  1.00  0.00     0.031 C 
ATOM     42  C   UNL     1       6.440  -8.406   5.878  1.00  0.00     0.029 A 
ATOM     43  N   UNL     1       8.065  -9.268   4.607  1.00  0.00    -0.354 N 
ATOM     44  C   UNL     1      10.738  -6.718   2.375  1.00  0.00     0.074 A 
ATOM     45  C   UNL     1      10.415  -5.322   2.571  1.00  0.00     0.031 C 
ATOM     46  C   UNL     1       6.312  -9.742   5.912  1.00  0.00     0.029 A 
ATOM     47  C   UNL     1       7.346 -10.343   5.076  1.00  0.00     0.049 A 
ATOM     48  H   UNL     1       8.849  -9.360   4.018  1.00  0.00     0.167 HD
ATOM     49  C   UNL     1      11.734  -7.159   1.571  1.00  0.00     0.034 A 
ATOM     50  C   UNL     1       7.501 -11.663   4.854  1.00  0.00     0.034 A 
ATOM     51  C   UNL     1      12.080  -8.544   1.409  1.00  0.00     0.049 A 
ATOM     52  C   UNL     1       8.643 -12.129   3.991  1.00  0.00     0.074 A 
ATOM     53  C   UNL     1      13.127  -9.091   0.689  1.00  0.00     0.029 A 
ATOM     54  N   UNL     1      11.381  -9.604   1.967  1.00  0.00    -0.354 N 
ATOM     55  N   UNL     1       9.551 -11.418   3.368  1.00  0.00    -0.248 NA
ATOM     56  C   UNL     1       8.808 -13.582   3.835  1.00  0.00     0.031 C 
ATOM     57  C   UNL     1      13.041 -10.484   0.785  1.00  0.00     0.029 A 
ATOM     58  C   UNL     1      11.967 -10.803   1.600  1.00  0.00     0.049 A 
ATOM     59  H   UNL     1      10.585  -9.516   2.540  1.00  0.00     0.167 HD
ATOM     60  C   UNL     1      10.418 -12.334   2.781  1.00  0.00     0.074 A 
ATOM     61  C   UNL     1       9.936 -13.652   3.141  1.00  0.00     0.031 C 
ATOM     62  C   UNL     1      11.507 -12.105   2.007  1.00  0.00     0.034 A 
BRANCH  49  63
ATOM     63  C   UNL     1      12.552  -6.125   0.841  1.00  0.00     0.023 A 
ATOM     64  C   UNL     1      13.422  -5.282   1.564  1.00  0.00     0.012 A 
ATOM     65  C   UNL     1      12.498  -6.018  -0.562  1.00  0.00     0.148 A 
ATOM     66  C   UNL     1      14.191  -4.322   0.909  1.00  0.00     0.002 A 
ATOM     67  C   UNL     1      13.306  -5.093  -1.213  1.00  0.00     0.091 A 
ATOM     68  F   UNL     1      11.651  -6.812  -1.233  1.00  0.00    -0.205 F 
ATOM     69  C   UNL     1      14.141  -4.235  -0.479  1.00  0.00     0.022 A 
BRANCH  67  70
ATOM     70  S   UNL     1      13.379  -4.958  -3.003  1.00  0.00     0.127 S 
ATOM     71  O   UNL     1      12.740  -3.663  -3.228  1.00  0.00    -0.237 OA
ATOM     72  O   UNL     1      14.821  -4.978  -3.252  1.00  0.00    -0.237 OA
ATOM     73  O   UNL     1      12.656  -6.110  -3.523  1.00  0.00    -0.744 OA
ENDBRANCH  67  70
ENDBRANCH  49  63
BRANCH  50  74
ATOM     74  C   UNL     1       6.591 -12.645   5.512  1.00  0.00     0.023 A 
ATOM     75  C   UNL     1       7.093 -13.482   6.528  1.00  0.00     0.012 A 
ATOM     76  C   UNL     1       5.234 -12.741   5.151  1.00  0.00     0.148 A 
ATOM     77  C   UNL     1       6.269 -14.425   7.145  1.00  0.00     0.002 A 
ATOM     78  C   UNL     1       4.405 -13.643   5.809  1.00  0.00     0.091 A 
ATOM     79  F   UNL     1       4.779 -11.941   4.177  1.00  0.00    -0.205 F 
ATOM     80  C   UNL     1       4.924 -14.499   6.792  1.00  0.00     0.022 A 
BRANCH  78  81
ATOM     81  S   UNL     1       2.635 -13.720   5.512  1.00  0.00     0.127 S 
ATOM     82  O   UNL     1       2.497 -15.021   4.862  1.00  0.00    -0.237 OA
ATOM     83  O   UNL     1       2.100 -13.649   6.872  1.00  0.00    -0.237 OA
ATOM     84  O   UNL     1       2.324 -12.563   4.683  1.00  0.00    -0.744 OA
ENDBRANCH  78  81
ENDBRANCH  50  74
BRANCH  62  85
ATOM     85  C   UNL     1      12.291 -13.301   1.532  1.00  0.00     0.023 A 
ATOM     86  C   UNL     1      11.752 -14.159   0.554  1.00  0.00     0.012 A 
ATOM     87  C   UNL     1      13.596 -13.533   2.012  1.00  0.00     0.148 A 
ATOM     88  C   UNL     1      12.483 -15.252   0.090  1.00  0.00     0.002 A 
ATOM     89  C   UNL     1      14.339 -14.592   1.505  1.00  0.00     0.091 A 
ATOM     90  F   UNL     1      14.086 -12.716   2.956  1.00  0.00    -0.205 F 
ATOM     91  C   UNL     1      13.780 -15.461   0.556  1.00  0.00     0.022 A 
BRANCH  89  92
ATOM     92  S   UNL     1      16.051 -14.875   1.971  1.00  0.00     0.127 S 
ATOM     93  O   UNL     1      15.938 -16.069   2.807  1.00  0.00    -0.237 OA
ATOM     94  O   UNL     1      16.692 -15.096   0.674  1.00  0.00    -0.237 OA
ATOM     95  O   UNL     1      16.485 -13.668   2.660  1.00  0.00    -0.744 OA
ENDBRANCH  89  92
ENDBRANCH  62  85
ENDBRANCH  36  37
ENDBRANCH  28  31
ENDBRANCH  26  27
ENDBRANCH  25  26
ENDBRANCH   1  25
TORSDOF 21
