REMARK SMILES CCc1ccc2oc(-c3ccccc3)c(OCC(=O)NCCCCNC(=O)c3ccc(-c4c5nc(c(-c6cccc(S(=O)(=O)[O-])c6F)c6ccc([nH]6)c(-c6cccc(S(=O)(=O)[O-])c6F)c6nc(c(-c7cccc(S(=O)(=O)[O-])c7F)c7ccc4[nH]7)C=C6)C=C5)cc3)c(=O)c2c1
REMARK SMILES IDX 22 1 21 2 20 3 18 4 19 5 17 7 16 8 15 9 3 10 4 11 94 12 5 13
REMARK SMILES IDX 93 14 6 15 91 16 7 17 92 18 8 19 2 20 1 21 9 22 10 23 14 24
REMARK SMILES IDX 11 25 13 26 12 27 23 28 24 29 25 30 26 31 27 33 28 34 29 35
REMARK SMILES IDX 90 36 30 37 89 38 31 39 32 40 33 41 83 42 34 43 88 44 82 45
REMARK SMILES IDX 84 46 35 47 87 48 81 49 80 50 36 52 68 53 48 54 67 55 49 56
REMARK SMILES IDX 52 57 66 58 85 59 50 60 51 61 65 63 86 64 53 65 37 66 38 67
REMARK SMILES IDX 46 68 39 69 41 70 47 71 40 72 42 73 43 74 44 75 45 76 69 77
REMARK SMILES IDX 70 78 78 79 71 80 73 81 79 82 72 83 74 84 75 85 76 86 77 87
REMARK SMILES IDX 54 88 55 89 63 90 56 91 58 92 64 93 57 94 59 95 60 96 61 97
REMARK SMILES IDX 62 98
REMARK H PARENT 20 6 25 32 84 51 52 62
REMARK Flexibility Score: inf
ROOT
ATOM      1  C   UNL     1       0.361  -2.588   9.533  1.00  0.00     0.023 C 
ENDROOT
BRANCH   1   2
ATOM      2  C   UNL     1       1.264  -3.817   9.477  1.00  0.00     0.116 C 
BRANCH   2   3
ATOM      3  N   UNL     1       1.098  -4.566   8.248  1.00  0.00    -0.353 N 
ATOM      4  C   UNL     1       2.009  -4.808   7.259  1.00  0.00     0.257 C 
ATOM      5  O   UNL     1       1.702  -5.615   6.380  1.00  0.00    -0.271 OA
ATOM      6  H   UNL     1       0.205  -4.955   8.106  1.00  0.00     0.163 HD
BRANCH   4   7
ATOM      7  C   UNL     1       3.400  -4.160   7.328  1.00  0.00     0.329 C 
BRANCH   7   8
ATOM      8  O   UNL     1       3.509  -2.762   7.541  1.00  0.00    -0.476 OA
BRANCH   8   9
ATOM      9  C   UNL     1       2.989  -1.872   6.612  1.00  0.00     0.211 A 
ATOM     10  C   UNL     1       0.947  -0.583   2.279  1.00  0.00    -0.047 A 
ATOM     11  C   UNL     1       0.801   0.713   2.795  1.00  0.00     0.007 A 
ATOM     12  C   UNL     1       1.529  -1.569   3.088  1.00  0.00     0.020 A 
ATOM     13  C   UNL     1       1.252   1.022   4.082  1.00  0.00     0.048 A 
ATOM     14  C   UNL     1       1.979  -1.252   4.376  1.00  0.00     0.069 A 
ATOM     15  C   UNL     1       1.844   0.036   4.868  1.00  0.00     0.138 A 
ATOM     16  C   UNL     1       2.640  -2.261   5.212  1.00  0.00     0.235 A 
ATOM     17  O   UNL     1       2.293   0.403   6.105  1.00  0.00    -0.452 OA
ATOM     18  O   UNL     1       2.945  -3.345   4.723  1.00  0.00    -0.285 OA
ATOM     19  C   UNL     1       2.844  -0.565   6.929  1.00  0.00     0.180 A 
BRANCH  10  20
ATOM     20  C   UNL     1       0.454  -0.938   0.896  1.00  0.00     0.032 C 
ATOM     21  C   UNL     1       1.030  -0.051  -0.200  1.00  0.00     0.009 C 
ENDBRANCH  10  20
BRANCH  19  22
ATOM     22  C   UNL     1       3.315   0.008   8.209  1.00  0.00     0.021 A 
ATOM     23  C   UNL     1       2.473   0.823   8.979  1.00  0.00     0.012 A 
ATOM     24  C   UNL     1       4.646  -0.162   8.623  1.00  0.00     0.012 A 
ATOM     25  C   UNL     1       2.948   1.445  10.137  1.00  0.00     0.001 A 
ATOM     26  C   UNL     1       5.121   0.460   9.780  1.00  0.00     0.001 A 
ATOM     27  C   UNL     1       4.272   1.264  10.536  1.00  0.00     0.000 A 
ENDBRANCH  19  22
ENDBRANCH   8   9
ENDBRANCH   7   8
ENDBRANCH   4   7
ENDBRANCH   2   3
ENDBRANCH   1   2
BRANCH   1  28
ATOM     28  C   UNL     1      -1.140  -2.876   9.439  1.00  0.00     0.023 C 
BRANCH  28  29
ATOM     29  C   UNL     1      -1.688  -3.891  10.438  1.00  0.00     0.116 C 
BRANCH  29  30
ATOM     30  N   UNL     1      -1.492  -3.492  11.824  1.00  0.00    -0.352 N 
ATOM     31  C   UNL     1      -2.391  -3.492  12.863  1.00  0.00     0.251 C 
ATOM     32  H   UNL     1      -0.586  -3.178  12.049  1.00  0.00     0.163 HD
ATOM     33  O   UNL     1      -2.074  -2.999  13.945  1.00  0.00    -0.269 OA
BRANCH  31  34
ATOM     34  C   UNL     1      -3.748  -4.053  12.675  1.00  0.00     0.039 A 
ATOM     35  C   UNL     1      -4.849  -3.330  13.143  1.00  0.00     0.014 A 
ATOM     36  C   UNL     1      -3.939  -5.279  12.032  1.00  0.00     0.014 A 
ATOM     37  C   UNL     1      -6.143  -3.802  12.904  1.00  0.00     0.010 A 
ATOM     38  C   UNL     1      -5.229  -5.709  11.730  1.00  0.00     0.010 A 
ATOM     39  C   UNL     1      -6.346  -4.978  12.163  1.00  0.00    -0.014 A 
BRANCH  39  40
ATOM     40  C   UNL     1      -7.712  -5.449  11.814  1.00  0.00     0.031 A 
ATOM     41  C   UNL     1      -8.211  -6.777  12.318  1.00  0.00     0.074 A 
ATOM     42  C   UNL     1      -8.470  -4.727  10.964  1.00  0.00     0.049 A 
ATOM     43  N   UNL     1      -9.350  -7.375  12.077  1.00  0.00    -0.248 NA
ATOM     44  C   UNL     1      -7.302  -7.546  13.181  1.00  0.00     0.031 C 
ATOM     45  C   UNL     1      -8.075  -3.458  10.348  1.00  0.00     0.029 A 
ATOM     46  N   UNL     1      -9.721  -4.967  10.453  1.00  0.00    -0.354 N 
ATOM     47  C   UNL     1      -9.276  -8.606  12.718  1.00  0.00     0.074 A 
ATOM     48  C   UNL     1      -7.969  -8.681  13.335  1.00  0.00     0.031 C 
ATOM     49  C   UNL     1      -9.068  -3.026   9.556  1.00  0.00     0.029 A 
ATOM     50  C   UNL     1     -10.156  -3.998   9.579  1.00  0.00     0.049 A 
ATOM     51  H   UNL     1     -10.256  -5.759  10.689  1.00  0.00     0.167 HD
ATOM     52  C   UNL     1     -10.216  -9.577  12.807  1.00  0.00     0.034 A 
ATOM     53  C   UNL     1     -11.301  -3.903   8.874  1.00  0.00     0.034 A 
ATOM     54  C   UNL     1     -11.531  -9.480  12.232  1.00  0.00     0.049 A 
ATOM     55  C   UNL     1     -12.342  -4.981   9.015  1.00  0.00     0.074 A 
ATOM     56  C   UNL     1     -12.593 -10.358  12.361  1.00  0.00     0.029 A 
ATOM     57  N   UNL     1     -11.961  -8.452  11.408  1.00  0.00    -0.354 N 
ATOM     58  N   UNL     1     -12.321  -6.055   9.766  1.00  0.00    -0.248 NA
ATOM     59  C   UNL     1     -13.578  -4.816   8.236  1.00  0.00     0.031 C 
ATOM     60  C   UNL     1     -13.654  -9.877  11.586  1.00  0.00     0.029 A 
ATOM     61  C   UNL     1     -13.264  -8.683  11.001  1.00  0.00     0.049 A 
ATOM     62  H   UNL     1     -11.418  -7.673  11.148  1.00  0.00     0.167 HD
ATOM     63  C   UNL     1     -13.554  -6.672   9.583  1.00  0.00     0.074 A 
ATOM     64  C   UNL     1     -14.303  -5.842   8.661  1.00  0.00     0.031 C 
ATOM     65  C   UNL     1     -14.020  -7.825  10.124  1.00  0.00     0.034 A 
BRANCH  52  66
ATOM     66  C   UNL     1      -9.867 -10.818  13.590  1.00  0.00     0.023 A 
ATOM     67  C   UNL     1      -9.732 -10.747  14.992  1.00  0.00     0.012 A 
ATOM     68  C   UNL     1      -9.710 -12.060  12.944  1.00  0.00     0.148 A 
ATOM     69  C   UNL     1      -9.401 -11.881  15.733  1.00  0.00     0.002 A 
ATOM     70  C   UNL     1      -9.428 -13.196  13.696  1.00  0.00     0.091 A 
ATOM     71  F   UNL     1      -9.820 -12.107  11.609  1.00  0.00    -0.205 F 
ATOM     72  C   UNL     1      -9.259 -13.105  15.087  1.00  0.00     0.022 A 
BRANCH  70  73
ATOM     73  S   UNL     1      -9.309 -14.831  12.963  1.00  0.00     0.127 S 
ATOM     74  O   UNL     1      -7.865 -15.059  12.982  1.00  0.00    -0.237 OA
ATOM     75  O   UNL     1     -10.068 -15.651  13.909  1.00  0.00    -0.237 OA
ATOM     76  O   UNL     1      -9.912 -14.721  11.642  1.00  0.00    -0.744 OA
ENDBRANCH  70  73
ENDBRANCH  52  66
BRANCH  53  77
ATOM     77  C   UNL     1     -11.562  -2.696   8.038  1.00  0.00     0.023 A 
ATOM     78  C   UNL     1     -12.541  -1.774   8.458  1.00  0.00     0.012 A 
ATOM     79  C   UNL     1     -10.834  -2.437   6.861  1.00  0.00     0.148 A 
ATOM     80  C   UNL     1     -12.811  -0.630   7.707  1.00  0.00     0.002 A 
ATOM     81  C   UNL     1     -11.071  -1.268   6.145  1.00  0.00     0.091 A 
ATOM     82  F   UNL     1      -9.912  -3.330   6.475  1.00  0.00    -0.205 F 
ATOM     83  C   UNL     1     -12.070  -0.372   6.558  1.00  0.00     0.022 A 
BRANCH  81  84
ATOM     84  S   UNL     1     -10.087  -0.787   4.722  1.00  0.00     0.127 S 
ATOM     85  O   UNL     1     -11.064  -0.871   3.639  1.00  0.00    -0.237 OA
ATOM     86  O   UNL     1      -9.683   0.573   5.084  1.00  0.00    -0.237 OA
ATOM     87  O   UNL     1      -8.991  -1.743   4.657  1.00  0.00    -0.744 OA
ENDBRANCH  81  84
ENDBRANCH  53  77
BRANCH  65  88
ATOM     88  C   UNL     1     -15.422  -8.250   9.771  1.00  0.00     0.023 A 
ATOM     89  C   UNL     1     -15.706  -8.741   8.481  1.00  0.00     0.012 A 
ATOM     90  C   UNL     1     -16.442  -8.233  10.743  1.00  0.00     0.148 A 
ATOM     91  C   UNL     1     -16.989  -9.180   8.155  1.00  0.00     0.002 A 
ATOM     92  C   UNL     1     -17.705  -8.720  10.427  1.00  0.00     0.091 A 
ATOM     93  F   UNL     1     -16.159  -7.745  11.959  1.00  0.00    -0.205 F 
ATOM     94  C   UNL     1     -17.984  -9.181   9.130  1.00  0.00     0.022 A 
BRANCH  92  95
ATOM     95  S   UNL     1     -19.019  -8.854  11.645  1.00  0.00     0.127 S 
ATOM     96  O   UNL     1     -19.925  -7.786  11.225  1.00  0.00    -0.237 OA
ATOM     97  O   UNL     1     -19.522 -10.208  11.413  1.00  0.00    -0.237 OA
ATOM     98  O   UNL     1     -18.384  -8.660  12.943  1.00  0.00    -0.744 OA
ENDBRANCH  92  95
ENDBRANCH  65  88
ENDBRANCH  39  40
ENDBRANCH  31  34
ENDBRANCH  29  30
ENDBRANCH  28  29
ENDBRANCH   1  28
TORSDOF 18
