REMARK SMILES Cc1nn(CC(=O)NCCCCNC(=O)c2ccc(-c3c4nc(c(-c5cccc(S(=O)(=O)[O-])c5F)c5ccc([nH]5)c(-c5cccc(S(=O)(=O)[O-])c5F)c5nc(c(-c6cccc(S(=O)(=O)[O-])c6F)c6ccc3[nH]6)C=C5)C=C4)cc2)c(C)c1NC(=O)C(=O)Nc1ccc(F)cc1
REMARK SMILES IDX 10 1 9 2 8 3 6 4 7 5 5 7 4 8 1 9 2 10 3 11 81 12 79 13 80 14
REMARK SMILES IDX 82 15 83 16 84 18 85 19 86 20 87 21 88 23 89 24 94 25 90 26
REMARK SMILES IDX 93 27 91 28 92 29 11 30 12 31 13 32 14 33 15 35 16 36 17 37
REMARK SMILES IDX 78 38 18 39 77 40 19 41 20 42 21 43 71 44 22 45 76 46 70 47
REMARK SMILES IDX 72 48 23 49 75 50 69 51 68 52 24 54 56 55 36 56 55 57 37 58
REMARK SMILES IDX 40 59 54 60 73 61 38 62 39 63 53 65 74 66 41 67 25 68 26 69
REMARK SMILES IDX 34 70 27 71 29 72 35 73 28 74 30 75 31 76 32 77 33 78 57 79
REMARK SMILES IDX 58 80 66 81 59 82 61 83 67 84 60 85 62 86 63 87 64 88 65 89
REMARK SMILES IDX 42 90 43 91 51 92 44 93 46 94 52 95 45 96 47 97 48 98 49 99
REMARK SMILES IDX 50 100
REMARK H PARENT 8 6 82 17 87 22 13 34 72 53 40 64
REMARK Flexibility Score: inf
ROOT
ATOM      1  C   UNL     1       3.042  -1.632  -4.169  1.00  0.00     0.023 C 
ENDROOT
BRANCH   1   2
ATOM      2  C   UNL     1       2.382  -2.809  -4.897  1.00  0.00     0.116 C 
BRANCH   2   3
ATOM      3  N   UNL     1       2.500  -4.054  -4.166  1.00  0.00    -0.354 N 
ATOM      4  C   UNL     1       1.668  -4.663  -3.272  1.00  0.00     0.241 C 
ATOM      5  O   UNL     1       2.095  -5.691  -2.732  1.00  0.00    -0.273 OA
ATOM      6  H   UNL     1       3.330  -4.551  -4.346  1.00  0.00     0.163 HD
BRANCH   4   7
ATOM      7  C   UNL     1       0.240  -4.225  -3.020  1.00  0.00     0.244 C 
BRANCH   7   8
ATOM      8  N   UNL     1       0.070  -2.821  -2.684  1.00  0.00    -0.258 N 
ATOM      9  C   UNL     1       0.775  -0.306  -0.321  1.00  0.00     0.071 C 
ATOM     10  C   UNL     1       0.302  -1.092  -1.490  1.00  0.00     0.083 A 
ATOM     11  N   UNL     1       0.538  -2.401  -1.498  1.00  0.00    -0.175 NA
ATOM     12  C   UNL     1      -0.391  -0.661  -2.667  1.00  0.00     0.086 A 
ATOM     13  C   UNL     1      -0.560  -1.823  -3.410  1.00  0.00     0.060 A 
ATOM     14  C   UNL     1      -1.154  -2.118  -4.744  1.00  0.00     0.069 C 
BRANCH  12  15
ATOM     15  N   UNL     1      -0.713   0.670  -2.888  1.00  0.00    -0.315 N 
ATOM     16  C   UNL     1      -1.506   1.345  -3.780  1.00  0.00     0.314 C 
ATOM     17  H   UNL     1      -0.266   1.274  -2.252  1.00  0.00     0.170 HD
ATOM     18  O   UNL     1      -1.569   2.572  -3.721  1.00  0.00    -0.263 OA
BRANCH  16  19
ATOM     19  C   UNL     1      -2.406   0.596  -4.740  1.00  0.00     0.314 C 
ATOM     20  O   UNL     1      -3.301  -0.115  -4.290  1.00  0.00    -0.263 OA
ATOM     21  N   UNL     1      -2.200   0.702  -6.109  1.00  0.00    -0.318 N 
ATOM     22  H   UNL     1      -1.929  -0.093  -6.622  1.00  0.00     0.170 HD
BRANCH  21  23
ATOM     23  C   UNL     1      -2.373   1.932  -6.774  1.00  0.00     0.041 A 
ATOM     24  C   UNL     1      -3.510   2.044  -7.585  1.00  0.00     0.029 A 
ATOM     25  C   UNL     1      -1.524   3.025  -6.604  1.00  0.00     0.029 A 
ATOM     26  C   UNL     1      -3.861   3.277  -8.128  1.00  0.00     0.041 A 
ATOM     27  C   UNL     1      -1.869   4.257  -7.167  1.00  0.00     0.041 A 
ATOM     28  C   UNL     1      -3.046   4.377  -7.899  1.00  0.00     0.123 A 
ATOM     29  F   UNL     1      -3.408   5.573  -8.380  1.00  0.00    -0.207 F 
ENDBRANCH  21  23
ENDBRANCH  16  19
ENDBRANCH  12  15
ENDBRANCH   7   8
ENDBRANCH   4   7
ENDBRANCH   2   3
ENDBRANCH   1   2
BRANCH   1  30
ATOM     30  C   UNL     1       4.576  -1.649  -4.140  1.00  0.00     0.023 C 
BRANCH  30  31
ATOM     31  C   UNL     1       5.235  -1.497  -5.503  1.00  0.00     0.116 C 
BRANCH  31  32
ATOM     32  N   UNL     1       4.984  -0.191  -6.126  1.00  0.00    -0.352 N 
ATOM     33  C   UNL     1       5.333   0.209  -7.404  1.00  0.00     0.251 C 
ATOM     34  H   UNL     1       4.514   0.474  -5.573  1.00  0.00     0.163 HD
ATOM     35  O   UNL     1       5.437   1.400  -7.695  1.00  0.00    -0.269 OA
BRANCH  33  36
ATOM     36  C   UNL     1       5.549  -0.833  -8.418  1.00  0.00     0.039 A 
ATOM     37  C   UNL     1       6.630  -0.815  -9.304  1.00  0.00     0.014 A 
ATOM     38  C   UNL     1       4.653  -1.897  -8.399  1.00  0.00     0.014 A 
ATOM     39  C   UNL     1       6.846  -1.929 -10.114  1.00  0.00     0.010 A 
ATOM     40  C   UNL     1       4.983  -3.057  -9.038  1.00  0.00     0.010 A 
ATOM     41  C   UNL     1       6.024  -3.056  -9.957  1.00  0.00    -0.014 A 
BRANCH  41  42
ATOM     42  C   UNL     1       6.270  -4.299 -10.673  1.00  0.00     0.031 A 
ATOM     43  C   UNL     1       7.622  -4.879 -10.467  1.00  0.00     0.074 A 
ATOM     44  C   UNL     1       5.271  -4.983 -11.275  1.00  0.00     0.049 A 
ATOM     45  N   UNL     1       8.587  -4.927 -11.323  1.00  0.00    -0.248 NA
ATOM     46  C   UNL     1       8.003  -5.311  -9.115  1.00  0.00     0.031 C 
ATOM     47  C   UNL     1       3.833  -4.665 -11.284  1.00  0.00     0.029 A 
ATOM     48  N   UNL     1       5.309  -6.191 -11.894  1.00  0.00    -0.354 N 
ATOM     49  C   UNL     1       9.606  -5.640 -10.695  1.00  0.00     0.074 A 
ATOM     50  C   UNL     1       9.286  -5.637  -9.293  1.00  0.00     0.031 C 
ATOM     51  C   UNL     1       3.128  -5.756 -11.648  1.00  0.00     0.029 A 
ATOM     52  C   UNL     1       4.060  -6.775 -12.083  1.00  0.00     0.049 A 
ATOM     53  H   UNL     1       6.148  -6.618 -12.184  1.00  0.00     0.167 HD
ATOM     54  C   UNL     1      10.468  -6.411 -11.416  1.00  0.00     0.034 A 
ATOM     55  C   UNL     1       3.807  -8.018 -12.554  1.00  0.00     0.034 A 
ATOM     56  C   UNL     1      10.347  -6.136 -12.828  1.00  0.00     0.049 A 
ATOM     57  C   UNL     1       5.000  -8.433 -13.320  1.00  0.00     0.074 A 
ATOM     58  C   UNL     1      10.532  -5.037 -13.639  1.00  0.00     0.029 A 
ATOM     59  N   UNL     1       9.577  -7.021 -13.543  1.00  0.00    -0.354 N 
ATOM     60  N   UNL     1       5.385  -7.835 -14.412  1.00  0.00    -0.248 NA
ATOM     61  C   UNL     1       6.014  -9.226 -12.648  1.00  0.00     0.031 C 
ATOM     62  C   UNL     1       9.507  -5.132 -14.628  1.00  0.00     0.029 A 
ATOM     63  C   UNL     1       8.792  -6.313 -14.411  1.00  0.00     0.049 A 
ATOM     64  H   UNL     1       9.587  -8.001 -13.446  1.00  0.00     0.167 HD
ATOM     65  C   UNL     1       6.768  -7.782 -14.303  1.00  0.00     0.074 A 
ATOM     66  C   UNL     1       7.101  -8.776 -13.284  1.00  0.00     0.031 C 
ATOM     67  C   UNL     1       7.471  -6.736 -14.831  1.00  0.00     0.034 A 
BRANCH  54  68
ATOM     68  C   UNL     1      11.122  -7.693 -10.938  1.00  0.00     0.023 A 
ATOM     69  C   UNL     1      12.077  -8.283 -11.799  1.00  0.00     0.012 A 
ATOM     70  C   UNL     1      10.662  -8.486  -9.862  1.00  0.00     0.148 A 
ATOM     71  C   UNL     1      12.499  -9.608 -11.637  1.00  0.00     0.002 A 
ATOM     72  C   UNL     1      11.140  -9.777  -9.661  1.00  0.00     0.091 A 
ATOM     73  F   UNL     1       9.657  -8.059  -9.094  1.00  0.00    -0.205 F 
ATOM     74  C   UNL     1      12.034 -10.355 -10.565  1.00  0.00     0.022 A 
BRANCH  72  75
ATOM     75  S   UNL     1      10.600 -10.776  -8.267  1.00  0.00     0.127 S 
ATOM     76  O   UNL     1       9.730 -11.746  -8.924  1.00  0.00    -0.237 OA
ATOM     77  O   UNL     1      11.870 -11.312  -7.775  1.00  0.00    -0.237 OA
ATOM     78  O   UNL     1       9.950  -9.848  -7.350  1.00  0.00    -0.744 OA
ENDBRANCH  72  75
ENDBRANCH  54  68
BRANCH  55  79
ATOM     79  C   UNL     1       2.705  -8.946 -12.224  1.00  0.00     0.023 A 
ATOM     80  C   UNL     1       2.331  -9.957 -13.129  1.00  0.00     0.012 A 
ATOM     81  C   UNL     1       2.208  -9.009 -10.903  1.00  0.00     0.148 A 
ATOM     82  C   UNL     1       1.512 -11.018 -12.722  1.00  0.00     0.002 A 
ATOM     83  C   UNL     1       1.393 -10.064 -10.504  1.00  0.00     0.091 A 
ATOM     84  F   UNL     1       2.606  -8.081 -10.023  1.00  0.00    -0.205 F 
ATOM     85  C   UNL     1       1.053 -11.078 -11.408  1.00  0.00     0.022 A 
BRANCH  83  86
ATOM     86  S   UNL     1       0.787 -10.226  -8.819  1.00  0.00     0.127 S 
ATOM     87  O   UNL     1      -0.655 -10.350  -9.031  1.00  0.00    -0.237 OA
ATOM     88  O   UNL     1       1.450 -11.450  -8.376  1.00  0.00    -0.237 OA
ATOM     89  O   UNL     1       1.190  -9.006  -8.130  1.00  0.00    -0.744 OA
ENDBRANCH  83  86
ENDBRANCH  55  79
BRANCH  67  90
ATOM     90  C   UNL     1       6.731  -5.791 -15.750  1.00  0.00     0.023 A 
ATOM     91  C   UNL     1       5.699  -4.945 -15.292  1.00  0.00     0.012 A 
ATOM     92  C   UNL     1       7.204  -5.630 -17.062  1.00  0.00     0.148 A 
ATOM     93  C   UNL     1       5.138  -3.974 -16.127  1.00  0.00     0.002 A 
ATOM     94  C   UNL     1       6.676  -4.634 -17.875  1.00  0.00     0.091 A 
ATOM     95  F   UNL     1       8.193  -6.434 -17.479  1.00  0.00    -0.205 F 
ATOM     96  C   UNL     1       5.636  -3.810 -17.416  1.00  0.00     0.022 A 
BRANCH  94  97
ATOM     97  S   UNL     1       7.354  -4.283 -19.498  1.00  0.00     0.127 S 
ATOM     98  O   UNL     1       6.282  -4.736 -20.381  1.00  0.00    -0.237 OA
ATOM     99  O   UNL     1       7.536  -2.831 -19.451  1.00  0.00    -0.237 OA
ATOM    100  O   UNL     1       8.598  -5.038 -19.588  1.00  0.00    -0.744 OA
ENDBRANCH  94  97
ENDBRANCH  67  90
ENDBRANCH  41  42
ENDBRANCH  33  36
ENDBRANCH  31  32
ENDBRANCH  30  31
ENDBRANCH   1  30
TORSDOF 18
