REMARK SMILES O=C(NCCCCNC(=O)[C@@H](O)c1cscc1Br)c1ccc(-c2c3nc(c(-c4cccc(S(=O)(=O)[O-])c4F)c4ccc([nH]4)c(-c4cccc(S(=O)(=O)[O-])c4F)c4nc(c(-c5cccc(S(=O)(=O)[O-])c5F)c5ccc2[nH]5)C=C4)C=C3)cc1
REMARK SMILES IDX 4 1 3 2 1 3 2 4 19 6 20 7 81 8 21 9 80 10 22 11 23 12 24 13
REMARK SMILES IDX 74 14 25 15 79 16 73 17 75 18 26 19 78 20 72 21 71 22 27 24
REMARK SMILES IDX 59 25 39 26 58 27 40 28 43 29 57 30 76 31 41 32 42 33 56 35
REMARK SMILES IDX 77 36 44 37 28 38 29 39 37 40 30 41 32 42 38 43 31 44 33 45
REMARK SMILES IDX 34 46 35 47 36 48 60 49 61 50 69 51 62 52 64 53 70 54 63 55
REMARK SMILES IDX 65 56 66 57 67 58 68 59 45 60 46 61 54 62 47 63 49 64 55 65
REMARK SMILES IDX 48 66 50 67 51 68 52 69 53 70 5 71 6 72 7 73 8 74 9 75 10 77
REMARK SMILES IDX 11 78 12 79 13 81 14 82 17 83 15 84 16 85 18 86
REMARK H PARENT 3 5 75 23 43 34 8 76 12 80
REMARK Flexibility Score: inf
ROOT
ATOM      1  C   UNL     1       4.769   0.752  -1.077  1.00  0.00     0.116 C 
ENDROOT
BRANCH   1   2
ATOM      2  N   UNL     1       3.324   0.753  -0.892  1.00  0.00    -0.352 N 
ATOM      3  O   UNL     1       1.310  -0.048  -0.251  1.00  0.00    -0.269 OA
ATOM      4  C   UNL     1       2.532  -0.159  -0.228  1.00  0.00     0.251 C 
ATOM      5  H   UNL     1       2.845   1.512  -1.298  1.00  0.00     0.163 HD
BRANCH   4   6
ATOM      6  C   UNL     1       3.172  -1.292   0.472  1.00  0.00     0.039 A 
ATOM      7  C   UNL     1       4.272  -1.069   1.301  1.00  0.00     0.014 A 
ATOM      8  C   UNL     1       2.715  -2.593   0.243  1.00  0.00     0.014 A 
ATOM      9  C   UNL     1       5.030  -2.148   1.734  1.00  0.00     0.010 A 
ATOM     10  C   UNL     1       3.421  -3.678   0.772  1.00  0.00     0.010 A 
ATOM     11  C   UNL     1       4.613  -3.467   1.480  1.00  0.00    -0.014 A 
BRANCH  11  12
ATOM     12  C   UNL     1       5.423  -4.588   2.027  1.00  0.00     0.031 A 
ATOM     13  C   UNL     1       6.098  -5.593   1.132  1.00  0.00     0.074 A 
ATOM     14  C   UNL     1       5.583  -4.659   3.364  1.00  0.00     0.049 A 
ATOM     15  N   UNL     1       6.898  -6.574   1.462  1.00  0.00    -0.248 NA
ATOM     16  C   UNL     1       5.842  -5.496  -0.315  1.00  0.00     0.031 C 
ATOM     17  C   UNL     1       4.935  -3.771   4.333  1.00  0.00     0.029 A 
ATOM     18  N   UNL     1       6.348  -5.492   4.138  1.00  0.00    -0.354 N 
ATOM     19  C   UNL     1       7.212  -7.233   0.279  1.00  0.00     0.074 A 
ATOM     20  C   UNL     1       6.511  -6.543  -0.782  1.00  0.00     0.031 C 
ATOM     21  C   UNL     1       5.366  -4.073   5.565  1.00  0.00     0.029 A 
ATOM     22  C   UNL     1       6.276  -5.208   5.482  1.00  0.00     0.049 A 
ATOM     23  H   UNL     1       6.895  -6.222   3.768  1.00  0.00     0.167 HD
ATOM     24  C   UNL     1       8.025  -8.302   0.094  1.00  0.00     0.034 A 
ATOM     25  C   UNL     1       6.870  -5.798   6.536  1.00  0.00     0.034 A 
ATOM     26  C   UNL     1       8.755  -8.957   1.149  1.00  0.00     0.049 A 
ATOM     27  C   UNL     1       7.806  -6.944   6.290  1.00  0.00     0.074 A 
ATOM     28  C   UNL     1       9.638 -10.019   1.053  1.00  0.00     0.029 A 
ATOM     29  N   UNL     1       8.693  -8.612   2.491  1.00  0.00    -0.354 N 
ATOM     30  N   UNL     1       8.176  -7.474   5.150  1.00  0.00    -0.248 NA
ATOM     31  C   UNL     1       8.425  -7.557   7.472  1.00  0.00     0.031 C 
ATOM     32  C   UNL     1      10.104 -10.320   2.338  1.00  0.00     0.029 A 
ATOM     33  C   UNL     1       9.520  -9.440   3.233  1.00  0.00     0.049 A 
ATOM     34  H   UNL     1       8.142  -7.886   2.861  1.00  0.00     0.167 HD
ATOM     35  C   UNL     1       9.075  -8.481   5.476  1.00  0.00     0.074 A 
ATOM     36  C   UNL     1       9.230  -8.453   6.916  1.00  0.00     0.031 C 
ATOM     37  C   UNL     1       9.692  -9.371   4.660  1.00  0.00     0.034 A 
BRANCH  24  38
ATOM     38  C   UNL     1       8.224  -8.808  -1.312  1.00  0.00     0.023 A 
ATOM     39  C   UNL     1       9.069  -8.095  -2.187  1.00  0.00     0.012 A 
ATOM     40  C   UNL     1       7.666 -10.031  -1.735  1.00  0.00     0.148 A 
ATOM     41  C   UNL     1       9.343  -8.582  -3.465  1.00  0.00     0.002 A 
ATOM     42  C   UNL     1       7.971 -10.527  -2.998  1.00  0.00     0.091 A 
ATOM     43  F   UNL     1       6.852 -10.685  -0.895  1.00  0.00    -0.205 F 
ATOM     44  C   UNL     1       8.804  -9.801  -3.865  1.00  0.00     0.022 A 
BRANCH  42  45
ATOM     45  S   UNL     1       7.385 -12.122  -3.585  1.00  0.00     0.127 S 
ATOM     46  O   UNL     1       6.417 -11.722  -4.605  1.00  0.00    -0.237 OA
ATOM     47  O   UNL     1       8.610 -12.726  -4.111  1.00  0.00    -0.237 OA
ATOM     48  O   UNL     1       6.825 -12.796  -2.422  1.00  0.00    -0.744 OA
ENDBRANCH  42  45
ENDBRANCH  24  38
BRANCH  25  49
ATOM     49  C   UNL     1       6.623  -5.274   7.908  1.00  0.00     0.023 A 
ATOM     50  C   UNL     1       7.660  -4.626   8.603  1.00  0.00     0.012 A 
ATOM     51  C   UNL     1       5.349  -5.361   8.501  1.00  0.00     0.148 A 
ATOM     52  C   UNL     1       7.438  -4.091   9.873  1.00  0.00     0.002 A 
ATOM     53  C   UNL     1       5.117  -4.768   9.736  1.00  0.00     0.091 A 
ATOM     54  F   UNL     1       4.376  -6.003   7.838  1.00  0.00    -0.205 F 
ATOM     55  C   UNL     1       6.163  -4.148  10.433  1.00  0.00     0.022 A 
BRANCH  53  56
ATOM     56  S   UNL     1       3.459  -4.665  10.421  1.00  0.00     0.127 S 
ATOM     57  O   UNL     1       3.416  -5.840  11.286  1.00  0.00    -0.237 OA
ATOM     58  O   UNL     1       3.488  -3.382  11.125  1.00  0.00    -0.237 OA
ATOM     59  O   UNL     1       2.576  -4.682   9.261  1.00  0.00    -0.744 OA
ENDBRANCH  53  56
ENDBRANCH  25  49
BRANCH  37  60
ATOM     60  C   UNL     1      10.584 -10.390   5.315  1.00  0.00     0.023 A 
ATOM     61  C   UNL     1      10.002 -11.455   6.031  1.00  0.00     0.012 A 
ATOM     62  C   UNL     1      11.984 -10.318   5.195  1.00  0.00     0.148 A 
ATOM     63  C   UNL     1      10.802 -12.414   6.649  1.00  0.00     0.002 A 
ATOM     64  C   UNL     1      12.774 -11.301   5.780  1.00  0.00     0.091 A 
ATOM     65  F   UNL     1      12.520  -9.283   4.531  1.00  0.00    -0.205 F 
ATOM     66  C   UNL     1      12.187 -12.343   6.516  1.00  0.00     0.022 A 
BRANCH  64  67
ATOM     67  S   UNL     1      14.560 -11.323   5.587  1.00  0.00     0.127 S 
ATOM     68  O   UNL     1      15.005 -10.739   6.850  1.00  0.00    -0.237 OA
ATOM     69  O   UNL     1      14.845 -12.752   5.441  1.00  0.00    -0.237 OA
ATOM     70  O   UNL     1      14.835 -10.535   4.393  1.00  0.00    -0.744 OA
ENDBRANCH  64  67
ENDBRANCH  37  60
ENDBRANCH  11  12
ENDBRANCH   4   6
ENDBRANCH   1   2
BRANCH   1  71
ATOM     71  C   UNL     1       5.203   0.868  -2.532  1.00  0.00     0.023 C 
BRANCH  71  72
ATOM     72  C   UNL     1       4.701   2.101  -3.272  1.00  0.00     0.023 C 
BRANCH  72  73
ATOM     73  C   UNL     1       4.940   3.432  -2.572  1.00  0.00     0.116 C 
BRANCH  73  74
ATOM     74  N   UNL     1       6.333   3.815  -2.502  1.00  0.00    -0.354 N 
ATOM     75  C   UNL     1       6.870   5.072  -2.540  1.00  0.00     0.253 C 
ATOM     76  H   UNL     1       6.978   3.076  -2.417  1.00  0.00     0.163 HD
ATOM     77  O   UNL     1       8.068   5.190  -2.259  1.00  0.00    -0.272 OA
BRANCH  75  78
ATOM     78  C   UNL     1       6.024   6.319  -2.953  1.00  0.00     0.235 C 
BRANCH  78  79
ATOM     79  O   UNL     1       5.035   6.143  -3.952  1.00  0.00    -0.378 OA
ATOM     80  H   UNL     1       4.318   5.591  -3.603  1.00  0.00     0.212 HD
ENDBRANCH  78  79
BRANCH  78  81
ATOM     81  C   UNL     1       5.524   7.073  -1.736  1.00  0.00     0.015 A 
ATOM     82  C   UNL     1       6.330   7.999  -1.082  1.00  0.00     0.073 A 
ATOM     83  C   UNL     1       4.249   7.023  -1.080  1.00  0.00     0.035 A 
ATOM     84  S   UNL     1       5.595   8.721   0.279  1.00  0.00    -0.151 S 
ATOM     85  C   UNL     1       4.165   7.828   0.033  1.00  0.00     0.080 A 
ATOM     86  Br  UNL     1       2.752   6.003  -1.626  1.00  0.00    -0.050 Br
ENDBRANCH  78  81
ENDBRANCH  75  78
ENDBRANCH  73  74
ENDBRANCH  72  73
ENDBRANCH  71  72
ENDBRANCH   1  71
TORSDOF 16
