REMARK SMILES Cc1noc(C)c1[C@H](C)NC(=O)NCC(=O)NCC(=O)NCCCCNC(=O)c1ccc(-c2c3nc(c(-c4cccc(S(=O)(=O)[O-])c4F)c4ccc([nH]4)c(-c4cccc(S(=O)(=O)[O-])c4F)c4nc(c(-c5cccc(S(=O)(=O)[O-])c5F)c5ccc2[nH]5)C=C4)C=C3)cc1
REMARK SMILES IDX 22 1 21 2 19 3 20 4 18 6 17 7 15 8 16 9 14 11 13 12 10 13
REMARK SMILES IDX 11 14 12 16 8 18 9 19 7 20 1 21 2 22 3 23 4 24 5 25 6 26
REMARK SMILES IDX 23 27 24 28 25 29 26 30 27 31 28 33 29 34 30 35 91 36 31 37
REMARK SMILES IDX 90 38 32 39 33 40 34 41 84 42 35 43 89 44 83 45 85 46 36 47
REMARK SMILES IDX 88 48 82 49 81 50 37 52 69 53 49 54 68 55 50 56 53 57 67 58
REMARK SMILES IDX 86 59 51 60 52 61 66 63 87 64 54 65 38 66 39 67 47 68 40 69
REMARK SMILES IDX 42 70 48 71 41 72 43 73 44 74 45 75 46 76 70 77 71 78 79 79
REMARK SMILES IDX 72 80 74 81 80 82 73 83 75 84 76 85 77 86 78 87 55 88 56 89
REMARK SMILES IDX 64 90 57 91 59 92 65 93 58 94 60 95 61 96 62 97 63 98
REMARK H PARENT 21 5 17 10 10 15 13 17 26 32 85 51 53 62
REMARK Flexibility Score: inf
ROOT
ATOM      1  C   UNL     1       1.385   7.019   2.849  1.00  0.00     0.116 C 
ENDROOT
BRANCH   1   2
ATOM      2  N   UNL     1       0.308   7.723   2.209  1.00  0.00    -0.355 N 
ATOM      3  C   UNL     1      -0.141   7.583   0.934  1.00  0.00     0.239 C 
ATOM      4  O   UNL     1      -1.151   8.210   0.602  1.00  0.00    -0.273 OA
ATOM      5  H   UNL     1      -0.162   8.389   2.761  1.00  0.00     0.163 HD
BRANCH   3   6
ATOM      6  C   UNL     1       0.464   6.541  -0.017  1.00  0.00     0.216 C 
BRANCH   6   7
ATOM      7  N   UNL     1       1.904   6.350  -0.088  1.00  0.00    -0.346 N 
ATOM      8  C   UNL     1       2.717   5.283   0.099  1.00  0.00     0.239 C 
ATOM      9  O   UNL     1       3.873   5.409  -0.330  1.00  0.00    -0.273 OA
ATOM     10  H   UNL     1       2.392   7.172  -0.323  1.00  0.00     0.164 HD
BRANCH   8  11
ATOM     11  C   UNL     1       2.309   3.922   0.704  1.00  0.00     0.217 C 
BRANCH  11  12
ATOM     12  N   UNL     1       1.162   3.780   1.584  1.00  0.00    -0.329 N 
ATOM     13  N   UNL     1      -0.690   3.060   0.310  1.00  0.00    -0.331 N 
ATOM     14  C   UNL     1      -0.135   3.502   1.445  1.00  0.00     0.315 C 
ATOM     15  H   UNL     1      -1.651   3.254   0.225  1.00  0.00     0.165 HD
ATOM     16  O   UNL     1      -0.864   3.695   2.417  1.00  0.00    -0.249 OA
ATOM     17  H   UNL     1       1.405   3.927   2.526  1.00  0.00     0.165 HD
BRANCH  13  18
ATOM     18  C   UNL     1      -0.120   2.346  -0.815  1.00  0.00     0.116 C 
ATOM     19  C   UNL     1       0.269   0.938  -0.371  1.00  0.00     0.036 C 
BRANCH  18  20
ATOM     20  C   UNL     1      -1.081   2.422  -1.963  1.00  0.00     0.040 A 
ATOM     21  C   UNL     1      -0.727   4.917  -2.705  1.00  0.00     0.071 C 
ATOM     22  C   UNL     1      -1.320   3.565  -2.790  1.00  0.00     0.086 A 
ATOM     23  N   UNL     1      -2.218   3.310  -3.745  1.00  0.00    -0.085 NA
ATOM     24  O   UNL     1      -2.582   1.997  -3.574  1.00  0.00    -0.361 OA
ATOM     25  C   UNL     1      -1.904   1.463  -2.525  1.00  0.00     0.139 A 
ATOM     26  C   UNL     1      -2.191   0.040  -2.265  1.00  0.00     0.091 C 
ENDBRANCH  18  20
ENDBRANCH  13  18
ENDBRANCH  11  12
ENDBRANCH   8  11
ENDBRANCH   6   7
ENDBRANCH   3   6
ENDBRANCH   1   2
BRANCH   1  27
ATOM     27  C   UNL     1       2.707   7.769   2.735  1.00  0.00     0.023 C 
BRANCH  27  28
ATOM     28  C   UNL     1       2.796   8.997   3.636  1.00  0.00     0.023 C 
BRANCH  28  29
ATOM     29  C   UNL     1       2.418   8.740   5.087  1.00  0.00     0.116 C 
BRANCH  29  30
ATOM     30  N   UNL     1       3.101   7.590   5.667  1.00  0.00    -0.352 N 
ATOM     31  C   UNL     1       3.368   7.357   6.992  1.00  0.00     0.251 C 
ATOM     32  H   UNL     1       3.407   6.901   5.034  1.00  0.00     0.163 HD
ATOM     33  O   UNL     1       4.021   6.379   7.340  1.00  0.00    -0.269 OA
BRANCH  31  34
ATOM     34  C   UNL     1       2.894   8.344   7.976  1.00  0.00     0.039 A 
ATOM     35  C   UNL     1       3.832   8.964   8.802  1.00  0.00     0.014 A 
ATOM     36  C   UNL     1       1.551   8.729   7.994  1.00  0.00     0.014 A 
ATOM     37  C   UNL     1       3.424  10.016   9.617  1.00  0.00     0.010 A 
ATOM     38  C   UNL     1       1.166   9.830   8.747  1.00  0.00     0.010 A 
ATOM     39  C   UNL     1       2.096  10.477   9.573  1.00  0.00    -0.014 A 
BRANCH  39  40
ATOM     40  C   UNL     1       1.688  11.649  10.380  1.00  0.00     0.031 A 
ATOM     41  C   UNL     1       0.678  11.500  11.482  1.00  0.00     0.074 A 
ATOM     42  C   UNL     1       2.190  12.862  10.080  1.00  0.00     0.049 A 
ATOM     43  N   UNL     1       0.273  12.392  12.348  1.00  0.00    -0.248 NA
ATOM     44  C   UNL     1       0.013  10.194  11.612  1.00  0.00     0.031 C 
ATOM     45  C   UNL     1       3.074  13.153   8.948  1.00  0.00     0.029 A 
ATOM     46  N   UNL     1       2.021  14.077  10.691  1.00  0.00    -0.354 N 
ATOM     47  C   UNL     1      -0.711  11.767  13.103  1.00  0.00     0.074 A 
ATOM     48  C   UNL     1      -0.875  10.435  12.565  1.00  0.00     0.031 C 
ATOM     49  C   UNL     1       3.384  14.460   8.958  1.00  0.00     0.029 A 
ATOM     50  C   UNL     1       2.721  15.097  10.092  1.00  0.00     0.049 A 
ATOM     51  H   UNL     1       1.452  14.207  11.484  1.00  0.00     0.167 HD
ATOM     52  C   UNL     1      -1.388  12.245  14.172  1.00  0.00     0.034 A 
ATOM     53  C   UNL     1       2.835  16.395  10.433  1.00  0.00     0.034 A 
ATOM     54  C   UNL     1      -1.181  13.554  14.728  1.00  0.00     0.049 A 
ATOM     55  C   UNL     1       2.168  16.872  11.694  1.00  0.00     0.074 A 
ATOM     56  C   UNL     1      -1.724  14.099  15.877  1.00  0.00     0.029 A 
ATOM     57  N   UNL     1      -0.368  14.528  14.168  1.00  0.00    -0.354 N 
ATOM     58  N   UNL     1       1.407  16.204  12.527  1.00  0.00    -0.248 NA
ATOM     59  C   UNL     1       2.420  18.263  12.094  1.00  0.00     0.031 C 
ATOM     60  C   UNL     1      -1.251  15.411  16.002  1.00  0.00     0.029 A 
ATOM     61  C   UNL     1      -0.398  15.674  14.942  1.00  0.00     0.049 A 
ATOM     62  H   UNL     1       0.154  14.419  13.340  1.00  0.00     0.167 HD
ATOM     63  C   UNL     1       1.113  17.080  13.564  1.00  0.00     0.074 A 
ATOM     64  C   UNL     1       1.802  18.320  13.267  1.00  0.00     0.031 C 
ATOM     65  C   UNL     1       0.331  16.884  14.655  1.00  0.00     0.034 A 
BRANCH  52  66
ATOM     66  C   UNL     1      -2.369  11.320  14.844  1.00  0.00     0.023 A 
ATOM     67  C   UNL     1      -1.891  10.212  15.575  1.00  0.00     0.012 A 
ATOM     68  C   UNL     1      -3.755  11.561  14.784  1.00  0.00     0.148 A 
ATOM     69  C   UNL     1      -2.777   9.336  16.201  1.00  0.00     0.002 A 
ATOM     70  C   UNL     1      -4.630  10.709  15.450  1.00  0.00     0.091 A 
ATOM     71  F   UNL     1      -4.195  12.601  14.062  1.00  0.00    -0.205 F 
ATOM     72  C   UNL     1      -4.144   9.590  16.147  1.00  0.00     0.022 A 
BRANCH  70  73
ATOM     73  S   UNL     1      -6.401  11.000  15.505  1.00  0.00     0.127 S 
ATOM     74  O   UNL     1      -6.895   9.996  14.564  1.00  0.00    -0.237 OA
ATOM     75  O   UNL     1      -6.717  10.728  16.908  1.00  0.00    -0.237 OA
ATOM     76  O   UNL     1      -6.588  12.387  15.103  1.00  0.00    -0.744 OA
ENDBRANCH  70  73
ENDBRANCH  52  66
BRANCH  53  77
ATOM     77  C   UNL     1       3.704  17.294   9.624  1.00  0.00     0.023 A 
ATOM     78  C   UNL     1       4.944  17.714  10.145  1.00  0.00     0.012 A 
ATOM     79  C   UNL     1       3.342  17.677   8.319  1.00  0.00     0.148 A 
ATOM     80  C   UNL     1       5.795  18.522   9.391  1.00  0.00     0.002 A 
ATOM     81  C   UNL     1       4.220  18.436   7.552  1.00  0.00     0.091 A 
ATOM     82  F   UNL     1       2.155  17.274   7.845  1.00  0.00    -0.205 F 
ATOM     83  C   UNL     1       5.439  18.873   8.091  1.00  0.00     0.022 A 
BRANCH  81  84
ATOM     84  S   UNL     1       3.908  18.811   5.823  1.00  0.00     0.127 S 
ATOM     85  O   UNL     1       3.614  20.241   5.875  1.00  0.00    -0.237 OA
ATOM     86  O   UNL     1       5.188  18.466   5.203  1.00  0.00    -0.237 OA
ATOM     87  O   UNL     1       2.801  17.949   5.429  1.00  0.00    -0.744 OA
ENDBRANCH  81  84
ENDBRANCH  53  77
BRANCH  65  88
ATOM     88  C   UNL     1       0.190  18.030  15.622  1.00  0.00     0.023 A 
ATOM     89  C   UNL     1      -0.573  19.158  15.262  1.00  0.00     0.012 A 
ATOM     90  C   UNL     1       0.763  17.962  16.907  1.00  0.00     0.148 A 
ATOM     91  C   UNL     1      -0.732  20.219  16.153  1.00  0.00     0.002 A 
ATOM     92  C   UNL     1       0.559  19.003  17.806  1.00  0.00     0.091 A 
ATOM     93  F   UNL     1       1.504  16.891  17.225  1.00  0.00    -0.205 F 
ATOM     94  C   UNL     1      -0.176  20.137  17.427  1.00  0.00     0.022 A 
BRANCH  92  95
ATOM     95  S   UNL     1       1.162  18.926  19.497  1.00  0.00     0.127 S 
ATOM     96  O   UNL     1       2.379  19.731  19.419  1.00  0.00    -0.237 OA
ATOM     97  O   UNL     1       0.069  19.544  20.251  1.00  0.00    -0.237 OA
ATOM     98  O   UNL     1       1.356  17.510  19.781  1.00  0.00    -0.744 OA
ENDBRANCH  92  95
ENDBRANCH  65  88
ENDBRANCH  39  40
ENDBRANCH  31  34
ENDBRANCH  29  30
ENDBRANCH  28  29
ENDBRANCH  27  28
ENDBRANCH   1  27
TORSDOF 19
