REMARK SMILES CC(C)(C)N(CC(=O)NCCCCNC(=O)c1ccc(-c2c3nc(c(-c4cccc(S(=O)(=O)[O-])c4F)c4ccc([nH]4)c(-c4cccc(S(=O)(=O)[O-])c4F)c4nc(c(-c5cccc(S(=O)(=O)[O-])c5F)c5ccc2[nH]5)C=C4)C=C3)cc1)C(=O)N1CC[C@H](C[NH3+])C1
REMARK SMILES IDX 10 1 9 2 7 3 8 4 6 6 5 7 2 8 1 9 3 10 4 11 80 12 81 13 82 14
REMARK SMILES IDX 83 15 88 16 84 17 85 18 86 19 87 20 11 24 12 25 13 26 14 27
REMARK SMILES IDX 15 28 16 30 17 31 18 32 79 33 19 34 78 35 20 36 21 37 22 38
REMARK SMILES IDX 72 39 23 40 77 41 71 42 73 43 24 44 76 45 70 46 69 47 25 49
REMARK SMILES IDX 57 50 37 51 56 52 38 53 41 54 55 55 74 56 39 57 40 58 54 60
REMARK SMILES IDX 75 61 42 62 26 63 27 64 35 65 28 66 30 67 36 68 29 69 31 70
REMARK SMILES IDX 32 71 33 72 34 73 58 74 59 75 67 76 60 77 62 78 68 79 61 80
REMARK SMILES IDX 63 81 64 82 65 83 66 84 43 85 44 86 52 87 45 88 47 89 53 90
REMARK SMILES IDX 46 91 48 92 49 93 50 94 51 95
REMARK H PARENT 9 5 87 21 87 22 87 23 14 29 73 48 41 59
REMARK Flexibility Score: inf
ROOT
ATOM      1  C   UNL     1       3.748   0.867   1.494  1.00  0.00     0.116 C 
ENDROOT
BRANCH   1   2
ATOM      2  N   UNL     1       4.038  -0.417   2.082  1.00  0.00    -0.355 N 
ATOM      3  C   UNL     1       3.218  -1.490   2.267  1.00  0.00     0.239 C 
ATOM      4  O   UNL     1       3.765  -2.572   2.518  1.00  0.00    -0.273 OA
ATOM      5  H   UNL     1       4.964  -0.537   2.395  1.00  0.00     0.163 HD
BRANCH   3   6
ATOM      6  C   UNL     1       1.694  -1.444   2.031  1.00  0.00     0.221 C 
BRANCH   6   7
ATOM      7  N   UNL     1       0.903  -0.256   2.417  1.00  0.00    -0.311 N 
BRANCH   7   8
ATOM      8  C   UNL     1       0.058   0.463   1.378  1.00  0.00     0.037 C 
ATOM      9  C   UNL     1       0.348   0.052  -0.094  1.00  0.00     0.034 C 
ATOM     10  C   UNL     1       0.248   1.997   1.440  1.00  0.00     0.034 C 
ATOM     11  C   UNL     1      -1.442   0.136   1.590  1.00  0.00     0.034 C 
ENDBRANCH   7   8
BRANCH   7  12
ATOM     12  C   UNL     1       0.579  -0.042   3.778  1.00  0.00     0.320 C 
ATOM     13  O   UNL     1      -0.185   0.845   4.156  1.00  0.00    -0.248 OA
BRANCH  12  14
ATOM     14  N   UNL     1       0.972  -1.021   4.662  1.00  0.00    -0.324 N 
ATOM     15  C   UNL     1       2.287  -1.127   5.260  1.00  0.00     0.122 C 
ATOM     16  C   UNL     1       0.017  -1.537   5.628  1.00  0.00     0.130 C 
ATOM     17  C   UNL     1       2.227  -2.517   5.867  1.00  0.00     0.033 C 
ATOM     18  C   UNL     1       0.804  -2.567   6.460  1.00  0.00     0.065 C 
BRANCH  18  19
ATOM     19  C   UNL     1       0.143  -3.945   6.411  1.00  0.00     0.264 C 
BRANCH  19  20
ATOM     20  N   UNL     1       0.903  -4.954   7.140  1.00  0.00    -0.357 N 
ATOM     21  H   UNL     1       1.826  -5.055   6.718  1.00  0.00     0.344 HD
ATOM     22  H   UNL     1       0.411  -5.847   7.098  1.00  0.00     0.344 HD
ATOM     23  H   UNL     1       1.004  -4.667   8.113  1.00  0.00     0.344 HD
ENDBRANCH  19  20
ENDBRANCH  18  19
ENDBRANCH  12  14
ENDBRANCH   7  12
ENDBRANCH   6   7
ENDBRANCH   3   6
ENDBRANCH   1   2
BRANCH   1  24
ATOM     24  C   UNL     1       3.601   1.996   2.508  1.00  0.00     0.023 C 
BRANCH  24  25
ATOM     25  C   UNL     1       4.902   2.501   3.128  1.00  0.00     0.023 C 
BRANCH  25  26
ATOM     26  C   UNL     1       6.014   2.857   2.146  1.00  0.00     0.116 C 
BRANCH  26  27
ATOM     27  N   UNL     1       5.606   3.752   1.070  1.00  0.00    -0.352 N 
ATOM     28  C   UNL     1       6.343   4.734   0.446  1.00  0.00     0.251 C 
ATOM     29  H   UNL     1       4.683   3.641   0.747  1.00  0.00     0.163 HD
ATOM     30  O   UNL     1       5.833   5.431  -0.428  1.00  0.00    -0.269 OA
BRANCH  28  31
ATOM     31  C   UNL     1       7.737   4.974   0.874  1.00  0.00     0.039 A 
ATOM     32  C   UNL     1       8.126   6.274   1.206  1.00  0.00     0.014 A 
ATOM     33  C   UNL     1       8.631   3.910   1.018  1.00  0.00     0.014 A 
ATOM     34  C   UNL     1       9.383   6.493   1.774  1.00  0.00     0.010 A 
ATOM     35  C   UNL     1       9.849   4.120   1.655  1.00  0.00     0.010 A 
ATOM     36  C   UNL     1      10.235   5.411   2.048  1.00  0.00    -0.014 A 
BRANCH  36  37
ATOM     37  C   UNL     1      11.521   5.594   2.770  1.00  0.00     0.031 A 
ATOM     38  C   UNL     1      12.819   5.232   2.102  1.00  0.00     0.074 A 
ATOM     39  C   UNL     1      11.510   5.980   4.062  1.00  0.00     0.049 A 
ATOM     40  N   UNL     1      14.028   5.227   2.598  1.00  0.00    -0.248 NA
ATOM     41  C   UNL     1      12.745   4.784   0.700  1.00  0.00     0.031 C 
ATOM     42  C   UNL     1      10.311   6.274   4.851  1.00  0.00     0.029 A 
ATOM     43  N   UNL     1      12.540   6.160   4.952  1.00  0.00    -0.354 N 
ATOM     44  C   UNL     1      14.851   4.739   1.590  1.00  0.00     0.074 A 
ATOM     45  C   UNL     1      13.999   4.427   0.463  1.00  0.00     0.031 C 
ATOM     46  C   UNL     1      10.674   6.601   6.102  1.00  0.00     0.029 A 
ATOM     47  C   UNL     1      12.126   6.516   6.215  1.00  0.00     0.049 A 
ATOM     48  H   UNL     1      13.488   6.045   4.709  1.00  0.00     0.167 HD
ATOM     49  C   UNL     1      16.197   4.598   1.587  1.00  0.00     0.034 A 
ATOM     50  C   UNL     1      12.836   6.746   7.337  1.00  0.00     0.034 A 
ATOM     51  C   UNL     1      17.048   4.971   2.684  1.00  0.00     0.049 A 
ATOM     52  C   UNL     1      14.337   6.647   7.284  1.00  0.00     0.074 A 
ATOM     53  C   UNL     1      18.430   4.950   2.747  1.00  0.00     0.029 A 
ATOM     54  N   UNL     1      16.598   5.440   3.908  1.00  0.00    -0.354 N 
ATOM     55  N   UNL     1      15.108   6.337   6.269  1.00  0.00    -0.248 NA
ATOM     56  C   UNL     1      15.070   6.966   8.518  1.00  0.00     0.031 C 
ATOM     57  C   UNL     1      18.816   5.405   4.012  1.00  0.00     0.029 A 
ATOM     58  C   UNL     1      17.675   5.718   4.732  1.00  0.00     0.049 A 
ATOM     59  H   UNL     1      15.653   5.559   4.155  1.00  0.00     0.167 HD
ATOM     60  C   UNL     1      16.413   6.460   6.731  1.00  0.00     0.074 A 
ATOM     61  C   UNL     1      16.330   6.894   8.111  1.00  0.00     0.031 C 
ATOM     62  C   UNL     1      17.576   6.216   6.079  1.00  0.00     0.034 A 
BRANCH  49  63
ATOM     63  C   UNL     1      16.844   4.090   0.327  1.00  0.00     0.023 A 
ATOM     64  C   UNL     1      16.920   4.938  -0.797  1.00  0.00     0.012 A 
ATOM     65  C   UNL     1      17.429   2.810   0.268  1.00  0.00     0.148 A 
ATOM     66  C   UNL     1      17.541   4.511  -1.970  1.00  0.00     0.002 A 
ATOM     67  C   UNL     1      18.082   2.406  -0.891  1.00  0.00     0.091 A 
ATOM     68  F   UNL     1      17.327   2.010   1.339  1.00  0.00    -0.205 F 
ATOM     69  C   UNL     1      18.130   3.251  -2.013  1.00  0.00     0.022 A 
BRANCH  67  70
ATOM     70  S   UNL     1      18.936   0.832  -1.026  1.00  0.00     0.127 S 
ATOM     71  O   UNL     1      18.058   0.096  -1.934  1.00  0.00    -0.237 OA
ATOM     72  O   UNL     1      20.221   1.226  -1.605  1.00  0.00    -0.237 OA
ATOM     73  O   UNL     1      19.019   0.303   0.329  1.00  0.00    -0.744 OA
ENDBRANCH  67  70
ENDBRANCH  49  63
BRANCH  50  74
ATOM     74  C   UNL     1      12.146   7.178   8.586  1.00  0.00     0.023 A 
ATOM     75  C   UNL     1      12.302   8.505   9.032  1.00  0.00     0.012 A 
ATOM     76  C   UNL     1      11.329   6.300   9.322  1.00  0.00     0.148 A 
ATOM     77  C   UNL     1      11.688   8.940  10.207  1.00  0.00     0.002 A 
ATOM     78  C   UNL     1      10.677   6.754  10.465  1.00  0.00     0.091 A 
ATOM     79  F   UNL     1      11.203   5.035   8.895  1.00  0.00    -0.205 F 
ATOM     80  C   UNL     1      10.868   8.068  10.918  1.00  0.00     0.022 A 
BRANCH  78  81
ATOM     81  S   UNL     1       9.504   5.731  11.362  1.00  0.00     0.127 S 
ATOM     82  O   UNL     1      10.303   5.285  12.500  1.00  0.00    -0.237 OA
ATOM     83  O   UNL     1       8.445   6.687  11.688  1.00  0.00    -0.237 OA
ATOM     84  O   UNL     1       9.100   4.696  10.418  1.00  0.00    -0.744 OA
ENDBRANCH  78  81
ENDBRANCH  50  74
BRANCH  62  85
ATOM     85  C   UNL     1      18.860   6.448   6.829  1.00  0.00     0.023 A 
ATOM     86  C   UNL     1      19.263   5.530   7.819  1.00  0.00     0.012 A 
ATOM     87  C   UNL     1      19.705   7.525   6.496  1.00  0.00     0.148 A 
ATOM     88  C   UNL     1      20.476   5.696   8.485  1.00  0.00     0.002 A 
ATOM     89  C   UNL     1      20.932   7.659   7.133  1.00  0.00     0.091 A 
ATOM     90  F   UNL     1      19.293   8.399   5.566  1.00  0.00    -0.205 F 
ATOM     91  C   UNL     1      21.315   6.751   8.135  1.00  0.00     0.022 A 
BRANCH  89  92
ATOM     92  S   UNL     1      22.114   8.933   6.678  1.00  0.00     0.127 S 
ATOM     93  O   UNL     1      21.963   9.886   7.776  1.00  0.00    -0.237 OA
ATOM     94  O   UNL     1      23.381   8.200   6.676  1.00  0.00    -0.237 OA
ATOM     95  O   UNL     1      21.695   9.413   5.367  1.00  0.00    -0.744 OA
ENDBRANCH  89  92
ENDBRANCH  62  85
ENDBRANCH  36  37
ENDBRANCH  28  31
ENDBRANCH  26  27
ENDBRANCH  25  26
ENDBRANCH  24  25
ENDBRANCH   1  24
TORSDOF 20
