REMARK SMILES CS(=O)(=O)c1ccc(/C=C(/C(=O)NCCCCNC(=O)c2ccc(-c3c4nc(c(-c5cccc(S(=O)(=O)[O-])c5F)c5ccc([nH]5)c(-c5cccc(S(=O)(=O)[O-])c5F)c5nc(c(-c6cccc(S(=O)(=O)[O-])c6F)c6ccc3[nH]6)C=C5)C=C4)cc2)c2ccc(-c3ccc(S(C)(=O)=O)cc3)cc2)cc1
REMARK SMILES IDX 15 1 14 2 13 3 11 4 12 5 10 7 9 8 8 9 5 10 6 11 101 12 7 13
REMARK SMILES IDX 100 14 2 15 1 16 3 17 4 18 84 19 85 20 99 21 86 22 98 23
REMARK SMILES IDX 87 24 88 25 89 26 97 27 90 28 96 29 91 30 92 31 93 32 94 33
REMARK SMILES IDX 95 34 16 35 17 36 18 37 19 38 20 40 21 41 22 42 83 43 23 44
REMARK SMILES IDX 82 45 24 46 25 47 26 48 76 49 27 50 81 51 75 52 77 53 28 54
REMARK SMILES IDX 80 55 74 56 73 57 29 59 61 60 41 61 60 62 42 63 45 64 59 65
REMARK SMILES IDX 78 66 43 67 44 68 58 70 79 71 46 72 30 73 31 74 39 75 32 76
REMARK SMILES IDX 34 77 40 78 33 79 35 80 36 81 37 82 38 83 62 84 63 85 71 86
REMARK SMILES IDX 64 87 66 88 72 89 65 90 67 91 68 92 69 93 70 94 47 95 48 96
REMARK SMILES IDX 56 97 49 98 51 99 57 100 50 101 52 102 53 103 54 104 55 105
REMARK H PARENT 13 6 18 39 77 58 45 69
REMARK Flexibility Score: inf
ROOT
ATOM      1  C   UNL     1       1.474   9.021  -2.467  1.00  0.00     0.023 C 
ENDROOT
BRANCH   1   2
ATOM      2  C   UNL     1       1.542   8.416  -3.873  1.00  0.00     0.116 C 
BRANCH   2   3
ATOM      3  N   UNL     1       2.917   8.349  -4.321  1.00  0.00    -0.352 N 
ATOM      4  C   UNL     1       3.858   7.370  -4.327  1.00  0.00     0.251 C 
ATOM      5  O   UNL     1       4.971   7.693  -4.748  1.00  0.00    -0.269 OA
ATOM      6  H   UNL     1       3.239   9.196  -4.705  1.00  0.00     0.163 HD
BRANCH   4   7
ATOM      7  C   UNL     1       3.583   5.932  -3.933  1.00  0.00     0.047 C 
ATOM      8  C   UNL     1       2.669   5.595  -2.993  1.00  0.00     0.022 C 
BRANCH   8   9
ATOM      9  C   UNL     1       2.172   4.266  -2.569  1.00  0.00    -0.025 A 
ATOM     10  C   UNL     1       1.032   1.782  -1.934  1.00  0.00     0.067 A 
ATOM     11  C   UNL     1       2.414   1.893  -2.090  1.00  0.00     0.021 A 
ATOM     12  C   UNL     1       0.211   2.901  -2.058  1.00  0.00     0.021 A 
ATOM     13  C   UNL     1       2.979   3.141  -2.367  1.00  0.00     0.009 A 
ATOM     14  C   UNL     1       0.784   4.135  -2.376  1.00  0.00     0.009 A 
BRANCH  10  15
ATOM     15  S   UNL     1       0.329   0.187  -1.596  1.00  0.00     0.175 S 
ATOM     16  C   UNL     1       0.924  -0.189   0.031  1.00  0.00     0.163 C 
ATOM     17  O   UNL     1       0.917  -0.749  -2.528  1.00  0.00    -0.224 OA
ATOM     18  O   UNL     1      -1.115   0.345  -1.506  1.00  0.00    -0.224 OA
ENDBRANCH  10  15
ENDBRANCH   8   9
BRANCH   7  19
ATOM     19  C   UNL     1       4.515   4.910  -4.472  1.00  0.00    -0.013 A 
ATOM     20  C   UNL     1       5.848   4.952  -4.040  1.00  0.00     0.009 A 
ATOM     21  C   UNL     1       4.105   3.851  -5.287  1.00  0.00     0.009 A 
ATOM     22  C   UNL     1       6.734   3.924  -4.352  1.00  0.00     0.009 A 
ATOM     23  C   UNL     1       4.993   2.802  -5.575  1.00  0.00     0.009 A 
ATOM     24  C   UNL     1       6.311   2.804  -5.083  1.00  0.00    -0.018 A 
BRANCH  24  25
ATOM     25  C   UNL     1       7.218   1.655  -5.263  1.00  0.00    -0.018 A 
ATOM     26  C   UNL     1       7.969   1.168  -4.174  1.00  0.00     0.010 A 
ATOM     27  C   UNL     1       7.357   1.005  -6.500  1.00  0.00     0.010 A 
ATOM     28  C   UNL     1       8.838   0.085  -4.312  1.00  0.00     0.021 A 
ATOM     29  C   UNL     1       8.225  -0.082  -6.651  1.00  0.00     0.021 A 
ATOM     30  C   UNL     1       8.969  -0.526  -5.558  1.00  0.00     0.067 A 
BRANCH  30  31
ATOM     31  S   UNL     1      10.085  -1.895  -5.725  1.00  0.00     0.175 S 
ATOM     32  C   UNL     1      11.685  -1.157  -5.522  1.00  0.00     0.163 C 
ATOM     33  O   UNL     1       9.847  -2.781  -4.601  1.00  0.00    -0.224 OA
ATOM     34  O   UNL     1       9.995  -2.383  -7.088  1.00  0.00    -0.224 OA
ENDBRANCH  30  31
ENDBRANCH  24  25
ENDBRANCH   7  19
ENDBRANCH   4   7
ENDBRANCH   2   3
ENDBRANCH   1   2
BRANCH   1  35
ATOM     35  C   UNL     1       1.754  10.528  -2.421  1.00  0.00     0.023 C 
BRANCH  35  36
ATOM     36  C   UNL     1       0.783  11.384  -3.226  1.00  0.00     0.116 C 
BRANCH  36  37
ATOM     37  N   UNL     1      -0.604  11.204  -2.821  1.00  0.00    -0.352 N 
ATOM     38  C   UNL     1      -1.613  12.138  -2.829  1.00  0.00     0.251 C 
ATOM     39  H   UNL     1      -0.849  10.305  -2.504  1.00  0.00     0.163 HD
ATOM     40  O   UNL     1      -2.710  11.875  -2.348  1.00  0.00    -0.269 OA
BRANCH  38  41
ATOM     41  C   UNL     1      -1.337  13.472  -3.395  1.00  0.00     0.039 A 
ATOM     42  C   UNL     1      -1.604  14.607  -2.626  1.00  0.00     0.014 A 
ATOM     43  C   UNL     1      -0.759  13.588  -4.661  1.00  0.00     0.014 A 
ATOM     44  C   UNL     1      -1.232  15.864  -3.105  1.00  0.00     0.010 A 
ATOM     45  C   UNL     1      -0.327  14.832  -5.104  1.00  0.00     0.010 A 
ATOM     46  C   UNL     1      -0.564  15.982  -4.334  1.00  0.00    -0.014 A 
BRANCH  46  47
ATOM     47  C   UNL     1      -0.111  17.293  -4.861  1.00  0.00     0.031 A 
ATOM     48  C   UNL     1      -0.681  17.803  -6.156  1.00  0.00     0.074 A 
ATOM     49  C   UNL     1       0.888  17.957  -4.247  1.00  0.00     0.049 A 
ATOM     50  N   UNL     1      -0.315  18.835  -6.869  1.00  0.00    -0.248 NA
ATOM     51  C   UNL     1      -1.785  17.026  -6.746  1.00  0.00     0.031 C 
ATOM     52  C   UNL     1       1.564  17.529  -3.021  1.00  0.00     0.029 A 
ATOM     53  N   UNL     1       1.539  19.114  -4.597  1.00  0.00    -0.354 N 
ATOM     54  C   UNL     1      -1.104  18.801  -8.013  1.00  0.00     0.074 A 
ATOM     55  C   UNL     1      -1.950  17.633  -7.912  1.00  0.00     0.031 C 
ATOM     56  C   UNL     1       2.539  18.405  -2.726  1.00  0.00     0.029 A 
ATOM     57  C   UNL     1       2.582  19.436  -3.759  1.00  0.00     0.049 A 
ATOM     58  H   UNL     1       1.284  19.662  -5.375  1.00  0.00     0.167 HD
ATOM     59  C   UNL     1      -1.140  19.679  -9.042  1.00  0.00     0.034 A 
ATOM     60  C   UNL     1       3.480  20.439  -3.825  1.00  0.00     0.034 A 
ATOM     61  C   UNL     1      -0.338  20.869  -9.107  1.00  0.00     0.049 A 
ATOM     62  C   UNL     1       3.384  21.431  -4.955  1.00  0.00     0.074 A 
ATOM     63  C   UNL     1      -0.360  21.869 -10.062  1.00  0.00     0.029 A 
ATOM     64  N   UNL     1       0.626  21.222  -8.176  1.00  0.00    -0.354 N 
ATOM     65  N   UNL     1       2.539  21.459  -5.956  1.00  0.00    -0.248 NA
ATOM     66  C   UNL     1       4.340  22.548  -4.946  1.00  0.00     0.031 C 
ATOM     67  C   UNL     1       0.605  22.820  -9.717  1.00  0.00     0.029 A 
ATOM     68  C   UNL     1       1.206  22.426  -8.533  1.00  0.00     0.049 A 
ATOM     69  H   UNL     1       0.864  20.694  -7.380  1.00  0.00     0.167 HD
ATOM     70  C   UNL     1       2.826  22.620  -6.666  1.00  0.00     0.074 A 
ATOM     71  C   UNL     1       3.921  23.270  -5.978  1.00  0.00     0.031 C 
ATOM     72  C   UNL     1       2.241  23.098  -7.791  1.00  0.00     0.034 A 
BRANCH  59  73
ATOM     73  C   UNL     1      -2.116  19.413 -10.158  1.00  0.00     0.023 A 
ATOM     74  C   UNL     1      -3.497  19.574  -9.927  1.00  0.00     0.012 A 
ATOM     75  C   UNL     1      -1.667  19.060 -11.445  1.00  0.00     0.148 A 
ATOM     76  C   UNL     1      -4.419  19.351 -10.948  1.00  0.00     0.002 A 
ATOM     77  C   UNL     1      -2.589  18.886 -12.471  1.00  0.00     0.091 A 
ATOM     78  F   UNL     1      -0.351  18.890 -11.640  1.00  0.00    -0.205 F 
ATOM     79  C   UNL     1      -3.965  19.018 -12.221  1.00  0.00     0.022 A 
BRANCH  77  80
ATOM     80  S   UNL     1      -2.099  18.537 -14.163  1.00  0.00     0.127 S 
ATOM     81  O   UNL     1      -2.508  17.141 -14.307  1.00  0.00    -0.237 OA
ATOM     82  O   UNL     1      -2.909  19.491 -14.921  1.00  0.00    -0.237 OA
ATOM     83  O   UNL     1      -0.664  18.778 -14.223  1.00  0.00    -0.744 OA
ENDBRANCH  77  80
ENDBRANCH  59  73
BRANCH  60  84
ATOM     84  C   UNL     1       4.505  20.596  -2.754  1.00  0.00     0.023 A 
ATOM     85  C   UNL     1       4.400  21.676  -1.855  1.00  0.00     0.012 A 
ATOM     86  C   UNL     1       5.562  19.679  -2.603  1.00  0.00     0.148 A 
ATOM     87  C   UNL     1       5.347  21.859  -0.847  1.00  0.00     0.002 A 
ATOM     88  C   UNL     1       6.473  19.836  -1.564  1.00  0.00     0.091 A 
ATOM     89  F   UNL     1       5.651  18.663  -3.474  1.00  0.00    -0.205 F 
ATOM     90  C   UNL     1       6.378  20.935  -0.696  1.00  0.00     0.022 A 
BRANCH  88  91
ATOM     91  S   UNL     1       7.754  18.627  -1.213  1.00  0.00     0.127 S 
ATOM     92  O   UNL     1       8.960  19.341  -1.624  1.00  0.00    -0.237 OA
ATOM     93  O   UNL     1       7.609  18.442   0.231  1.00  0.00    -0.237 OA
ATOM     94  O   UNL     1       7.411  17.453  -2.004  1.00  0.00    -0.744 OA
ENDBRANCH  88  91
ENDBRANCH  60  84
BRANCH  72  95
ATOM     95  C   UNL     1       2.710  24.425  -8.325  1.00  0.00     0.023 A 
ATOM     96  C   UNL     1       3.940  24.518  -9.002  1.00  0.00     0.012 A 
ATOM     97  C   UNL     1       1.865  25.552  -8.257  1.00  0.00     0.148 A 
ATOM     98  C   UNL     1       4.331  25.720  -9.591  1.00  0.00     0.002 A 
ATOM     99  C   UNL     1       2.240  26.731  -8.888  1.00  0.00     0.091 A 
ATOM    100  F   UNL     1       0.707  25.442  -7.591  1.00  0.00    -0.205 F 
ATOM    101  C   UNL     1       3.477  26.820  -9.547  1.00  0.00     0.022 A 
BRANCH  99 102
ATOM    102  S   UNL     1       1.159  28.164  -8.972  1.00  0.00     0.127 S 
ATOM    103  O   UNL     1       1.849  29.108  -8.094  1.00  0.00    -0.237 OA
ATOM    104  O   UNL     1       1.208  28.505 -10.394  1.00  0.00    -0.237 OA
ATOM    105  O   UNL     1      -0.144  27.715  -8.502  1.00  0.00    -0.744 OA
ENDBRANCH  99 102
ENDBRANCH  72  95
ENDBRANCH  46  47
ENDBRANCH  38  41
ENDBRANCH  36  37
ENDBRANCH  35  36
ENDBRANCH   1  35
TORSDOF 19
