REMARK SMILES CC1=C(C(=O)NCCCCNC(=O)c2ccc(-c3c4nc(c(-c5cccc(S(=O)(=O)[O-])c5F)c5ccc([nH]5)c(-c5cccc(S(=O)(=O)[O-])c5F)c5nc(c(-c6cccc(S(=O)(=O)[O-])c6F)c6ccc3[nH]6)C=C5)C=C4)cc2)[C@H](c2ccc(Cl)cc2)n2ncnc2N1
REMARK SMILES IDX 9 1 8 2 7 3 6 4 4 5 5 6 3 8 1 9 2 10 90 11 77 12 89 13 85 15
REMARK SMILES IDX 88 16 86 17 87 18 78 19 79 20 84 21 80 22 83 23 81 24 82 25
REMARK SMILES IDX 10 26 11 27 12 28 13 30 14 31 15 32 76 33 16 34 75 35 17 36
REMARK SMILES IDX 18 37 19 38 69 39 20 40 74 41 68 42 70 43 21 44 73 45 67 46
REMARK SMILES IDX 66 47 22 49 54 50 34 51 53 52 35 53 38 54 52 55 71 56 36 57
REMARK SMILES IDX 37 58 51 60 72 61 39 62 23 63 24 64 32 65 25 66 27 67 33 68
REMARK SMILES IDX 26 69 28 70 29 71 30 72 31 73 55 74 56 75 64 76 57 77 59 78
REMARK SMILES IDX 65 79 58 80 60 81 61 82 62 83 63 84 40 85 41 86 49 87 42 88
REMARK SMILES IDX 44 89 50 90 43 91 45 92 46 93 47 94 48 95
REMARK H PARENT 6 7 90 14 11 29 70 48 38 59
REMARK Flexibility Score: inf
ROOT
ATOM      1  C   UNL     1       0.368   2.076  -3.201  1.00  0.00     0.023 C 
ENDROOT
BRANCH   1   2
ATOM      2  C   UNL     1       0.613   1.170  -1.991  1.00  0.00     0.023 C 
BRANCH   2   3
ATOM      3  C   UNL     1       1.492   1.760  -0.875  1.00  0.00     0.116 C 
BRANCH   3   4
ATOM      4  N   UNL     1       0.658   2.480   0.061  1.00  0.00    -0.352 N 
ATOM      5  C   UNL     1      -0.042   2.141   1.165  1.00  0.00     0.251 C 
ATOM      6  O   UNL     1      -0.880   2.979   1.521  1.00  0.00    -0.270 OA
ATOM      7  H   UNL     1       0.584   3.437  -0.157  1.00  0.00     0.163 HD
BRANCH   5   8
ATOM      8  C   UNL     1       0.142   0.921   2.030  1.00  0.00     0.065 C 
ATOM      9  C   UNL     1       0.550  -1.013   0.375  1.00  0.00     0.065 C 
ATOM     10  C   UNL     1       0.358  -0.394   1.729  1.00  0.00     0.026 C 
ATOM     11  N   UNL     1       0.225  -1.369   2.723  1.00  0.00    -0.328 N 
ATOM     12  C   UNL     1      -0.199   1.286   3.514  1.00  0.00     0.179 C 
ATOM     13  C   UNL     1      -0.497  -1.165   3.834  1.00  0.00     0.226 A 
ATOM     14  H   UNL     1       0.678  -2.235   2.603  1.00  0.00     0.169 HD
ATOM     15  N   UNL     1      -0.806   0.119   4.175  1.00  0.00    -0.219 N 
ATOM     16  N   UNL     1      -1.048  -1.995   4.681  1.00  0.00    -0.200 NA
ATOM     17  N   UNL     1      -1.655   0.154   5.227  1.00  0.00    -0.157 NA
ATOM     18  C   UNL     1      -1.751  -1.152   5.503  1.00  0.00     0.248 A 
BRANCH  12  19
ATOM     19  C   UNL     1       0.996   1.830   4.324  1.00  0.00    -0.018 A 
ATOM     20  C   UNL     1       1.510   1.165   5.456  1.00  0.00     0.008 A 
ATOM     21  C   UNL     1       1.573   3.072   3.990  1.00  0.00     0.008 A 
ATOM     22  C   UNL     1       2.508   1.736   6.249  1.00  0.00     0.021 A 
ATOM     23  C   UNL     1       2.592   3.635   4.774  1.00  0.00     0.021 A 
ATOM     24  C   UNL     1       3.033   2.978   5.917  1.00  0.00     0.041 A 
ATOM     25  Cl  UNL     1       4.165   3.714   6.981  1.00  0.00    -0.084 Cl
ENDBRANCH  12  19
ENDBRANCH   5   8
ENDBRANCH   3   4
ENDBRANCH   2   3
ENDBRANCH   1   2
BRANCH   1  26
ATOM     26  C   UNL     1       1.555   2.166  -4.147  1.00  0.00     0.116 C 
BRANCH  26  27
ATOM     27  N   UNL     1       1.867   0.879  -4.776  1.00  0.00    -0.352 N 
ATOM     28  C   UNL     1       3.032   0.535  -5.426  1.00  0.00     0.251 C 
ATOM     29  H   UNL     1       1.168   0.187  -4.730  1.00  0.00     0.163 HD
ATOM     30  O   UNL     1       3.072  -0.393  -6.229  1.00  0.00    -0.269 OA
BRANCH  28  31
ATOM     31  C   UNL     1       4.240   1.303  -5.105  1.00  0.00     0.039 A 
ATOM     32  C   UNL     1       4.997   1.914  -6.109  1.00  0.00     0.014 A 
ATOM     33  C   UNL     1       4.530   1.487  -3.753  1.00  0.00     0.014 A 
ATOM     34  C   UNL     1       6.010   2.791  -5.738  1.00  0.00     0.010 A 
ATOM     35  C   UNL     1       5.455   2.435  -3.393  1.00  0.00     0.010 A 
ATOM     36  C   UNL     1       6.218   3.066  -4.378  1.00  0.00    -0.014 A 
BRANCH  36  37
ATOM     37  C   UNL     1       7.096   4.163  -3.970  1.00  0.00     0.031 A 
ATOM     38  C   UNL     1       6.704   5.495  -4.526  1.00  0.00     0.074 A 
ATOM     39  C   UNL     1       7.991   4.012  -2.968  1.00  0.00     0.049 A 
ATOM     40  N   UNL     1       7.404   6.288  -5.270  1.00  0.00    -0.248 NA
ATOM     41  C   UNL     1       5.305   5.934  -4.356  1.00  0.00     0.031 C 
ATOM     42  C   UNL     1       8.209   2.806  -2.155  1.00  0.00     0.029 A 
ATOM     43  N   UNL     1       8.765   4.938  -2.335  1.00  0.00    -0.354 N 
ATOM     44  C   UNL     1       6.623   7.435  -5.435  1.00  0.00     0.074 A 
ATOM     45  C   UNL     1       5.287   7.067  -5.059  1.00  0.00     0.031 C 
ATOM     46  C   UNL     1       8.814   3.145  -0.998  1.00  0.00     0.029 A 
ATOM     47  C   UNL     1       9.175   4.547  -1.058  1.00  0.00     0.049 A 
ATOM     48  H   UNL     1       9.011   5.801  -2.739  1.00  0.00     0.167 HD
ATOM     49  C   UNL     1       7.197   8.663  -5.575  1.00  0.00     0.034 A 
ATOM     50  C   UNL     1       9.712   5.330  -0.088  1.00  0.00     0.034 A 
ATOM     51  C   UNL     1       8.586   8.544  -5.940  1.00  0.00     0.049 A 
ATOM     52  C   UNL     1      10.213   6.556  -0.740  1.00  0.00     0.074 A 
ATOM     53  C   UNL     1       9.284   7.960  -6.977  1.00  0.00     0.029 A 
ATOM     54  N   UNL     1       9.500   8.758  -4.939  1.00  0.00    -0.354 N 
ATOM     55  N   UNL     1      11.201   6.564  -1.587  1.00  0.00    -0.248 NA
ATOM     56  C   UNL     1       9.332   7.709  -0.785  1.00  0.00     0.031 C 
ATOM     57  C   UNL     1      10.460   7.428  -6.371  1.00  0.00     0.029 A 
ATOM     58  C   UNL     1      10.455   7.785  -5.021  1.00  0.00     0.049 A 
ATOM     59  H   UNL     1       9.472   9.487  -4.277  1.00  0.00     0.167 HD
ATOM     60  C   UNL     1      10.788   7.448  -2.573  1.00  0.00     0.074 A 
ATOM     61  C   UNL     1       9.700   8.213  -1.965  1.00  0.00     0.031 C 
ATOM     62  C   UNL     1      11.162   7.263  -3.873  1.00  0.00     0.034 A 
BRANCH  49  63
ATOM     63  C   UNL     1       6.659   9.952  -4.969  1.00  0.00     0.023 A 
ATOM     64  C   UNL     1       7.378  11.140  -5.247  1.00  0.00     0.012 A 
ATOM     65  C   UNL     1       5.705  10.023  -3.927  1.00  0.00     0.148 A 
ATOM     66  C   UNL     1       7.222  12.298  -4.476  1.00  0.00     0.002 A 
ATOM     67  C   UNL     1       5.498  11.199  -3.212  1.00  0.00     0.091 A 
ATOM     68  F   UNL     1       5.066   8.926  -3.519  1.00  0.00    -0.205 F 
ATOM     69  C   UNL     1       6.280  12.328  -3.457  1.00  0.00     0.022 A 
BRANCH  67  70
ATOM     70  S   UNL     1       4.263  11.304  -1.909  1.00  0.00     0.127 S 
ATOM     71  O   UNL     1       5.103  11.347  -0.716  1.00  0.00    -0.237 OA
ATOM     72  O   UNL     1       3.588  12.559  -2.241  1.00  0.00    -0.237 OA
ATOM     73  O   UNL     1       3.428  10.119  -2.061  1.00  0.00    -0.744 OA
ENDBRANCH  67  70
ENDBRANCH  49  63
BRANCH  50  74
ATOM     74  C   UNL     1       9.594   5.228   1.385  1.00  0.00     0.023 A 
ATOM     75  C   UNL     1      10.537   5.869   2.214  1.00  0.00     0.012 A 
ATOM     76  C   UNL     1       8.409   4.742   1.977  1.00  0.00     0.148 A 
ATOM     77  C   UNL     1      10.293   6.046   3.583  1.00  0.00     0.002 A 
ATOM     78  C   UNL     1       8.175   4.910   3.337  1.00  0.00     0.091 A 
ATOM     79  F   UNL     1       7.472   4.197   1.190  1.00  0.00    -0.205 F 
ATOM     80  C   UNL     1       9.109   5.574   4.143  1.00  0.00     0.022 A 
BRANCH  78  81
ATOM     81  S   UNL     1       6.668   4.333   4.126  1.00  0.00     0.127 S 
ATOM     82  O   UNL     1       7.206   3.531   5.224  1.00  0.00    -0.237 OA
ATOM     83  O   UNL     1       6.035   5.589   4.519  1.00  0.00    -0.237 OA
ATOM     84  O   UNL     1       5.953   3.566   3.112  1.00  0.00    -0.744 OA
ENDBRANCH  78  81
ENDBRANCH  50  74
BRANCH  62  85
ATOM     85  C   UNL     1      12.246   6.255  -4.162  1.00  0.00     0.023 A 
ATOM     86  C   UNL     1      12.094   4.873  -3.919  1.00  0.00     0.012 A 
ATOM     87  C   UNL     1      13.382   6.700  -4.855  1.00  0.00     0.148 A 
ATOM     88  C   UNL     1      13.064   3.960  -4.343  1.00  0.00     0.002 A 
ATOM     89  C   UNL     1      14.319   5.787  -5.318  1.00  0.00     0.091 A 
ATOM     90  F   UNL     1      13.509   8.017  -5.079  1.00  0.00    -0.205 F 
ATOM     91  C   UNL     1      14.170   4.416  -5.055  1.00  0.00     0.022 A 
BRANCH  89  92
ATOM     92  S   UNL     1      15.692   6.302  -6.349  1.00  0.00     0.127 S 
ATOM     93  O   UNL     1      16.820   6.203  -5.426  1.00  0.00    -0.237 OA
ATOM     94  O   UNL     1      15.680   5.296  -7.413  1.00  0.00    -0.237 OA
ATOM     95  O   UNL     1      15.370   7.649  -6.803  1.00  0.00    -0.744 OA
ENDBRANCH  89  92
ENDBRANCH  62  85
ENDBRANCH  36  37
ENDBRANCH  28  31
ENDBRANCH  26  27
ENDBRANCH   1  26
TORSDOF 15
