REMARK SMILES CCc1n[nH]c(C(=O)N[C@@]2(C(=O)NCCCCNC(=O)c3ccc(-c4c5nc(c(-c6cccc(S(=O)(=O)[O-])c6F)c6ccc([nH]6)c(-c6cccc(S(=O)(=O)[O-])c6F)c6nc(c(-c7cccc(S(=O)(=O)[O-])c7F)c7ccc4[nH]7)C=C6)C=C5)cc3)CCCC[C@H]2C)n1
REMARK SMILES IDX 15 1 14 2 13 3 11 4 12 5 10 7 84 8 88 9 85 10 87 11 89 12
REMARK SMILES IDX 86 13 9 14 7 15 8 16 6 18 3 19 4 20 90 21 5 22 2 24 1 25
REMARK SMILES IDX 16 26 17 27 18 28 19 29 20 31 21 32 22 33 83 34 23 35 82 36
REMARK SMILES IDX 24 37 25 38 26 39 76 40 27 41 81 42 75 43 77 44 28 45 80 46
REMARK SMILES IDX 74 47 73 48 29 50 61 51 41 52 60 53 42 54 45 55 59 56 78 57
REMARK SMILES IDX 43 58 44 59 58 61 79 62 46 63 30 64 31 65 39 66 32 67 34 68
REMARK SMILES IDX 40 69 33 70 35 71 36 72 37 73 38 74 62 75 63 76 71 77 64 78
REMARK SMILES IDX 66 79 72 80 65 81 67 82 68 83 69 84 70 85 47 86 48 87 56 88
REMARK SMILES IDX 49 89 51 90 57 91 50 92 52 93 53 94 54 95 55 96
REMARK H PARENT 13 6 9 17 5 23 18 30 77 49 45 60
REMARK Flexibility Score: inf
ROOT
ATOM      1  C   UNL     1      -0.258   7.652   2.052  1.00  0.00     0.023 C 
ENDROOT
BRANCH   1   2
ATOM      2  C   UNL     1      -1.007   7.005   0.892  1.00  0.00     0.116 C 
BRANCH   2   3
ATOM      3  N   UNL     1      -0.822   7.658  -0.395  1.00  0.00    -0.354 N 
ATOM      4  C   UNL     1      -0.236   7.192  -1.549  1.00  0.00     0.246 C 
ATOM      5  O   UNL     1      -0.297   7.908  -2.556  1.00  0.00    -0.272 OA
ATOM      6  H   UNL     1      -1.171   8.577  -0.449  1.00  0.00     0.163 HD
BRANCH   4   7
ATOM      7  C   UNL     1       0.554   5.817  -1.590  1.00  0.00     0.122 C 
ATOM      8  C   UNL     1      -0.445   4.704  -1.205  1.00  0.00     0.039 C 
ATOM      9  C   UNL     1       1.777   6.042  -0.655  1.00  0.00     0.021 C 
ATOM     10  C   UNL     1      -0.075   3.792  -0.030  1.00  0.00     0.003 C 
ATOM     11  C   UNL     1       2.358   4.748  -0.121  1.00  0.00     0.006 C 
ATOM     12  C   UNL     1       2.857   6.962  -1.248  1.00  0.00     0.011 C 
ATOM     13  C   UNL     1       1.294   3.962   0.638  1.00  0.00     0.000 C 
BRANCH   7  14
ATOM     14  N   UNL     1       0.992   5.647  -3.018  1.00  0.00    -0.335 N 
ATOM     15  C   UNL     1       1.452   4.614  -3.808  1.00  0.00     0.289 C 
ATOM     16  O   UNL     1       1.749   4.899  -4.972  1.00  0.00    -0.266 OA
ATOM     17  H   UNL     1       0.935   6.492  -3.520  1.00  0.00     0.165 HD
BRANCH  15  18
ATOM     18  C   UNL     1       1.522   3.234  -3.365  1.00  0.00     0.214 A 
ATOM     19  C   UNL     1       1.391   1.390  -2.301  1.00  0.00     0.151 A 
ATOM     20  N   UNL     1       1.481   0.987  -3.573  1.00  0.00    -0.158 NA
ATOM     21  N   UNL     1       1.462   2.751  -2.145  1.00  0.00    -0.207 NA
ATOM     22  N   UNL     1       1.603   2.168  -4.220  1.00  0.00    -0.255 N 
ATOM     23  H   UNL     1       1.734   2.252  -5.192  1.00  0.00     0.192 HD
BRANCH  19  24
ATOM     24  C   UNL     1       1.000   0.523  -1.153  1.00  0.00     0.076 C 
ATOM     25  C   UNL     1       1.720  -0.801  -1.014  1.00  0.00     0.012 C 
ENDBRANCH  19  24
ENDBRANCH  15  18
ENDBRANCH   7  14
ENDBRANCH   4   7
ENDBRANCH   2   3
ENDBRANCH   1   2
BRANCH   1  26
ATOM     26  C   UNL     1      -1.019   8.758   2.765  1.00  0.00     0.023 C 
BRANCH  26  27
ATOM     27  C   UNL     1      -2.382   8.360   3.317  1.00  0.00     0.116 C 
BRANCH  27  28
ATOM     28  N   UNL     1      -2.344   7.252   4.263  1.00  0.00    -0.352 N 
ATOM     29  C   UNL     1      -3.058   7.110   5.436  1.00  0.00     0.251 C 
ATOM     30  H   UNL     1      -1.733   6.513   4.037  1.00  0.00     0.163 HD
ATOM     31  O   UNL     1      -2.863   6.160   6.175  1.00  0.00    -0.269 OA
BRANCH  29  32
ATOM     32  C   UNL     1      -4.035   8.162   5.798  1.00  0.00     0.039 A 
ATOM     33  C   UNL     1      -3.945   8.766   7.053  1.00  0.00     0.014 A 
ATOM     34  C   UNL     1      -4.970   8.607   4.861  1.00  0.00     0.014 A 
ATOM     35  C   UNL     1      -4.738   9.880   7.336  1.00  0.00     0.010 A 
ATOM     36  C   UNL     1      -5.693   9.767   5.113  1.00  0.00     0.010 A 
ATOM     37  C   UNL     1      -5.584  10.418   6.351  1.00  0.00    -0.014 A 
BRANCH  37  38
ATOM     38  C   UNL     1      -6.345  11.673   6.585  1.00  0.00     0.031 A 
ATOM     39  C   UNL     1      -7.849  11.666   6.531  1.00  0.00     0.074 A 
ATOM     40  C   UNL     1      -5.682  12.836   6.744  1.00  0.00     0.049 A 
ATOM     41  N   UNL     1      -8.682  12.667   6.649  1.00  0.00    -0.248 NA
ATOM     42  C   UNL     1      -8.502  10.370   6.281  1.00  0.00     0.031 C 
ATOM     43  C   UNL     1      -4.226  12.992   6.721  1.00  0.00     0.029 A 
ATOM     44  N   UNL     1      -6.147  14.115   6.930  1.00  0.00    -0.354 N 
ATOM     45  C   UNL     1      -9.949  12.131   6.451  1.00  0.00     0.074 A 
ATOM     46  C   UNL     1      -9.774  10.725   6.166  1.00  0.00     0.031 C 
ATOM     47  C   UNL     1      -3.917  14.287   6.894  1.00  0.00     0.029 A 
ATOM     48  C   UNL     1      -5.150  15.060   7.011  1.00  0.00     0.049 A 
ATOM     49  H   UNL     1      -7.104  14.335   6.998  1.00  0.00     0.167 HD
ATOM     50  C   UNL     1     -11.153  12.745   6.533  1.00  0.00     0.034 A 
ATOM     51  C   UNL     1      -5.221  16.397   7.160  1.00  0.00     0.034 A 
ATOM     52  C   UNL     1     -11.327  14.133   6.866  1.00  0.00     0.049 A 
ATOM     53  C   UNL     1      -6.571  17.047   7.300  1.00  0.00     0.074 A 
ATOM     54  C   UNL     1     -12.506  14.827   7.071  1.00  0.00     0.029 A 
ATOM     55  N   UNL     1     -10.293  15.041   7.037  1.00  0.00    -0.354 N 
ATOM     56  N   UNL     1      -7.759  16.493   7.281  1.00  0.00    -0.248 NA
ATOM     57  C   UNL     1      -6.590  18.501   7.519  1.00  0.00     0.031 C 
ATOM     58  C   UNL     1     -12.186  16.160   7.345  1.00  0.00     0.029 A 
ATOM     59  C   UNL     1     -10.807  16.291   7.336  1.00  0.00     0.049 A 
ATOM     60  H   UNL     1      -9.336  14.828   6.958  1.00  0.00     0.167 HD
ATOM     61  C   UNL     1      -8.663  17.521   7.521  1.00  0.00     0.074 A 
ATOM     62  C   UNL     1      -7.884  18.728   7.704  1.00  0.00     0.031 C 
ATOM     63  C   UNL     1     -10.018  17.473   7.569  1.00  0.00     0.034 A 
BRANCH  50  64
ATOM     64  C   UNL     1     -12.383  11.903   6.318  1.00  0.00     0.023 A 
ATOM     65  C   UNL     1     -12.754  10.955   7.294  1.00  0.00     0.012 A 
ATOM     66  C   UNL     1     -13.199  12.083   5.185  1.00  0.00     0.148 A 
ATOM     67  C   UNL     1     -13.897  10.175   7.130  1.00  0.00     0.002 A 
ATOM     68  C   UNL     1     -14.362  11.334   5.050  1.00  0.00     0.091 A 
ATOM     69  F   UNL     1     -12.818  12.972   4.257  1.00  0.00    -0.205 F 
ATOM     70  C   UNL     1     -14.706  10.372   6.014  1.00  0.00     0.022 A 
BRANCH  68  71
ATOM     71  S   UNL     1     -15.513  11.568   3.690  1.00  0.00     0.127 S 
ATOM     72  O   UNL     1     -15.303  10.346   2.914  1.00  0.00    -0.237 OA
ATOM     73  O   UNL     1     -16.799  11.636   4.384  1.00  0.00    -0.237 OA
ATOM     74  O   UNL     1     -15.111  12.803   3.033  1.00  0.00    -0.744 OA
ENDBRANCH  68  71
ENDBRANCH  50  64
BRANCH  51  75
ATOM     75  C   UNL     1      -3.970  17.204   7.258  1.00  0.00     0.023 A 
ATOM     76  C   UNL     1      -3.617  17.783   8.493  1.00  0.00     0.012 A 
ATOM     77  C   UNL     1      -3.119  17.378   6.151  1.00  0.00     0.148 A 
ATOM     78  C   UNL     1      -2.457  18.548   8.615  1.00  0.00     0.002 A 
ATOM     79  C   UNL     1      -1.936  18.095   6.293  1.00  0.00     0.091 A 
ATOM     80  F   UNL     1      -3.477  16.829   4.981  1.00  0.00    -0.205 F 
ATOM     81  C   UNL     1      -1.612  18.696   7.519  1.00  0.00     0.022 A 
BRANCH  79  82
ATOM     82  S   UNL     1      -0.724  18.223   4.973  1.00  0.00     0.127 S 
ATOM     83  O   UNL     1      -0.860  19.622   4.577  1.00  0.00    -0.237 OA
ATOM     84  O   UNL     1       0.520  17.898   5.673  1.00  0.00    -0.237 OA
ATOM     85  O   UNL     1      -1.125  17.239   3.977  1.00  0.00    -0.744 OA
ENDBRANCH  79  82
ENDBRANCH  51  75
BRANCH  63  86
ATOM     86  C   UNL     1     -10.752  18.755   7.864  1.00  0.00     0.023 A 
ATOM     87  C   UNL     1     -10.826  19.762   6.882  1.00  0.00     0.012 A 
ATOM     88  C   UNL     1     -11.433  18.928   9.085  1.00  0.00     0.148 A 
ATOM     89  C   UNL     1     -11.539  20.936   7.123  1.00  0.00     0.002 A 
ATOM     90  C   UNL     1     -12.183  20.078   9.299  1.00  0.00     0.091 A 
ATOM     91  F   UNL     1     -11.336  17.966  10.014  1.00  0.00    -0.205 F 
ATOM     92  C   UNL     1     -12.226  21.089   8.325  1.00  0.00     0.022 A 
BRANCH  90  93
ATOM     93  S   UNL     1     -13.178  20.317  10.775  1.00  0.00     0.127 S 
ATOM     94  O   UNL     1     -12.402  21.323  11.498  1.00  0.00    -0.237 OA
ATOM     95  O   UNL     1     -14.443  20.803  10.222  1.00  0.00    -0.237 OA
ATOM     96  O   UNL     1     -13.263  19.012  11.416  1.00  0.00    -0.744 OA
ENDBRANCH  90  93
ENDBRANCH  63  86
ENDBRANCH  37  38
ENDBRANCH  29  32
ENDBRANCH  27  28
ENDBRANCH  26  27
ENDBRANCH   1  26
TORSDOF 17
