REMARK SMILES CC(C)(C)OC(=O)N1CCC[C@](Cc2ccccc2)(C(=O)NCCCCNC(=O)c2ccc(-c3c4nc(c(-c5cccc(S(=O)(=O)[O-])c5F)c5ccc([nH]5)c(-c5cccc(S(=O)(=O)[O-])c5F)c5nc(c(-c6cccc(S(=O)(=O)[O-])c6F)c6ccc3[nH]6)C=C5)C=C4)cc2)C1
REMARK SMILES IDX 24 1 23 2 22 3 20 4 21 5 12 7 8 8 9 9 93 10 10 11 11 12 6 13
REMARK SMILES IDX 7 14 5 15 2 16 1 17 3 18 4 19 13 20 14 21 15 22 19 23 16 24
REMARK SMILES IDX 18 25 17 26 25 27 26 28 27 29 28 30 29 32 30 33 31 34 92 35
REMARK SMILES IDX 32 36 91 37 33 38 34 39 35 40 85 41 36 42 90 43 84 44 86 45
REMARK SMILES IDX 37 46 89 47 83 48 82 49 38 51 70 52 50 53 69 54 51 55 54 56
REMARK SMILES IDX 68 57 87 58 52 59 53 60 67 62 88 63 55 64 39 65 40 66 48 67
REMARK SMILES IDX 41 68 43 69 49 70 42 71 44 72 45 73 46 74 47 75 71 76 72 77
REMARK SMILES IDX 80 78 73 79 75 80 81 81 74 82 76 83 77 84 78 85 79 86 56 87
REMARK SMILES IDX 57 88 65 89 58 90 60 91 66 92 59 93 61 94 62 95 63 96 64 97
REMARK H PARENT 22 6 27 31 86 50 54 61
REMARK Flexibility Score: inf
ROOT
ATOM      1  C   UNL     1      -0.098   4.530  -6.950  1.00  0.00     0.023 C 
ENDROOT
BRANCH   1   2
ATOM      2  C   UNL     1       0.628   3.634  -5.944  1.00  0.00     0.116 C 
BRANCH   2   3
ATOM      3  N   UNL     1       2.061   3.836  -5.954  1.00  0.00    -0.356 N 
ATOM      4  C   UNL     1       2.908   4.488  -5.118  1.00  0.00     0.228 C 
ATOM      5  O   UNL     1       4.109   4.348  -5.388  1.00  0.00    -0.274 OA
ATOM      6  H   UNL     1       2.513   3.416  -6.721  1.00  0.00     0.163 HD
BRANCH   4   7
ATOM      7  C   UNL     1       2.463   5.317  -3.874  1.00  0.00     0.071 C 
ATOM      8  N   UNL     1       0.700   4.066  -2.580  1.00  0.00    -0.307 N 
ATOM      9  C   UNL     1      -0.147   5.231  -2.462  1.00  0.00     0.123 C 
ATOM     10  C   UNL     1       2.123   4.313  -2.736  1.00  0.00     0.140 C 
ATOM     11  C   UNL     1      -0.071   6.111  -3.687  1.00  0.00     0.023 C 
ATOM     12  C   UNL     1       1.337   6.330  -4.245  1.00  0.00     0.021 C 
BRANCH   8  13
ATOM     13  C   UNL     1       0.144   2.809  -2.437  1.00  0.00     0.410 C 
ATOM     14  O   UNL     1      -1.010   2.566  -2.766  1.00  0.00    -0.224 OA
BRANCH  13  15
ATOM     15  O   UNL     1       0.987   1.939  -1.827  1.00  0.00    -0.444 OA
BRANCH  15  16
ATOM     16  C   UNL     1       0.574   0.596  -1.438  1.00  0.00     0.106 C 
ATOM     17  C   UNL     1       1.353   0.291  -0.149  1.00  0.00     0.056 C 
ATOM     18  C   UNL     1       1.014  -0.366  -2.542  1.00  0.00     0.056 C 
ATOM     19  C   UNL     1      -0.921   0.420  -1.126  1.00  0.00     0.056 C 
ENDBRANCH  15  16
ENDBRANCH  13  15
ENDBRANCH   8  13
BRANCH   7  20
ATOM     20  C   UNL     1       3.775   6.123  -3.474  1.00  0.00     0.054 C 
BRANCH  20  21
ATOM     21  C   UNL     1       3.661   7.183  -2.393  1.00  0.00    -0.047 A 
ATOM     22  C   UNL     1       3.447   8.527  -2.740  1.00  0.00     0.004 A 
ATOM     23  C   UNL     1       3.759   6.852  -1.038  1.00  0.00     0.004 A 
ATOM     24  C   UNL     1       3.238   9.495  -1.758  1.00  0.00     0.000 A 
ATOM     25  C   UNL     1       3.554   7.821  -0.054  1.00  0.00     0.000 A 
ATOM     26  C   UNL     1       3.275   9.137  -0.414  1.00  0.00     0.000 A 
ENDBRANCH  20  21
ENDBRANCH   7  20
ENDBRANCH   4   7
ENDBRANCH   2   3
ENDBRANCH   1   2
BRANCH   1  27
ATOM     27  C   UNL     1      -0.648   3.800  -8.170  1.00  0.00     0.023 C 
BRANCH  27  28
ATOM     28  C   UNL     1      -1.599   2.648  -7.865  1.00  0.00     0.116 C 
BRANCH  28  29
ATOM     29  N   UNL     1      -2.765   3.010  -7.068  1.00  0.00    -0.352 N 
ATOM     30  C   UNL     1      -4.006   2.406  -7.100  1.00  0.00     0.251 C 
ATOM     31  H   UNL     1      -2.657   3.763  -6.443  1.00  0.00     0.163 HD
ATOM     32  O   UNL     1      -4.943   2.833  -6.435  1.00  0.00    -0.269 OA
BRANCH  30  33
ATOM     33  C   UNL     1      -4.187   1.254  -8.008  1.00  0.00     0.039 A 
ATOM     34  C   UNL     1      -5.142   1.333  -9.022  1.00  0.00     0.014 A 
ATOM     35  C   UNL     1      -3.304   0.173  -7.939  1.00  0.00     0.014 A 
ATOM     36  C   UNL     1      -5.148   0.367 -10.030  1.00  0.00     0.010 A 
ATOM     37  C   UNL     1      -3.257  -0.736  -8.989  1.00  0.00     0.010 A 
ATOM     38  C   UNL     1      -4.173  -0.644 -10.050  1.00  0.00    -0.014 A 
BRANCH  38  39
ATOM     39  C   UNL     1      -4.074  -1.608 -11.176  1.00  0.00     0.031 A 
ATOM     40  C   UNL     1      -4.251  -3.080 -10.921  1.00  0.00     0.074 A 
ATOM     41  C   UNL     1      -3.732  -1.170 -12.406  1.00  0.00     0.049 A 
ATOM     42  N   UNL     1      -4.125  -4.082 -11.751  1.00  0.00    -0.248 NA
ATOM     43  C   UNL     1      -4.581  -3.482  -9.542  1.00  0.00     0.031 C 
ATOM     44  C   UNL     1      -3.448   0.222 -12.765  1.00  0.00     0.029 A 
ATOM     45  N   UNL     1      -3.540  -1.857 -13.579  1.00  0.00    -0.354 N 
ATOM     46  C   UNL     1      -4.328  -5.229 -10.993  1.00  0.00     0.074 A 
ATOM     47  C   UNL     1      -4.537  -4.803  -9.627  1.00  0.00     0.031 C 
ATOM     48  C   UNL     1      -3.134   0.287 -14.070  1.00  0.00     0.029 A 
ATOM     49  C   UNL     1      -3.169  -1.057 -14.637  1.00  0.00     0.049 A 
ATOM     50  H   UNL     1      -3.658  -2.831 -13.658  1.00  0.00     0.167 HD
ATOM     51  C   UNL     1      -4.380  -6.518 -11.402  1.00  0.00     0.034 A 
ATOM     52  C   UNL     1      -2.892  -1.374 -15.917  1.00  0.00     0.034 A 
ATOM     53  C   UNL     1      -4.230  -6.935 -12.768  1.00  0.00     0.049 A 
ATOM     54  C   UNL     1      -3.006  -2.811 -16.353  1.00  0.00     0.074 A 
ATOM     55  C   UNL     1      -4.332  -8.210 -13.296  1.00  0.00     0.029 A 
ATOM     56  N   UNL     1      -3.958  -6.083 -13.827  1.00  0.00    -0.354 N 
ATOM     57  N   UNL     1      -3.346  -3.863 -15.649  1.00  0.00    -0.248 NA
ATOM     58  C   UNL     1      -2.736  -3.100 -17.770  1.00  0.00     0.031 C 
ATOM     59  C   UNL     1      -4.121  -8.129 -14.676  1.00  0.00     0.029 A 
ATOM     60  C   UNL     1      -3.897  -6.802 -15.008  1.00  0.00     0.049 A 
ATOM     61  H   UNL     1      -3.826  -5.111 -13.751  1.00  0.00     0.167 HD
ATOM     62  C   UNL     1      -3.372  -4.928 -16.542  1.00  0.00     0.074 A 
ATOM     63  C   UNL     1      -3.033  -4.390 -17.844  1.00  0.00     0.031 C 
ATOM     64  C   UNL     1      -3.633  -6.237 -16.305  1.00  0.00     0.034 A 
BRANCH  51  65
ATOM     65  C   UNL     1      -4.695  -7.563 -10.365  1.00  0.00     0.023 A 
ATOM     66  C   UNL     1      -6.006  -7.643  -9.851  1.00  0.00     0.012 A 
ATOM     67  C   UNL     1      -3.727  -8.492  -9.938  1.00  0.00     0.148 A 
ATOM     68  C   UNL     1      -6.341  -8.608  -8.903  1.00  0.00     0.002 A 
ATOM     69  C   UNL     1      -4.080  -9.479  -9.024  1.00  0.00     0.091 A 
ATOM     70  F   UNL     1      -2.482  -8.387 -10.422  1.00  0.00    -0.205 F 
ATOM     71  C   UNL     1      -5.382  -9.531  -8.498  1.00  0.00     0.022 A 
BRANCH  69  72
ATOM     72  S   UNL     1      -2.940 -10.761  -8.490  1.00  0.00     0.127 S 
ATOM     73  O   UNL     1      -2.690 -10.374  -7.102  1.00  0.00    -0.237 OA
ATOM     74  O   UNL     1      -3.744 -11.973  -8.650  1.00  0.00    -0.237 OA
ATOM     75  O   UNL     1      -1.791 -10.672  -9.380  1.00  0.00    -0.744 OA
ENDBRANCH  69  72
ENDBRANCH  51  65
BRANCH  52  76
ATOM     76  C   UNL     1      -2.571  -0.305 -16.907  1.00  0.00     0.023 A 
ATOM     77  C   UNL     1      -3.506  -0.005 -17.917  1.00  0.00     0.012 A 
ATOM     78  C   UNL     1      -1.361   0.412 -16.861  1.00  0.00     0.148 A 
ATOM     79  C   UNL     1      -3.227   0.960 -18.886  1.00  0.00     0.002 A 
ATOM     80  C   UNL     1      -1.110   1.409 -17.799  1.00  0.00     0.091 A 
ATOM     81  F   UNL     1      -0.472   0.104 -15.905  1.00  0.00    -0.205 F 
ATOM     82  C   UNL     1      -2.034   1.673 -18.822  1.00  0.00     0.022 A 
BRANCH  80  83
ATOM     83  S   UNL     1       0.347   2.457 -17.709  1.00  0.00     0.127 S 
ATOM     84  O   UNL     1       1.207   1.863 -18.729  1.00  0.00    -0.237 OA
ATOM     85  O   UNL     1      -0.196   3.772 -18.051  1.00  0.00    -0.237 OA
ATOM     86  O   UNL     1       0.813   2.346 -16.333  1.00  0.00    -0.744 OA
ENDBRANCH  80  83
ENDBRANCH  52  76
BRANCH  64  87
ATOM     87  C   UNL     1      -3.609  -7.179 -17.479  1.00  0.00     0.023 A 
ATOM     88  C   UNL     1      -2.376  -7.559 -18.043  1.00  0.00     0.012 A 
ATOM     89  C   UNL     1      -4.801  -7.750 -17.967  1.00  0.00     0.148 A 
ATOM     90  C   UNL     1      -2.331  -8.472 -19.095  1.00  0.00     0.002 A 
ATOM     91  C   UNL     1      -4.745  -8.694 -18.985  1.00  0.00     0.091 A 
ATOM     92  F   UNL     1      -5.966  -7.359 -17.430  1.00  0.00    -0.205 F 
ATOM     93  C   UNL     1      -3.512  -9.049 -19.557  1.00  0.00     0.022 A 
BRANCH  91  94
ATOM     94  S   UNL     1      -6.206  -9.555 -19.577  1.00  0.00     0.127 S 
ATOM     95  O   UNL     1      -6.441  -8.896 -20.860  1.00  0.00    -0.237 OA
ATOM     96  O   UNL     1      -5.735 -10.937 -19.678  1.00  0.00    -0.237 OA
ATOM     97  O   UNL     1      -7.231  -9.342 -18.564  1.00  0.00    -0.744 OA
ENDBRANCH  91  94
ENDBRANCH  64  87
ENDBRANCH  38  39
ENDBRANCH  30  33
ENDBRANCH  28  29
ENDBRANCH  27  28
ENDBRANCH   1  27
TORSDOF 19
