REMARK SMILES Cc1ccc(C(=O)NCCCCNC(=O)c2ccc(-c3c4nc(c(-c5cccc(S(=O)(=O)[O-])c5F)c5ccc([nH]5)c(-c5cccc(S(=O)(=O)[O-])c5F)c5nc(c(-c6cccc(S(=O)(=O)[O-])c6F)c6ccc3[nH]6)C=C5)C=C4)cc2)cc1O[C@@H](C)C(=O)N[C@@H]1CCS(=O)(=O)C1
REMARK SMILES IDX 10 1 9 2 8 3 6 4 7 5 5 7 1 8 2 9 3 10 80 11 4 12 79 13 81 14
REMARK SMILES IDX 82 15 83 16 84 17 85 18 86 19 87 21 88 22 93 23 89 24 90 25
REMARK SMILES IDX 91 26 92 27 11 28 12 29 13 30 14 31 15 33 16 34 17 35 78 36
REMARK SMILES IDX 18 37 77 38 19 39 20 40 21 41 71 42 22 43 76 44 70 45 72 46
REMARK SMILES IDX 23 47 75 48 69 49 68 50 24 52 56 53 36 54 55 55 37 56 40 57
REMARK SMILES IDX 54 58 73 59 38 60 39 61 53 63 74 64 41 65 25 66 26 67 34 68
REMARK SMILES IDX 27 69 29 70 35 71 28 72 30 73 31 74 32 75 33 76 57 77 58 78
REMARK SMILES IDX 66 79 59 80 61 81 67 82 60 83 62 84 63 85 64 86 65 87 42 88
REMARK SMILES IDX 43 89 51 90 44 91 46 92 52 93 45 94 47 95 48 96 49 97 50 98
REMARK H PARENT 8 6 86 20 13 32 72 51 40 62
REMARK Flexibility Score: inf
ROOT
ATOM      1  C   UNL     1      -3.429   3.193  -1.699  1.00  0.00     0.023 C 
ENDROOT
BRANCH   1   2
ATOM      2  C   UNL     1      -3.080   2.626  -0.315  1.00  0.00     0.116 C 
BRANCH   2   3
ATOM      3  N   UNL     1      -3.640   1.318  -0.007  1.00  0.00    -0.352 N 
ATOM      4  C   UNL     1      -3.154   0.193   0.622  1.00  0.00     0.251 C 
ATOM      5  O   UNL     1      -3.927  -0.761   0.737  1.00  0.00    -0.269 OA
ATOM      6  H   UNL     1      -4.569   1.216  -0.315  1.00  0.00     0.163 HD
BRANCH   4   7
ATOM      7  C   UNL     1      -1.736  -0.004   1.068  1.00  0.00     0.043 A 
ATOM      8  C   UNL     1       2.456  -0.964   1.747  1.00  0.00     0.048 C 
ATOM      9  C   UNL     1       1.028  -0.573   1.504  1.00  0.00    -0.009 A 
ATOM     10  C   UNL     1       0.080  -1.604   1.372  1.00  0.00     0.008 A 
ATOM     11  C   UNL     1       0.574   0.744   1.401  1.00  0.00     0.124 A 
ATOM     12  C   UNL     1      -1.267  -1.324   1.108  1.00  0.00     0.014 A 
ATOM     13  C   UNL     1      -0.816   1.010   1.335  1.00  0.00     0.060 A 
BRANCH  11  14
ATOM     14  O   UNL     1       1.312   1.875   1.297  1.00  0.00    -0.481 OA
BRANCH  14  15
ATOM     15  C   UNL     1       2.510   2.069   0.571  1.00  0.00     0.258 C 
ATOM     16  C   UNL     1       3.580   2.330   1.653  1.00  0.00     0.064 C 
BRANCH  15  17
ATOM     17  C   UNL     1       3.239   1.504  -0.742  1.00  0.00     0.261 C 
ATOM     18  O   UNL     1       4.400   1.854  -1.006  1.00  0.00    -0.271 OA
ATOM     19  N   UNL     1       2.662   0.738  -1.710  1.00  0.00    -0.349 N 
ATOM     20  H   UNL     1       3.180   0.665  -2.544  1.00  0.00     0.163 HD
BRANCH  19  21
ATOM     21  C   UNL     1       1.411   0.015  -1.706  1.00  0.00     0.098 C 
ATOM     22  C   UNL     1       1.285  -1.042  -2.822  1.00  0.00     0.042 C 
ATOM     23  C   UNL     1       0.205   0.930  -1.730  1.00  0.00     0.161 C 
ATOM     24  C   UNL     1       0.107  -0.723  -3.726  1.00  0.00     0.139 C 
ATOM     25  S   UNL     1      -0.390   0.927  -3.380  1.00  0.00     0.152 S 
ATOM     26  O   UNL     1       0.415   1.846  -4.167  1.00  0.00    -0.229 OA
ATOM     27  O   UNL     1      -1.826   0.948  -3.383  1.00  0.00    -0.229 OA
ENDBRANCH  19  21
ENDBRANCH  15  17
ENDBRANCH  14  15
ENDBRANCH  11  14
ENDBRANCH   4   7
ENDBRANCH   2   3
ENDBRANCH   1   2
BRANCH   1  28
ATOM     28  C   UNL     1      -4.893   3.322  -2.092  1.00  0.00     0.023 C 
BRANCH  28  29
ATOM     29  C   UNL     1      -5.661   4.230  -1.171  1.00  0.00     0.116 C 
BRANCH  29  30
ATOM     30  N   UNL     1      -5.333   5.629  -1.312  1.00  0.00    -0.352 N 
ATOM     31  C   UNL     1      -5.967   6.729  -0.773  1.00  0.00     0.251 C 
ATOM     32  H   UNL     1      -4.547   5.826  -1.872  1.00  0.00     0.163 HD
ATOM     33  O   UNL     1      -5.651   7.831  -1.217  1.00  0.00    -0.269 OA
BRANCH  31  34
ATOM     34  C   UNL     1      -6.848   6.607   0.425  1.00  0.00     0.039 A 
ATOM     35  C   UNL     1      -7.051   7.767   1.183  1.00  0.00     0.014 A 
ATOM     36  C   UNL     1      -7.128   5.374   0.999  1.00  0.00     0.014 A 
ATOM     37  C   UNL     1      -7.185   7.665   2.559  1.00  0.00     0.010 A 
ATOM     38  C   UNL     1      -7.079   5.261   2.354  1.00  0.00     0.010 A 
ATOM     39  C   UNL     1      -7.022   6.417   3.125  1.00  0.00    -0.014 A 
BRANCH  39  40
ATOM     40  C   UNL     1      -6.940   6.122   4.532  1.00  0.00     0.031 A 
ATOM     41  C   UNL     1      -8.212   5.821   5.194  1.00  0.00     0.074 A 
ATOM     42  C   UNL     1      -5.728   5.673   4.924  1.00  0.00     0.049 A 
ATOM     43  N   UNL     1      -8.311   5.457   6.417  1.00  0.00    -0.248 NA
ATOM     44  C   UNL     1      -9.503   5.893   4.502  1.00  0.00     0.031 C 
ATOM     45  C   UNL     1      -5.380   4.682   5.931  1.00  0.00     0.029 A 
ATOM     46  N   UNL     1      -4.491   6.163   4.506  1.00  0.00    -0.354 N 
ATOM     47  C   UNL     1      -9.564   4.904   6.553  1.00  0.00     0.074 A 
ATOM     48  C   UNL     1     -10.316   5.354   5.415  1.00  0.00     0.031 C 
ATOM     49  C   UNL     1      -4.078   4.821   6.251  1.00  0.00     0.029 A 
ATOM     50  C   UNL     1      -3.613   6.035   5.595  1.00  0.00     0.049 A 
ATOM     51  H   UNL     1      -4.275   6.529   3.619  1.00  0.00     0.167 HD
ATOM     52  C   UNL     1      -9.732   3.970   7.524  1.00  0.00     0.034 A 
ATOM     53  C   UNL     1      -3.236   7.180   6.253  1.00  0.00     0.034 A 
ATOM     54  C   UNL     1      -8.545   3.946   8.396  1.00  0.00     0.049 A 
ATOM     55  C   UNL     1      -3.831   7.257   7.650  1.00  0.00     0.074 A 
ATOM     56  C   UNL     1      -7.461   3.091   8.488  1.00  0.00     0.029 A 
ATOM     57  N   UNL     1      -8.180   5.117   9.062  1.00  0.00    -0.354 N 
ATOM     58  N   UNL     1      -4.846   6.541   8.056  1.00  0.00    -0.248 NA
ATOM     59  C   UNL     1      -3.286   8.088   8.719  1.00  0.00     0.031 C 
ATOM     60  C   UNL     1      -6.387   3.823   9.079  1.00  0.00     0.029 A 
ATOM     61  C   UNL     1      -6.832   5.099   9.390  1.00  0.00     0.049 A 
ATOM     62  H   UNL     1      -8.796   5.856   9.271  1.00  0.00     0.167 HD
ATOM     63  C   UNL     1      -5.136   6.818   9.361  1.00  0.00     0.074 A 
ATOM     64  C   UNL     1      -4.098   7.765   9.743  1.00  0.00     0.031 C 
ATOM     65  C   UNL     1      -6.208   6.267  10.013  1.00  0.00     0.034 A 
BRANCH  52  66
ATOM     66  C   UNL     1     -10.841   2.939   7.596  1.00  0.00     0.023 A 
ATOM     67  C   UNL     1     -10.847   2.108   8.738  1.00  0.00     0.012 A 
ATOM     68  C   UNL     1     -11.819   2.645   6.608  1.00  0.00     0.148 A 
ATOM     69  C   UNL     1     -11.755   1.055   8.897  1.00  0.00     0.002 A 
ATOM     70  C   UNL     1     -12.769   1.635   6.798  1.00  0.00     0.091 A 
ATOM     71  F   UNL     1     -11.796   3.269   5.428  1.00  0.00    -0.205 F 
ATOM     72  C   UNL     1     -12.729   0.829   7.936  1.00  0.00     0.022 A 
BRANCH  70  73
ATOM     73  S   UNL     1     -14.104   1.313   5.625  1.00  0.00     0.127 S 
ATOM     74  O   UNL     1     -13.740  -0.002   5.097  1.00  0.00    -0.237 OA
ATOM     75  O   UNL     1     -15.285   1.314   6.489  1.00  0.00    -0.237 OA
ATOM     76  O   UNL     1     -14.069   2.401   4.655  1.00  0.00    -0.744 OA
ENDBRANCH  70  73
ENDBRANCH  52  66
BRANCH  53  77
ATOM     77  C   UNL     1      -3.068   8.323   5.282  1.00  0.00     0.023 A 
ATOM     78  C   UNL     1      -2.135   8.101   4.233  1.00  0.00     0.012 A 
ATOM     79  C   UNL     1      -4.093   9.265   5.076  1.00  0.00     0.148 A 
ATOM     80  C   UNL     1      -2.382   8.584   2.946  1.00  0.00     0.002 A 
ATOM     81  C   UNL     1      -4.297   9.792   3.797  1.00  0.00     0.091 A 
ATOM     82  F   UNL     1      -4.891   9.585   6.104  1.00  0.00    -0.205 F 
ATOM     83  C   UNL     1      -3.496   9.385   2.717  1.00  0.00     0.022 A 
BRANCH  81  84
ATOM     84  S   UNL     1      -5.632  10.953   3.469  1.00  0.00     0.127 S 
ATOM     85  O   UNL     1      -4.991  12.230   3.767  1.00  0.00    -0.237 OA
ATOM     86  O   UNL     1      -5.923  10.739   2.051  1.00  0.00    -0.237 OA
ATOM     87  O   UNL     1      -6.709  10.551   4.363  1.00  0.00    -0.744 OA
ENDBRANCH  81  84
ENDBRANCH  53  77
BRANCH  65  88
ATOM     88  C   UNL     1      -6.758   6.779  11.333  1.00  0.00     0.023 A 
ATOM     89  C   UNL     1      -6.480   8.077  11.802  1.00  0.00     0.012 A 
ATOM     90  C   UNL     1      -7.701   6.024  12.078  1.00  0.00     0.148 A 
ATOM     91  C   UNL     1      -7.019   8.567  12.995  1.00  0.00     0.002 A 
ATOM     92  C   UNL     1      -8.336   6.566  13.191  1.00  0.00     0.091 A 
ATOM     93  F   UNL     1      -7.981   4.762  11.726  1.00  0.00    -0.205 F 
ATOM     94  C   UNL     1      -7.963   7.819  13.680  1.00  0.00     0.022 A 
BRANCH  92  95
ATOM     95  S   UNL     1      -9.753   5.762  13.951  1.00  0.00     0.127 S 
ATOM     96  O   UNL     1      -9.150   5.144  15.130  1.00  0.00    -0.237 OA
ATOM     97  O   UNL     1     -10.633   6.896  14.239  1.00  0.00    -0.237 OA
ATOM     98  O   UNL     1     -10.272   4.846  12.944  1.00  0.00    -0.744 OA
ENDBRANCH  92  95
ENDBRANCH  65  88
ENDBRANCH  39  40
ENDBRANCH  31  34
ENDBRANCH  29  30
ENDBRANCH  28  29
ENDBRANCH   1  28
TORSDOF 18
