REMARK SMILES Cc1ccc(C(=O)NCCCCNC(=O)c2ccc(-c3c4nc(c(-c5cccc(S(=O)(=O)[O-])c5F)c5ccc([nH]5)c(-c5cccc(S(=O)(=O)[O-])c5F)c5nc(c(-c6cccc(S(=O)(=O)[O-])c6F)c6ccc3[nH]6)C=C5)C=C4)cc2)cc1/[NH+]=C1\NCCS1
REMARK SMILES IDX 11 1 10 2 9 3 8 4 6 5 7 6 5 8 1 9 2 10 3 11 80 12 4 13 79 14
REMARK SMILES IDX 81 15 82 16 83 18 86 19 84 20 85 22 12 23 13 24 14 25 15 27
REMARK SMILES IDX 16 28 17 29 78 30 18 31 77 32 19 33 20 34 21 35 71 36 22 37
REMARK SMILES IDX 76 38 70 39 72 40 23 41 75 42 69 43 68 44 24 46 56 47 36 48
REMARK SMILES IDX 55 49 37 50 40 51 54 52 73 53 38 54 39 55 53 57 74 58 41 59
REMARK SMILES IDX 25 60 26 61 34 62 27 63 29 64 35 65 28 66 30 67 31 68 32 69
REMARK SMILES IDX 33 70 57 71 58 72 66 73 59 74 61 75 67 76 60 77 62 78 63 79
REMARK SMILES IDX 64 80 65 81 42 82 43 83 51 84 44 85 46 86 52 87 45 88 47 89
REMARK SMILES IDX 48 90 49 91 50 92
REMARK H PARENT 8 7 81 17 83 21 13 26 72 45 40 56
REMARK Flexibility Score: inf
ROOT
ATOM      1  C   UNL     1      -4.718   3.321  -2.282  1.00  0.00     0.023 C 
ENDROOT
BRANCH   1   2
ATOM      2  C   UNL     1      -3.397   3.160  -1.506  1.00  0.00     0.023 C 
BRANCH   2   3
ATOM      3  C   UNL     1      -3.536   2.594  -0.082  1.00  0.00     0.116 C 
BRANCH   3   4
ATOM      4  N   UNL     1      -3.821   1.172  -0.101  1.00  0.00    -0.352 N 
ATOM      5  C   UNL     1      -3.043   0.045  -0.121  1.00  0.00     0.251 C 
ATOM      6  O   UNL     1      -3.644  -1.032  -0.180  1.00  0.00    -0.269 OA
ATOM      7  H   UNL     1      -4.785   0.974  -0.099  1.00  0.00     0.163 HD
BRANCH   5   8
ATOM      8  C   UNL     1      -1.548   0.018  -0.072  1.00  0.00     0.044 A 
ATOM      9  C   UNL     1       2.759  -0.456   0.219  1.00  0.00     0.049 C 
ATOM     10  C   UNL     1       1.273  -0.263   0.122  1.00  0.00    -0.004 A 
ATOM     11  C   UNL     1       0.444  -1.390   0.116  1.00  0.00     0.008 A 
ATOM     12  C   UNL     1       0.687   1.004  -0.011  1.00  0.00     0.129 A 
ATOM     13  C   UNL     1      -0.945  -1.248   0.033  1.00  0.00     0.014 A 
ATOM     14  C   UNL     1      -0.706   1.125  -0.120  1.00  0.00     0.065 A 
BRANCH  12  15
ATOM     15  N   UNL     1       1.432   2.192  -0.001  1.00  0.00    -0.235 N 
ATOM     16  C   UNL     1       2.075   2.520  -1.062  1.00  0.00     0.309 C 
ATOM     17  H   UNL     1       1.462   2.761   0.802  1.00  0.00     0.313 HD
ATOM     18  N   UNL     1       2.198   1.886  -2.260  1.00  0.00    -0.268 N 
ATOM     19  S   UNL     1       3.017   4.005  -1.062  1.00  0.00    -0.035 SA
ATOM     20  C   UNL     1       3.020   2.514  -3.261  1.00  0.00     0.246 C 
ATOM     21  H   UNL     1       1.741   1.031  -2.436  1.00  0.00     0.305 HD
ATOM     22  C   UNL     1       3.957   3.467  -2.521  1.00  0.00     0.128 C 
ENDBRANCH  12  15
ENDBRANCH   5   8
ENDBRANCH   3   4
ENDBRANCH   2   3
ENDBRANCH   1   2
BRANCH   1  23
ATOM     23  C   UNL     1      -5.721   4.212  -1.570  1.00  0.00     0.116 C 
BRANCH  23  24
ATOM     24  N   UNL     1      -5.308   5.596  -1.490  1.00  0.00    -0.352 N 
ATOM     25  C   UNL     1      -5.899   6.688  -0.879  1.00  0.00     0.251 C 
ATOM     26  H   UNL     1      -4.461   5.795  -1.950  1.00  0.00     0.163 HD
ATOM     27  O   UNL     1      -5.583   7.786  -1.304  1.00  0.00    -0.269 OA
BRANCH  25  28
ATOM     28  C   UNL     1      -6.725   6.561   0.358  1.00  0.00     0.039 A 
ATOM     29  C   UNL     1      -6.936   7.728   1.112  1.00  0.00     0.014 A 
ATOM     30  C   UNL     1      -7.013   5.334   0.937  1.00  0.00     0.014 A 
ATOM     31  C   UNL     1      -7.136   7.643   2.486  1.00  0.00     0.010 A 
ATOM     32  C   UNL     1      -7.072   5.237   2.299  1.00  0.00     0.010 A 
ATOM     33  C   UNL     1      -7.045   6.396   3.070  1.00  0.00    -0.014 A 
BRANCH  33  34
ATOM     34  C   UNL     1      -6.981   6.115   4.485  1.00  0.00     0.031 A 
ATOM     35  C   UNL     1      -8.240   5.810   5.170  1.00  0.00     0.074 A 
ATOM     36  C   UNL     1      -5.772   5.674   4.897  1.00  0.00     0.049 A 
ATOM     37  N   UNL     1      -8.315   5.441   6.395  1.00  0.00    -0.248 NA
ATOM     38  C   UNL     1      -9.542   5.887   4.505  1.00  0.00     0.031 C 
ATOM     39  C   UNL     1      -5.444   4.685   5.914  1.00  0.00     0.029 A 
ATOM     40  N   UNL     1      -4.531   6.157   4.494  1.00  0.00    -0.354 N 
ATOM     41  C   UNL     1      -9.566   4.893   6.560  1.00  0.00     0.074 A 
ATOM     42  C   UNL     1     -10.336   5.346   5.433  1.00  0.00     0.031 C 
ATOM     43  C   UNL     1      -4.142   4.808   6.239  1.00  0.00     0.029 A 
ATOM     44  C   UNL     1      -3.662   6.017   5.587  1.00  0.00     0.049 A 
ATOM     45  H   UNL     1      -4.305   6.528   3.610  1.00  0.00     0.167 HD
ATOM     46  C   UNL     1      -9.725   3.966   7.540  1.00  0.00     0.034 A 
ATOM     47  C   UNL     1      -3.274   7.154   6.252  1.00  0.00     0.034 A 
ATOM     48  C   UNL     1      -8.540   3.946   8.412  1.00  0.00     0.049 A 
ATOM     49  C   UNL     1      -3.846   7.229   7.659  1.00  0.00     0.074 A 
ATOM     50  C   UNL     1      -7.467   3.081   8.531  1.00  0.00     0.029 A 
ATOM     51  N   UNL     1      -8.173   5.119   9.074  1.00  0.00    -0.354 N 
ATOM     52  N   UNL     1      -4.839   6.497   8.088  1.00  0.00    -0.248 NA
ATOM     53  C   UNL     1      -3.309   8.089   8.709  1.00  0.00     0.031 C 
ATOM     54  C   UNL     1      -6.394   3.807   9.130  1.00  0.00     0.029 A 
ATOM     55  C   UNL     1      -6.832   5.089   9.426  1.00  0.00     0.049 A 
ATOM     56  H   UNL     1      -8.784   5.867   9.265  1.00  0.00     0.167 HD
ATOM     57  C   UNL     1      -5.132   6.801   9.386  1.00  0.00     0.074 A 
ATOM     58  C   UNL     1      -4.107   7.771   9.745  1.00  0.00     0.031 C 
ATOM     59  C   UNL     1      -6.204   6.257  10.046  1.00  0.00     0.034 A 
BRANCH  46  60
ATOM     60  C   UNL     1     -10.838   2.937   7.620  1.00  0.00     0.023 A 
ATOM     61  C   UNL     1     -10.860   2.120   8.772  1.00  0.00     0.012 A 
ATOM     62  C   UNL     1     -11.801   2.630   6.622  1.00  0.00     0.148 A 
ATOM     63  C   UNL     1     -11.773   1.070   8.931  1.00  0.00     0.002 A 
ATOM     64  C   UNL     1     -12.759   1.629   6.814  1.00  0.00     0.091 A 
ATOM     65  F   UNL     1     -11.752   3.229   5.430  1.00  0.00    -0.205 F 
ATOM     66  C   UNL     1     -12.737   0.836   7.962  1.00  0.00     0.022 A 
BRANCH  64  67
ATOM     67  S   UNL     1     -14.081   1.306   5.627  1.00  0.00     0.127 S 
ATOM     68  O   UNL     1     -13.701   0.000   5.088  1.00  0.00    -0.237 OA
ATOM     69  O   UNL     1     -15.270   1.288   6.479  1.00  0.00    -0.237 OA
ATOM     70  O   UNL     1     -14.047   2.405   4.669  1.00  0.00    -0.744 OA
ENDBRANCH  64  67
ENDBRANCH  46  60
BRANCH  47  71
ATOM     71  C   UNL     1      -3.094   8.303   5.292  1.00  0.00     0.023 A 
ATOM     72  C   UNL     1      -2.150   8.090   4.252  1.00  0.00     0.012 A 
ATOM     73  C   UNL     1      -4.108   9.258   5.090  1.00  0.00     0.148 A 
ATOM     74  C   UNL     1      -2.361   8.618   2.976  1.00  0.00     0.002 A 
ATOM     75  C   UNL     1      -4.281   9.822   3.822  1.00  0.00     0.091 A 
ATOM     76  F   UNL     1      -4.926   9.556   6.109  1.00  0.00    -0.205 F 
ATOM     77  C   UNL     1      -3.456   9.444   2.749  1.00  0.00     0.022 A 
BRANCH  75  78
ATOM     78  S   UNL     1      -5.614  10.983   3.486  1.00  0.00     0.127 S 
ATOM     79  O   UNL     1      -4.979  12.260   3.799  1.00  0.00    -0.237 OA
ATOM     80  O   UNL     1      -5.889  10.777   2.064  1.00  0.00    -0.237 OA
ATOM     81  O   UNL     1      -6.702  10.575   4.365  1.00  0.00    -0.744 OA
ENDBRANCH  75  78
ENDBRANCH  47  71
BRANCH  59  82
ATOM     82  C   UNL     1      -6.755   6.781  11.360  1.00  0.00     0.023 A 
ATOM     83  C   UNL     1      -6.493   8.090  11.810  1.00  0.00     0.012 A 
ATOM     84  C   UNL     1      -7.687   6.025  12.118  1.00  0.00     0.148 A 
ATOM     85  C   UNL     1      -7.043   8.593  12.993  1.00  0.00     0.002 A 
ATOM     86  C   UNL     1      -8.329   6.576  13.223  1.00  0.00     0.091 A 
ATOM     87  F   UNL     1      -7.949   4.753  11.784  1.00  0.00    -0.205 F 
ATOM     88  C   UNL     1      -7.978   7.843  13.690  1.00  0.00     0.022 A 
BRANCH  86  89
ATOM     89  S   UNL     1      -9.733   5.759  13.996  1.00  0.00     0.127 S 
ATOM     90  O   UNL     1      -9.112   5.128  15.158  1.00  0.00    -0.237 OA
ATOM     91  O   UNL     1     -10.613   6.886  14.312  1.00  0.00    -0.237 OA
ATOM     92  O   UNL     1     -10.264   4.855  12.984  1.00  0.00    -0.744 OA
ENDBRANCH  86  89
ENDBRANCH  59  82
ENDBRANCH  33  34
ENDBRANCH  25  28
ENDBRANCH  23  24
ENDBRANCH   1  23
TORSDOF 15
