REMARK SMILES C[NH+](C)Cc1ccccc1[C@H]1[NH2+][C@@H](C(=O)NCCCCNC(=O)c2ccc(-c3c4nc(c(-c5cccc(S(=O)(=O)[O-])c5F)c5ccc([nH]5)c(-c5cccc(S(=O)(=O)[O-])c5F)c5nc(c(-c6cccc(S(=O)(=O)[O-])c6F)c6ccc3[nH]6)C=C5)C=C4)cc2)C(C)(C)S1
REMARK SMILES IDX 18 1 17 2 16 3 14 4 15 5 13 7 11 8 12 9 90 10 87 13 88 14
REMARK SMILES IDX 89 15 10 16 5 17 6 18 7 19 9 20 8 21 4 22 2 23 1 24 3 25
REMARK SMILES IDX 19 27 20 28 21 29 22 30 23 32 24 33 25 34 86 35 26 36 85 37
REMARK SMILES IDX 27 38 28 39 29 40 79 41 30 42 84 43 78 44 80 45 31 46 83 47
REMARK SMILES IDX 77 48 76 49 32 51 64 52 44 53 63 54 45 55 48 56 62 57 81 58
REMARK SMILES IDX 46 59 47 60 61 62 82 63 49 64 33 65 34 66 42 67 35 68 37 69
REMARK SMILES IDX 43 70 36 71 38 72 39 73 40 74 41 75 65 76 66 77 74 78 67 79
REMARK SMILES IDX 69 80 75 81 68 82 70 83 71 84 72 85 73 86 50 87 51 88 59 89
REMARK SMILES IDX 52 90 54 91 60 92 53 93 55 94 56 95 57 96 58 97
REMARK H PARENT 16 6 12 11 12 12 2 26 21 31 80 50 48 61
REMARK Flexibility Score: inf
ROOT
ATOM      1  C   UNL     1       3.614  -2.248   2.938  1.00  0.00     0.023 C 
ENDROOT
BRANCH   1   2
ATOM      2  C   UNL     1       3.753  -2.930   1.582  1.00  0.00     0.116 C 
BRANCH   2   3
ATOM      3  N   UNL     1       4.296  -4.268   1.658  1.00  0.00    -0.351 N 
ATOM      4  C   UNL     1       3.792  -5.473   1.267  1.00  0.00     0.279 C 
ATOM      5  O   UNL     1       4.500  -6.463   1.489  1.00  0.00    -0.268 OA
ATOM      6  H   UNL     1       5.191  -4.317   2.065  1.00  0.00     0.163 HD
BRANCH   4   7
ATOM      7  C   UNL     1       2.395  -5.671   0.634  1.00  0.00     0.289 C 
ATOM      8  C   UNL     1       0.739  -4.951  -0.907  1.00  0.00     0.275 C 
ATOM      9  N   UNL     1       2.149  -4.804  -0.549  1.00  0.00    -0.320 N 
ATOM     10  S   UNL     1      -0.242  -5.320   0.570  1.00  0.00    -0.081 SA
ATOM     11  H   UNL     1       2.352  -3.832  -0.317  1.00  0.00     0.348 HD
ATOM     12  H   UNL     1       2.750  -5.075  -1.327  1.00  0.00     0.348 HD
ATOM     13  C   UNL     1       1.210  -5.691   1.632  1.00  0.00     0.077 C 
ATOM     14  C   UNL     1       1.205  -4.675   2.773  1.00  0.00     0.030 C 
ATOM     15  C   UNL     1       1.057  -7.089   2.250  1.00  0.00     0.030 C 
BRANCH   8  16
ATOM     16  C   UNL     1       0.178  -3.822  -1.780  1.00  0.00     0.029 A 
ATOM     17  C   UNL     1       0.153  -2.430  -1.454  1.00  0.00     0.016 A 
ATOM     18  C   UNL     1      -0.338  -1.525  -2.417  1.00  0.00     0.010 A 
ATOM     19  C   UNL     1      -0.836  -1.952  -3.646  1.00  0.00     0.001 A 
ATOM     20  C   UNL     1      -0.343  -4.222  -3.035  1.00  0.00     0.011 A 
ATOM     21  C   UNL     1      -0.844  -3.302  -3.954  1.00  0.00     0.001 A 
BRANCH  17  22
ATOM     22  C   UNL     1       0.766  -1.893  -0.173  1.00  0.00     0.299 C 
BRANCH  22  23
ATOM     23  N   UNL     1       0.228  -0.733   0.537  1.00  0.00    -0.336 N 
ATOM     24  C   UNL     1       0.755   0.562   0.144  1.00  0.00     0.332 C 
ATOM     25  C   UNL     1      -1.206  -0.752   0.763  1.00  0.00     0.332 C 
ATOM     26  H   UNL     1       0.625  -0.866   1.467  1.00  0.00     0.347 HD
ENDBRANCH  22  23
ENDBRANCH  17  22
ENDBRANCH   8  16
ENDBRANCH   4   7
ENDBRANCH   2   3
ENDBRANCH   1   2
BRANCH   1  27
ATOM     27  C   UNL     1       4.874  -1.572   3.450  1.00  0.00     0.023 C 
BRANCH  27  28
ATOM     28  C   UNL     1       5.438  -0.487   2.543  1.00  0.00     0.116 C 
BRANCH  28  29
ATOM     29  N   UNL     1       4.484   0.567   2.214  1.00  0.00    -0.352 N 
ATOM     30  C   UNL     1       4.680   1.931   2.216  1.00  0.00     0.251 C 
ATOM     31  H   UNL     1       3.583   0.264   1.956  1.00  0.00     0.163 HD
ATOM     32  O   UNL     1       3.757   2.696   1.974  1.00  0.00    -0.269 OA
BRANCH  30  33
ATOM     33  C   UNL     1       6.021   2.451   2.562  1.00  0.00     0.039 A 
ATOM     34  C   UNL     1       6.143   3.390   3.588  1.00  0.00     0.014 A 
ATOM     35  C   UNL     1       7.157   1.925   1.941  1.00  0.00     0.014 A 
ATOM     36  C   UNL     1       7.414   3.735   4.054  1.00  0.00     0.010 A 
ATOM     37  C   UNL     1       8.412   2.199   2.469  1.00  0.00     0.010 A 
ATOM     38  C   UNL     1       8.556   3.106   3.531  1.00  0.00    -0.014 A 
BRANCH  38  39
ATOM     39  C   UNL     1       9.914   3.368   4.076  1.00  0.00     0.031 A 
ATOM     40  C   UNL     1      10.984   3.927   3.176  1.00  0.00     0.074 A 
ATOM     41  C   UNL     1      10.216   2.996   5.337  1.00  0.00     0.049 A 
ATOM     42  N   UNL     1      12.250   4.130   3.429  1.00  0.00    -0.248 NA
ATOM     43  C   UNL     1      10.590   4.265   1.797  1.00  0.00     0.031 C 
ATOM     44  C   UNL     1       9.296   2.349   6.277  1.00  0.00     0.029 A 
ATOM     45  N   UNL     1      11.395   3.078   6.036  1.00  0.00    -0.354 N 
ATOM     46  C   UNL     1      12.811   4.563   2.234  1.00  0.00     0.074 A 
ATOM     47  C   UNL     1      11.757   4.566   1.246  1.00  0.00     0.031 C 
ATOM     48  C   UNL     1       9.944   2.098   7.427  1.00  0.00     0.029 A 
ATOM     49  C   UNL     1      11.328   2.542   7.302  1.00  0.00     0.049 A 
ATOM     50  H   UNL     1      12.213   3.483   5.666  1.00  0.00     0.167 HD
ATOM     51  C   UNL     1      14.082   4.959   1.988  1.00  0.00     0.034 A 
ATOM     52  C   UNL     1      12.276   2.422   8.254  1.00  0.00     0.034 A 
ATOM     53  C   UNL     1      15.104   5.040   2.993  1.00  0.00     0.049 A 
ATOM     54  C   UNL     1      13.654   2.965   7.981  1.00  0.00     0.074 A 
ATOM     55  C   UNL     1      16.387   5.544   2.874  1.00  0.00     0.029 A 
ATOM     56  N   UNL     1      14.959   4.616   4.303  1.00  0.00    -0.354 N 
ATOM     57  N   UNL     1      14.114   3.541   6.897  1.00  0.00    -0.248 NA
ATOM     58  C   UNL     1      14.633   2.879   9.075  1.00  0.00     0.031 C 
ATOM     59  C   UNL     1      17.020   5.420   4.114  1.00  0.00     0.029 A 
ATOM     60  C   UNL     1      16.128   4.847   5.006  1.00  0.00     0.049 A 
ATOM     61  H   UNL     1      14.145   4.210   4.679  1.00  0.00     0.167 HD
ATOM     62  C   UNL     1      15.419   3.920   7.191  1.00  0.00     0.074 A 
ATOM     63  C   UNL     1      15.670   3.528   8.562  1.00  0.00     0.031 C 
ATOM     64  C   UNL     1      16.335   4.519   6.392  1.00  0.00     0.034 A 
BRANCH  51  65
ATOM     65  C   UNL     1      14.420   5.414   0.594  1.00  0.00     0.023 A 
ATOM     66  C   UNL     1      13.944   6.660   0.139  1.00  0.00     0.012 A 
ATOM     67  C   UNL     1      15.266   4.650  -0.234  1.00  0.00     0.148 A 
ATOM     68  C   UNL     1      14.281   7.128  -1.129  1.00  0.00     0.002 A 
ATOM     69  C   UNL     1      15.632   5.143  -1.481  1.00  0.00     0.091 A 
ATOM     70  F   UNL     1      15.691   3.459   0.211  1.00  0.00    -0.205 F 
ATOM     71  C   UNL     1      15.133   6.377  -1.933  1.00  0.00     0.022 A 
BRANCH  69  72
ATOM     72  S   UNL     1      16.784   4.290  -2.563  1.00  0.00     0.127 S 
ATOM     73  O   UNL     1      15.907   3.877  -3.659  1.00  0.00    -0.237 OA
ATOM     74  O   UNL     1      17.728   5.354  -2.906  1.00  0.00    -0.237 OA
ATOM     75  O   UNL     1      17.349   3.204  -1.775  1.00  0.00    -0.744 OA
ENDBRANCH  69  72
ENDBRANCH  51  65
BRANCH  52  76
ATOM     76  C   UNL     1      11.937   1.841   9.585  1.00  0.00     0.023 A 
ATOM     77  C   UNL     1      11.891   2.685  10.712  1.00  0.00     0.012 A 
ATOM     78  C   UNL     1      11.653   0.472   9.744  1.00  0.00     0.148 A 
ATOM     79  C   UNL     1      11.607   2.172  11.978  1.00  0.00     0.002 A 
ATOM     80  C   UNL     1      11.319  -0.025  11.000  1.00  0.00     0.091 A 
ATOM     81  F   UNL     1      11.718  -0.324   8.667  1.00  0.00    -0.205 F 
ATOM     82  C   UNL     1      11.313   0.819  12.121  1.00  0.00     0.022 A 
BRANCH  80  83
ATOM     83  S   UNL     1      10.799  -1.728  11.239  1.00  0.00     0.127 S 
ATOM     84  O   UNL     1      12.021  -2.349  11.740  1.00  0.00    -0.237 OA
ATOM     85  O   UNL     1       9.728  -1.591  12.227  1.00  0.00    -0.237 OA
ATOM     86  O   UNL     1      10.342  -2.173   9.928  1.00  0.00    -0.744 OA
ENDBRANCH  80  83
ENDBRANCH  52  76
BRANCH  64  87
ATOM     87  C   UNL     1      17.684   4.830   6.981  1.00  0.00     0.023 A 
ATOM     88  C   UNL     1      18.607   3.788   7.195  1.00  0.00     0.012 A 
ATOM     89  C   UNL     1      18.068   6.161   7.235  1.00  0.00     0.148 A 
ATOM     90  C   UNL     1      19.885   4.064   7.677  1.00  0.00     0.002 A 
ATOM     91  C   UNL     1      19.358   6.433   7.673  1.00  0.00     0.091 A 
ATOM     92  F   UNL     1      17.166   7.136   7.044  1.00  0.00    -0.205 F 
ATOM     93  C   UNL     1      20.265   5.385   7.904  1.00  0.00     0.022 A 
BRANCH  91  94
ATOM     94  S   UNL     1      19.958   8.111   7.895  1.00  0.00     0.127 S 
ATOM     95  O   UNL     1      19.923   8.251   9.350  1.00  0.00    -0.237 OA
ATOM     96  O   UNL     1      21.303   8.043   7.321  1.00  0.00    -0.237 OA
ATOM     97  O   UNL     1      19.034   8.964   7.159  1.00  0.00    -0.744 OA
ENDBRANCH  91  94
ENDBRANCH  64  87
ENDBRANCH  38  39
ENDBRANCH  30  33
ENDBRANCH  28  29
ENDBRANCH  27  28
ENDBRANCH   1  27
TORSDOF 17
