REMARK SMILES C[C@H]1[C@H](C(=O)NCCCCNC(=O)c2ccc(-c3c4nc(c(-c5cccc(S(=O)(=O)[O-])c5F)c5ccc([nH]5)c(-c5cccc(S(=O)(=O)[O-])c5F)c5nc(c(-c6cccc(S(=O)(=O)[O-])c6F)c6ccc3[nH]6)C=C5)C=C4)cc2)CC[N@@H+]1Cc1cnn(-c2ccccc2)c1
REMARK SMILES IDX 8 1 7 2 6 3 4 4 5 5 3 7 1 8 2 9 79 10 77 11 78 12 80 14
REMARK SMILES IDX 81 15 82 16 91 17 83 18 84 19 85 20 86 21 90 22 87 23 89 24
REMARK SMILES IDX 88 25 9 26 10 27 11 28 12 29 13 31 14 32 15 33 76 34 16 35
REMARK SMILES IDX 75 36 17 37 18 38 19 39 69 40 20 41 74 42 68 43 70 44 21 45
REMARK SMILES IDX 73 46 67 47 66 48 22 50 54 51 34 52 53 53 35 54 38 55 52 56
REMARK SMILES IDX 71 57 36 58 37 59 51 61 72 62 39 63 23 64 24 65 32 66 25 67
REMARK SMILES IDX 27 68 33 69 26 70 28 71 29 72 30 73 31 74 55 75 56 76 64 77
REMARK SMILES IDX 57 78 59 79 65 80 58 81 60 82 61 83 62 84 63 85 40 86 41 87
REMARK SMILES IDX 49 88 42 89 44 90 50 91 43 92 45 93 46 94 47 95 48 96
REMARK H PARENT 6 6 79 13 11 30 70 49 38 60
REMARK Flexibility Score: inf
ROOT
ATOM      1  C   UNL     1       1.458  -0.032   4.378  1.00  0.00     0.023 C 
ENDROOT
BRANCH   1   2
ATOM      2  C   UNL     1       0.706   0.753   3.297  1.00  0.00     0.116 C 
BRANCH   2   3
ATOM      3  N   UNL     1       1.324   1.768   2.476  1.00  0.00    -0.356 N 
ATOM      4  C   UNL     1       0.883   2.140   1.224  1.00  0.00     0.229 C 
ATOM      5  O   UNL     1       0.951   3.340   0.933  1.00  0.00    -0.275 OA
ATOM      6  H   UNL     1       2.117   2.226   2.836  1.00  0.00     0.163 HD
BRANCH   4   7
ATOM      7  C   UNL     1       0.370   1.150   0.166  1.00  0.00     0.142 C 
ATOM      8  C   UNL     1       1.659  -0.753  -0.798  1.00  0.00     0.076 C 
ATOM      9  C   UNL     1       0.684  -0.345   0.329  1.00  0.00     0.193 C 
ATOM     10  N   UNL     1      -0.618  -1.058   0.227  1.00  0.00    -0.328 N 
ATOM     11  C   UNL     1      -1.122   1.214  -0.167  1.00  0.00     0.081 C 
ATOM     12  C   UNL     1      -1.457  -0.206  -0.611  1.00  0.00     0.263 C 
ATOM     13  H   UNL     1      -0.433  -1.975  -0.181  1.00  0.00     0.348 HD
BRANCH  10  14
ATOM     14  C   UNL     1      -1.287  -1.554   1.468  1.00  0.00     0.302 C 
BRANCH  14  15
ATOM     15  C   UNL     1      -2.159  -0.602   2.287  1.00  0.00     0.045 A 
ATOM     16  C   UNL     1      -3.431  -0.042   2.000  1.00  0.00     0.145 A 
ATOM     17  C   UNL     1      -2.010  -0.187   3.605  1.00  0.00     0.124 A 
ATOM     18  N   UNL     1      -3.894   0.789   2.946  1.00  0.00    -0.176 NA
ATOM     19  N   UNL     1      -2.875   0.876   3.835  1.00  0.00    -0.240 N 
BRANCH  19  20
ATOM     20  C   UNL     1      -2.815   1.903   4.846  1.00  0.00     0.065 A 
ATOM     21  C   UNL     1      -3.987   2.319   5.473  1.00  0.00     0.028 A 
ATOM     22  C   UNL     1      -1.618   2.520   5.264  1.00  0.00     0.028 A 
ATOM     23  C   UNL     1      -3.928   3.221   6.554  1.00  0.00     0.002 A 
ATOM     24  C   UNL     1      -1.551   3.395   6.352  1.00  0.00     0.002 A 
ATOM     25  C   UNL     1      -2.711   3.734   7.012  1.00  0.00     0.000 A 
ENDBRANCH  19  20
ENDBRANCH  14  15
ENDBRANCH  10  14
ENDBRANCH   4   7
ENDBRANCH   2   3
ENDBRANCH   1   2
BRANCH   1  26
ATOM     26  C   UNL     1       1.214   0.151   5.910  1.00  0.00     0.023 C 
BRANCH  26  27
ATOM     27  C   UNL     1      -0.113  -0.020   6.704  1.00  0.00     0.116 C 
BRANCH  27  28
ATOM     28  N   UNL     1      -0.748  -1.317   6.868  1.00  0.00    -0.352 N 
ATOM     29  C   UNL     1      -1.784  -1.601   7.763  1.00  0.00     0.251 C 
ATOM     30  H   UNL     1      -0.422  -2.054   6.303  1.00  0.00     0.163 HD
ATOM     31  O   UNL     1      -2.387  -2.669   7.696  1.00  0.00    -0.269 OA
BRANCH  29  32
ATOM     32  C   UNL     1      -2.151  -0.624   8.830  1.00  0.00     0.039 A 
ATOM     33  C   UNL     1      -1.649  -0.779  10.121  1.00  0.00     0.014 A 
ATOM     34  C   UNL     1      -3.011   0.442   8.576  1.00  0.00     0.014 A 
ATOM     35  C   UNL     1      -1.911   0.194  11.108  1.00  0.00     0.010 A 
ATOM     36  C   UNL     1      -3.209   1.449   9.547  1.00  0.00     0.010 A 
ATOM     37  C   UNL     1      -2.622   1.379  10.819  1.00  0.00    -0.014 A 
BRANCH  37  38
ATOM     38  C   UNL     1      -2.621   2.546  11.789  1.00  0.00     0.031 A 
ATOM     39  C   UNL     1      -3.870   3.303  12.220  1.00  0.00     0.074 A 
ATOM     40  C   UNL     1      -1.435   3.025  12.242  1.00  0.00     0.049 A 
ATOM     41  N   UNL     1      -3.978   4.297  13.076  1.00  0.00    -0.248 NA
ATOM     42  C   UNL     1      -5.145   2.942  11.587  1.00  0.00     0.031 C 
ATOM     43  C   UNL     1      -0.116   2.555  11.814  1.00  0.00     0.029 A 
ATOM     44  N   UNL     1      -1.138   4.016  13.156  1.00  0.00    -0.354 N 
ATOM     45  C   UNL     1      -5.311   4.704  13.050  1.00  0.00     0.074 A 
ATOM     46  C   UNL     1      -5.964   3.876  12.057  1.00  0.00     0.031 C 
ATOM     47  C   UNL     1       0.836   3.200  12.504  1.00  0.00     0.029 A 
ATOM     48  C   UNL     1       0.211   4.170  13.396  1.00  0.00     0.049 A 
ATOM     49  H   UNL     1      -1.828   4.564  13.596  1.00  0.00     0.167 HD
ATOM     50  C   UNL     1      -5.954   5.641  13.799  1.00  0.00     0.034 A 
ATOM     51  C   UNL     1       0.890   4.980  14.236  1.00  0.00     0.034 A 
ATOM     52  C   UNL     1      -5.343   6.427  14.844  1.00  0.00     0.049 A 
ATOM     53  C   UNL     1       0.148   5.929  15.137  1.00  0.00     0.074 A 
ATOM     54  C   UNL     1      -5.956   7.286  15.744  1.00  0.00     0.029 A 
ATOM     55  N   UNL     1      -3.989   6.466  15.127  1.00  0.00    -0.354 N 
ATOM     56  N   UNL     1      -1.141   6.128  15.242  1.00  0.00    -0.248 NA
ATOM     57  C   UNL     1       0.956   6.741  16.064  1.00  0.00     0.031 C 
ATOM     58  C   UNL     1      -4.970   7.864  16.552  1.00  0.00     0.029 A 
ATOM     59  C   UNL     1      -3.747   7.337  16.180  1.00  0.00     0.049 A 
ATOM     60  H   UNL     1      -3.298   5.950  14.652  1.00  0.00     0.167 HD
ATOM     61  C   UNL     1      -1.301   7.057  16.266  1.00  0.00     0.074 A 
ATOM     62  C   UNL     1       0.020   7.362  16.769  1.00  0.00     0.031 C 
ATOM     63  C   UNL     1      -2.445   7.613  16.732  1.00  0.00     0.034 A 
BRANCH  50  64
ATOM     64  C   UNL     1      -7.443   5.825  13.585  1.00  0.00     0.023 A 
ATOM     65  C   UNL     1      -8.329   4.797  13.971  1.00  0.00     0.012 A 
ATOM     66  C   UNL     1      -7.976   7.040  13.102  1.00  0.00     0.148 A 
ATOM     67  C   UNL     1      -9.708   4.949  13.829  1.00  0.00     0.002 A 
ATOM     68  C   UNL     1      -9.355   7.204  13.012  1.00  0.00     0.091 A 
ATOM     69  F   UNL     1      -7.127   8.015  12.745  1.00  0.00    -0.205 F 
ATOM     70  C   UNL     1     -10.221   6.154  13.359  1.00  0.00     0.022 A 
BRANCH  68  71
ATOM     71  S   UNL     1     -10.130   8.747  12.511  1.00  0.00     0.127 S 
ATOM     72  O   UNL     1     -10.670   8.395  11.201  1.00  0.00    -0.237 OA
ATOM     73  O   UNL     1     -11.133   8.944  13.554  1.00  0.00    -0.237 OA
ATOM     74  O   UNL     1      -9.063   9.746  12.498  1.00  0.00    -0.744 OA
ENDBRANCH  68  71
ENDBRANCH  50  64
BRANCH  51  75
ATOM     75  C   UNL     1       2.378   4.877  14.330  1.00  0.00     0.023 A 
ATOM     76  C   UNL     1       2.961   4.350  15.501  1.00  0.00     0.012 A 
ATOM     77  C   UNL     1       3.212   5.285  13.273  1.00  0.00     0.148 A 
ATOM     78  C   UNL     1       4.348   4.271  15.632  1.00  0.00     0.002 A 
ATOM     79  C   UNL     1       4.590   5.144  13.385  1.00  0.00     0.091 A 
ATOM     80  F   UNL     1       2.638   5.789  12.171  1.00  0.00    -0.205 F 
ATOM     81  C   UNL     1       5.162   4.658  14.571  1.00  0.00     0.022 A 
BRANCH  79  82
ATOM     82  S   UNL     1       5.708   5.481  12.021  1.00  0.00     0.127 S 
ATOM     83  O   UNL     1       6.412   6.667  12.496  1.00  0.00    -0.237 OA
ATOM     84  O   UNL     1       6.509   4.258  11.980  1.00  0.00    -0.237 OA
ATOM     85  O   UNL     1       4.854   5.677  10.853  1.00  0.00    -0.744 OA
ENDBRANCH  79  82
ENDBRANCH  51  75
BRANCH  63  86
ATOM     86  C   UNL     1      -2.348   8.585  17.883  1.00  0.00     0.023 A 
ATOM     87  C   UNL     1      -1.784   9.861  17.687  1.00  0.00     0.012 A 
ATOM     88  C   UNL     1      -2.877   8.255  19.147  1.00  0.00     0.148 A 
ATOM     89  C   UNL     1      -1.717  10.779  18.736  1.00  0.00     0.002 A 
ATOM     90  C   UNL     1      -2.854   9.192  20.174  1.00  0.00     0.091 A 
ATOM     91  F   UNL     1      -3.392   7.029  19.324  1.00  0.00    -0.205 F 
ATOM     92  C   UNL     1      -2.262  10.450  19.975  1.00  0.00     0.022 A 
BRANCH  90  93
ATOM     93  S   UNL     1      -3.614   8.893  21.775  1.00  0.00     0.127 S 
ATOM     94  O   UNL     1      -2.445   8.777  22.644  1.00  0.00    -0.237 OA
ATOM     95  O   UNL     1      -4.404  10.108  21.974  1.00  0.00    -0.237 OA
ATOM     96  O   UNL     1      -4.402   7.677  21.625  1.00  0.00    -0.744 OA
ENDBRANCH  90  93
ENDBRANCH  63  86
ENDBRANCH  37  38
ENDBRANCH  29  32
ENDBRANCH  27  28
ENDBRANCH  26  27
ENDBRANCH   1  26
TORSDOF 17
