REMARK SMILES CS(=O)(=O)c1ccc(/C=C(/C(=O)NCCCCNC(=O)c2ccc(-c3c4nc(c(-c5cccc(S(=O)(=O)[O-])c5F)c5ccc([nH]5)c(-c5cccc(S(=O)(=O)[O-])c5F)c5nc(c(-c6cccc(S(=O)(=O)[O-])c6F)c6ccc3[nH]6)C=C5)C=C4)cc2)c2ccccc2)cc1
REMARK SMILES IDX 16 1 15 2 14 3 13 4 11 5 12 6 10 8 9 9 8 10 5 11 6 12 91 13
REMARK SMILES IDX 7 14 90 15 2 16 1 17 3 18 4 19 84 20 85 21 89 22 86 23 88 24
REMARK SMILES IDX 87 25 17 26 18 27 19 28 20 30 21 31 22 32 83 33 23 34 82 35
REMARK SMILES IDX 24 36 25 37 26 38 76 39 27 40 81 41 75 42 77 43 28 44 80 45
REMARK SMILES IDX 74 46 73 47 29 49 61 50 41 51 60 52 42 53 45 54 59 55 78 56
REMARK SMILES IDX 43 57 44 58 58 60 79 61 46 62 30 63 31 64 39 65 32 66 34 67
REMARK SMILES IDX 40 68 33 69 35 70 36 71 37 72 38 73 62 74 63 75 71 76 64 77
REMARK SMILES IDX 66 78 72 79 65 80 67 81 68 82 69 83 70 84 47 85 48 86 56 87
REMARK SMILES IDX 49 88 51 89 57 90 50 91 52 92 53 93 54 94 55 95
REMARK H PARENT 13 7 18 29 77 48 45 59
REMARK Flexibility Score: inf
ROOT
ATOM      1  C   UNL     1       3.343   5.554  -8.744  1.00  0.00     0.023 C 
ENDROOT
BRANCH   1   2
ATOM      2  C   UNL     1       2.765   4.554  -7.736  1.00  0.00     0.023 C 
BRANCH   2   3
ATOM      3  C   UNL     1       1.954   3.418  -8.368  1.00  0.00     0.116 C 
BRANCH   3   4
ATOM      4  N   UNL     1       2.832   2.490  -9.051  1.00  0.00    -0.352 N 
ATOM      5  C   UNL     1       3.375   1.287  -8.721  1.00  0.00     0.251 C 
ATOM      6  O   UNL     1       4.123   0.781  -9.561  1.00  0.00    -0.269 OA
ATOM      7  H   UNL     1       3.091   2.796  -9.950  1.00  0.00     0.163 HD
BRANCH   5   8
ATOM      8  C   UNL     1       3.040   0.535  -7.450  1.00  0.00     0.047 C 
ATOM      9  C   UNL     1       2.769   1.173  -6.289  1.00  0.00     0.022 C 
BRANCH   9  10
ATOM     10  C   UNL     1       2.290   0.629  -5.001  1.00  0.00    -0.025 A 
ATOM     11  C   UNL     1       1.151  -0.357  -2.636  1.00  0.00     0.067 A 
ATOM     12  C   UNL     1       2.235  -1.019  -3.212  1.00  0.00     0.021 A 
ATOM     13  C   UNL     1       0.644   0.809  -3.209  1.00  0.00     0.021 A 
ATOM     14  C   UNL     1       2.818  -0.508  -4.377  1.00  0.00     0.009 A 
ATOM     15  C   UNL     1       1.219   1.299  -4.384  1.00  0.00     0.009 A 
BRANCH  11  16
ATOM     16  S   UNL     1       0.360  -1.028  -1.195  1.00  0.00     0.175 S 
ATOM     17  C   UNL     1       1.047  -0.073   0.131  1.00  0.00     0.163 C 
ATOM     18  O   UNL     1       0.814  -2.400  -1.034  1.00  0.00    -0.224 OA
ATOM     19  O   UNL     1      -1.052  -0.722  -1.287  1.00  0.00    -0.224 OA
ENDBRANCH  11  16
ENDBRANCH   9  10
BRANCH   8  20
ATOM     20  C   UNL     1       3.192  -0.942  -7.489  1.00  0.00    -0.013 A 
ATOM     21  C   UNL     1       4.481  -1.480  -7.651  1.00  0.00     0.009 A 
ATOM     22  C   UNL     1       2.115  -1.817  -7.300  1.00  0.00     0.009 A 
ATOM     23  C   UNL     1       4.695  -2.856  -7.604  1.00  0.00     0.001 A 
ATOM     24  C   UNL     1       2.334  -3.197  -7.237  1.00  0.00     0.001 A 
ATOM     25  C   UNL     1       3.622  -3.714  -7.385  1.00  0.00     0.000 A 
ENDBRANCH   8  20
ENDBRANCH   5   8
ENDBRANCH   3   4
ENDBRANCH   2   3
ENDBRANCH   1   2
BRANCH   1  26
ATOM     26  C   UNL     1       2.308   6.319  -9.562  1.00  0.00     0.116 C 
BRANCH  26  27
ATOM     27  N   UNL     1       1.379   7.082  -8.740  1.00  0.00    -0.352 N 
ATOM     28  C   UNL     1       0.783   8.287  -9.030  1.00  0.00     0.251 C 
ATOM     29  H   UNL     1       1.149   6.687  -7.868  1.00  0.00     0.163 HD
ATOM     30  O   UNL     1       0.100   8.864  -8.191  1.00  0.00    -0.269 OA
BRANCH  28  31
ATOM     31  C   UNL     1       1.013   8.892 -10.357  1.00  0.00     0.039 A 
ATOM     32  C   UNL     1       1.513  10.194 -10.433  1.00  0.00     0.014 A 
ATOM     33  C   UNL     1       0.801   8.141 -11.516  1.00  0.00     0.014 A 
ATOM     34  C   UNL     1       1.875  10.720 -11.674  1.00  0.00     0.010 A 
ATOM     35  C   UNL     1       1.220   8.645 -12.743  1.00  0.00     0.010 A 
ATOM     36  C   UNL     1       1.768   9.934 -12.833  1.00  0.00    -0.014 A 
BRANCH  36  37
ATOM     37  C   UNL     1       2.246  10.415 -14.153  1.00  0.00     0.031 A 
ATOM     38  C   UNL     1       1.271  10.585 -15.284  1.00  0.00     0.074 A 
ATOM     39  C   UNL     1       3.568  10.570 -14.367  1.00  0.00     0.049 A 
ATOM     40  N   UNL     1       1.505  10.854 -16.541  1.00  0.00    -0.248 NA
ATOM     41  C   UNL     1      -0.154  10.396 -14.965  1.00  0.00     0.031 C 
ATOM     42  C   UNL     1       4.618  10.361 -13.367  1.00  0.00     0.029 A 
ATOM     43  N   UNL     1       4.258  10.898 -15.508  1.00  0.00    -0.354 N 
ATOM     44  C   UNL     1       0.268  10.820 -17.172  1.00  0.00     0.074 A 
ATOM     45  C   UNL     1      -0.713  10.482 -16.164  1.00  0.00     0.031 C 
ATOM     46  C   UNL     1       5.816  10.556 -13.941  1.00  0.00     0.029 A 
ATOM     47  C   UNL     1       5.625  10.871 -15.353  1.00  0.00     0.049 A 
ATOM     48  H   UNL     1       3.816  11.130 -16.357  1.00  0.00     0.167 HD
ATOM     49  C   UNL     1      -0.028  11.073 -18.469  1.00  0.00     0.034 A 
ATOM     50  C   UNL     1       6.612  11.064 -16.250  1.00  0.00     0.034 A 
ATOM     51  C   UNL     1       0.943  11.465 -19.454  1.00  0.00     0.049 A 
ATOM     52  C   UNL     1       6.251  11.391 -17.674  1.00  0.00     0.074 A 
ATOM     53  C   UNL     1       0.731  11.837 -20.769  1.00  0.00     0.029 A 
ATOM     54  N   UNL     1       2.309  11.534 -19.232  1.00  0.00    -0.354 N 
ATOM     55  N   UNL     1       5.063  11.508 -18.217  1.00  0.00    -0.248 NA
ATOM     56  C   UNL     1       7.363  11.644 -18.603  1.00  0.00     0.031 C 
ATOM     57  C   UNL     1       1.972  12.122 -21.347  1.00  0.00     0.029 A 
ATOM     58  C   UNL     1       2.955  11.941 -20.387  1.00  0.00     0.049 A 
ATOM     59  H   UNL     1       2.755  11.326 -18.379  1.00  0.00     0.167 HD
ATOM     60  C   UNL     1       5.283  11.885 -19.537  1.00  0.00     0.074 A 
ATOM     61  C   UNL     1       6.717  11.992 -19.709  1.00  0.00     0.031 C 
ATOM     62  C   UNL     1       4.379  12.108 -20.522  1.00  0.00     0.034 A 
BRANCH  49  63
ATOM     63  C   UNL     1      -1.473  10.995 -18.884  1.00  0.00     0.023 A 
ATOM     64  C   UNL     1      -2.367  12.002 -18.467  1.00  0.00     0.012 A 
ATOM     65  C   UNL     1      -1.935   9.964 -19.725  1.00  0.00     0.148 A 
ATOM     66  C   UNL     1      -3.706  11.968 -18.853  1.00  0.00     0.002 A 
ATOM     67  C   UNL     1      -3.262   9.960 -20.140  1.00  0.00     0.091 A 
ATOM     68  F   UNL     1      -1.076   9.002 -20.091  1.00  0.00    -0.205 F 
ATOM     69  C   UNL     1      -4.150  10.954 -19.697  1.00  0.00     0.022 A 
BRANCH  67  70
ATOM     70  S   UNL     1      -3.912   8.739 -21.287  1.00  0.00     0.127 S 
ATOM     71  O   UNL     1      -4.721   7.904 -20.401  1.00  0.00    -0.237 OA
ATOM     72  O   UNL     1      -4.682   9.566 -22.216  1.00  0.00    -0.237 OA
ATOM     73  O   UNL     1      -2.750   8.088 -21.877  1.00  0.00    -0.744 OA
ENDBRANCH  67  70
ENDBRANCH  49  63
BRANCH  50  74
ATOM     74  C   UNL     1       8.035  11.021 -15.811  1.00  0.00     0.023 A 
ATOM     75  C   UNL     1       8.772  12.221 -15.757  1.00  0.00     0.012 A 
ATOM     76  C   UNL     1       8.653   9.819 -15.417  1.00  0.00     0.148 A 
ATOM     77  C   UNL     1      10.105  12.220 -15.347  1.00  0.00     0.002 A 
ATOM     78  C   UNL     1       9.966   9.832 -14.959  1.00  0.00     0.091 A 
ATOM     79  F   UNL     1       7.940   8.685 -15.488  1.00  0.00    -0.205 F 
ATOM     80  C   UNL     1      10.699  11.029 -14.938  1.00  0.00     0.022 A 
BRANCH  78  81
ATOM     81  S   UNL     1      10.766   8.369 -14.290  1.00  0.00     0.127 S 
ATOM     82  O   UNL     1      11.696   8.021 -15.360  1.00  0.00    -0.237 OA
ATOM     83  O   UNL     1      11.391   8.893 -13.075  1.00  0.00    -0.237 OA
ATOM     84  O   UNL     1       9.691   7.416 -14.045  1.00  0.00    -0.744 OA
ENDBRANCH  78  81
ENDBRANCH  50  74
BRANCH  62  85
ATOM     85  C   UNL     1       4.897  12.530 -21.871  1.00  0.00     0.023 A 
ATOM     86  C   UNL     1       5.504  11.580 -22.714  1.00  0.00     0.012 A 
ATOM     87  C   UNL     1       4.689  13.842 -22.340  1.00  0.00     0.148 A 
ATOM     88  C   UNL     1       5.914  11.934 -23.998  1.00  0.00     0.002 A 
ATOM     89  C   UNL     1       5.059  14.176 -23.637  1.00  0.00     0.091 A 
ATOM     90  F   UNL     1       4.126  14.735 -21.513  1.00  0.00    -0.205 F 
ATOM     91  C   UNL     1       5.680  13.226 -24.464  1.00  0.00     0.022 A 
BRANCH  89  92
ATOM     92  S   UNL     1       4.710  15.786 -24.354  1.00  0.00     0.127 S 
ATOM     93  O   UNL     1       6.043  16.384 -24.407  1.00  0.00    -0.237 OA
ATOM     94  O   UNL     1       4.149  15.430 -25.658  1.00  0.00    -0.237 OA
ATOM     95  O   UNL     1       3.770  16.433 -23.449  1.00  0.00    -0.744 OA
ENDBRANCH  89  92
ENDBRANCH  62  85
ENDBRANCH  36  37
ENDBRANCH  28  31
ENDBRANCH  26  27
ENDBRANCH   1  26
TORSDOF 17
