REMARK SMILES CCN(CCC(=O)NCCCCNC(=O)c1ccc(-c2c3nc(c(-c4cccc(S(=O)(=O)[O-])c4F)c4ccc([nH]4)c(-c4cccc(S(=O)(=O)[O-])c4F)c4nc(c(-c5cccc(S(=O)(=O)[O-])c5F)c5ccc2[nH]5)C=C4)C=C3)cc1)C(=O)N(C)CCc1cccs1
REMARK SMILES IDX 6 1 7 2 8 3 5 5 4 6 3 7 2 8 1 9 79 10 80 11 81 12 82 13
REMARK SMILES IDX 83 14 84 15 85 16 86 17 89 18 87 19 88 20 9 21 10 22 11 23
REMARK SMILES IDX 12 24 13 25 14 26 15 28 16 29 17 30 78 31 18 32 77 33 19 34
REMARK SMILES IDX 20 35 21 36 71 37 22 38 76 39 70 40 72 41 23 42 75 43 69 44
REMARK SMILES IDX 68 45 24 47 56 48 36 49 55 50 37 51 40 52 54 53 73 54 38 55
REMARK SMILES IDX 39 56 53 58 74 59 41 60 25 61 26 62 34 63 27 64 29 65 35 66
REMARK SMILES IDX 28 67 30 68 31 69 32 70 33 71 57 72 58 73 66 74 59 75 61 76
REMARK SMILES IDX 67 77 60 78 62 79 63 80 64 81 65 82 42 83 43 84 51 85 44 86
REMARK SMILES IDX 46 87 52 88 45 89 47 90 48 91 49 92 50 93
REMARK H PARENT 8 4 13 27 72 46 40 57
REMARK Flexibility Score: inf
ROOT
ATOM      1  C   UNL     1       0.807   3.946   2.140  1.00  0.00     0.221 C 
ATOM      2  O   UNL     1       1.015   5.034   2.689  1.00  0.00    -0.275 OA
ATOM      3  N   UNL     1       1.790   3.009   2.170  1.00  0.00    -0.356 N 
ATOM      4  H   UNL     1       2.599   3.375   2.594  1.00  0.00     0.163 HD
ENDROOT
BRANCH   1   5
ATOM      5  C   UNL     1      -0.500   3.702   1.475  1.00  0.00     0.121 C 
BRANCH   5   6
ATOM      6  C   UNL     1      -0.382   3.977  -0.005  1.00  0.00     0.131 C 
BRANCH   6   7
ATOM      7  N   UNL     1       0.494   3.029  -0.689  1.00  0.00    -0.324 N 
BRANCH   7   8
ATOM      8  C   UNL     1      -0.194   1.746  -0.992  1.00  0.00     0.118 C 
ATOM      9  C   UNL     1       0.519   0.501  -1.492  1.00  0.00     0.027 C 
ENDBRANCH   7   8
BRANCH   7  10
ATOM     10  C   UNL     1       1.850   3.315  -0.970  1.00  0.00     0.319 C 
ATOM     11  O   UNL     1       2.486   2.693  -1.819  1.00  0.00    -0.248 OA
BRANCH  10  12
ATOM     12  N   UNL     1       2.442   4.397  -0.227  1.00  0.00    -0.327 N 
ATOM     13  C   UNL     1       2.282   5.618  -1.019  1.00  0.00     0.148 C 
BRANCH  12  14
ATOM     14  C   UNL     1       3.861   4.284   0.353  1.00  0.00     0.126 C 
BRANCH  14  15
ATOM     15  C   UNL     1       4.477   4.254   1.878  1.00  0.00     0.068 C 
BRANCH  15  16
ATOM     16  C   UNL     1       4.362   3.321   3.168  1.00  0.00     0.006 A 
ATOM     17  C   UNL     1       4.341   1.960   3.459  1.00  0.00     0.015 A 
ATOM     18  S   UNL     1       4.164   4.122   4.720  1.00  0.00    -0.149 S 
ATOM     19  C   UNL     1       4.045   1.568   4.796  1.00  0.00     0.012 A 
ATOM     20  C   UNL     1       3.920   2.667   5.594  1.00  0.00     0.065 A 
ENDBRANCH  15  16
ENDBRANCH  14  15
ENDBRANCH  12  14
ENDBRANCH  10  12
ENDBRANCH   7  10
ENDBRANCH   6   7
ENDBRANCH   5   6
ENDBRANCH   1   5
BRANCH   3  21
ATOM     21  C   UNL     1       2.014   1.604   1.758  1.00  0.00     0.116 C 
BRANCH  21  22
ATOM     22  C   UNL     1       3.173   1.018   0.773  1.00  0.00     0.023 C 
BRANCH  22  23
ATOM     23  C   UNL     1       4.714   1.105   0.385  1.00  0.00     0.023 C 
BRANCH  23  24
ATOM     24  C   UNL     1       5.984   0.784   1.193  1.00  0.00     0.116 C 
BRANCH  24  25
ATOM     25  N   UNL     1       5.925  -0.446   1.952  1.00  0.00    -0.352 N 
ATOM     26  C   UNL     1       6.927  -1.043   2.696  1.00  0.00     0.251 C 
ATOM     27  H   UNL     1       5.061  -0.918   1.938  1.00  0.00     0.163 HD
ATOM     28  O   UNL     1       6.729  -2.094   3.257  1.00  0.00    -0.269 OA
BRANCH  26  29
ATOM     29  C   UNL     1       8.272  -0.412   2.732  1.00  0.00     0.039 A 
ATOM     30  C   UNL     1       9.358  -1.171   2.284  1.00  0.00     0.014 A 
ATOM     31  C   UNL     1       8.461   0.897   3.179  1.00  0.00     0.014 A 
ATOM     32  C   UNL     1      10.625  -0.591   2.214  1.00  0.00     0.010 A 
ATOM     33  C   UNL     1       9.716   1.493   3.056  1.00  0.00     0.010 A 
ATOM     34  C   UNL     1      10.805   0.757   2.562  1.00  0.00    -0.014 A 
BRANCH  34  35
ATOM     35  C   UNL     1      12.120   1.412   2.359  1.00  0.00     0.031 A 
ATOM     36  C   UNL     1      12.927   1.880   3.536  1.00  0.00     0.074 A 
ATOM     37  C   UNL     1      12.539   1.638   1.098  1.00  0.00     0.049 A 
ATOM     38  N   UNL     1      14.106   2.442   3.556  1.00  0.00    -0.248 NA
ATOM     39  C   UNL     1      12.313   1.728   4.866  1.00  0.00     0.031 C 
ATOM     40  C   UNL     1      11.768   1.325  -0.110  1.00  0.00     0.029 A 
ATOM     41  N   UNL     1      13.697   2.189   0.614  1.00  0.00    -0.354 N 
ATOM     42  C   UNL     1      14.361   2.744   4.889  1.00  0.00     0.074 A 
ATOM     43  C   UNL     1      13.196   2.338   5.644  1.00  0.00     0.031 C 
ATOM     44  C   UNL     1      12.483   1.667  -1.193  1.00  0.00     0.029 A 
ATOM     45  C   UNL     1      13.757   2.230  -0.760  1.00  0.00     0.049 A 
ATOM     46  H   UNL     1      14.418   2.523   1.195  1.00  0.00     0.167 HD
ATOM     47  C   UNL     1      15.479   3.280   5.434  1.00  0.00     0.034 A 
ATOM     48  C   UNL     1      14.742   2.653  -1.576  1.00  0.00     0.034 A 
ATOM     49  C   UNL     1      16.641   3.626   4.661  1.00  0.00     0.049 A 
ATOM     50  C   UNL     1      16.023   3.125  -0.944  1.00  0.00     0.074 A 
ATOM     51  C   UNL     1      17.869   4.088   5.098  1.00  0.00     0.029 A 
ATOM     52  N   UNL     1      16.714   3.539   3.276  1.00  0.00    -0.354 N 
ATOM     53  N   UNL     1      16.314   3.245   0.330  1.00  0.00    -0.248 NA
ATOM     54  C   UNL     1      17.126   3.472  -1.849  1.00  0.00     0.031 C 
ATOM     55  C   UNL     1      18.681   4.285   3.975  1.00  0.00     0.029 A 
ATOM     56  C   UNL     1      17.965   3.932   2.840  1.00  0.00     0.049 A 
ATOM     57  H   UNL     1      15.980   3.241   2.691  1.00  0.00     0.167 HD
ATOM     58  C   UNL     1      17.638   3.656   0.385  1.00  0.00     0.074 A 
ATOM     59  C   UNL     1      18.101   3.738  -0.988  1.00  0.00     0.031 C 
ATOM     60  C   UNL     1      18.401   3.957   1.465  1.00  0.00     0.034 A 
BRANCH  47  61
ATOM     61  C   UNL     1      15.508   3.459   6.933  1.00  0.00     0.023 A 
ATOM     62  C   UNL     1      15.556   2.320   7.766  1.00  0.00     0.012 A 
ATOM     63  C   UNL     1      15.496   4.739   7.522  1.00  0.00     0.148 A 
ATOM     64  C   UNL     1      15.534   2.448   9.154  1.00  0.00     0.002 A 
ATOM     65  C   UNL     1      15.519   4.860   8.909  1.00  0.00     0.091 A 
ATOM     66  F   UNL     1      15.436   5.812   6.721  1.00  0.00    -0.205 F 
ATOM     67  C   UNL     1      15.521   3.717   9.725  1.00  0.00     0.022 A 
BRANCH  65  68
ATOM     68  S   UNL     1      15.575   6.449   9.746  1.00  0.00     0.127 S 
ATOM     69  O   UNL     1      14.228   6.536  10.307  1.00  0.00    -0.237 OA
ATOM     70  O   UNL     1      16.634   6.239  10.735  1.00  0.00    -0.237 OA
ATOM     71  O   UNL     1      15.892   7.432   8.719  1.00  0.00    -0.744 OA
ENDBRANCH  65  68
ENDBRANCH  47  61
BRANCH  48  72
ATOM     72  C   UNL     1      14.589   2.525  -3.055  1.00  0.00     0.023 A 
ATOM     73  C   UNL     1      15.325   1.541  -3.743  1.00  0.00     0.012 A 
ATOM     74  C   UNL     1      13.669   3.315  -3.772  1.00  0.00     0.148 A 
ATOM     75  C   UNL     1      15.165   1.359  -5.118  1.00  0.00     0.002 A 
ATOM     76  C   UNL     1      13.476   3.095  -5.133  1.00  0.00     0.091 A 
ATOM     77  F   UNL     1      12.982   4.254  -3.106  1.00  0.00    -0.205 F 
ATOM     78  C   UNL     1      14.233   2.127  -5.811  1.00  0.00     0.022 A 
BRANCH  76  79
ATOM     79  S   UNL     1      12.199   3.943  -6.072  1.00  0.00     0.127 S 
ATOM     80  O   UNL     1      12.984   4.895  -6.854  1.00  0.00    -0.237 OA
ATOM     81  O   UNL     1      11.610   2.849  -6.846  1.00  0.00    -0.237 OA
ATOM     82  O   UNL     1      11.304   4.519  -5.078  1.00  0.00    -0.744 OA
ENDBRANCH  76  79
ENDBRANCH  48  72
BRANCH  60  83
ATOM     83  C   UNL     1      19.816   4.390   1.207  1.00  0.00     0.023 A 
ATOM     84  C   UNL     1      20.066   5.684   0.710  1.00  0.00     0.012 A 
ATOM     85  C   UNL     1      20.896   3.552   1.544  1.00  0.00     0.148 A 
ATOM     86  C   UNL     1      21.373   6.130   0.530  1.00  0.00     0.002 A 
ATOM     87  C   UNL     1      22.195   4.021   1.407  1.00  0.00     0.091 A 
ATOM     88  F   UNL     1      20.632   2.316   1.993  1.00  0.00    -0.205 F 
ATOM     89  C   UNL     1      22.436   5.305   0.891  1.00  0.00     0.022 A 
BRANCH  87  90
ATOM     90  S   UNL     1      23.617   3.064   1.943  1.00  0.00     0.127 S 
ATOM     91  O   UNL     1      24.166   2.607   0.668  1.00  0.00    -0.237 OA
ATOM     92  O   UNL     1      24.428   4.069   2.632  1.00  0.00    -0.237 OA
ATOM     93  O   UNL     1      23.090   2.020   2.812  1.00  0.00    -0.744 OA
ENDBRANCH  87  90
ENDBRANCH  60  83
ENDBRANCH  34  35
ENDBRANCH  26  29
ENDBRANCH  24  25
ENDBRANCH  23  24
ENDBRANCH  22  23
ENDBRANCH  21  22
ENDBRANCH   3  21
TORSDOF 22
