REMARK SMILES CN([C@H]1CCSC1)S(=O)(=O)c1cccc(C(=O)NCCCCNC(=O)c2ccc(-c3c4nc(c(-c5cccc(S(=O)(=O)[O-])c5F)c5ccc([nH]5)c(-c5cccc(S(=O)(=O)[O-])c5F)c5nc(c(-c6cccc(S(=O)(=O)[O-])c6F)c6ccc3[nH]6)C=C5)C=C4)cc2)c1
REMARK SMILES IDX 20 1 19 2 18 3 16 4 17 5 15 7 11 8 12 9 89 10 13 11 14 12
REMARK SMILES IDX 8 13 9 14 10 15 2 16 1 17 3 18 4 19 7 20 5 21 6 22 21 23
REMARK SMILES IDX 22 24 23 25 24 26 25 28 26 29 27 30 88 31 28 32 87 33 29 34
REMARK SMILES IDX 30 35 31 36 81 37 32 38 86 39 80 40 82 41 33 42 85 43 79 44
REMARK SMILES IDX 78 45 34 47 66 48 46 49 65 50 47 51 50 52 64 53 83 54 48 55
REMARK SMILES IDX 49 56 63 58 84 59 51 60 35 61 36 62 44 63 37 64 39 65 45 66
REMARK SMILES IDX 38 67 40 68 41 69 42 70 43 71 67 72 68 73 76 74 69 75 71 76
REMARK SMILES IDX 77 77 70 78 72 79 73 80 74 81 75 82 52 83 53 84 61 85 54 86
REMARK SMILES IDX 56 87 62 88 55 89 57 90 58 91 59 92 60 93
REMARK H PARENT 18 6 23 27 82 46 50 57
REMARK Flexibility Score: inf
ROOT
ATOM      1  C   UNL     1      -0.478   2.297  -6.174  1.00  0.00     0.023 C 
ENDROOT
BRANCH   1   2
ATOM      2  C   UNL     1      -0.406   2.646  -4.695  1.00  0.00     0.116 C 
BRANCH   2   3
ATOM      3  N   UNL     1      -1.121   3.853  -4.294  1.00  0.00    -0.352 N 
ATOM      4  C   UNL     1      -1.998   4.075  -3.251  1.00  0.00     0.251 C 
ATOM      5  O   UNL     1      -2.470   5.194  -3.067  1.00  0.00    -0.269 OA
ATOM      6  H   UNL     1      -0.949   4.640  -4.862  1.00  0.00     0.163 HD
BRANCH   4   7
ATOM      7  C   UNL     1      -2.446   2.957  -2.383  1.00  0.00     0.041 A 
ATOM      8  C   UNL     1      -2.082   0.744  -1.534  1.00  0.00     0.083 A 
ATOM      9  C   UNL     1      -3.445   0.591  -1.272  1.00  0.00     0.022 A 
ATOM     10  C   UNL     1      -1.566   1.963  -1.973  1.00  0.00     0.035 A 
ATOM     11  C   UNL     1      -4.301   1.674  -1.486  1.00  0.00     0.002 A 
ATOM     12  C   UNL     1      -3.808   2.845  -2.074  1.00  0.00     0.014 A 
BRANCH   8  13
ATOM     13  S   UNL     1      -1.001  -0.658  -1.616  1.00  0.00     0.243 S 
ATOM     14  O   UNL     1       0.361  -0.192  -1.450  1.00  0.00    -0.207 OA
ATOM     15  O   UNL     1      -1.403  -1.374  -2.807  1.00  0.00    -0.207 OA
BRANCH  13  16
ATOM     16  N   UNL     1      -1.357  -1.643  -0.250  1.00  0.00    -0.197 NA
ATOM     17  C   UNL     1      -0.901  -3.045  -0.531  1.00  0.00     0.125 C 
BRANCH  16  18
ATOM     18  C   UNL     1      -0.823  -1.164   1.083  1.00  0.00     0.083 C 
ATOM     19  C   UNL     1      -1.240   0.260   1.446  1.00  0.00     0.032 C 
ATOM     20  C   UNL     1      -1.383  -2.028   2.225  1.00  0.00     0.089 C 
ATOM     21  C   UNL     1      -0.830   0.495   2.890  1.00  0.00     0.071 C 
ATOM     22  S   UNL     1      -1.224  -1.049   3.743  1.00  0.00    -0.160 SA
ENDBRANCH  16  18
ENDBRANCH  13  16
ENDBRANCH   8  13
ENDBRANCH   4   7
ENDBRANCH   2   3
ENDBRANCH   1   2
BRANCH   1  23
ATOM     23  C   UNL     1       0.157   3.284  -7.142  1.00  0.00     0.023 C 
BRANCH  23  24
ATOM     24  C   UNL     1       1.558   3.773  -6.789  1.00  0.00     0.116 C 
BRANCH  24  25
ATOM     25  N   UNL     1       2.539   2.710  -6.606  1.00  0.00    -0.352 N 
ATOM     26  C   UNL     1       3.763   2.524  -7.210  1.00  0.00     0.251 C 
ATOM     27  H   UNL     1       2.289   2.020  -5.949  1.00  0.00     0.163 HD
ATOM     28  O   UNL     1       4.436   1.531  -6.946  1.00  0.00    -0.269 OA
BRANCH  26  29
ATOM     29  C   UNL     1       4.241   3.491  -8.222  1.00  0.00     0.039 A 
ATOM     30  C   UNL     1       4.664   3.006  -9.463  1.00  0.00     0.014 A 
ATOM     31  C   UNL     1       4.206   4.865  -7.979  1.00  0.00     0.014 A 
ATOM     32  C   UNL     1       4.929   3.903 -10.501  1.00  0.00     0.010 A 
ATOM     33  C   UNL     1       4.394   5.753  -9.034  1.00  0.00     0.010 A 
ATOM     34  C   UNL     1       4.728   5.280 -10.312  1.00  0.00    -0.014 A 
BRANCH  34  35
ATOM     35  C   UNL     1       4.764   6.232 -11.453  1.00  0.00     0.031 A 
ATOM     36  C   UNL     1       5.761   7.356 -11.485  1.00  0.00     0.074 A 
ATOM     37  C   UNL     1       3.806   6.156 -12.400  1.00  0.00     0.049 A 
ATOM     38  N   UNL     1       5.874   8.330 -12.350  1.00  0.00    -0.248 NA
ATOM     39  C   UNL     1       6.741   7.409 -10.388  1.00  0.00     0.031 C 
ATOM     40  C   UNL     1       2.723   5.169 -12.431  1.00  0.00     0.029 A 
ATOM     41  N   UNL     1       3.563   6.944 -13.498  1.00  0.00    -0.354 N 
ATOM     42  C   UNL     1       6.910   9.131 -11.887  1.00  0.00     0.074 A 
ATOM     43  C   UNL     1       7.376   8.544 -10.649  1.00  0.00     0.031 C 
ATOM     44  C   UNL     1       1.935   5.411 -13.489  1.00  0.00     0.029 A 
ATOM     45  C   UNL     1       2.433   6.586 -14.196  1.00  0.00     0.049 A 
ATOM     46  H   UNL     1       4.143   7.695 -13.761  1.00  0.00     0.167 HD
ATOM     47  C   UNL     1       7.445  10.238 -12.456  1.00  0.00     0.034 A 
ATOM     48  C   UNL     1       1.854   7.144 -15.277  1.00  0.00     0.034 A 
ATOM     49  C   UNL     1       7.014  10.790 -13.711  1.00  0.00     0.049 A 
ATOM     50  C   UNL     1       2.493   8.349 -15.910  1.00  0.00     0.074 A 
ATOM     51  C   UNL     1       7.569  11.839 -14.424  1.00  0.00     0.029 A 
ATOM     52  N   UNL     1       5.921  10.347 -14.439  1.00  0.00    -0.354 N 
ATOM     53  N   UNL     1       3.585   8.982 -15.557  1.00  0.00    -0.248 NA
ATOM     54  C   UNL     1       1.839   8.898 -17.107  1.00  0.00     0.031 C 
ATOM     55  C   UNL     1       6.801  12.039 -15.577  1.00  0.00     0.029 A 
ATOM     56  C   UNL     1       5.774  11.110 -15.585  1.00  0.00     0.049 A 
ATOM     57  H   UNL     1       5.335   9.600 -14.178  1.00  0.00     0.167 HD
ATOM     58  C   UNL     1       3.761   9.990 -16.498  1.00  0.00     0.074 A 
ATOM     59  C   UNL     1       2.679   9.864 -17.454  1.00  0.00     0.031 C 
ATOM     60  C   UNL     1       4.720  10.947 -16.553  1.00  0.00     0.034 A 
BRANCH  47  61
ATOM     61  C   UNL     1       8.610  10.886 -11.757  1.00  0.00     0.023 A 
ATOM     62  C   UNL     1       9.872  10.259 -11.799  1.00  0.00     0.012 A 
ATOM     63  C   UNL     1       8.478  12.134 -11.118  1.00  0.00     0.148 A 
ATOM     64  C   UNL     1      10.979  10.849 -11.191  1.00  0.00     0.002 A 
ATOM     65  C   UNL     1       9.595  12.734 -10.546  1.00  0.00     0.091 A 
ATOM     66  F   UNL     1       7.265  12.703 -11.067  1.00  0.00    -0.205 F 
ATOM     67  C   UNL     1      10.843  12.090 -10.575  1.00  0.00     0.022 A 
BRANCH  65  68
ATOM     68  S   UNL     1       9.536  14.363  -9.790  1.00  0.00     0.127 S 
ATOM     69  O   UNL     1       9.600  14.029  -8.368  1.00  0.00    -0.237 OA
ATOM     70  O   UNL     1      10.743  14.996 -10.322  1.00  0.00    -0.237 OA
ATOM     71  O   UNL     1       8.288  14.965 -10.239  1.00  0.00    -0.744 OA
ENDBRANCH  65  68
ENDBRANCH  47  61
BRANCH  48  72
ATOM     72  C   UNL     1       0.635   6.524 -15.869  1.00  0.00     0.023 A 
ATOM     73  C   UNL     1       0.738   5.851 -17.102  1.00  0.00     0.012 A 
ATOM     74  C   UNL     1      -0.608   6.559 -15.207  1.00  0.00     0.148 A 
ATOM     75  C   UNL     1      -0.379   5.244 -17.677  1.00  0.00     0.002 A 
ATOM     76  C   UNL     1      -1.705   5.907 -15.760  1.00  0.00     0.091 A 
ATOM     77  F   UNL     1      -0.691   7.220 -14.044  1.00  0.00    -0.205 F 
ATOM     78  C   UNL     1      -1.597   5.262 -17.001  1.00  0.00     0.022 A 
BRANCH  76  79
ATOM     79  S   UNL     1      -3.271   5.767 -14.891  1.00  0.00     0.127 S 
ATOM     80  O   UNL     1      -4.094   6.745 -15.597  1.00  0.00    -0.237 OA
ATOM     81  O   UNL     1      -3.632   4.369 -15.131  1.00  0.00    -0.237 OA
ATOM     82  O   UNL     1      -2.969   6.073 -13.499  1.00  0.00    -0.744 OA
ENDBRANCH  76  79
ENDBRANCH  48  72
BRANCH  60  83
ATOM     83  C   UNL     1       4.650  11.937 -17.685  1.00  0.00     0.023 A 
ATOM     84  C   UNL     1       3.674  12.953 -17.654  1.00  0.00     0.012 A 
ATOM     85  C   UNL     1       5.587  11.909 -18.736  1.00  0.00     0.148 A 
ATOM     86  C   UNL     1       3.616  13.911 -18.665  1.00  0.00     0.002 A 
ATOM     87  C   UNL     1       5.549  12.892 -19.718  1.00  0.00     0.091 A 
ATOM     88  F   UNL     1       6.494  10.921 -18.759  1.00  0.00    -0.205 F 
ATOM     89  C   UNL     1       4.559  13.888 -19.689  1.00  0.00     0.022 A 
BRANCH  87  90
ATOM     90  S   UNL     1       6.777  12.990 -21.026  1.00  0.00     0.127 S 
ATOM     91  O   UNL     1       6.028  12.491 -22.178  1.00  0.00    -0.237 OA
ATOM     92  O   UNL     1       7.077  14.422 -21.068  1.00  0.00    -0.237 OA
ATOM     93  O   UNL     1       7.890  12.156 -20.591  1.00  0.00    -0.744 OA
ENDBRANCH  87  90
ENDBRANCH  60  83
ENDBRANCH  34  35
ENDBRANCH  26  29
ENDBRANCH  24  25
ENDBRANCH  23  24
ENDBRANCH   1  23
TORSDOF 17
