REMARK SMILES CN(CC(=O)NCCCCNC(=O)c1ccc(-c2c3nc(c(-c4cccc(S(=O)(=O)[O-])c4F)c4ccc([nH]4)c(-c4cccc(S(=O)(=O)[O-])c4F)c4nc(c(-c5cccc(S(=O)(=O)[O-])c5F)c5ccc2[nH]5)C=C4)C=C3)cc1)c1nc2cc(N)ccc2[nH]1
REMARK SMILES IDX 8 1 7 2 6 3 4 4 5 5 3 7 2 8 1 9 77 10 78 11 86 12 79 13
REMARK SMILES IDX 85 14 80 16 84 17 81 18 83 19 82 20 9 23 10 24 11 25 12 26
REMARK SMILES IDX 13 28 14 29 15 30 76 31 16 32 75 33 17 34 18 35 19 36 69 37
REMARK SMILES IDX 20 38 74 39 68 40 70 41 21 42 73 43 67 44 66 45 22 47 54 48
REMARK SMILES IDX 34 49 53 50 35 51 38 52 52 53 71 54 36 55 37 56 51 58 72 59
REMARK SMILES IDX 39 60 23 61 24 62 32 63 25 64 27 65 33 66 26 67 28 68 29 69
REMARK SMILES IDX 30 70 31 71 55 72 56 73 64 74 57 75 59 76 65 77 58 78 60 79
REMARK SMILES IDX 61 80 62 81 63 82 40 83 41 84 49 85 42 86 44 87 50 88 43 89
REMARK SMILES IDX 45 90 46 91 47 92 48 93
REMARK H PARENT 6 6 86 15 82 21 82 22 11 27 70 46 38 57
REMARK Flexibility Score: inf
ROOT
ATOM      1  C   UNL     1      -1.939  -1.330  -1.175  1.00  0.00     0.023 C 
ENDROOT
BRANCH   1   2
ATOM      2  C   UNL     1      -2.126  -0.149  -0.228  1.00  0.00     0.116 C 
BRANCH   2   3
ATOM      3  N   UNL     1      -2.497  -0.542   1.111  1.00  0.00    -0.355 N 
ATOM      4  C   UNL     1      -1.730  -0.517   2.245  1.00  0.00     0.239 C 
ATOM      5  O   UNL     1      -2.296  -0.674   3.331  1.00  0.00    -0.273 OA
ATOM      6  H   UNL     1      -3.418  -0.870   1.222  1.00  0.00     0.163 HD
BRANCH   4   7
ATOM      7  C   UNL     1      -0.238  -0.155   2.160  1.00  0.00     0.219 C 
BRANCH   7   8
ATOM      8  N   UNL     1       0.580  -1.063   1.329  1.00  0.00    -0.336 N 
ATOM      9  C   UNL     1       1.444  -0.501   0.315  1.00  0.00     0.147 C 
BRANCH   8  10
ATOM     10  C   UNL     1       0.600  -2.375   1.675  1.00  0.00     0.204 A 
ATOM     11  N   UNL     1      -0.278  -3.003   2.419  1.00  0.00    -0.213 NA
ATOM     12  N   UNL     1       1.607  -3.233   1.304  1.00  0.00    -0.324 N 
ATOM     13  C   UNL     1       0.163  -4.293   2.534  1.00  0.00     0.093 A 
ATOM     14  C   UNL     1       1.375  -4.457   1.879  1.00  0.00     0.067 A 
ATOM     15  H   UNL     1       2.369  -3.007   0.723  1.00  0.00     0.170 HD
ATOM     16  C   UNL     1      -0.413  -5.378   3.208  1.00  0.00     0.056 A 
ATOM     17  C   UNL     1       2.091  -5.653   1.899  1.00  0.00     0.030 A 
ATOM     18  C   UNL     1       0.244  -6.614   3.203  1.00  0.00     0.034 A 
ATOM     19  C   UNL     1       1.502  -6.721   2.596  1.00  0.00     0.028 A 
BRANCH  18  20
ATOM     20  N   UNL     1      -0.279  -7.679   3.930  1.00  0.00    -0.399 N 
ATOM     21  H   UNL     1      -1.163  -7.598   4.354  1.00  0.00     0.156 HD
ATOM     22  H   UNL     1       0.237  -8.513   4.021  1.00  0.00     0.156 HD
ENDBRANCH  18  20
ENDBRANCH   8  10
ENDBRANCH   7   8
ENDBRANCH   4   7
ENDBRANCH   2   3
ENDBRANCH   1   2
BRANCH   1  23
ATOM     23  C   UNL     1      -3.205  -2.137  -1.470  1.00  0.00     0.023 C 
BRANCH  23  24
ATOM     24  C   UNL     1      -4.410  -1.335  -1.952  1.00  0.00     0.116 C 
BRANCH  24  25
ATOM     25  N   UNL     1      -4.139  -0.543  -3.143  1.00  0.00    -0.352 N 
ATOM     26  C   UNL     1      -4.934  -0.337  -4.248  1.00  0.00     0.251 C 
ATOM     27  H   UNL     1      -3.265  -0.092  -3.161  1.00  0.00     0.163 HD
ATOM     28  O   UNL     1      -4.495   0.286  -5.207  1.00  0.00    -0.269 OA
BRANCH  26  29
ATOM     29  C   UNL     1      -6.303  -0.899  -4.288  1.00  0.00     0.039 A 
ATOM     30  C   UNL     1      -6.716  -1.582  -5.436  1.00  0.00     0.014 A 
ATOM     31  C   UNL     1      -7.169  -0.770  -3.200  1.00  0.00     0.014 A 
ATOM     32  C   UNL     1      -7.971  -2.199  -5.463  1.00  0.00     0.010 A 
ATOM     33  C   UNL     1      -8.390  -1.442  -3.203  1.00  0.00     0.010 A 
ATOM     34  C   UNL     1      -8.803  -2.166  -4.332  1.00  0.00    -0.014 A 
BRANCH  34  35
ATOM     35  C   UNL     1     -10.094  -2.902  -4.299  1.00  0.00     0.031 A 
ATOM     36  C   UNL     1     -11.392  -2.158  -4.143  1.00  0.00     0.074 A 
ATOM     37  C   UNL     1     -10.090  -4.250  -4.311  1.00  0.00     0.049 A 
ATOM     38  N   UNL     1     -12.606  -2.633  -4.030  1.00  0.00    -0.248 NA
ATOM     39  C   UNL     1     -11.316  -0.689  -4.077  1.00  0.00     0.031 C 
ATOM     40  C   UNL     1      -8.893  -5.092  -4.372  1.00  0.00     0.029 A 
ATOM     41  N   UNL     1     -11.124  -5.151  -4.239  1.00  0.00    -0.354 N 
ATOM     42  C   UNL     1     -13.430  -1.530  -3.841  1.00  0.00     0.074 A 
ATOM     43  C   UNL     1     -12.576  -0.363  -3.826  1.00  0.00     0.031 C 
ATOM     44  C   UNL     1      -9.259  -6.383  -4.334  1.00  0.00     0.029 A 
ATOM     45  C   UNL     1     -10.712  -6.464  -4.219  1.00  0.00     0.049 A 
ATOM     46  H   UNL     1     -12.070  -4.883  -4.204  1.00  0.00     0.167 HD
ATOM     47  C   UNL     1     -14.779  -1.488  -3.721  1.00  0.00     0.034 A 
ATOM     48  C   UNL     1     -11.422  -7.605  -4.114  1.00  0.00     0.034 A 
ATOM     49  C   UNL     1     -15.631  -2.645  -3.785  1.00  0.00     0.049 A 
ATOM     50  C   UNL     1     -12.923  -7.529  -4.033  1.00  0.00     0.074 A 
ATOM     51  C   UNL     1     -17.014  -2.696  -3.774  1.00  0.00     0.029 A 
ATOM     52  N   UNL     1     -15.184  -3.954  -3.867  1.00  0.00    -0.354 N 
ATOM     53  N   UNL     1     -13.697  -6.470  -4.031  1.00  0.00    -0.248 NA
ATOM     54  C   UNL     1     -13.652  -8.804  -3.979  1.00  0.00     0.031 C 
ATOM     55  C   UNL     1     -17.403  -4.038  -3.830  1.00  0.00     0.029 A 
ATOM     56  C   UNL     1     -16.263  -4.822  -3.898  1.00  0.00     0.049 A 
ATOM     57  H   UNL     1     -14.239  -4.227  -3.898  1.00  0.00     0.167 HD
ATOM     58  C   UNL     1     -15.001  -6.951  -4.011  1.00  0.00     0.074 A 
ATOM     59  C   UNL     1     -14.914  -8.397  -4.023  1.00  0.00     0.031 C 
ATOM     60  C   UNL     1     -16.166  -6.257  -3.968  1.00  0.00     0.034 A 
BRANCH  47  61
ATOM     61  C   UNL     1     -15.427  -0.137  -3.567  1.00  0.00     0.023 A 
ATOM     62  C   UNL     1     -15.473   0.738  -4.672  1.00  0.00     0.012 A 
ATOM     63  C   UNL     1     -16.042   0.244  -2.359  1.00  0.00     0.148 A 
ATOM     64  C   UNL     1     -16.091   1.984  -4.568  1.00  0.00     0.002 A 
ATOM     65  C   UNL     1     -16.694   1.469  -2.276  1.00  0.00     0.091 A 
ATOM     66  F   UNL     1     -15.970  -0.592  -1.313  1.00  0.00    -0.205 F 
ATOM     67  C   UNL     1     -16.709   2.344  -3.374  1.00  0.00     0.022 A 
BRANCH  65  68
ATOM     68  S   UNL     1     -17.589   1.993  -0.808  1.00  0.00     0.127 S 
ATOM     69  O   UNL     1     -16.712   3.040  -0.286  1.00  0.00    -0.237 OA
ATOM     70  O   UNL     1     -18.849   2.479  -1.373  1.00  0.00    -0.237 OA
ATOM     71  O   UNL     1     -17.717   0.807   0.027  1.00  0.00    -0.744 OA
ENDBRANCH  65  68
ENDBRANCH  47  61
BRANCH  48  72
ATOM     72  C   UNL     1     -10.725  -8.921  -4.153  1.00  0.00     0.023 A 
ATOM     73  C   UNL     1     -10.869  -9.743  -5.288  1.00  0.00     0.012 A 
ATOM     74  C   UNL     1      -9.901  -9.351  -3.095  1.00  0.00     0.148 A 
ATOM     75  C   UNL     1     -10.231 -10.982  -5.356  1.00  0.00     0.002 A 
ATOM     76  C   UNL     1      -9.225 -10.562  -3.192  1.00  0.00     0.091 A 
ATOM     77  F   UNL     1      -9.787  -8.561  -2.018  1.00  0.00    -0.205 F 
ATOM     78  C   UNL     1      -9.402 -11.387  -4.314  1.00  0.00     0.022 A 
BRANCH  76  79
ATOM     79  S   UNL     1      -8.037 -11.104  -1.958  1.00  0.00     0.127 S 
ATOM     80  O   UNL     1      -8.757 -12.195  -1.307  1.00  0.00    -0.237 OA
ATOM     81  O   UNL     1      -6.907 -11.521  -2.789  1.00  0.00    -0.237 OA
ATOM     82  O   UNL     1      -7.772  -9.935  -1.131  1.00  0.00    -0.744 OA
ENDBRANCH  76  79
ENDBRANCH  48  72
BRANCH  60  83
ATOM     83  C   UNL     1     -17.450  -7.044  -3.966  1.00  0.00     0.023 A 
ATOM     84  C   UNL     1     -17.839  -7.745  -2.807  1.00  0.00     0.012 A 
ATOM     85  C   UNL     1     -18.308  -7.025  -5.083  1.00  0.00     0.148 A 
ATOM     86  C   UNL     1     -19.048  -8.439  -2.771  1.00  0.00     0.002 A 
ATOM     87  C   UNL     1     -19.533  -7.679  -5.023  1.00  0.00     0.091 A 
ATOM     88  F   UNL     1     -17.912  -6.369  -6.184  1.00  0.00    -0.205 F 
ATOM     89  C   UNL     1     -19.899  -8.396  -3.872  1.00  0.00     0.022 A 
BRANCH  87  90
ATOM     90  S   UNL     1     -20.733  -7.598  -6.358  1.00  0.00     0.127 S 
ATOM     91  O   UNL     1     -20.627  -8.936  -6.936  1.00  0.00    -0.237 OA
ATOM     92  O   UNL     1     -21.982  -7.341  -5.639  1.00  0.00    -0.237 OA
ATOM     93  O   UNL     1     -20.300  -6.506  -7.220  1.00  0.00    -0.744 OA
ENDBRANCH  87  90
ENDBRANCH  60  83
ENDBRANCH  34  35
ENDBRANCH  26  29
ENDBRANCH  24  25
ENDBRANCH  23  24
ENDBRANCH   1  23
TORSDOF 17
