REMARK SMILES CC(=O)N[C@H]1[C@@H](O[C@H](C)C(=O)NCCCCNC(=O)c2ccc(-c3c4nc(c(-c5cccc(S(=O)(=O)[O-])c5F)c5ccc([nH]5)c(-c5cccc(S(=O)(=O)[O-])c5F)c5nc(c(-c6cccc(S(=O)(=O)[O-])c6F)c6ccc3[nH]6)C=C5)C=C4)cc2)[C@H]2OC(C)(C)OC[C@@H]2O[C@H]1Sc1ccc(Cl)cc1
REMARK SMILES IDX 14 1 13 2 12 3 10 4 11 5 8 7 9 8 7 9 6 10 5 11 92 12 83 13
REMARK SMILES IDX 91 14 84 15 90 16 85 17 89 18 86 19 87 20 88 21 4 22 1 23
REMARK SMILES IDX 2 24 3 25 93 27 94 28 95 29 100 30 96 31 99 32 97 33 98 34
REMARK SMILES IDX 15 35 16 36 17 37 18 38 19 40 20 41 21 42 82 43 22 44 81 45
REMARK SMILES IDX 23 46 24 47 25 48 75 49 26 50 80 51 74 52 76 53 27 54 79 55
REMARK SMILES IDX 73 56 72 57 28 59 60 60 40 61 59 62 41 63 44 64 58 65 77 66
REMARK SMILES IDX 42 67 43 68 57 70 78 71 45 72 29 73 30 74 38 75 31 76 33 77
REMARK SMILES IDX 39 78 32 79 34 80 35 81 36 82 37 83 61 84 62 85 70 86 63 87
REMARK SMILES IDX 65 88 71 89 64 90 66 91 67 92 68 93 69 94 46 95 47 96 55 97
REMARK SMILES IDX 48 98 50 99 56 100 49 101 51 102 52 103 53 104 54 105
REMARK H PARENT 12 6 4 26 17 39 76 58 44 69
REMARK Flexibility Score: inf
ROOT
ATOM      1  C   UNL     1       1.236  -9.383  -1.178  1.00  0.00     0.023 C 
ENDROOT
BRANCH   1   2
ATOM      2  C   UNL     1       1.696  -8.288  -0.212  1.00  0.00     0.116 C 
BRANCH   2   3
ATOM      3  N   UNL     1       1.703  -8.629   1.189  1.00  0.00    -0.354 N 
ATOM      4  C   UNL     1       2.344  -7.966   2.201  1.00  0.00     0.248 C 
ATOM      5  O   UNL     1       2.033  -8.256   3.363  1.00  0.00    -0.272 OA
ATOM      6  H   UNL     1       1.190  -9.429   1.446  1.00  0.00     0.163 HD
BRANCH   4   7
ATOM      7  C   UNL     1       3.482  -6.895   1.973  1.00  0.00     0.204 C 
ATOM      8  C   UNL     1       4.708  -7.685   1.496  1.00  0.00     0.049 C 
BRANCH   7   9
ATOM      9  O   UNL     1       3.394  -5.707   1.179  1.00  0.00    -0.360 OA
BRANCH   9  10
ATOM     10  C   UNL     1       2.687  -4.572   1.721  1.00  0.00     0.177 C 
ATOM     11  C   UNL     1       1.209  -4.674   1.301  1.00  0.00     0.153 C 
ATOM     12  C   UNL     1       1.100  -4.388  -0.242  1.00  0.00     0.206 C 
ATOM     13  C   UNL     1       3.179  -3.123   1.254  1.00  0.00     0.184 C 
ATOM     14  O   UNL     1       1.348  -2.970  -0.400  1.00  0.00    -0.356 OA
ATOM     15  O   UNL     1       4.591  -2.918   1.376  1.00  0.00    -0.342 OA
ATOM     16  C   UNL     1       2.712  -2.711  -0.158  1.00  0.00     0.177 C 
ATOM     17  C   UNL     1       5.049  -1.624   0.923  1.00  0.00     0.163 C 
ATOM     18  C   UNL     1       3.087  -1.266  -0.398  1.00  0.00     0.198 C 
ATOM     19  C   UNL     1       6.551  -1.783   0.664  1.00  0.00     0.075 C 
ATOM     20  C   UNL     1       4.835  -0.530   1.970  1.00  0.00     0.075 C 
ATOM     21  O   UNL     1       4.507  -1.192  -0.330  1.00  0.00    -0.348 OA
BRANCH  11  22
ATOM     22  N   UNL     1       0.538  -5.790   1.980  1.00  0.00    -0.347 N 
ATOM     23  C   UNL     1      -1.666  -5.978   0.868  1.00  0.00     0.114 C 
ATOM     24  C   UNL     1      -0.738  -6.248   2.001  1.00  0.00     0.217 C 
ATOM     25  O   UNL     1      -1.096  -6.907   2.976  1.00  0.00    -0.275 OA
ATOM     26  H   UNL     1       1.147  -6.322   2.541  1.00  0.00     0.163 HD
ENDBRANCH  11  22
BRANCH  12  27
ATOM     27  S   UNL     1       1.779  -5.346  -1.756  1.00  0.00    -0.092 SA
BRANCH  27  28
ATOM     28  C   UNL     1       3.531  -5.786  -1.834  1.00  0.00     0.010 A 
ATOM     29  C   UNL     1       4.650  -5.242  -1.197  1.00  0.00     0.016 A 
ATOM     30  C   UNL     1       3.814  -6.837  -2.731  1.00  0.00     0.016 A 
ATOM     31  C   UNL     1       5.957  -5.723  -1.387  1.00  0.00     0.021 A 
ATOM     32  C   UNL     1       5.113  -7.344  -2.923  1.00  0.00     0.021 A 
ATOM     33  C   UNL     1       6.183  -6.783  -2.243  1.00  0.00     0.041 A 
ATOM     34  Cl  UNL     1       7.775  -7.396  -2.449  1.00  0.00    -0.084 Cl
ENDBRANCH  27  28
ENDBRANCH  12  27
ENDBRANCH   9  10
ENDBRANCH   7   9
ENDBRANCH   4   7
ENDBRANCH   2   3
ENDBRANCH   1   2
BRANCH   1  35
ATOM     35  C   UNL     1      -0.252  -9.356  -1.563  1.00  0.00     0.023 C 
BRANCH  35  36
ATOM     36  C   UNL     1      -0.761  -8.133  -2.335  1.00  0.00     0.116 C 
BRANCH  36  37
ATOM     37  N   UNL     1      -0.138  -7.914  -3.631  1.00  0.00    -0.352 N 
ATOM     38  C   UNL     1      -0.720  -7.560  -4.829  1.00  0.00     0.251 C 
ATOM     39  H   UNL     1       0.839  -8.036  -3.656  1.00  0.00     0.163 HD
ATOM     40  O   UNL     1      -0.028  -7.420  -5.834  1.00  0.00    -0.269 OA
BRANCH  38  41
ATOM     41  C   UNL     1      -2.189  -7.400  -4.916  1.00  0.00     0.039 A 
ATOM     42  C   UNL     1      -2.889  -8.137  -5.875  1.00  0.00     0.014 A 
ATOM     43  C   UNL     1      -2.877  -6.565  -4.032  1.00  0.00     0.014 A 
ATOM     44  C   UNL     1      -4.287  -8.115  -5.883  1.00  0.00     0.010 A 
ATOM     45  C   UNL     1      -4.271  -6.591  -4.004  1.00  0.00     0.010 A 
ATOM     46  C   UNL     1      -4.992  -7.380  -4.916  1.00  0.00    -0.014 A 
BRANCH  46  47
ATOM     47  C   UNL     1      -6.475  -7.454  -4.812  1.00  0.00     0.031 A 
ATOM     48  C   UNL     1      -7.316  -6.224  -5.023  1.00  0.00     0.074 A 
ATOM     49  C   UNL     1      -7.061  -8.606  -4.426  1.00  0.00     0.049 A 
ATOM     50  N   UNL     1      -8.606  -6.071  -4.875  1.00  0.00    -0.248 NA
ATOM     51  C   UNL     1      -6.609  -4.998  -5.429  1.00  0.00     0.031 C 
ATOM     52  C   UNL     1      -6.357  -9.855  -4.123  1.00  0.00     0.029 A 
ATOM     53  N   UNL     1      -8.381  -8.908  -4.189  1.00  0.00    -0.354 N 
ATOM     54  C   UNL     1      -8.863  -4.729  -5.130  1.00  0.00     0.074 A 
ATOM     55  C   UNL     1      -7.588  -4.105  -5.416  1.00  0.00     0.031 C 
ATOM     56  C   UNL     1      -7.249 -10.783  -3.741  1.00  0.00     0.029 A 
ATOM     57  C   UNL     1      -8.584 -10.193  -3.740  1.00  0.00     0.049 A 
ATOM     58  H   UNL     1      -9.113  -8.264  -4.329  1.00  0.00     0.167 HD
ATOM     59  C   UNL     1     -10.051  -4.079  -5.153  1.00  0.00     0.034 A 
ATOM     60  C   UNL     1      -9.714 -10.823  -3.360  1.00  0.00     0.034 A 
ATOM     61  C   UNL     1     -11.322  -4.709  -4.918  1.00  0.00     0.049 A 
ATOM     62  C   UNL     1     -11.025 -10.087  -3.432  1.00  0.00     0.074 A 
ATOM     63  C   UNL     1     -12.586  -4.150  -4.993  1.00  0.00     0.029 A 
ATOM     64  N   UNL     1     -11.495  -6.037  -4.562  1.00  0.00    -0.354 N 
ATOM     65  N   UNL     1     -11.261  -8.856  -3.817  1.00  0.00    -0.248 NA
ATOM     66  C   UNL     1     -12.232 -10.837  -3.052  1.00  0.00     0.031 C 
ATOM     67  C   UNL     1     -13.523  -5.138  -4.671  1.00  0.00     0.029 A 
ATOM     68  C   UNL     1     -12.843  -6.317  -4.415  1.00  0.00     0.049 A 
ATOM     69  H   UNL     1     -10.766  -6.686  -4.433  1.00  0.00     0.167 HD
ATOM     70  C   UNL     1     -12.642  -8.699  -3.769  1.00  0.00     0.074 A 
ATOM     71  C   UNL     1     -13.192  -9.965  -3.331  1.00  0.00     0.031 C 
ATOM     72  C   UNL     1     -13.384  -7.601  -4.050  1.00  0.00     0.034 A 
BRANCH  59  73
ATOM     73  C   UNL     1     -10.040  -2.615  -5.507  1.00  0.00     0.023 A 
ATOM     74  C   UNL     1      -9.778  -2.228  -6.837  1.00  0.00     0.012 A 
ATOM     75  C   UNL     1     -10.346  -1.630  -4.548  1.00  0.00     0.148 A 
ATOM     76  C   UNL     1      -9.785  -0.882  -7.201  1.00  0.00     0.002 A 
ATOM     77  C   UNL     1     -10.394  -0.293  -4.928  1.00  0.00     0.091 A 
ATOM     78  F   UNL     1     -10.573  -2.015  -3.284  1.00  0.00    -0.205 F 
ATOM     79  C   UNL     1     -10.103   0.083  -6.249  1.00  0.00     0.022 A 
BRANCH  77  80
ATOM     80  S   UNL     1     -10.867   1.019  -3.795  1.00  0.00     0.127 S 
ATOM     81  O   UNL     1      -9.587   1.689  -3.569  1.00  0.00    -0.237 OA
ATOM     82  O   UNL     1     -11.824   1.786  -4.593  1.00  0.00    -0.237 OA
ATOM     83  O   UNL     1     -11.441   0.357  -2.632  1.00  0.00    -0.744 OA
ENDBRANCH  77  80
ENDBRANCH  59  73
BRANCH  60  84
ATOM     84  C   UNL     1      -9.670 -12.255  -2.946  1.00  0.00     0.023 A 
ATOM     85  C   UNL     1     -10.237 -13.232  -3.788  1.00  0.00     0.012 A 
ATOM     86  C   UNL     1      -9.063 -12.658  -1.741  1.00  0.00     0.148 A 
ATOM     87  C   UNL     1     -10.233 -14.578  -3.423  1.00  0.00     0.002 A 
ATOM     88  C   UNL     1      -9.015 -14.008  -1.408  1.00  0.00     0.091 A 
ATOM     89  F   UNL     1      -8.541 -11.714  -0.946  1.00  0.00    -0.205 F 
ATOM     90  C   UNL     1      -9.615 -14.967  -2.238  1.00  0.00     0.022 A 
BRANCH  88  91
ATOM     91  S   UNL     1      -8.128 -14.611   0.033  1.00  0.00     0.127 S 
ATOM     92  O   UNL     1      -9.223 -14.977   0.927  1.00  0.00    -0.237 OA
ATOM     93  O   UNL     1      -7.381 -15.741  -0.522  1.00  0.00    -0.237 OA
ATOM     94  O   UNL     1      -7.293 -13.500   0.469  1.00  0.00    -0.744 OA
ENDBRANCH  88  91
ENDBRANCH  60  84
BRANCH  72  95
ATOM     95  C   UNL     1     -14.883  -7.719  -3.949  1.00  0.00     0.023 A 
ATOM     96  C   UNL     1     -15.500  -7.775  -2.684  1.00  0.00     0.012 A 
ATOM     97  C   UNL     1     -15.682  -7.683  -5.109  1.00  0.00     0.148 A 
ATOM     98  C   UNL     1     -16.890  -7.820  -2.576  1.00  0.00     0.002 A 
ATOM     99  C   UNL     1     -17.067  -7.681  -4.992  1.00  0.00     0.091 A 
ATOM    100  F   UNL     1     -15.075  -7.650  -6.304  1.00  0.00    -0.205 F 
ATOM    101  C   UNL     1     -17.672  -7.760  -3.727  1.00  0.00     0.022 A 
BRANCH  99 102
ATOM    102  S   UNL     1     -18.153  -7.509  -6.413  1.00  0.00     0.127 S 
ATOM    103  O   UNL     1     -18.694  -8.861  -6.541  1.00  0.00    -0.237 OA
ATOM    104  O   UNL     1     -19.115  -6.508  -5.950  1.00  0.00    -0.237 OA
ATOM    105  O   UNL     1     -17.305  -7.067  -7.513  1.00  0.00    -0.744 OA
ENDBRANCH  99 102
ENDBRANCH  72  95
ENDBRANCH  46  47
ENDBRANCH  38  41
ENDBRANCH  36  37
ENDBRANCH  35  36
ENDBRANCH   1  35
TORSDOF 19
