REMARK SMILES Cc1nc(C(=O)NCCCCNC(=O)c2ccc(-c3c4nc(c(-c5cccc(S(=O)(=O)[O-])c5F)c5ccc([nH]5)c(-c5cccc(S(=O)(=O)[O-])c5F)c5nc(c(-c6cccc(S(=O)(=O)[O-])c6F)c6ccc3[nH]6)C=C5)C=C4)cc2)nn1-c1cccc(C(F)(F)F)c1
REMARK SMILES IDX 10 1 9 2 8 3 7 4 5 5 6 6 4 8 1 9 2 10 3 11 79 12 78 13 80 14
REMARK SMILES IDX 81 15 89 16 82 17 84 18 83 19 85 20 86 21 87 22 88 23 11 24
REMARK SMILES IDX 12 25 13 26 14 28 15 29 16 30 77 31 17 32 76 33 18 34 19 35
REMARK SMILES IDX 20 36 70 37 21 38 75 39 69 40 71 41 22 42 74 43 68 44 67 45
REMARK SMILES IDX 23 47 55 48 35 49 54 50 36 51 39 52 53 53 72 54 37 55 38 56
REMARK SMILES IDX 52 58 73 59 40 60 24 61 25 62 33 63 26 64 28 65 34 66 27 67
REMARK SMILES IDX 29 68 30 69 31 70 32 71 56 72 57 73 65 74 58 75 60 76 66 77
REMARK SMILES IDX 59 78 61 79 62 80 63 81 64 82 41 83 42 84 50 85 43 86 45 87
REMARK SMILES IDX 51 88 44 89 46 90 47 91 48 92 49 93
REMARK H PARENT 7 7 12 27 71 46 39 57
REMARK Flexibility Score: inf
ROOT
ATOM      1  C   UNL     1      -3.261  -2.633   7.147  1.00  0.00     0.023 C 
ENDROOT
BRANCH   1   2
ATOM      2  C   UNL     1      -2.686  -1.681   6.089  1.00  0.00     0.023 C 
BRANCH   2   3
ATOM      3  C   UNL     1      -1.161  -1.700   5.916  1.00  0.00     0.116 C 
BRANCH   3   4
ATOM      4  N   UNL     1      -0.692  -2.886   5.217  1.00  0.00    -0.349 N 
ATOM      5  C   UNL     1      -0.187  -3.047   3.935  1.00  0.00     0.290 C 
ATOM      6  O   UNL     1      -0.041  -4.205   3.535  1.00  0.00    -0.266 OA
ATOM      7  H   UNL     1      -0.740  -3.716   5.744  1.00  0.00     0.163 HD
BRANCH   5   8
ATOM      8  C   UNL     1       0.092  -1.878   3.067  1.00  0.00     0.239 A 
ATOM      9  C   UNL     1       0.797  -0.276  -0.051  1.00  0.00     0.090 C 
ATOM     10  C   UNL     1       0.360  -0.721   1.293  1.00  0.00     0.130 A 
ATOM     11  N   UNL     1       0.211  -1.969   1.687  1.00  0.00    -0.207 NA
ATOM     12  N   UNL     1       0.197   0.106   2.382  1.00  0.00    -0.217 N 
ATOM     13  N   UNL     1       0.258  -0.620   3.511  1.00  0.00    -0.140 NA
BRANCH  12  14
ATOM     14  C   UNL     1      -0.194   1.463   2.465  1.00  0.00     0.067 A 
ATOM     15  C   UNL     1       0.217   2.218   3.570  1.00  0.00     0.028 A 
ATOM     16  C   UNL     1      -1.109   1.996   1.546  1.00  0.00     0.041 A 
ATOM     17  C   UNL     1      -0.242   3.523   3.731  1.00  0.00     0.003 A 
ATOM     18  C   UNL     1      -1.620   3.291   1.739  1.00  0.00     0.058 A 
ATOM     19  C   UNL     1      -1.157   4.055   2.823  1.00  0.00     0.013 A 
BRANCH  18  20
ATOM     20  C   UNL     1      -2.690   3.852   0.834  1.00  0.00     0.416 C 
ATOM     21  F   UNL     1      -3.793   4.264   1.520  1.00  0.00    -0.166 F 
ATOM     22  F   UNL     1      -2.262   4.937   0.130  1.00  0.00    -0.166 F 
ATOM     23  F   UNL     1      -3.143   2.962  -0.093  1.00  0.00    -0.166 F 
ENDBRANCH  18  20
ENDBRANCH  12  14
ENDBRANCH   5   8
ENDBRANCH   3   4
ENDBRANCH   2   3
ENDBRANCH   1   2
BRANCH   1  24
ATOM     24  C   UNL     1      -2.771  -2.378   8.566  1.00  0.00     0.116 C 
BRANCH  24  25
ATOM     25  N   UNL     1      -3.128  -1.050   9.084  1.00  0.00    -0.352 N 
ATOM     26  C   UNL     1      -2.800  -0.491  10.313  1.00  0.00     0.251 C 
ATOM     27  H   UNL     1      -3.669  -0.486   8.485  1.00  0.00     0.163 HD
ATOM     28  O   UNL     1      -3.442   0.435  10.776  1.00  0.00    -0.269 OA
BRANCH  26  29
ATOM     29  C   UNL     1      -1.634  -1.035  11.037  1.00  0.00     0.039 A 
ATOM     30  C   UNL     1      -1.609  -1.187  12.428  1.00  0.00     0.014 A 
ATOM     31  C   UNL     1      -0.549  -1.427  10.264  1.00  0.00     0.014 A 
ATOM     32  C   UNL     1      -0.504  -1.806  13.011  1.00  0.00     0.010 A 
ATOM     33  C   UNL     1       0.409  -2.233  10.803  1.00  0.00     0.010 A 
ATOM     34  C   UNL     1       0.496  -2.335  12.182  1.00  0.00    -0.014 A 
BRANCH  34  35
ATOM     35  C   UNL     1       1.619  -3.101  12.701  1.00  0.00     0.031 A 
ATOM     36  C   UNL     1       1.214  -4.329  13.433  1.00  0.00     0.074 A 
ATOM     37  C   UNL     1       2.889  -2.856  12.302  1.00  0.00     0.049 A 
ATOM     38  N   UNL     1       1.319  -4.557  14.700  1.00  0.00    -0.248 NA
ATOM     39  C   UNL     1       0.435  -5.348  12.711  1.00  0.00     0.031 C 
ATOM     40  C   UNL     1       3.350  -1.894  11.289  1.00  0.00     0.029 A 
ATOM     41  N   UNL     1       4.028  -3.539  12.588  1.00  0.00    -0.354 N 
ATOM     42  C   UNL     1       0.870  -5.864  14.877  1.00  0.00     0.074 A 
ATOM     43  C   UNL     1       0.111  -6.184  13.700  1.00  0.00     0.031 C 
ATOM     44  C   UNL     1       4.579  -2.251  10.854  1.00  0.00     0.029 A 
ATOM     45  C   UNL     1       5.057  -3.353  11.665  1.00  0.00     0.049 A 
ATOM     46  H   UNL     1       4.119  -4.117  13.380  1.00  0.00     0.167 HD
ATOM     47  C   UNL     1       1.418  -6.668  15.832  1.00  0.00     0.034 A 
ATOM     48  C   UNL     1       6.182  -4.105  11.541  1.00  0.00     0.034 A 
ATOM     49  C   UNL     1       2.211  -5.896  16.761  1.00  0.00     0.049 A 
ATOM     50  C   UNL     1       6.342  -4.853  12.810  1.00  0.00     0.074 A 
ATOM     51  C   UNL     1       1.975  -4.798  17.566  1.00  0.00     0.029 A 
ATOM     52  N   UNL     1       3.577  -5.971  16.621  1.00  0.00    -0.354 N 
ATOM     53  N   UNL     1       6.601  -4.280  13.952  1.00  0.00    -0.248 NA
ATOM     54  C   UNL     1       5.738  -6.174  12.890  1.00  0.00     0.031 C 
ATOM     55  C   UNL     1       3.147  -3.996  17.436  1.00  0.00     0.029 A 
ATOM     56  C   UNL     1       4.064  -4.692  16.648  1.00  0.00     0.049 A 
ATOM     57  H   UNL     1       4.108  -6.794  16.519  1.00  0.00     0.167 HD
ATOM     58  C   UNL     1       5.767  -4.931  14.852  1.00  0.00     0.074 A 
ATOM     59  C   UNL     1       5.337  -6.149  14.164  1.00  0.00     0.031 C 
ATOM     60  C   UNL     1       5.251  -4.278  15.935  1.00  0.00     0.034 A 
BRANCH  47  61
ATOM     61  C   UNL     1       1.595  -8.170  15.723  1.00  0.00     0.023 A 
ATOM     62  C   UNL     1       2.109  -8.833  16.863  1.00  0.00     0.012 A 
ATOM     63  C   UNL     1       1.563  -8.913  14.520  1.00  0.00     0.148 A 
ATOM     64  C   UNL     1       2.637 -10.127  16.790  1.00  0.00     0.002 A 
ATOM     65  C   UNL     1       2.016 -10.227  14.470  1.00  0.00     0.091 A 
ATOM     66  F   UNL     1       1.218  -8.327  13.373  1.00  0.00    -0.205 F 
ATOM     67  C   UNL     1       2.589 -10.826  15.592  1.00  0.00     0.022 A 
BRANCH  65  68
ATOM     68  S   UNL     1       1.934 -11.196  12.957  1.00  0.00     0.127 S 
ATOM     69  O   UNL     1       3.342 -11.265  12.579  1.00  0.00    -0.237 OA
ATOM     70  O   UNL     1       1.357 -12.451  13.440  1.00  0.00    -0.237 OA
ATOM     71  O   UNL     1       1.065 -10.448  12.056  1.00  0.00    -0.744 OA
ENDBRANCH  65  68
ENDBRANCH  47  61
BRANCH  48  72
ATOM     72  C   UNL     1       6.985  -4.447  10.339  1.00  0.00     0.023 A 
ATOM     73  C   UNL     1       8.291  -4.959  10.496  1.00  0.00     0.012 A 
ATOM     74  C   UNL     1       6.381  -4.559   9.068  1.00  0.00     0.148 A 
ATOM     75  C   UNL     1       8.953  -5.597   9.439  1.00  0.00     0.002 A 
ATOM     76  C   UNL     1       7.045  -5.190   8.018  1.00  0.00     0.091 A 
ATOM     77  F   UNL     1       5.119  -4.137   8.914  1.00  0.00    -0.205 F 
ATOM     78  C   UNL     1       8.326  -5.723   8.203  1.00  0.00     0.022 A 
BRANCH  76  79
ATOM     79  S   UNL     1       6.280  -5.417   6.406  1.00  0.00     0.127 S 
ATOM     80  O   UNL     1       7.352  -5.001   5.501  1.00  0.00    -0.237 OA
ATOM     81  O   UNL     1       5.998  -6.849   6.408  1.00  0.00    -0.237 OA
ATOM     82  O   UNL     1       5.116  -4.539   6.399  1.00  0.00    -0.744 OA
ENDBRANCH  76  79
ENDBRANCH  48  72
BRANCH  60  83
ATOM     83  C   UNL     1       5.798  -2.917  16.286  1.00  0.00     0.023 A 
ATOM     84  C   UNL     1       5.716  -1.806  15.421  1.00  0.00     0.012 A 
ATOM     85  C   UNL     1       6.254  -2.720  17.599  1.00  0.00     0.148 A 
ATOM     86  C   UNL     1       6.102  -0.532  15.853  1.00  0.00     0.002 A 
ATOM     87  C   UNL     1       6.590  -1.448  18.040  1.00  0.00     0.091 A 
ATOM     88  F   UNL     1       6.329  -3.787  18.411  1.00  0.00    -0.205 F 
ATOM     89  C   UNL     1       6.525  -0.351  17.168  1.00  0.00     0.022 A 
BRANCH  87  90
ATOM     90  S   UNL     1       7.019  -1.149  19.755  1.00  0.00     0.127 S 
ATOM     91  O   UNL     1       8.476  -1.060  19.692  1.00  0.00    -0.237 OA
ATOM     92  O   UNL     1       6.340   0.117  20.037  1.00  0.00    -0.237 OA
ATOM     93  O   UNL     1       6.487  -2.284  20.500  1.00  0.00    -0.744 OA
ENDBRANCH  87  90
ENDBRANCH  60  83
ENDBRANCH  34  35
ENDBRANCH  26  29
ENDBRANCH  24  25
ENDBRANCH   1  24
TORSDOF 16
