REMARK SMILES O=C(NCCCCNC(=O)[C@@H]1[C@@H](C(=O)Nc2cccc([N+](=O)[O-])c2)[C@@H]2C=C[C@H]1O2)c1ccc(-c2c3nc(c(-c4cccc(S(=O)(=O)[O-])c4F)c4ccc([nH]4)c(-c4cccc(S(=O)(=O)[O-])c4F)c4nc(c(-c5cccc(S(=O)(=O)[O-])c5F)c5ccc2[nH]5)C=C4)C=C3)cc1
REMARK SMILES IDX 5 1 4 2 3 3 1 4 2 5 30 7 31 8 92 9 32 10 91 11 33 12 34 13
REMARK SMILES IDX 35 14 85 15 36 16 90 17 84 18 86 19 37 20 89 21 83 22 82 23
REMARK SMILES IDX 38 25 70 26 50 27 69 28 51 29 54 30 68 31 87 32 52 33 53 34
REMARK SMILES IDX 67 36 88 37 55 38 39 39 40 40 48 41 41 42 43 43 49 44 42 45
REMARK SMILES IDX 44 46 45 47 46 48 47 49 71 50 72 51 80 52 73 53 75 54 81 55
REMARK SMILES IDX 74 56 76 57 77 58 78 59 79 60 56 61 57 62 65 63 58 64 60 65
REMARK SMILES IDX 66 66 59 67 61 68 62 69 63 70 64 71 6 72 7 73 8 74 9 75
REMARK SMILES IDX 10 77 11 78 12 79 28 80 25 81 27 82 29 83 26 84 13 85 14 86
REMARK SMILES IDX 15 87 16 89 17 90 24 91 18 92 20 93 19 94 21 95 22 96 23 97
REMARK H PARENT 3 6 86 24 54 35 8 76 15 88
REMARK Flexibility Score: inf
ROOT
ATOM      1  C   UNL     1       4.907  -1.134  -2.347  1.00  0.00     0.023 C 
ENDROOT
BRANCH   1   2
ATOM      2  C   UNL     1       4.586   0.036  -1.426  1.00  0.00     0.116 C 
BRANCH   2   3
ATOM      3  N   UNL     1       3.158   0.215  -1.214  1.00  0.00    -0.352 N 
ATOM      4  O   UNL     1       1.183   0.093  -0.140  1.00  0.00    -0.269 OA
ATOM      5  C   UNL     1       2.409   0.052  -0.071  1.00  0.00     0.251 C 
ATOM      6  H   UNL     1       2.650   0.496  -2.010  1.00  0.00     0.163 HD
BRANCH   5   7
ATOM      7  C   UNL     1       3.078  -0.205   1.224  1.00  0.00     0.039 A 
ATOM      8  C   UNL     1       4.199   0.534   1.604  1.00  0.00     0.014 A 
ATOM      9  C   UNL     1       2.580  -1.202   2.068  1.00  0.00     0.014 A 
ATOM     10  C   UNL     1       4.922   0.162   2.731  1.00  0.00     0.010 A 
ATOM     11  C   UNL     1       3.255  -1.510   3.255  1.00  0.00     0.010 A 
ATOM     12  C   UNL     1       4.457  -0.860   3.575  1.00  0.00    -0.014 A 
BRANCH  12  13
ATOM     13  C   UNL     1       5.218  -1.179   4.812  1.00  0.00     0.031 A 
ATOM     14  C   UNL     1       5.848  -2.530   5.022  1.00  0.00     0.074 A 
ATOM     15  C   UNL     1       5.361  -0.216   5.744  1.00  0.00     0.049 A 
ATOM     16  N   UNL     1       6.584  -2.944   6.022  1.00  0.00    -0.248 NA
ATOM     17  C   UNL     1       5.623  -3.550   3.986  1.00  0.00     0.031 C 
ATOM     18  C   UNL     1       4.755   1.117   5.674  1.00  0.00     0.029 A 
ATOM     19  N   UNL     1       6.061  -0.199   6.923  1.00  0.00    -0.354 N 
ATOM     20  C   UNL     1       6.884  -4.275   5.755  1.00  0.00     0.074 A 
ATOM     21  C   UNL     1       6.238  -4.606   4.503  1.00  0.00     0.031 C 
ATOM     22  C   UNL     1       5.136   1.832   6.742  1.00  0.00     0.029 A 
ATOM     23  C   UNL     1       5.971   0.997   7.597  1.00  0.00     0.049 A 
ATOM     24  H   UNL     1       6.578  -0.968   7.255  1.00  0.00     0.167 HD
ATOM     25  C   UNL     1       7.646  -5.135   6.474  1.00  0.00     0.034 A 
ATOM     26  C   UNL     1       6.493   1.381   8.777  1.00  0.00     0.034 A 
ATOM     27  C   UNL     1       8.317  -4.790   7.702  1.00  0.00     0.049 A 
ATOM     28  C   UNL     1       7.361   0.417   9.533  1.00  0.00     0.074 A 
ATOM     29  C   UNL     1       9.140  -5.581   8.485  1.00  0.00     0.029 A 
ATOM     30  N   UNL     1       8.245  -3.553   8.324  1.00  0.00    -0.354 N 
ATOM     31  N   UNL     1       7.724  -0.798   9.203  1.00  0.00    -0.248 NA
ATOM     32  C   UNL     1       7.916   0.886  10.810  1.00  0.00     0.031 C 
ATOM     33  C   UNL     1       9.561  -4.824   9.584  1.00  0.00     0.029 A 
ATOM     34  C   UNL     1       9.009  -3.558   9.479  1.00  0.00     0.049 A 
ATOM     35  H   UNL     1       7.726  -2.784   7.994  1.00  0.00     0.167 HD
ATOM     36  C   UNL     1       8.563  -1.234  10.220  1.00  0.00     0.074 A 
ATOM     37  C   UNL     1       8.683  -0.138  11.160  1.00  0.00     0.031 C 
ATOM     38  C   UNL     1       9.158  -2.441  10.377  1.00  0.00     0.034 A 
BRANCH  25  39
ATOM     39  C   UNL     1       7.850  -6.524   5.926  1.00  0.00     0.023 A 
ATOM     40  C   UNL     1       8.724  -6.712   4.836  1.00  0.00     0.012 A 
ATOM     41  C   UNL     1       7.249  -7.646   6.530  1.00  0.00     0.148 A 
ATOM     42  C   UNL     1       8.979  -7.991   4.341  1.00  0.00     0.002 A 
ATOM     43  C   UNL     1       7.537  -8.922   6.054  1.00  0.00     0.091 A 
ATOM     44  F   UNL     1       6.405  -7.448   7.553  1.00  0.00    -0.205 F 
ATOM     45  C   UNL     1       8.395  -9.095   4.955  1.00  0.00     0.022 A 
BRANCH  43  46
ATOM     46  S   UNL     1       6.889 -10.412   6.822  1.00  0.00     0.127 S 
ATOM     47  O   UNL     1       5.889 -10.837   5.844  1.00  0.00    -0.237 OA
ATOM     48  O   UNL     1       8.075 -11.267   6.890  1.00  0.00    -0.237 OA
ATOM     49  O   UNL     1       6.367  -9.999   8.117  1.00  0.00    -0.744 OA
ENDBRANCH  43  46
ENDBRANCH  25  39
BRANCH  26  50
ATOM     50  C   UNL     1       6.244   2.760   9.280  1.00  0.00     0.023 A 
ATOM     51  C   UNL     1       7.302   3.687   9.322  1.00  0.00     0.012 A 
ATOM     52  C   UNL     1       4.954   3.174   9.665  1.00  0.00     0.148 A 
ATOM     53  C   UNL     1       7.084   4.994   9.759  1.00  0.00     0.002 A 
ATOM     54  C   UNL     1       4.731   4.493  10.040  1.00  0.00     0.091 A 
ATOM     55  F   UNL     1       3.961   2.273   9.642  1.00  0.00    -0.205 F 
ATOM     56  C   UNL     1       5.798   5.402  10.104  1.00  0.00     0.022 A 
BRANCH  54  57
ATOM     57  S   UNL     1       3.075   5.118  10.343  1.00  0.00     0.127 S 
ATOM     58  O   UNL     1       2.995   5.067  11.799  1.00  0.00    -0.237 OA
ATOM     59  O   UNL     1       3.142   6.466   9.776  1.00  0.00    -0.237 OA
ATOM     60  O   UNL     1       2.191   4.215   9.617  1.00  0.00    -0.744 OA
ENDBRANCH  54  57
ENDBRANCH  26  50
BRANCH  38  61
ATOM     61  C   UNL     1      10.005  -2.635  11.606  1.00  0.00     0.023 A 
ATOM     62  C   UNL     1       9.380  -2.796  12.859  1.00  0.00     0.012 A 
ATOM     63  C   UNL     1      11.408  -2.709  11.516  1.00  0.00     0.148 A 
ATOM     64  C   UNL     1      10.141  -2.993  14.010  1.00  0.00     0.002 A 
ATOM     65  C   UNL     1      12.158  -2.949  12.662  1.00  0.00     0.091 A 
ATOM     66  F   UNL     1      11.985  -2.531  10.319  1.00  0.00    -0.205 F 
ATOM     67  C   UNL     1      11.528  -3.080  13.910  1.00  0.00     0.022 A 
BRANCH  65  68
ATOM     68  S   UNL     1      13.941  -3.159  12.609  1.00  0.00     0.127 S 
ATOM     69  O   UNL     1      14.409  -1.863  13.098  1.00  0.00    -0.237 OA
ATOM     70  O   UNL     1      14.154  -4.272  13.535  1.00  0.00    -0.237 OA
ATOM     71  O   UNL     1      14.263  -3.462  11.221  1.00  0.00    -0.744 OA
ENDBRANCH  65  68
ENDBRANCH  38  61
ENDBRANCH  12  13
ENDBRANCH   5   7
ENDBRANCH   2   3
ENDBRANCH   1   2
BRANCH   1  72
ATOM     72  C   UNL     1       4.396  -0.999  -3.780  1.00  0.00     0.023 C 
BRANCH  72  73
ATOM     73  C   UNL     1       4.751   0.304  -4.486  1.00  0.00     0.116 C 
BRANCH  73  74
ATOM     74  N   UNL     1       6.177   0.561  -4.548  1.00  0.00    -0.356 N 
ATOM     75  C   UNL     1       6.876   1.253  -5.494  1.00  0.00     0.227 C 
ATOM     76  H   UNL     1       6.711   0.187  -3.810  1.00  0.00     0.163 HD
ATOM     77  O   UNL     1       8.088   1.392  -5.334  1.00  0.00    -0.275 OA
BRANCH  75  78
ATOM     78  C   UNL     1       6.151   1.772  -6.717  1.00  0.00     0.127 C 
ATOM     79  C   UNL     1       7.076   2.596  -7.684  1.00  0.00     0.127 C 
ATOM     80  C   UNL     1       5.063   2.806  -6.387  1.00  0.00     0.155 C 
ATOM     81  C   UNL     1       6.280   3.910  -7.794  1.00  0.00     0.155 C 
ATOM     82  C   UNL     1       5.611   3.978  -5.628  1.00  0.00     0.004 C 
ATOM     83  O   UNL     1       4.917   3.423  -7.692  1.00  0.00    -0.365 OA
ATOM     84  C   UNL     1       6.369   4.658  -6.497  1.00  0.00     0.004 C 
BRANCH  79  85
ATOM     85  C   UNL     1       7.255   1.923  -9.038  1.00  0.00     0.231 C 
ATOM     86  O   UNL     1       6.907   0.757  -9.242  1.00  0.00    -0.274 OA
ATOM     87  N   UNL     1       7.794   2.606 -10.099  1.00  0.00    -0.325 N 
ATOM     88  H   UNL     1       7.766   2.124 -10.957  1.00  0.00     0.169 HD
BRANCH  87  89
ATOM     89  C   UNL     1       8.379   3.878 -10.160  1.00  0.00     0.048 A 
ATOM     90  C   UNL     1       8.065   4.672 -11.269  1.00  0.00     0.026 A 
ATOM     91  C   UNL     1       9.207   4.386  -9.158  1.00  0.00     0.111 A 
ATOM     92  C   UNL     1       8.479   6.005 -11.325  1.00  0.00     0.009 A 
ATOM     93  C   UNL     1       9.633   5.720  -9.226  1.00  0.00     0.271 A 
ATOM     94  C   UNL     1       9.252   6.539 -10.296  1.00  0.00     0.086 A 
BRANCH  93  95
ATOM     95  N   UNL     1      10.470   6.271  -8.153  1.00  0.00     0.062 N 
ATOM     96  O   UNL     1      10.832   7.451  -8.256  1.00  0.00    -0.258 OA
ATOM     97  O   UNL     1      10.757   5.526  -7.208  1.00  0.00    -0.258 OA
ENDBRANCH  93  95
ENDBRANCH  87  89
ENDBRANCH  79  85
ENDBRANCH  75  78
ENDBRANCH  73  74
ENDBRANCH  72  73
ENDBRANCH   1  72
TORSDOF 17
