REMARK SMILES C[C@@H]1[C@H](C(=O)NCCCCNC(=O)c2ccc(-c3c4nc(c(-c5cccc(S(=O)(=O)[O-])c5F)c5ccc([nH]5)c(-c5cccc(S(=O)(=O)[O-])c5F)c5nc(c(-c6cccc(S(=O)(=O)[O-])c6F)c6ccc3[nH]6)C=C5)C=C4)cc2)CC[N@@H+]1[C@@H](C)c1cc(F)cc(F)c1
REMARK SMILES IDX 9 1 8 2 7 3 6 4 4 5 5 6 3 8 1 9 2 10 79 11 77 12 78 13 80 15
REMARK SMILES IDX 81 16 82 17 83 18 89 19 84 20 87 21 85 22 86 23 88 24 10 25
REMARK SMILES IDX 11 26 12 27 13 29 14 30 15 31 76 32 16 33 75 34 17 35 18 36
REMARK SMILES IDX 19 37 69 38 20 39 74 40 68 41 70 42 21 43 73 44 67 45 66 46
REMARK SMILES IDX 22 48 54 49 34 50 53 51 35 52 38 53 52 54 71 55 36 56 37 57
REMARK SMILES IDX 51 59 72 60 39 61 23 62 24 63 32 64 25 65 27 66 33 67 26 68
REMARK SMILES IDX 28 69 29 70 30 71 31 72 55 73 56 74 64 75 57 76 59 77 65 78
REMARK SMILES IDX 58 79 60 80 61 81 62 82 63 83 40 84 41 85 49 86 42 87 44 88
REMARK SMILES IDX 50 89 43 90 45 91 46 92 47 93 48 94
REMARK H PARENT 6 7 79 14 11 28 70 47 38 58
REMARK Flexibility Score: inf
ROOT
ATOM      1  C   UNL     1       3.824   2.407   2.913  1.00  0.00     0.023 C 
ENDROOT
BRANCH   1   2
ATOM      2  C   UNL     1       2.951   1.329   2.289  1.00  0.00     0.023 C 
BRANCH   2   3
ATOM      3  C   UNL     1       1.511   1.743   1.996  1.00  0.00     0.116 C 
BRANCH   3   4
ATOM      4  N   UNL     1       1.409   2.519   0.781  1.00  0.00    -0.356 N 
ATOM      5  C   UNL     1       0.758   2.263  -0.383  1.00  0.00     0.229 C 
ATOM      6  O   UNL     1       0.899   3.086  -1.293  1.00  0.00    -0.275 OA
ATOM      7  H   UNL     1       1.892   3.377   0.800  1.00  0.00     0.163 HD
BRANCH   5   8
ATOM      8  C   UNL     1      -0.129   1.042  -0.610  1.00  0.00     0.142 C 
ATOM      9  C   UNL     1       2.022  -0.465  -0.669  1.00  0.00     0.076 C 
ATOM     10  C   UNL     1       0.508  -0.352  -0.773  1.00  0.00     0.194 C 
ATOM     11  N   UNL     1      -0.325  -1.264   0.020  1.00  0.00    -0.326 N 
ATOM     12  C   UNL     1      -1.287   0.876   0.367  1.00  0.00     0.081 C 
ATOM     13  C   UNL     1      -1.577  -0.615   0.372  1.00  0.00     0.264 C 
ATOM     14  H   UNL     1      -0.491  -2.035  -0.626  1.00  0.00     0.348 HD
BRANCH  11  15
ATOM     15  C   UNL     1       0.218  -2.299   0.895  1.00  0.00     0.212 C 
ATOM     16  C   UNL     1       0.659  -1.794   2.276  1.00  0.00     0.081 C 
BRANCH  15  17
ATOM     17  C   UNL     1      -0.737  -3.494   0.982  1.00  0.00     0.015 A 
ATOM     18  C   UNL     1      -1.401  -3.868   2.163  1.00  0.00     0.049 A 
ATOM     19  C   UNL     1      -0.954  -4.273  -0.169  1.00  0.00     0.049 A 
ATOM     20  C   UNL     1      -2.221  -4.994   2.187  1.00  0.00     0.126 A 
ATOM     21  C   UNL     1      -1.784  -5.391  -0.121  1.00  0.00     0.126 A 
ATOM     22  F   UNL     1      -2.824  -5.340   3.333  1.00  0.00    -0.207 F 
ATOM     23  C   UNL     1      -2.417  -5.765   1.054  1.00  0.00     0.078 A 
ATOM     24  F   UNL     1      -1.969  -6.121  -1.229  1.00  0.00    -0.207 F 
ENDBRANCH  15  17
ENDBRANCH  11  15
ENDBRANCH   5   8
ENDBRANCH   3   4
ENDBRANCH   2   3
ENDBRANCH   1   2
BRANCH   1  25
ATOM     25  C   UNL     1       3.337   2.927   4.256  1.00  0.00     0.116 C 
BRANCH  25  26
ATOM     26  N   UNL     1       3.143   1.883   5.257  1.00  0.00    -0.352 N 
ATOM     27  C   UNL     1       3.529   1.881   6.577  1.00  0.00     0.251 C 
ATOM     28  H   UNL     1       2.675   1.074   4.946  1.00  0.00     0.163 HD
ATOM     29  O   UNL     1       3.373   0.881   7.271  1.00  0.00    -0.269 OA
BRANCH  27  30
ATOM     30  C   UNL     1       4.167   3.091   7.132  1.00  0.00     0.039 A 
ATOM     31  C   UNL     1       5.381   2.974   7.814  1.00  0.00     0.014 A 
ATOM     32  C   UNL     1       3.604   4.347   6.896  1.00  0.00     0.014 A 
ATOM     33  C   UNL     1       6.071   4.128   8.187  1.00  0.00     0.010 A 
ATOM     34  C   UNL     1       4.339   5.489   7.178  1.00  0.00     0.010 A 
ATOM     35  C   UNL     1       5.575   5.394   7.835  1.00  0.00    -0.014 A 
BRANCH  35  36
ATOM     36  C   UNL     1       6.311   6.643   8.153  1.00  0.00     0.031 A 
ATOM     37  C   UNL     1       5.666   7.681   9.031  1.00  0.00     0.074 A 
ATOM     38  C   UNL     1       7.498   6.894   7.565  1.00  0.00     0.049 A 
ATOM     39  N   UNL     1       6.085   8.879   9.338  1.00  0.00    -0.248 NA
ATOM     40  C   UNL     1       4.351   7.342   9.604  1.00  0.00     0.031 C 
ATOM     41  C   UNL     1       8.182   6.009   6.618  1.00  0.00     0.029 A 
ATOM     42  N   UNL     1       8.326   7.984   7.655  1.00  0.00    -0.354 N 
ATOM     43  C   UNL     1       5.067   9.454  10.089  1.00  0.00     0.074 A 
ATOM     44  C   UNL     1       3.992   8.491  10.156  1.00  0.00     0.031 C 
ATOM     45  C   UNL     1       9.329   6.587   6.224  1.00  0.00     0.029 A 
ATOM     46  C   UNL     1       9.452   7.891   6.869  1.00  0.00     0.049 A 
ATOM     47  H   UNL     1       8.133   8.761   8.228  1.00  0.00     0.167 HD
ATOM     48  C   UNL     1       5.043  10.660  10.704  1.00  0.00     0.034 A 
ATOM     49  C   UNL     1      10.470   8.757   6.695  1.00  0.00     0.034 A 
ATOM     50  C   UNL     1       6.147  11.578  10.704  1.00  0.00     0.049 A 
ATOM     51  C   UNL     1      10.464  10.048   7.469  1.00  0.00     0.074 A 
ATOM     52  C   UNL     1       6.269  12.780  11.377  1.00  0.00     0.029 A 
ATOM     53  N   UNL     1       7.329  11.387  10.004  1.00  0.00    -0.354 N 
ATOM     54  N   UNL     1       9.561  10.507   8.302  1.00  0.00    -0.248 NA
ATOM     55  C   UNL     1      11.636  10.923   7.314  1.00  0.00     0.031 C 
ATOM     56  C   UNL     1       7.528  13.316  11.085  1.00  0.00     0.029 A 
ATOM     57  C   UNL     1       8.191  12.443  10.237  1.00  0.00     0.049 A 
ATOM     58  H   UNL     1       7.525  10.614   9.427  1.00  0.00     0.167 HD
ATOM     59  C   UNL     1      10.072  11.700   8.800  1.00  0.00     0.074 A 
ATOM     60  C   UNL     1      11.372  11.885   8.188  1.00  0.00     0.031 C 
ATOM     61  C   UNL     1       9.510  12.572   9.673  1.00  0.00     0.034 A 
BRANCH  48  62
ATOM     62  C   UNL     1       3.810  11.012  11.493  1.00  0.00     0.023 A 
ATOM     63  C   UNL     1       3.550  10.340  12.705  1.00  0.00     0.012 A 
ATOM     64  C   UNL     1       2.928  12.020  11.060  1.00  0.00     0.148 A 
ATOM     65  C   UNL     1       2.410  10.633  13.452  1.00  0.00     0.002 A 
ATOM     66  C   UNL     1       1.817  12.339  11.833  1.00  0.00     0.091 A 
ATOM     67  F   UNL     1       3.175  12.631   9.892  1.00  0.00    -0.205 F 
ATOM     68  C   UNL     1       1.550  11.639  13.021  1.00  0.00     0.022 A 
BRANCH  66  69
ATOM     69  S   UNL     1       0.692  13.671  11.401  1.00  0.00     0.127 S 
ATOM     70  O   UNL     1      -0.464  12.931  10.899  1.00  0.00    -0.237 OA
ATOM     71  O   UNL     1       0.480  14.330  12.691  1.00  0.00    -0.237 OA
ATOM     72  O   UNL     1       1.396  14.482  10.418  1.00  0.00    -0.744 OA
ENDBRANCH  66  69
ENDBRANCH  48  62
BRANCH  49  73
ATOM     73  C   UNL     1      11.627   8.383   5.834  1.00  0.00     0.023 A 
ATOM     74  C   UNL     1      12.858   8.068   6.442  1.00  0.00     0.012 A 
ATOM     75  C   UNL     1      11.513   8.299   4.433  1.00  0.00     0.148 A 
ATOM     76  C   UNL     1      13.963   7.707   5.671  1.00  0.00     0.002 A 
ATOM     77  C   UNL     1      12.605   7.889   3.674  1.00  0.00     0.091 A 
ATOM     78  F   UNL     1      10.338   8.612   3.870  1.00  0.00    -0.205 F 
ATOM     79  C   UNL     1      13.835   7.607   4.289  1.00  0.00     0.022 A 
BRANCH  77  80
ATOM     80  S   UNL     1      12.493   7.609   1.902  1.00  0.00     0.127 S 
ATOM     81  O   UNL     1      13.218   8.760   1.371  1.00  0.00    -0.237 OA
ATOM     82  O   UNL     1      13.180   6.325   1.753  1.00  0.00    -0.237 OA
ATOM     83  O   UNL     1      11.068   7.562   1.605  1.00  0.00    -0.744 OA
ENDBRANCH  77  80
ENDBRANCH  49  73
BRANCH  61  84
ATOM     84  C   UNL     1      10.308  13.788  10.058  1.00  0.00     0.023 A 
ATOM     85  C   UNL     1      10.441  14.853   9.146  1.00  0.00     0.012 A 
ATOM     86  C   UNL     1      10.846  13.912  11.354  1.00  0.00     0.148 A 
ATOM     87  C   UNL     1      11.121  16.014   9.509  1.00  0.00     0.002 A 
ATOM     88  C   UNL     1      11.484  15.090  11.723  1.00  0.00     0.091 A 
ATOM     89  F   UNL     1      10.727  12.878  12.199  1.00  0.00    -0.205 F 
ATOM     90  C   UNL     1      11.631  16.138  10.800  1.00  0.00     0.022 A 
BRANCH  88  91
ATOM     91  S   UNL     1      12.082  15.367  13.395  1.00  0.00     0.127 S 
ATOM     92  O   UNL     1      13.519  15.149  13.238  1.00  0.00    -0.237 OA
ATOM     93  O   UNL     1      11.699  16.758  13.640  1.00  0.00    -0.237 OA
ATOM     94  O   UNL     1      11.386  14.397  14.230  1.00  0.00    -0.744 OA
ENDBRANCH  88  91
ENDBRANCH  61  84
ENDBRANCH  35  36
ENDBRANCH  27  30
ENDBRANCH  25  26
ENDBRANCH   1  25
TORSDOF 16
