REMARK SMILES O=C(NCCCCNC(=O)[C@H]1[C@H]2CC[C@H](C2)[C@@H]1C(=O)Nc1sc2c(c1C(=O)NC1CCCCC1)CCCC2)c1ccc(-c2c3nc(c(-c4cccc(S(=O)(=O)[O-])c4F)c4ccc([nH]4)c(-c4cccc(S(=O)(=O)[O-])c4F)c4nc(c(-c5cccc(S(=O)(=O)[O-])c5F)c5ccc2[nH]5)C=C4)C=C3)cc1
REMARK SMILES IDX 6 1 5 2 4 3 3 4 1 5 2 6 39 8 40 9 101 10 41 11 100 12 42 13
REMARK SMILES IDX 43 14 44 15 94 16 45 17 99 18 93 19 95 20 46 21 98 22 92 23
REMARK SMILES IDX 91 24 47 26 79 27 59 28 78 29 60 30 63 31 77 32 96 33 61 34
REMARK SMILES IDX 62 35 76 37 97 38 64 39 48 40 49 41 57 42 50 43 52 44 58 45
REMARK SMILES IDX 51 46 53 47 54 48 55 49 56 50 80 51 81 52 89 53 82 54 84 55
REMARK SMILES IDX 90 56 83 57 85 58 86 59 87 60 88 61 65 62 66 63 74 64 67 65
REMARK SMILES IDX 69 66 75 67 68 68 70 69 71 70 72 71 73 72 7 73 8 74 9 75
REMARK SMILES IDX 10 77 11 78 12 79 17 80 13 81 16 82 15 83 14 84 18 85 19 86
REMARK SMILES IDX 20 87 21 89 22 90 25 91 23 92 24 93 38 94 35 95 37 96 36 97
REMARK SMILES IDX 26 98 27 99 28 100 29 102 30 103 34 104 31 105 33 106 32 107
REMARK H PARENT 3 7 95 25 63 36 8 76 20 88 28 101
REMARK Flexibility Score: inf
ROOT
ATOM      1  C   UNL     1       6.001  -3.076   4.660  1.00  0.00     0.023 C 
ENDROOT
BRANCH   1   2
ATOM      2  C   UNL     1       6.062  -2.975   6.190  1.00  0.00     0.023 C 
BRANCH   2   3
ATOM      3  C   UNL     1       7.414  -2.583   6.780  1.00  0.00     0.116 C 
BRANCH   3   4
ATOM      4  N   UNL     1       7.851  -1.268   6.351  1.00  0.00    -0.352 N 
ATOM      5  O   UNL     1       8.558   0.855   6.580  1.00  0.00    -0.269 OA
ATOM      6  C   UNL     1       8.368  -0.239   7.102  1.00  0.00     0.251 C 
ATOM      7  H   UNL     1       7.766  -1.087   5.387  1.00  0.00     0.163 HD
BRANCH   6   8
ATOM      8  C   UNL     1       8.665  -0.441   8.539  1.00  0.00     0.039 A 
ATOM      9  C   UNL     1       9.384  -1.555   8.983  1.00  0.00     0.014 A 
ATOM     10  C   UNL     1       8.236   0.525   9.454  1.00  0.00     0.014 A 
ATOM     11  C   UNL     1       9.587  -1.751  10.350  1.00  0.00     0.010 A 
ATOM     12  C   UNL     1       8.480   0.350  10.819  1.00  0.00     0.010 A 
ATOM     13  C   UNL     1       9.134  -0.802  11.280  1.00  0.00    -0.014 A 
BRANCH  13  14
ATOM     14  C   UNL     1       9.391  -0.996  12.730  1.00  0.00     0.031 A 
ATOM     15  C   UNL     1       8.263  -1.278  13.683  1.00  0.00     0.074 A 
ATOM     16  C   UNL     1      10.651  -0.890  13.192  1.00  0.00     0.049 A 
ATOM     17  N   UNL     1       8.312  -1.481  14.975  1.00  0.00    -0.248 NA
ATOM     18  C   UNL     1       6.906  -1.334  13.118  1.00  0.00     0.031 C 
ATOM     19  C   UNL     1      11.821  -0.569  12.373  1.00  0.00     0.029 A 
ATOM     20  N   UNL     1      11.157  -1.026  14.460  1.00  0.00    -0.354 N 
ATOM     21  C   UNL     1       6.996  -1.657  15.384  1.00  0.00     0.074 A 
ATOM     22  C   UNL     1       6.168  -1.530  14.203  1.00  0.00     0.031 C 
ATOM     23  C   UNL     1      12.909  -0.540  13.157  1.00  0.00     0.029 A 
ATOM     24  C   UNL     1      12.513  -0.814  14.535  1.00  0.00     0.049 A 
ATOM     25  H   UNL     1      10.602  -1.254  15.241  1.00  0.00     0.167 HD
ATOM     26  C   UNL     1       6.522  -1.924  16.624  1.00  0.00     0.034 A 
ATOM     27  C   UNL     1      13.347  -0.835  15.594  1.00  0.00     0.034 A 
ATOM     28  C   UNL     1       7.348  -2.098  17.789  1.00  0.00     0.049 A 
ATOM     29  C   UNL     1      12.799  -1.172  16.952  1.00  0.00     0.074 A 
ATOM     30  C   UNL     1       6.962  -2.440  19.074  1.00  0.00     0.029 A 
ATOM     31  N   UNL     1       8.724  -1.941  17.814  1.00  0.00    -0.354 N 
ATOM     32  N   UNL     1      11.571  -1.478  17.291  1.00  0.00    -0.248 NA
ATOM     33  C   UNL     1      13.755  -1.195  18.069  1.00  0.00     0.031 C 
ATOM     34  C   UNL     1       8.108  -2.492  19.876  1.00  0.00     0.029 A 
ATOM     35  C   UNL     1       9.205  -2.177  19.091  1.00  0.00     0.049 A 
ATOM     36  H   UNL     1       9.279  -1.698  17.038  1.00  0.00     0.167 HD
ATOM     37  C   UNL     1      11.607  -1.750  18.653  1.00  0.00     0.074 A 
ATOM     38  C   UNL     1      12.986  -1.595  19.073  1.00  0.00     0.031 C 
ATOM     39  C   UNL     1      10.587  -2.075  19.484  1.00  0.00     0.034 A 
BRANCH  26  40
ATOM     40  C   UNL     1       5.038  -2.116  16.777  1.00  0.00     0.023 A 
ATOM     41  C   UNL     1       4.464  -3.345  16.396  1.00  0.00     0.012 A 
ATOM     42  C   UNL     1       4.223  -1.120  17.348  1.00  0.00     0.148 A 
ATOM     43  C   UNL     1       3.099  -3.575  16.565  1.00  0.00     0.002 A 
ATOM     44  C   UNL     1       2.867  -1.366  17.539  1.00  0.00     0.091 A 
ATOM     45  F   UNL     1       4.778   0.056  17.676  1.00  0.00    -0.205 F 
ATOM     46  C   UNL     1       2.303  -2.590  17.145  1.00  0.00     0.022 A 
BRANCH  44  47
ATOM     47  S   UNL     1       1.794  -0.165  18.336  1.00  0.00     0.127 S 
ATOM     48  O   UNL     1       1.252   0.558  17.187  1.00  0.00    -0.237 OA
ATOM     49  O   UNL     1       0.825  -1.012  19.033  1.00  0.00    -0.237 OA
ATOM     50  O   UNL     1       2.664   0.599  19.220  1.00  0.00    -0.744 OA
ENDBRANCH  44  47
ENDBRANCH  26  40
BRANCH  27  51
ATOM     51  C   UNL     1      14.802  -0.607  15.379  1.00  0.00     0.023 A 
ATOM     52  C   UNL     1      15.686  -1.698  15.460  1.00  0.00     0.012 A 
ATOM     53  C   UNL     1      15.301   0.659  15.015  1.00  0.00     0.148 A 
ATOM     54  C   UNL     1      17.045  -1.532  15.191  1.00  0.00     0.002 A 
ATOM     55  C   UNL     1      16.646   0.806  14.698  1.00  0.00     0.091 A 
ATOM     56  F   UNL     1      14.447   1.692  14.967  1.00  0.00    -0.205 F 
ATOM     57  C   UNL     1      17.522  -0.285  14.795  1.00  0.00     0.022 A 
BRANCH  55  58
ATOM     58  S   UNL     1      17.299   2.347  14.041  1.00  0.00     0.127 S 
ATOM     59  O   UNL     1      17.895   2.951  15.229  1.00  0.00    -0.237 OA
ATOM     60  O   UNL     1      18.258   1.878  13.040  1.00  0.00    -0.237 OA
ATOM     61  O   UNL     1      16.146   3.038  13.478  1.00  0.00    -0.744 OA
ENDBRANCH  55  58
ENDBRANCH  27  51
BRANCH  39  62
ATOM     62  C   UNL     1      10.915  -2.290  20.936  1.00  0.00     0.023 A 
ATOM     63  C   UNL     1      11.112  -1.170  21.767  1.00  0.00     0.012 A 
ATOM     64  C   UNL     1      10.950  -3.582  21.493  1.00  0.00     0.148 A 
ATOM     65  C   UNL     1      11.357  -1.334  23.129  1.00  0.00     0.002 A 
ATOM     66  C   UNL     1      11.163  -3.736  22.859  1.00  0.00     0.091 A 
ATOM     67  F   UNL     1      10.787  -4.637  20.682  1.00  0.00    -0.205 F 
ATOM     68  C   UNL     1      11.371  -2.614  23.678  1.00  0.00     0.022 A 
BRANCH  66  69
ATOM     69  S   UNL     1      11.117  -5.352  23.643  1.00  0.00     0.127 S 
ATOM     70  O   UNL     1      12.533  -5.709  23.680  1.00  0.00    -0.237 OA
ATOM     71  O   UNL     1      10.529  -5.058  24.952  1.00  0.00    -0.237 OA
ATOM     72  O   UNL     1      10.275  -6.175  22.785  1.00  0.00    -0.744 OA
ENDBRANCH  66  69
ENDBRANCH  39  62
ENDBRANCH  13  14
ENDBRANCH   6   8
ENDBRANCH   3   4
ENDBRANCH   2   3
ENDBRANCH   1   2
BRANCH   1  73
ATOM     73  C   UNL     1       7.067  -3.962   4.019  1.00  0.00     0.116 C 
BRANCH  73  74
ATOM     74  N   UNL     1       7.056  -5.298   4.573  1.00  0.00    -0.356 N 
ATOM     75  C   UNL     1       6.955  -6.515   3.993  1.00  0.00     0.224 C 
ATOM     76  H   UNL     1       7.136  -5.326   5.554  1.00  0.00     0.163 HD
ATOM     77  O   UNL     1       7.183  -7.478   4.728  1.00  0.00    -0.275 OA
BRANCH  75  78
ATOM     78  C   UNL     1       6.678  -6.675   2.501  1.00  0.00     0.094 C 
ATOM     79  C   UNL     1       6.737  -8.193   2.120  1.00  0.00     0.002 C 
ATOM     80  C   UNL     1       5.272  -6.281   1.982  1.00  0.00     0.094 C 
ATOM     81  C   UNL     1       5.624  -9.044   2.781  1.00  0.00     0.005 C 
ATOM     82  C   UNL     1       6.211  -8.132   0.700  1.00  0.00     0.009 C 
ATOM     83  C   UNL     1       4.872  -7.501   1.117  1.00  0.00     0.002 C 
ATOM     84  C   UNL     1       4.347  -8.595   2.062  1.00  0.00     0.005 C 
BRANCH  80  85
ATOM     85  C   UNL     1       5.097  -4.876   1.367  1.00  0.00     0.229 C 
ATOM     86  O   UNL     1       4.338  -4.088   1.953  1.00  0.00    -0.274 OA
ATOM     87  N   UNL     1       5.818  -4.340   0.346  1.00  0.00    -0.317 N 
ATOM     88  H   UNL     1       5.926  -3.364   0.405  1.00  0.00     0.170 HD
BRANCH  87  89
ATOM     89  C   UNL     1       6.425  -4.902  -0.752  1.00  0.00     0.108 A 
ATOM     90  S   UNL     1       5.548  -6.025  -1.670  1.00  0.00    -0.122 S 
ATOM     91  C   UNL     1       7.564  -4.455  -1.427  1.00  0.00     0.078 A 
ATOM     92  C   UNL     1       6.932  -6.408  -2.560  1.00  0.00     0.011 A 
ATOM     93  C   UNL     1       7.886  -5.402  -2.492  1.00  0.00    -0.019 A 
ATOM     94  C   UNL     1       7.008  -7.657  -3.378  1.00  0.00     0.047 C 
ATOM     95  C   UNL     1       9.065  -5.449  -3.425  1.00  0.00     0.037 C 
ATOM     96  C   UNL     1       8.440  -7.855  -3.883  1.00  0.00     0.006 C 
ATOM     97  C   UNL     1       8.959  -6.549  -4.496  1.00  0.00     0.005 C 
BRANCH  91  98
ATOM     98  C   UNL     1       8.190  -3.206  -0.967  1.00  0.00     0.254 C 
ATOM     99  O   UNL     1       7.487  -2.238  -0.680  1.00  0.00    -0.269 OA
ATOM    100  N   UNL     1       9.532  -3.068  -0.719  1.00  0.00    -0.349 N 
ATOM    101  H   UNL     1       9.773  -2.202  -0.319  1.00  0.00     0.164 HD
BRANCH 100 102
ATOM    102  C   UNL     1      10.663  -3.946  -0.931  1.00  0.00     0.082 C 
ATOM    103  C   UNL     1      11.994  -3.229  -0.664  1.00  0.00     0.025 C 
ATOM    104  C   UNL     1      10.604  -5.230  -0.098  1.00  0.00     0.025 C 
ATOM    105  C   UNL     1      13.162  -4.131  -1.063  1.00  0.00     0.002 C 
ATOM    106  C   UNL     1      11.759  -6.163  -0.459  1.00  0.00     0.002 C 
ATOM    107  C   UNL     1      13.116  -5.475  -0.338  1.00  0.00     0.000 C 
ENDBRANCH 100 102
ENDBRANCH  91  98
ENDBRANCH  87  89
ENDBRANCH  80  85
ENDBRANCH  75  78
ENDBRANCH  73  74
ENDBRANCH   1  73
TORSDOF 18
