REMARK SMILES CC(C)[C@@H](CO)Nc1ccc(C(=O)NCCCCNC(=O)c2ccc(-c3c4nc(c(-c5cccc(S(=O)(=O)[O-])c5F)c5ccc([nH]5)c(-c5cccc(S(=O)(=O)[O-])c5F)c5nc(c(-c6cccc(S(=O)(=O)[O-])c6F)c6ccc3[nH]6)C=C5)C=C4)cc2)nn1
REMARK SMILES IDX 16 1 15 2 14 3 12 4 13 5 11 7 8 8 9 9 86 10 10 11 85 12 7 13
REMARK SMILES IDX 4 15 2 16 1 17 3 18 5 19 6 20 17 22 18 23 19 24 20 25 21 27
REMARK SMILES IDX 22 28 23 29 84 30 24 31 83 32 25 33 26 34 27 35 77 36 28 37
REMARK SMILES IDX 82 38 76 39 78 40 29 41 81 42 75 43 74 44 30 46 62 47 42 48
REMARK SMILES IDX 61 49 43 50 46 51 60 52 79 53 44 54 45 55 59 57 80 58 47 59
REMARK SMILES IDX 31 60 32 61 40 62 33 63 35 64 41 65 34 66 36 67 37 68 38 69
REMARK SMILES IDX 39 70 63 71 64 72 72 73 65 74 67 75 73 76 66 77 68 78 69 79
REMARK SMILES IDX 70 80 71 81 48 82 49 83 57 84 50 85 52 86 58 87 51 88 53 89
REMARK SMILES IDX 54 90 55 91 56 92
REMARK H PARENT 14 6 7 14 6 21 19 26 78 45 46 56
REMARK Flexibility Score: inf
ROOT
ATOM      1  C   UNL     1      -7.382   3.798  -2.222  1.00  0.00     0.023 C 
ENDROOT
BRANCH   1   2
ATOM      2  C   UNL     1      -6.154   4.414  -2.895  1.00  0.00     0.116 C 
BRANCH   2   3
ATOM      3  N   UNL     1      -5.786   5.668  -2.268  1.00  0.00    -0.351 N 
ATOM      4  C   UNL     1      -4.859   5.983  -1.297  1.00  0.00     0.271 C 
ATOM      5  O   UNL     1      -4.722   7.178  -1.030  1.00  0.00    -0.267 OA
ATOM      6  H   UNL     1      -6.294   6.443  -2.600  1.00  0.00     0.163 HD
BRANCH   4   7
ATOM      7  C   UNL     1      -4.014   4.969  -0.588  1.00  0.00     0.150 A 
ATOM      8  C   UNL     1      -2.249   3.308   0.744  1.00  0.00     0.148 A 
ATOM      9  C   UNL     1      -3.425   2.792   0.228  1.00  0.00     0.051 A 
ATOM     10  N   UNL     1      -2.001   4.623   0.630  1.00  0.00    -0.132 NA
ATOM     11  C   UNL     1      -4.331   3.635  -0.419  1.00  0.00     0.040 A 
ATOM     12  N   UNL     1      -2.872   5.457  -0.055  1.00  0.00    -0.143 NA
BRANCH   8  13
ATOM     13  N   UNL     1      -1.300   2.526   1.371  1.00  0.00    -0.363 N 
ATOM     14  H   UNL     1      -0.924   2.812   2.235  1.00  0.00     0.162 HD
BRANCH  13  15
ATOM     15  C   UNL     1      -0.849   1.274   0.759  1.00  0.00     0.108 C 
BRANCH  15  16
ATOM     16  C   UNL     1       0.703   1.302   0.628  1.00  0.00     0.007 C 
ATOM     17  C   UNL     1       1.250   0.007   0.019  1.00  0.00     0.009 C 
ATOM     18  C   UNL     1       1.178   2.484  -0.234  1.00  0.00     0.009 C 
ENDBRANCH  15  16
BRANCH  15  19
ATOM     19  C   UNL     1      -1.388   0.079   1.588  1.00  0.00     0.181 C 
BRANCH  19  20
ATOM     20  O   UNL     1      -0.867   0.009   2.913  1.00  0.00    -0.394 OA
ATOM     21  H   UNL     1       0.094  -0.117   2.876  1.00  0.00     0.210 HD
ENDBRANCH  19  20
ENDBRANCH  15  19
ENDBRANCH  13  15
ENDBRANCH   8  13
ENDBRANCH   4   7
ENDBRANCH   2   3
ENDBRANCH   1   2
BRANCH   1  22
ATOM     22  C   UNL     1      -8.723   4.368  -2.692  1.00  0.00     0.023 C 
BRANCH  22  23
ATOM     23  C   UNL     1      -9.051   4.136  -4.165  1.00  0.00     0.116 C 
BRANCH  23  24
ATOM     24  N   UNL     1      -9.019   2.732  -4.554  1.00  0.00    -0.352 N 
ATOM     25  C   UNL     1      -9.766   2.096  -5.520  1.00  0.00     0.251 C 
ATOM     26  H   UNL     1      -8.380   2.166  -4.064  1.00  0.00     0.163 HD
ATOM     27  O   UNL     1      -9.679   0.885  -5.672  1.00  0.00    -0.269 OA
BRANCH  25  28
ATOM     28  C   UNL     1     -10.707   2.891  -6.336  1.00  0.00     0.039 A 
ATOM     29  C   UNL     1     -12.044   2.491  -6.400  1.00  0.00     0.014 A 
ATOM     30  C   UNL     1     -10.284   4.058  -6.977  1.00  0.00     0.014 A 
ATOM     31  C   UNL     1     -12.978   3.312  -7.035  1.00  0.00     0.010 A 
ATOM     32  C   UNL     1     -11.225   4.902  -7.558  1.00  0.00     0.010 A 
ATOM     33  C   UNL     1     -12.582   4.545  -7.578  1.00  0.00    -0.014 A 
BRANCH  33  34
ATOM     34  C   UNL     1     -13.578   5.508  -8.111  1.00  0.00     0.031 A 
ATOM     35  C   UNL     1     -13.569   5.890  -9.564  1.00  0.00     0.074 A 
ATOM     36  C   UNL     1     -14.420   6.122  -7.255  1.00  0.00     0.049 A 
ATOM     37  N   UNL     1     -14.317   6.761 -10.189  1.00  0.00    -0.248 NA
ATOM     38  C   UNL     1     -12.573   5.227 -10.421  1.00  0.00     0.031 C 
ATOM     39  C   UNL     1     -14.461   5.903  -5.807  1.00  0.00     0.029 A 
ATOM     40  N   UNL     1     -15.379   7.080  -7.472  1.00  0.00    -0.354 N 
ATOM     41  C   UNL     1     -13.865   6.777 -11.502  1.00  0.00     0.074 A 
ATOM     42  C   UNL     1     -12.758   5.848 -11.579  1.00  0.00     0.031 C 
ATOM     43  C   UNL     1     -15.394   6.703  -5.267  1.00  0.00     0.029 A 
ATOM     44  C   UNL     1     -16.000   7.508  -6.322  1.00  0.00     0.049 A 
ATOM     45  H   UNL     1     -15.600   7.427  -8.366  1.00  0.00     0.167 HD
ATOM     46  C   UNL     1     -14.348   7.477 -12.555  1.00  0.00     0.034 A 
ATOM     47  C   UNL     1     -16.948   8.448  -6.137  1.00  0.00     0.034 A 
ATOM     48  C   UNL     1     -15.479   8.362 -12.486  1.00  0.00     0.049 A 
ATOM     49  C   UNL     1     -17.497   9.178  -7.333  1.00  0.00     0.074 A 
ATOM     50  C   UNL     1     -16.110   9.034 -13.518  1.00  0.00     0.029 A 
ATOM     51  N   UNL     1     -16.147   8.703 -11.320  1.00  0.00    -0.354 N 
ATOM     52  N   UNL     1     -17.178   9.043  -8.597  1.00  0.00    -0.248 NA
ATOM     53  C   UNL     1     -18.558  10.163  -7.082  1.00  0.00     0.031 C 
ATOM     54  C   UNL     1     -17.152   9.792 -12.973  1.00  0.00     0.029 A 
ATOM     55  C   UNL     1     -17.176   9.584 -11.604  1.00  0.00     0.049 A 
ATOM     56  H   UNL     1     -15.922   8.368 -10.422  1.00  0.00     0.167 HD
ATOM     57  C   UNL     1     -18.016   9.906  -9.295  1.00  0.00     0.074 A 
ATOM     58  C   UNL     1     -18.875  10.538  -8.314  1.00  0.00     0.031 C 
ATOM     59  C   UNL     1     -18.057  10.166 -10.624  1.00  0.00     0.034 A 
BRANCH  46  60
ATOM     60  C   UNL     1     -13.698   7.258 -13.896  1.00  0.00     0.023 A 
ATOM     61  C   UNL     1     -13.941   6.054 -14.588  1.00  0.00     0.012 A 
ATOM     62  C   UNL     1     -12.908   8.256 -14.497  1.00  0.00     0.148 A 
ATOM     63  C   UNL     1     -13.384   5.834 -15.847  1.00  0.00     0.002 A 
ATOM     64  C   UNL     1     -12.387   8.044 -15.769  1.00  0.00     0.091 A 
ATOM     65  F   UNL     1     -12.669   9.384 -13.813  1.00  0.00    -0.205 F 
ATOM     66  C   UNL     1     -12.617   6.832 -16.441  1.00  0.00     0.022 A 
BRANCH  64  67
ATOM     67  S   UNL     1     -11.443   9.295 -16.648  1.00  0.00     0.127 S 
ATOM     68  O   UNL     1     -10.087   8.753 -16.565  1.00  0.00    -0.237 OA
ATOM     69  O   UNL     1     -12.036   9.248 -17.985  1.00  0.00    -0.237 OA
ATOM     70  O   UNL     1     -11.666  10.542 -15.930  1.00  0.00    -0.744 OA
ENDBRANCH  64  67
ENDBRANCH  46  60
BRANCH  47  71
ATOM     71  C   UNL     1     -17.491   8.697  -4.772  1.00  0.00     0.023 A 
ATOM     72  C   UNL     1     -18.800   8.278  -4.467  1.00  0.00     0.012 A 
ATOM     73  C   UNL     1     -16.714   9.308  -3.769  1.00  0.00     0.148 A 
ATOM     74  C   UNL     1     -19.336   8.486  -3.196  1.00  0.00     0.002 A 
ATOM     75  C   UNL     1     -17.236   9.465  -2.490  1.00  0.00     0.091 A 
ATOM     76  F   UNL     1     -15.476   9.716  -4.082  1.00  0.00    -0.205 F 
ATOM     77  C   UNL     1     -18.552   9.069  -2.205  1.00  0.00     0.022 A 
BRANCH  75  78
ATOM     78  S   UNL     1     -16.244  10.080  -1.124  1.00  0.00     0.127 S 
ATOM     79  O   UNL     1     -16.730  11.451  -0.995  1.00  0.00    -0.237 OA
ATOM     80  O   UNL     1     -16.631   9.183  -0.035  1.00  0.00    -0.237 OA
ATOM     81  O   UNL     1     -14.860   9.929  -1.555  1.00  0.00    -0.744 OA
ENDBRANCH  75  78
ENDBRANCH  47  71
BRANCH  59  82
ATOM     82  C   UNL     1     -19.070  11.170 -11.106  1.00  0.00     0.023 A 
ATOM     83  C   UNL     1     -18.849  12.542 -10.873  1.00  0.00     0.012 A 
ATOM     84  C   UNL     1     -20.193  10.766 -11.853  1.00  0.00     0.148 A 
ATOM     85  C   UNL     1     -19.745  13.495 -11.353  1.00  0.00     0.002 A 
ATOM     86  C   UNL     1     -21.059  11.725 -12.366  1.00  0.00     0.091 A 
ATOM     87  F   UNL     1     -20.396   9.455 -12.046  1.00  0.00    -0.205 F 
ATOM     88  C   UNL     1     -20.842  13.089 -12.109  1.00  0.00     0.022 A 
BRANCH  86  89
ATOM     89  S   UNL     1     -22.447  11.297 -13.424  1.00  0.00     0.127 S 
ATOM     90  O   UNL     1     -23.578  11.457 -12.512  1.00  0.00    -0.237 OA
ATOM     91  O   UNL     1     -22.363  12.311 -14.476  1.00  0.00    -0.237 OA
ATOM     92  O   UNL     1     -22.195   9.936 -13.880  1.00  0.00    -0.744 OA
ENDBRANCH  86  89
ENDBRANCH  59  82
ENDBRANCH  33  34
ENDBRANCH  25  28
ENDBRANCH  23  24
ENDBRANCH  22  23
ENDBRANCH   1  22
TORSDOF 19
