REMARK SMILES Cc1cc(C(=O)N2C[C@@H](C(=O)NCCCCNC(=O)c3ccc(-c4c5nc(c(-c6cccc(S(=O)(=O)[O-])c6F)c6ccc([nH]6)c(-c6cccc(S(=O)(=O)[O-])c6F)c6nc(c(-c7cccc(S(=O)(=O)[O-])c7F)c7ccc4[nH]7)C=C6)C=C5)cc3)[C@H](C3CC3)C2)sc1C
REMARK SMILES IDX 15 1 14 2 13 3 12 4 10 5 11 6 9 8 7 9 8 10 87 11 83 12 5 13
REMARK SMILES IDX 6 14 4 15 1 16 2 17 3 18 89 19 88 20 90 21 84 22 85 23 86 24
REMARK SMILES IDX 16 25 17 26 18 27 19 29 20 30 21 31 82 32 22 33 81 34 23 35
REMARK SMILES IDX 24 36 25 37 75 38 26 39 80 40 74 41 76 42 27 43 79 44 73 45
REMARK SMILES IDX 72 46 28 48 60 49 40 50 59 51 41 52 44 53 58 54 77 55 42 56
REMARK SMILES IDX 43 57 57 59 78 60 45 61 29 62 30 63 38 64 31 65 33 66 39 67
REMARK SMILES IDX 32 68 34 69 35 70 36 71 37 72 61 73 62 74 70 75 63 76 65 77
REMARK SMILES IDX 71 78 64 79 66 80 67 81 68 82 69 83 46 84 47 85 55 86 48 87
REMARK SMILES IDX 50 88 56 89 49 90 51 91 52 92 53 93 54 94
REMARK H PARENT 12 7 17 28 76 47 44 58
REMARK Flexibility Score: inf
ROOT
ATOM      1  C   UNL     1       7.511   4.437   0.488  1.00  0.00     0.023 C 
ENDROOT
BRANCH   1   2
ATOM      2  C   UNL     1       6.232   3.789  -0.037  1.00  0.00     0.023 C 
BRANCH   2   3
ATOM      3  C   UNL     1       6.339   2.326  -0.452  1.00  0.00     0.116 C 
BRANCH   3   4
ATOM      4  N   UNL     1       6.658   1.421   0.637  1.00  0.00    -0.356 N 
ATOM      5  C   UNL     1       6.284   0.118   0.816  1.00  0.00     0.225 C 
ATOM      6  O   UNL     1       6.811  -0.520   1.728  1.00  0.00    -0.275 OA
ATOM      7  H   UNL     1       7.224   1.799   1.348  1.00  0.00     0.163 HD
BRANCH   5   8
ATOM      8  C   UNL     1       5.229  -0.505  -0.076  1.00  0.00     0.103 C 
ATOM      9  N   UNL     1       3.502  -2.049  -0.132  1.00  0.00    -0.337 N 
ATOM     10  C   UNL     1       4.142  -1.133   0.793  1.00  0.00     0.133 C 
ATOM     11  C   UNL     1       4.511  -2.660  -0.969  1.00  0.00     0.124 C 
ATOM     12  C   UNL     1       5.738  -1.716  -0.899  1.00  0.00     0.026 C 
BRANCH   9  13
ATOM     13  C   UNL     1       2.165  -2.341  -0.340  1.00  0.00     0.263 C 
ATOM     14  O   UNL     1       1.864  -3.436  -0.826  1.00  0.00    -0.268 OA
BRANCH  13  15
ATOM     15  C   UNL     1       1.132  -1.340  -0.083  1.00  0.00     0.093 A 
ATOM     16  C   UNL     1      -2.524  -0.451   0.177  1.00  0.00     0.045 C 
ATOM     17  C   UNL     1      -1.034  -0.416   0.097  1.00  0.00    -0.037 A 
ATOM     18  C   UNL     1      -0.218  -1.597   0.082  1.00  0.00     0.029 A 
ATOM     19  C   UNL     1      -0.251   0.721  -0.007  1.00  0.00     0.005 A 
ATOM     20  S   UNL     1       1.398   0.341  -0.234  1.00  0.00    -0.135 S 
ATOM     21  C   UNL     1      -0.677   2.152  -0.004  1.00  0.00     0.056 C 
ENDBRANCH  13  15
ENDBRANCH   9  13
BRANCH  12  22
ATOM     22  C   UNL     1       6.262  -1.450  -2.294  1.00  0.00    -0.005 C 
ATOM     23  C   UNL     1       6.009  -0.191  -3.088  1.00  0.00     0.004 C 
ATOM     24  C   UNL     1       7.382  -0.474  -2.541  1.00  0.00     0.004 C 
ENDBRANCH  12  22
ENDBRANCH   5   8
ENDBRANCH   3   4
ENDBRANCH   2   3
ENDBRANCH   1   2
BRANCH   1  25
ATOM     25  C   UNL     1       8.764   4.249  -0.362  1.00  0.00     0.116 C 
BRANCH  25  26
ATOM     26  N   UNL     1       8.625   4.728  -1.732  1.00  0.00    -0.352 N 
ATOM     27  C   UNL     1       9.348   5.680  -2.418  1.00  0.00     0.251 C 
ATOM     28  H   UNL     1       7.901   4.305  -2.248  1.00  0.00     0.163 HD
ATOM     29  O   UNL     1       9.018   5.999  -3.552  1.00  0.00    -0.269 OA
BRANCH  27  30
ATOM     30  C   UNL     1      10.496   6.349  -1.764  1.00  0.00     0.039 A 
ATOM     31  C   UNL     1      10.556   7.746  -1.780  1.00  0.00     0.014 A 
ATOM     32  C   UNL     1      11.477   5.613  -1.098  1.00  0.00     0.014 A 
ATOM     33  C   UNL     1      11.533   8.405  -1.029  1.00  0.00     0.010 A 
ATOM     34  C   UNL     1      12.403   6.270  -0.291  1.00  0.00     0.010 A 
ATOM     35  C   UNL     1      12.424   7.672  -0.228  1.00  0.00    -0.014 A 
BRANCH  35  36
ATOM     36  C   UNL     1      13.321   8.349   0.747  1.00  0.00     0.031 A 
ATOM     37  C   UNL     1      14.815   8.222   0.638  1.00  0.00     0.074 A 
ATOM     38  C   UNL     1      12.778   8.983   1.807  1.00  0.00     0.049 A 
ATOM     39  N   UNL     1      15.740   8.682   1.440  1.00  0.00    -0.248 NA
ATOM     40  C   UNL     1      15.339   7.458  -0.506  1.00  0.00     0.031 C 
ATOM     41  C   UNL     1      11.342   9.096   2.081  1.00  0.00     0.029 A 
ATOM     42  N   UNL     1      13.366   9.623   2.870  1.00  0.00    -0.354 N 
ATOM     43  C   UNL     1      16.950   8.239   0.921  1.00  0.00     0.074 A 
ATOM     44  C   UNL     1      16.640   7.448  -0.251  1.00  0.00     0.031 C 
ATOM     45  C   UNL     1      11.163   9.764   3.231  1.00  0.00     0.029 A 
ATOM     46  C   UNL     1      12.466  10.101   3.795  1.00  0.00     0.049 A 
ATOM     47  H   UNL     1      14.340   9.731   2.962  1.00  0.00     0.167 HD
ATOM     48  C   UNL     1      18.206   8.491   1.361  1.00  0.00     0.034 A 
ATOM     49  C   UNL     1      12.663  10.732   4.969  1.00  0.00     0.034 A 
ATOM     50  C   UNL     1      18.515   9.315   2.499  1.00  0.00     0.049 A 
ATOM     51  C   UNL     1      14.068  11.034   5.412  1.00  0.00     0.074 A 
ATOM     52  C   UNL     1      19.757   9.715   2.959  1.00  0.00     0.029 A 
ATOM     53  N   UNL     1      17.576   9.859   3.363  1.00  0.00    -0.354 N 
ATOM     54  N   UNL     1      15.199  10.761   4.808  1.00  0.00    -0.248 NA
ATOM     55  C   UNL     1      14.225  11.760   6.681  1.00  0.00     0.031 C 
ATOM     56  C   UNL     1      19.571  10.486   4.111  1.00  0.00     0.029 A 
ATOM     57  C   UNL     1      18.212  10.579   4.361  1.00  0.00     0.049 A 
ATOM     58  H   UNL     1      16.602   9.749   3.279  1.00  0.00     0.167 HD
ATOM     59  C   UNL     1      16.198  11.303   5.608  1.00  0.00     0.074 A 
ATOM     60  C   UNL     1      15.537  11.945   6.726  1.00  0.00     0.031 C 
ATOM     61  C   UNL     1      17.543  11.255   5.442  1.00  0.00     0.034 A 
BRANCH  48  62
ATOM     62  C   UNL     1      19.352   7.923   0.567  1.00  0.00     0.023 A 
ATOM     63  C   UNL     1      19.670   8.489  -0.685  1.00  0.00     0.012 A 
ATOM     64  C   UNL     1      20.154   6.886   1.081  1.00  0.00     0.148 A 
ATOM     65  C   UNL     1      20.749   8.012  -1.427  1.00  0.00     0.002 A 
ATOM     66  C   UNL     1      21.253   6.442   0.353  1.00  0.00     0.091 A 
ATOM     67  F   UNL     1      19.823   6.346   2.263  1.00  0.00    -0.205 F 
ATOM     68  C   UNL     1      21.546   6.997  -0.904  1.00  0.00     0.022 A 
BRANCH  66  69
ATOM     69  S   UNL     1      22.384   5.191   0.972  1.00  0.00     0.127 S 
ATOM     70  O   UNL     1      22.039   4.043   0.135  1.00  0.00    -0.237 OA
ATOM     71  O   UNL     1      23.690   5.785   0.684  1.00  0.00    -0.237 OA
ATOM     72  O   UNL     1      22.084   5.047   2.390  1.00  0.00    -0.744 OA
ENDBRANCH  66  69
ENDBRANCH  48  62
BRANCH  49  73
ATOM     73  C   UNL     1      11.493  11.182   5.776  1.00  0.00     0.023 A 
ATOM     74  C   UNL     1      11.209  12.559   5.867  1.00  0.00     0.012 A 
ATOM     75  C   UNL     1      10.646  10.262   6.423  1.00  0.00     0.148 A 
ATOM     76  C   UNL     1      10.119  13.013   6.611  1.00  0.00     0.002 A 
ATOM     77  C   UNL     1       9.530  10.718   7.115  1.00  0.00     0.091 A 
ATOM     78  F   UNL     1      10.941   8.957   6.338  1.00  0.00    -0.205 F 
ATOM     79  C   UNL     1       9.274  12.093   7.225  1.00  0.00     0.022 A 
BRANCH  77  80
ATOM     80  S   UNL     1       8.314   9.595   7.817  1.00  0.00     0.127 S 
ATOM     81  O   UNL     1       8.613   9.683   9.243  1.00  0.00    -0.237 OA
ATOM     82  O   UNL     1       7.053  10.219   7.412  1.00  0.00    -0.237 OA
ATOM     83  O   UNL     1       8.569   8.306   7.189  1.00  0.00    -0.744 OA
ENDBRANCH  77  80
ENDBRANCH  49  73
BRANCH  61  84
ATOM     84  C   UNL     1      18.398  11.925   6.486  1.00  0.00     0.023 A 
ATOM     85  C   UNL     1      18.545  11.325   7.752  1.00  0.00     0.012 A 
ATOM     86  C   UNL     1      19.109  13.105   6.192  1.00  0.00     0.148 A 
ATOM     87  C   UNL     1      19.364  11.903   8.720  1.00  0.00     0.002 A 
ATOM     88  C   UNL     1      19.959  13.652   7.147  1.00  0.00     0.091 A 
ATOM     89  F   UNL     1      18.940  13.672   4.989  1.00  0.00    -0.205 F 
ATOM     90  C   UNL     1      20.080  13.059   8.414  1.00  0.00     0.022 A 
BRANCH  88  91
ATOM     91  S   UNL     1      20.987  15.087   6.810  1.00  0.00     0.127 S 
ATOM     92  O   UNL     1      20.294  16.133   7.561  1.00  0.00    -0.237 OA
ATOM     93  O   UNL     1      22.277  14.685   7.373  1.00  0.00    -0.237 OA
ATOM     94  O   UNL     1      20.985  15.248   5.362  1.00  0.00    -0.744 OA
ENDBRANCH  88  91
ENDBRANCH  61  84
ENDBRANCH  35  36
ENDBRANCH  27  30
ENDBRANCH  25  26
ENDBRANCH   1  25
TORSDOF 17
