REMARK SMILES O=C(NCCCCNC(=O)[C@@H]1[C@@H](C(=O)NCCCn2ccnc2)[C@@H]2C=C[C@H]1C2)c1ccc(-c2c3nc(c(-c4cccc(S(=O)(=O)[O-])c4F)c4ccc([nH]4)c(-c4cccc(S(=O)(=O)[O-])c4F)c4nc(c(-c5cccc(S(=O)(=O)[O-])c5F)c5ccc2[nH]5)C=C4)C=C3)cc1
REMARK SMILES IDX 6 1 5 2 4 3 3 4 1 5 2 6 29 8 30 9 91 10 31 11 90 12 32 13
REMARK SMILES IDX 33 14 34 15 84 16 35 17 89 18 83 19 85 20 36 21 88 22 82 23
REMARK SMILES IDX 81 24 37 26 69 27 49 28 68 29 50 30 53 31 67 32 86 33 51 34
REMARK SMILES IDX 52 35 66 37 87 38 54 39 38 40 39 41 47 42 40 43 42 44 48 45
REMARK SMILES IDX 41 46 43 47 44 48 45 49 46 50 70 51 71 52 79 53 72 54 74 55
REMARK SMILES IDX 80 56 73 57 75 58 76 59 77 60 78 61 55 62 56 63 64 64 57 65
REMARK SMILES IDX 59 66 65 67 58 68 60 69 61 70 62 71 63 72 7 73 8 74 9 75
REMARK SMILES IDX 10 77 11 78 12 79 27 80 24 81 26 82 28 83 25 84 13 85 14 86
REMARK SMILES IDX 15 87 16 89 17 90 18 91 19 92 20 93 23 94 21 95 22 96
REMARK H PARENT 3 7 85 25 53 36 8 76 15 88
REMARK Flexibility Score: inf
ROOT
ATOM      1  C   UNL     1       4.738  -0.619   3.091  1.00  0.00     0.023 C 
ENDROOT
BRANCH   1   2
ATOM      2  C   UNL     1       5.238   0.108   1.843  1.00  0.00     0.023 C 
BRANCH   2   3
ATOM      3  C   UNL     1       4.867  -0.555   0.514  1.00  0.00     0.116 C 
BRANCH   3   4
ATOM      4  N   UNL     1       3.460  -0.872   0.358  1.00  0.00    -0.352 N 
ATOM      5  O   UNL     1       1.306  -0.807  -0.118  1.00  0.00    -0.269 OA
ATOM      6  C   UNL     1       2.341  -0.152   0.033  1.00  0.00     0.251 C 
ATOM      7  H   UNL     1       3.265  -1.822   0.524  1.00  0.00     0.163 HD
BRANCH   6   8
ATOM      8  C   UNL     1       2.286   1.329  -0.090  1.00  0.00     0.039 A 
ATOM      9  C   UNL     1       3.398   2.168  -0.156  1.00  0.00     0.014 A 
ATOM     10  C   UNL     1       1.004   1.910  -0.134  1.00  0.00     0.014 A 
ATOM     11  C   UNL     1       3.244   3.547  -0.179  1.00  0.00     0.010 A 
ATOM     12  C   UNL     1       0.840   3.292  -0.189  1.00  0.00     0.010 A 
ATOM     13  C   UNL     1       1.966   4.109  -0.188  1.00  0.00    -0.014 A 
BRANCH  13  14
ATOM     14  C   UNL     1       1.882   5.551  -0.381  1.00  0.00     0.031 A 
ATOM     15  C   UNL     1       2.367   6.028  -1.707  1.00  0.00     0.074 A 
ATOM     16  C   UNL     1       1.317   6.404   0.492  1.00  0.00     0.049 A 
ATOM     17  N   UNL     1       3.384   6.789  -1.957  1.00  0.00    -0.248 NA
ATOM     18  C   UNL     1       1.704   5.497  -2.906  1.00  0.00     0.031 C 
ATOM     19  C   UNL     1       0.521   6.076   1.675  1.00  0.00     0.029 A 
ATOM     20  N   UNL     1       1.226   7.764   0.416  1.00  0.00    -0.354 N 
ATOM     21  C   UNL     1       3.365   7.002  -3.336  1.00  0.00     0.074 A 
ATOM     22  C   UNL     1       2.418   6.063  -3.879  1.00  0.00     0.031 C 
ATOM     23  C   UNL     1      -0.172   7.174   2.053  1.00  0.00     0.029 A 
ATOM     24  C   UNL     1       0.232   8.298   1.224  1.00  0.00     0.049 A 
ATOM     25  H   UNL     1       1.810   8.312  -0.157  1.00  0.00     0.167 HD
ATOM     26  C   UNL     1       3.972   8.078  -3.909  1.00  0.00     0.034 A 
ATOM     27  C   UNL     1      -0.281   9.549   1.150  1.00  0.00     0.034 A 
ATOM     28  C   UNL     1       4.886   8.723  -3.006  1.00  0.00     0.049 A 
ATOM     29  C   UNL     1       0.689  10.398   0.423  1.00  0.00     0.074 A 
ATOM     30  C   UNL     1       6.024   8.354  -2.320  1.00  0.00     0.029 A 
ATOM     31  N   UNL     1       4.473   9.907  -2.448  1.00  0.00    -0.354 N 
ATOM     32  N   UNL     1       1.848  10.752   0.902  1.00  0.00    -0.248 NA
ATOM     33  C   UNL     1       0.526  10.570  -1.012  1.00  0.00     0.031 C 
ATOM     34  C   UNL     1       5.969   9.084  -1.097  1.00  0.00     0.029 A 
ATOM     35  C   UNL     1       4.819   9.876  -1.126  1.00  0.00     0.049 A 
ATOM     36  H   UNL     1       4.012  10.642  -2.913  1.00  0.00     0.167 HD
ATOM     37  C   UNL     1       2.690  10.759  -0.201  1.00  0.00     0.074 A 
ATOM     38  C   UNL     1       1.799  10.773  -1.357  1.00  0.00     0.031 C 
ATOM     39  C   UNL     1       4.016  10.458  -0.074  1.00  0.00     0.034 A 
BRANCH  26  40
ATOM     40  C   UNL     1       3.504   8.782  -5.163  1.00  0.00     0.023 A 
ATOM     41  C   UNL     1       4.354   9.776  -5.704  1.00  0.00     0.012 A 
ATOM     42  C   UNL     1       2.182   8.733  -5.658  1.00  0.00     0.148 A 
ATOM     43  C   UNL     1       3.893  10.713  -6.635  1.00  0.00     0.002 A 
ATOM     44  C   UNL     1       1.753   9.615  -6.646  1.00  0.00     0.091 A 
ATOM     45  F   UNL     1       1.283   7.927  -5.087  1.00  0.00    -0.205 F 
ATOM     46  C   UNL     1       2.593  10.628  -7.111  1.00  0.00     0.022 A 
BRANCH  44  47
ATOM     47  S   UNL     1       0.098   9.508  -7.339  1.00  0.00     0.127 S 
ATOM     48  O   UNL     1      -0.557  10.653  -6.701  1.00  0.00    -0.237 OA
ATOM     49  O   UNL     1       0.365   9.673  -8.771  1.00  0.00    -0.237 OA
ATOM     50  O   UNL     1      -0.395   8.197  -6.971  1.00  0.00    -0.744 OA
ENDBRANCH  44  47
ENDBRANCH  26  40
BRANCH  27  51
ATOM     51  C   UNL     1      -1.648  10.027   1.458  1.00  0.00     0.023 A 
ATOM     52  C   UNL     1      -1.866  11.396   1.711  1.00  0.00     0.012 A 
ATOM     53  C   UNL     1      -2.773   9.202   1.237  1.00  0.00     0.148 A 
ATOM     54  C   UNL     1      -3.159  11.932   1.713  1.00  0.00     0.002 A 
ATOM     55  C   UNL     1      -4.057   9.737   1.251  1.00  0.00     0.091 A 
ATOM     56  F   UNL     1      -2.579   7.916   0.918  1.00  0.00    -0.205 F 
ATOM     57  C   UNL     1      -4.253  11.105   1.476  1.00  0.00     0.022 A 
BRANCH  55  58
ATOM     58  S   UNL     1      -5.513   8.730   0.934  1.00  0.00     0.127 S 
ATOM     59  O   UNL     1      -6.413   9.152   2.008  1.00  0.00    -0.237 OA
ATOM     60  O   UNL     1      -5.902   9.174  -0.401  1.00  0.00    -0.237 OA
ATOM     61  O   UNL     1      -5.067   7.346   1.039  1.00  0.00    -0.744 OA
ENDBRANCH  55  58
ENDBRANCH  27  51
BRANCH  39  62
ATOM     62  C   UNL     1       4.617  10.436   1.306  1.00  0.00     0.023 A 
ATOM     63  C   UNL     1       4.170   9.547   2.306  1.00  0.00     0.012 A 
ATOM     64  C   UNL     1       5.773  11.201   1.542  1.00  0.00     0.148 A 
ATOM     65  C   UNL     1       4.845   9.445   3.524  1.00  0.00     0.002 A 
ATOM     66  C   UNL     1       6.471  11.058   2.734  1.00  0.00     0.091 A 
ATOM     67  F   UNL     1       6.188  12.039   0.580  1.00  0.00    -0.205 F 
ATOM     68  C   UNL     1       6.004  10.190   3.733  1.00  0.00     0.022 A 
BRANCH  66  69
ATOM     69  S   UNL     1       8.044  11.879   3.000  1.00  0.00     0.127 S 
ATOM     70  O   UNL     1       7.667  12.988   3.874  1.00  0.00    -0.237 OA
ATOM     71  O   UNL     1       8.841  10.834   3.647  1.00  0.00    -0.237 OA
ATOM     72  O   UNL     1       8.525  12.254   1.676  1.00  0.00    -0.744 OA
ENDBRANCH  66  69
ENDBRANCH  39  62
ENDBRANCH  13  14
ENDBRANCH   6   8
ENDBRANCH   3   4
ENDBRANCH   2   3
ENDBRANCH   1   2
BRANCH   1  73
ATOM     73  C   UNL     1       5.135  -2.087   3.187  1.00  0.00     0.116 C 
BRANCH  73  74
ATOM     74  N   UNL     1       6.494  -2.288   3.656  1.00  0.00    -0.356 N 
ATOM     75  C   UNL     1       7.031  -3.005   4.674  1.00  0.00     0.224 C 
ATOM     76  H   UNL     1       7.166  -1.804   3.123  1.00  0.00     0.163 HD
ATOM     77  O   UNL     1       8.269  -3.053   4.706  1.00  0.00    -0.275 OA
BRANCH  75  78
ATOM     78  C   UNL     1       6.257  -3.720   5.782  1.00  0.00     0.098 C 
ATOM     79  C   UNL     1       4.920  -4.452   5.475  1.00  0.00     0.098 C 
ATOM     80  C   UNL     1       5.898  -2.776   6.962  1.00  0.00     0.025 C 
ATOM     81  C   UNL     1       3.960  -3.804   6.527  1.00  0.00     0.025 C 
ATOM     82  C   UNL     1       4.930  -1.716   6.508  1.00  0.00    -0.027 C 
ATOM     83  C   UNL     1       4.901  -3.647   7.733  1.00  0.00     0.017 C 
ATOM     84  C   UNL     1       3.770  -2.331   6.235  1.00  0.00    -0.027 C 
BRANCH  79  85
ATOM     85  C   UNL     1       4.979  -5.959   5.709  1.00  0.00     0.224 C 
ATOM     86  O   UNL     1       4.310  -6.525   6.575  1.00  0.00    -0.275 OA
ATOM     87  N   UNL     1       5.738  -6.758   4.914  1.00  0.00    -0.356 N 
ATOM     88  H   UNL     1       5.704  -7.713   5.149  1.00  0.00     0.163 HD
BRANCH  87  89
ATOM     89  C   UNL     1       6.590  -6.451   3.780  1.00  0.00     0.117 C 
BRANCH  89  90
ATOM     90  C   UNL     1       7.924  -7.197   3.864  1.00  0.00     0.043 C 
BRANCH  90  91
ATOM     91  C   UNL     1       7.804  -8.725   3.851  1.00  0.00     0.125 C 
BRANCH  91  92
ATOM     92  N   UNL     1       7.301  -9.259   2.603  1.00  0.00    -0.337 N 
ATOM     93  C   UNL     1       5.990  -9.429   2.259  1.00  0.00     0.107 A 
ATOM     94  C   UNL     1       8.064  -9.716   1.567  1.00  0.00     0.199 A 
ATOM     95  C   UNL     1       6.023  -9.943   0.983  1.00  0.00     0.130 A 
ATOM     96  N   UNL     1       7.316 -10.128   0.568  1.00  0.00    -0.245 NA
ENDBRANCH  91  92
ENDBRANCH  90  91
ENDBRANCH  89  90
ENDBRANCH  87  89
ENDBRANCH  79  85
ENDBRANCH  75  78
ENDBRANCH  73  74
ENDBRANCH   1  73
TORSDOF 19
