REMARK SMILES COc1cc(C(=O)NCCCCNC(=O)c2ccc(-c3c4nc(c(-c5cccc(S(=O)(=O)[O-])c5F)c5ccc([nH]5)c(-c5cccc(S(=O)(=O)[O-])c5F)c5nc(c(-c6cccc(S(=O)(=O)[O-])c6F)c6ccc3[nH]6)C=C5)C=C4)cc2)c([N+](=O)[O-])cc1O[C@H](C)[C@@H](C)O
REMARK SMILES IDX 10 1 9 2 8 3 6 4 7 5 5 7 3 8 4 9 84 10 83 11 79 12 2 13 1 14
REMARK SMILES IDX 85 15 86 16 87 17 88 18 89 19 90 20 80 22 81 23 82 24 11 25
REMARK SMILES IDX 12 26 13 27 14 28 15 30 16 31 17 32 78 33 18 34 77 35 19 36
REMARK SMILES IDX 20 37 21 38 71 39 22 40 76 41 70 42 72 43 23 44 75 45 69 46
REMARK SMILES IDX 68 47 24 49 56 50 36 51 55 52 37 53 40 54 54 55 73 56 38 57
REMARK SMILES IDX 39 58 53 60 74 61 41 62 25 63 26 64 34 65 27 66 29 67 35 68
REMARK SMILES IDX 28 69 30 70 31 71 32 72 33 73 57 74 58 75 66 76 59 77 61 78
REMARK SMILES IDX 67 79 60 80 62 81 63 82 64 83 65 84 42 85 43 86 51 87 44 88
REMARK SMILES IDX 46 89 52 90 45 91 47 92 48 93 49 94 50 95
REMARK H PARENT 8 6 90 21 13 29 72 48 40 59
REMARK Flexibility Score: inf
ROOT
ATOM      1  C   UNL     1      -1.218   0.427  -6.617  1.00  0.00     0.023 C 
ENDROOT
BRANCH   1   2
ATOM      2  C   UNL     1      -0.430   1.285  -5.639  1.00  0.00     0.116 C 
BRANCH   2   3
ATOM      3  N   UNL     1      -1.069   2.519  -5.208  1.00  0.00    -0.352 N 
ATOM      4  C   UNL     1      -0.913   3.225  -4.034  1.00  0.00     0.258 C 
ATOM      5  O   UNL     1      -1.535   4.266  -3.845  1.00  0.00    -0.269 OA
ATOM      6  H   UNL     1      -1.707   2.907  -5.850  1.00  0.00     0.163 HD
BRANCH   4   7
ATOM      7  C   UNL     1      -0.070   2.689  -2.940  1.00  0.00     0.121 A 
ATOM      8  C   UNL     1       0.102   2.031  -0.600  1.00  0.00     0.162 A 
ATOM      9  C   UNL     1      -0.607   2.645  -1.649  1.00  0.00     0.071 A 
ATOM     10  C   UNL     1       1.306   1.335  -0.848  1.00  0.00     0.168 A 
ATOM     11  C   UNL     1       1.851   1.436  -2.120  1.00  0.00     0.136 A 
ATOM     12  C   UNL     1       1.211   2.189  -3.117  1.00  0.00     0.286 A 
BRANCH   8  13
ATOM     13  O   UNL     1      -0.505   2.137   0.628  1.00  0.00    -0.493 OA
ATOM     14  C   UNL     1       0.381   2.477   1.695  1.00  0.00     0.278 C 
ENDBRANCH   8  13
BRANCH  10  15
ATOM     15  O   UNL     1       1.901   0.710   0.203  1.00  0.00    -0.484 OA
BRANCH  15  16
ATOM     16  C   UNL     1       2.886  -0.341   0.143  1.00  0.00     0.198 C 
ATOM     17  C   UNL     1       4.112  -0.085  -0.730  1.00  0.00     0.056 C 
BRANCH  16  18
ATOM     18  C   UNL     1       2.230  -1.736  -0.035  1.00  0.00     0.151 C 
ATOM     19  C   UNL     1       3.232  -2.867  -0.257  1.00  0.00     0.042 C 
BRANCH  18  20
ATOM     20  O   UNL     1       1.471  -2.068   1.138  1.00  0.00    -0.390 OA
ATOM     21  H   UNL     1       2.067  -2.131   1.901  1.00  0.00     0.211 HD
ENDBRANCH  18  20
ENDBRANCH  16  18
ENDBRANCH  15  16
ENDBRANCH  10  15
BRANCH  12  22
ATOM     22  N   UNL     1       2.003   2.538  -4.284  1.00  0.00     0.063 N 
ATOM     23  O   UNL     1       1.970   3.711  -4.671  1.00  0.00    -0.258 OA
ATOM     24  O   UNL     1       2.698   1.638  -4.778  1.00  0.00    -0.258 OA
ENDBRANCH  12  22
ENDBRANCH   4   7
ENDBRANCH   2   3
ENDBRANCH   1   2
BRANCH   1  25
ATOM     25  C   UNL     1      -1.552   1.073  -7.958  1.00  0.00     0.023 C 
BRANCH  25  26
ATOM     26  C   UNL     1      -0.426   1.839  -8.648  1.00  0.00     0.116 C 
BRANCH  26  27
ATOM     27  N   UNL     1       0.721   1.015  -9.013  1.00  0.00    -0.352 N 
ATOM     28  C   UNL     1       1.222   0.696 -10.256  1.00  0.00     0.251 C 
ATOM     29  H   UNL     1       1.214   0.628  -8.254  1.00  0.00     0.163 HD
ATOM     30  O   UNL     1       2.162  -0.089 -10.357  1.00  0.00    -0.269 OA
BRANCH  28  31
ATOM     31  C   UNL     1       0.599   1.260 -11.474  1.00  0.00     0.039 A 
ATOM     32  C   UNL     1       0.260   0.400 -12.523  1.00  0.00     0.014 A 
ATOM     33  C   UNL     1       0.308   2.621 -11.566  1.00  0.00     0.014 A 
ATOM     34  C   UNL     1      -0.476   0.886 -13.608  1.00  0.00     0.010 A 
ATOM     35  C   UNL     1      -0.502   3.083 -12.598  1.00  0.00     0.010 A 
ATOM     36  C   UNL     1      -0.915   2.220 -13.625  1.00  0.00    -0.014 A 
BRANCH  36  37
ATOM     37  C   UNL     1      -1.833   2.732 -14.679  1.00  0.00     0.031 A 
ATOM     38  C   UNL     1      -1.414   3.888 -15.548  1.00  0.00     0.074 A 
ATOM     39  C   UNL     1      -3.086   2.241 -14.772  1.00  0.00     0.049 A 
ATOM     40  N   UNL     1      -2.116   4.559 -16.424  1.00  0.00    -0.248 NA
ATOM     41  C   UNL     1      -0.034   4.376 -15.386  1.00  0.00     0.031 C 
ATOM     42  C   UNL     1      -3.646   1.179 -13.933  1.00  0.00     0.029 A 
ATOM     43  N   UNL     1      -4.130   2.597 -15.591  1.00  0.00    -0.354 N 
ATOM     44  C   UNL     1      -1.280   5.569 -16.887  1.00  0.00     0.074 A 
ATOM     45  C   UNL     1      -0.031   5.447 -16.167  1.00  0.00     0.031 C 
ATOM     46  C   UNL     1      -4.928   0.972 -14.278  1.00  0.00     0.029 A 
ATOM     47  C   UNL     1      -5.293   1.906 -15.337  1.00  0.00     0.049 A 
ATOM     48  H   UNL     1      -4.053   3.282 -16.294  1.00  0.00     0.167 HD
ATOM     49  C   UNL     1      -1.515   6.493 -17.849  1.00  0.00     0.034 A 
ATOM     50  C   UNL     1      -6.520   2.020 -15.885  1.00  0.00     0.034 A 
ATOM     51  C   UNL     1      -2.736   6.580 -18.602  1.00  0.00     0.049 A 
ATOM     52  C   UNL     1      -6.739   3.023 -16.987  1.00  0.00     0.074 A 
ATOM     53  C   UNL     1      -3.042   7.431 -19.649  1.00  0.00     0.029 A 
ATOM     54  N   UNL     1      -3.851   5.784 -18.394  1.00  0.00    -0.354 N 
ATOM     55  N   UNL     1      -5.887   3.869 -17.513  1.00  0.00    -0.248 NA
ATOM     56  C   UNL     1      -8.077   3.063 -17.595  1.00  0.00     0.031 C 
ATOM     57  C   UNL     1      -4.346   7.154 -20.070  1.00  0.00     0.029 A 
ATOM     58  C   UNL     1      -4.847   6.120 -19.295  1.00  0.00     0.049 A 
ATOM     59  H   UNL     1      -3.925   5.083 -17.706  1.00  0.00     0.167 HD
ATOM     60  C   UNL     1      -6.572   4.513 -18.537  1.00  0.00     0.074 A 
ATOM     61  C   UNL     1      -7.904   3.946 -18.570  1.00  0.00     0.031 C 
ATOM     62  C   UNL     1      -6.143   5.498 -19.363  1.00  0.00     0.034 A 
BRANCH  49  63
ATOM     63  C   UNL     1      -0.394   7.439 -18.195  1.00  0.00     0.023 A 
ATOM     64  C   UNL     1       0.728   6.948 -18.893  1.00  0.00     0.012 A 
ATOM     65  C   UNL     1      -0.469   8.810 -17.885  1.00  0.00     0.148 A 
ATOM     66  C   UNL     1       1.774   7.798 -19.247  1.00  0.00     0.002 A 
ATOM     67  C   UNL     1       0.558   9.661 -18.280  1.00  0.00     0.091 A 
ATOM     68  F   UNL     1      -1.534   9.256 -17.204  1.00  0.00    -0.205 F 
ATOM     69  C   UNL     1       1.685   9.154 -18.949  1.00  0.00     0.022 A 
BRANCH  67  70
ATOM     70  S   UNL     1       0.504  11.437 -18.014  1.00  0.00     0.127 S 
ATOM     71  O   UNL     1       1.504  11.608 -16.962  1.00  0.00    -0.237 OA
ATOM     72  O   UNL     1       0.901  11.957 -19.323  1.00  0.00    -0.237 OA
ATOM     73  O   UNL     1      -0.868  11.742 -17.631  1.00  0.00    -0.744 OA
ENDBRANCH  67  70
ENDBRANCH  49  63
BRANCH  50  74
ATOM     74  C   UNL     1      -7.621   1.113 -15.450  1.00  0.00     0.023 A 
ATOM     75  C   UNL     1      -8.082   0.117 -16.334  1.00  0.00     0.012 A 
ATOM     76  C   UNL     1      -8.202   1.217 -14.172  1.00  0.00     0.148 A 
ATOM     77  C   UNL     1      -9.124  -0.736 -15.966  1.00  0.00     0.002 A 
ATOM     78  C   UNL     1      -9.203   0.328 -13.791  1.00  0.00     0.091 A 
ATOM     79  F   UNL     1      -7.763   2.180 -13.349  1.00  0.00    -0.205 F 
ATOM     80  C   UNL     1      -9.677  -0.637 -14.693  1.00  0.00     0.022 A 
BRANCH  78  81
ATOM     81  S   UNL     1      -9.875   0.301 -12.125  1.00  0.00     0.127 S 
ATOM     82  O   UNL     1     -11.171   0.947 -12.314  1.00  0.00    -0.237 OA
ATOM     83  O   UNL     1      -9.936  -1.134 -11.842  1.00  0.00    -0.237 OA
ATOM     84  O   UNL     1      -8.911   1.028 -11.309  1.00  0.00    -0.744 OA
ENDBRANCH  78  81
ENDBRANCH  50  74
BRANCH  62  85
ATOM     85  C   UNL     1      -7.101   6.005 -20.408  1.00  0.00     0.023 A 
ATOM     86  C   UNL     1      -8.173   6.837 -20.029  1.00  0.00     0.012 A 
ATOM     87  C   UNL     1      -6.887   5.729 -21.773  1.00  0.00     0.148 A 
ATOM     88  C   UNL     1      -9.032   7.367 -20.991  1.00  0.00     0.002 A 
ATOM     89  C   UNL     1      -7.720   6.298 -22.729  1.00  0.00     0.091 A 
ATOM     90  F   UNL     1      -5.872   4.920 -22.110  1.00  0.00    -0.205 F 
ATOM     91  C   UNL     1      -8.798   7.108 -22.339  1.00  0.00     0.022 A 
BRANCH  89  92
ATOM     92  S   UNL     1      -7.439   6.096 -24.492  1.00  0.00     0.127 S 
ATOM     93  O   UNL     1      -8.521   5.186 -24.864  1.00  0.00    -0.237 OA
ATOM     94  O   UNL     1      -7.594   7.464 -24.990  1.00  0.00    -0.237 OA
ATOM     95  O   UNL     1      -6.093   5.555 -24.625  1.00  0.00    -0.744 OA
ENDBRANCH  89  92
ENDBRANCH  62  85
ENDBRANCH  36  37
ENDBRANCH  28  31
ENDBRANCH  26  27
ENDBRANCH  25  26
ENDBRANCH   1  25
TORSDOF 20
