REMARK SMILES O=C(COc1ccc(N2C[C@@H](C(=O)NCCCCNC(=O)c3ccc(-c4c5nc(c(-c6cccc(S(=O)(=O)[O-])c6F)c6ccc([nH]6)c(-c6cccc(S(=O)(=O)[O-])c6F)c6nc(c(-c7cccc(S(=O)(=O)[O-])c7F)c7ccc4[nH]7)C=C6)C=C5)cc3)CC2=O)cc1)Nc1ccc(Cl)cc1Cl
REMARK SMILES IDX 15 1 14 2 12 3 13 4 11 6 9 7 10 8 86 9 85 10 87 11 8 12 5 13
REMARK SMILES IDX 6 14 89 15 7 16 88 17 4 18 3 19 2 20 1 21 90 22 91 24 92 25
REMARK SMILES IDX 97 26 93 27 96 28 98 29 94 30 95 31 16 32 17 33 18 34 19 35
REMARK SMILES IDX 20 36 21 38 22 39 23 40 84 41 24 42 83 43 25 44 26 45 27 46
REMARK SMILES IDX 77 47 28 48 82 49 76 50 78 51 29 52 81 53 75 54 74 55 30 57
REMARK SMILES IDX 62 58 42 59 61 60 43 61 46 62 60 63 79 64 44 65 45 66 59 68
REMARK SMILES IDX 80 69 47 70 31 71 32 72 40 73 33 74 35 75 41 76 34 77 36 78
REMARK SMILES IDX 37 79 38 80 39 81 63 82 64 83 72 84 65 85 67 86 73 87 66 88
REMARK SMILES IDX 68 89 69 90 70 91 71 92 48 93 49 94 57 95 50 96 52 97 58 98
REMARK SMILES IDX 51 99 53 100 54 101 55 102 56 103
REMARK H PARENT 14 5 90 23 19 37 78 56 46 67
REMARK Flexibility Score: inf
ROOT
ATOM      1  C   UNL     1      -1.710  -4.064   5.753  1.00  0.00     0.116 C 
ENDROOT
BRANCH   1   2
ATOM      2  N   UNL     1      -1.464  -4.260   7.171  1.00  0.00    -0.356 N 
ATOM      3  C   UNL     1      -0.325  -4.483   7.874  1.00  0.00     0.225 C 
ATOM      4  O   UNL     1      -0.420  -4.581   9.101  1.00  0.00    -0.275 OA
ATOM      5  H   UNL     1      -2.277  -4.225   7.727  1.00  0.00     0.163 HD
BRANCH   3   6
ATOM      6  C   UNL     1       1.042  -4.581   7.229  1.00  0.00     0.107 C 
ATOM      7  N   UNL     1       1.946  -3.595   5.293  1.00  0.00    -0.312 N 
ATOM      8  C   UNL     1       1.501  -3.266   6.622  1.00  0.00     0.139 C 
ATOM      9  C   UNL     1       1.744  -4.934   4.965  1.00  0.00     0.227 C 
ATOM     10  C   UNL     1       1.157  -5.645   6.149  1.00  0.00     0.116 C 
ATOM     11  O   UNL     1       2.007  -5.497   3.909  1.00  0.00    -0.274 OA
BRANCH   7  12
ATOM     12  C   UNL     1       2.380  -2.613   4.380  1.00  0.00     0.044 A 
ATOM     13  C   UNL     1       3.298  -0.760   2.473  1.00  0.00     0.120 A 
ATOM     14  C   UNL     1       3.736  -0.682   3.796  1.00  0.00     0.048 A 
ATOM     15  C   UNL     1       2.387  -1.749   2.117  1.00  0.00     0.048 A 
ATOM     16  C   UNL     1       3.248  -1.583   4.758  1.00  0.00     0.030 A 
ATOM     17  C   UNL     1       1.947  -2.676   3.057  1.00  0.00     0.030 A 
BRANCH  13  18
ATOM     18  O   UNL     1       3.911   0.036   1.541  1.00  0.00    -0.484 OA
BRANCH  18  19
ATOM     19  C   UNL     1       3.029   0.911   0.838  1.00  0.00     0.329 C 
BRANCH  19  20
ATOM     20  C   UNL     1       2.136   0.272  -0.232  1.00  0.00     0.262 C 
ATOM     21  O   UNL     1       0.945   0.556  -0.305  1.00  0.00    -0.271 OA
ATOM     22  N   UNL     1       2.798  -0.696  -0.982  1.00  0.00    -0.322 N 
ATOM     23  H   UNL     1       3.775  -0.770  -0.881  1.00  0.00     0.170 HD
BRANCH  22  24
ATOM     24  C   UNL     1       2.154  -1.581  -1.881  1.00  0.00     0.060 A 
ATOM     25  C   UNL     1       2.559  -2.925  -1.808  1.00  0.00     0.029 A 
ATOM     26  C   UNL     1       1.133  -1.233  -2.785  1.00  0.00     0.066 A 
ATOM     27  C   UNL     1       1.896  -3.912  -2.542  1.00  0.00     0.023 A 
ATOM     28  C   UNL     1       0.465  -2.227  -3.512  1.00  0.00     0.043 A 
ATOM     29  Cl  UNL     1       0.773   0.404  -3.220  1.00  0.00    -0.082 Cl
ATOM     30  C   UNL     1       0.838  -3.560  -3.375  1.00  0.00     0.042 A 
ATOM     31  Cl  UNL     1       0.013  -4.777  -4.267  1.00  0.00    -0.084 Cl
ENDBRANCH  22  24
ENDBRANCH  19  20
ENDBRANCH  18  19
ENDBRANCH  13  18
ENDBRANCH   7  12
ENDBRANCH   3   6
ENDBRANCH   1   2
BRANCH   1  32
ATOM     32  C   UNL     1      -2.550  -5.190   5.151  1.00  0.00     0.023 C 
BRANCH  32  33
ATOM     33  C   UNL     1      -3.980  -5.286   5.688  1.00  0.00     0.023 C 
BRANCH  33  34
ATOM     34  C   UNL     1      -4.816  -4.017   5.558  1.00  0.00     0.116 C 
BRANCH  34  35
ATOM     35  N   UNL     1      -4.951  -3.565   4.181  1.00  0.00    -0.352 N 
ATOM     36  C   UNL     1      -6.085  -3.184   3.502  1.00  0.00     0.251 C 
ATOM     37  H   UNL     1      -4.115  -3.527   3.663  1.00  0.00     0.163 HD
ATOM     38  O   UNL     1      -6.031  -2.964   2.296  1.00  0.00    -0.269 OA
BRANCH  36  39
ATOM     39  C   UNL     1      -7.371  -3.070   4.223  1.00  0.00     0.039 A 
ATOM     40  C   UNL     1      -8.514  -3.640   3.658  1.00  0.00     0.014 A 
ATOM     41  C   UNL     1      -7.446  -2.424   5.460  1.00  0.00     0.014 A 
ATOM     42  C   UNL     1      -9.718  -3.624   4.367  1.00  0.00     0.010 A 
ATOM     43  C   UNL     1      -8.625  -2.479   6.198  1.00  0.00     0.010 A 
ATOM     44  C   UNL     1      -9.774  -3.078   5.660  1.00  0.00    -0.014 A 
BRANCH  44  45
ATOM     45  C   UNL     1     -11.016  -3.148   6.473  1.00  0.00     0.031 A 
ATOM     46  C   UNL     1     -11.704  -1.889   6.927  1.00  0.00     0.074 A 
ATOM     47  C   UNL     1     -11.478  -4.349   6.879  1.00  0.00     0.049 A 
ATOM     48  N   UNL     1     -12.762  -1.757   7.684  1.00  0.00    -0.248 NA
ATOM     49  C   UNL     1     -11.111  -0.611   6.499  1.00  0.00     0.031 C 
ATOM     50  C   UNL     1     -10.857  -5.640   6.576  1.00  0.00     0.029 A 
ATOM     51  N   UNL     1     -12.561  -4.677   7.657  1.00  0.00    -0.354 N 
ATOM     52  C   UNL     1     -12.937  -0.389   7.858  1.00  0.00     0.074 A 
ATOM     53  C   UNL     1     -11.861   0.268   7.148  1.00  0.00     0.031 C 
ATOM     54  C   UNL     1     -11.572  -6.619   7.152  1.00  0.00     0.029 A 
ATOM     55  C   UNL     1     -12.680  -6.027   7.895  1.00  0.00     0.049 A 
ATOM     56  H   UNL     1     -13.192  -4.010   8.011  1.00  0.00     0.167 HD
ATOM     57  C   UNL     1     -13.918   0.262   8.527  1.00  0.00     0.034 A 
ATOM     58  C   UNL     1     -13.572  -6.713   8.636  1.00  0.00     0.034 A 
ATOM     59  C   UNL     1     -15.011  -0.392   9.194  1.00  0.00     0.049 A 
ATOM     60  C   UNL     1     -14.678  -5.967   9.330  1.00  0.00     0.074 A 
ATOM     61  C   UNL     1     -16.108   0.185   9.810  1.00  0.00     0.029 A 
ATOM     62  N   UNL     1     -15.143  -1.763   9.346  1.00  0.00    -0.354 N 
ATOM     63  N   UNL     1     -14.916  -4.679   9.351  1.00  0.00    -0.248 NA
ATOM     64  C   UNL     1     -15.660  -6.771  10.073  1.00  0.00     0.031 C 
ATOM     65  C   UNL     1     -16.883  -0.836  10.368  1.00  0.00     0.029 A 
ATOM     66  C   UNL     1     -16.293  -2.051  10.060  1.00  0.00     0.049 A 
ATOM     67  H   UNL     1     -14.512  -2.433   8.997  1.00  0.00     0.167 HD
ATOM     68  C   UNL     1     -16.091  -4.519  10.078  1.00  0.00     0.074 A 
ATOM     69  C   UNL     1     -16.526  -5.846  10.463  1.00  0.00     0.031 C 
ATOM     70  C   UNL     1     -16.743  -3.376  10.403  1.00  0.00     0.034 A 
BRANCH  57  71
ATOM     71  C   UNL     1     -13.881   1.768   8.543  1.00  0.00     0.023 A 
ATOM     72  C   UNL     1     -14.175   2.489   7.368  1.00  0.00     0.012 A 
ATOM     73  C   UNL     1     -13.636   2.469   9.740  1.00  0.00     0.148 A 
ATOM     74  C   UNL     1     -14.197   3.883   7.376  1.00  0.00     0.002 A 
ATOM     75  C   UNL     1     -13.706   3.856   9.752  1.00  0.00     0.091 A 
ATOM     76  F   UNL     1     -13.339   1.765  10.842  1.00  0.00    -0.205 F 
ATOM     77  C   UNL     1     -13.975   4.565   8.570  1.00  0.00     0.022 A 
BRANCH  75  78
ATOM     78  S   UNL     1     -13.519   4.825  11.253  1.00  0.00     0.127 S 
ATOM     79  O   UNL     1     -12.258   5.521  11.000  1.00  0.00    -0.237 OA
ATOM     80  O   UNL     1     -14.706   5.680  11.215  1.00  0.00    -0.237 OA
ATOM     81  O   UNL     1     -13.491   3.869  12.351  1.00  0.00    -0.744 OA
ENDBRANCH  75  78
ENDBRANCH  57  71
BRANCH  58  82
ATOM     82  C   UNL     1     -13.486  -8.199   8.708  1.00  0.00     0.023 A 
ATOM     83  C   UNL     1     -14.458  -8.982   8.055  1.00  0.00     0.012 A 
ATOM     84  C   UNL     1     -12.426  -8.838   9.380  1.00  0.00     0.148 A 
ATOM     85  C   UNL     1     -14.391 -10.375   8.092  1.00  0.00     0.002 A 
ATOM     86  C   UNL     1     -12.334 -10.224   9.366  1.00  0.00     0.091 A 
ATOM     87  F   UNL     1     -11.517  -8.073  10.000  1.00  0.00    -0.205 F 
ATOM     88  C   UNL     1     -13.324 -10.996   8.738  1.00  0.00     0.022 A 
BRANCH  86  89
ATOM     89  S   UNL     1     -10.929 -11.106  10.055  1.00  0.00     0.127 S 
ATOM     90  O   UNL     1     -11.545 -11.829  11.165  1.00  0.00    -0.237 OA
ATOM     91  O   UNL     1     -10.519 -11.942   8.926  1.00  0.00    -0.237 OA
ATOM     92  O   UNL     1      -9.963 -10.083  10.428  1.00  0.00    -0.744 OA
ENDBRANCH  86  89
ENDBRANCH  58  82
BRANCH  70  93
ATOM     93  C   UNL     1     -18.024  -3.496  11.188  1.00  0.00     0.023 A 
ATOM     94  C   UNL     1     -17.987  -3.869  12.546  1.00  0.00     0.012 A 
ATOM     95  C   UNL     1     -19.258  -3.159  10.596  1.00  0.00     0.148 A 
ATOM     96  C   UNL     1     -19.163  -3.936  13.293  1.00  0.00     0.002 A 
ATOM     97  C   UNL     1     -20.417  -3.177  11.361  1.00  0.00     0.091 A 
ATOM     98  F   UNL     1     -19.273  -2.822   9.298  1.00  0.00    -0.205 F 
ATOM     99  C   UNL     1     -20.374  -3.579  12.706  1.00  0.00     0.022 A 
BRANCH  97 100
ATOM    100  S   UNL     1     -22.005  -2.638  10.717  1.00  0.00     0.127 S 
ATOM    101  O   UNL     1     -22.732  -3.902  10.618  1.00  0.00    -0.237 OA
ATOM    102  O   UNL     1     -22.479  -1.742  11.773  1.00  0.00    -0.237 OA
ATOM    103  O   UNL     1     -21.723  -1.980   9.448  1.00  0.00    -0.744 OA
ENDBRANCH  97 100
ENDBRANCH  70  93
ENDBRANCH  44  45
ENDBRANCH  36  39
ENDBRANCH  34  35
ENDBRANCH  33  34
ENDBRANCH  32  33
ENDBRANCH   1  32
TORSDOF 19
