REMARK SMILES C[N@H+](C[C@H]1CCC[N@H+]1C)C[C@]([NH3+])(C(=O)NCCCCNC(=O)c1ccc(-c2c3nc(c(-c4cccc(S(=O)(=O)[O-])c4F)c4ccc([nH]4)c(-c4cccc(S(=O)(=O)[O-])c4F)c4nc(c(-c5cccc(S(=O)(=O)[O-])c5F)c5ccc2[nH]5)C=C4)C=C3)cc1)c1ccccc1
REMARK SMILES IDX 17 1 16 2 15 3 13 4 14 5 11 7 10 8 2 9 1 10 3 12 4 13 5 14
REMARK SMILES IDX 8 15 6 16 7 17 9 18 86 20 87 21 91 22 88 23 90 24 89 25
REMARK SMILES IDX 12 26 18 30 19 31 20 32 21 33 22 35 23 36 24 37 85 38 25 39
REMARK SMILES IDX 84 40 26 41 27 42 28 43 78 44 29 45 83 46 77 47 79 48 30 49
REMARK SMILES IDX 82 50 76 51 75 52 31 54 63 55 43 56 62 57 44 58 47 59 61 60
REMARK SMILES IDX 80 61 45 62 46 63 60 65 81 66 48 67 32 68 33 69 41 70 34 71
REMARK SMILES IDX 36 72 42 73 35 74 37 75 38 76 39 77 40 78 64 79 65 80 73 81
REMARK SMILES IDX 66 82 68 83 74 84 67 85 69 86 70 87 71 88 72 89 49 90 50 91
REMARK SMILES IDX 58 92 51 93 53 94 59 95 52 96 54 97 55 98 56 99 57 100
REMARK H PARENT 15 6 2 11 8 19 12 27 12 28 12 29 20 34 79 53 47 64
REMARK Flexibility Score: inf
ROOT
ATOM      1  C   UNL     1       3.998   3.887  -1.107  1.00  0.00     0.023 C 
ENDROOT
BRANCH   1   2
ATOM      2  C   UNL     1       3.517   3.949   0.346  1.00  0.00     0.116 C 
BRANCH   2   3
ATOM      3  N   UNL     1       2.408   4.843   0.651  1.00  0.00    -0.350 N 
ATOM      4  C   UNL     1       1.089   4.570   0.993  1.00  0.00     0.292 C 
ATOM      5  O   UNL     1       0.594   5.333   1.829  1.00  0.00    -0.267 OA
ATOM      6  H   UNL     1       2.630   5.801   0.609  1.00  0.00     0.163 HD
BRANCH   4   7
ATOM      7  C   UNL     1       0.284   3.362   0.342  1.00  0.00     0.248 C 
BRANCH   7   8
ATOM      8  C   UNL     1       0.681   2.015   1.089  1.00  0.00     0.347 C 
BRANCH   8   9
ATOM      9  N   UNL     1       0.469   0.761   0.291  1.00  0.00    -0.326 N 
ATOM     10  C   UNL     1      -0.020  -0.320   1.152  1.00  0.00     0.333 C 
ATOM     11  H   UNL     1      -0.245   0.988  -0.400  1.00  0.00     0.348 HD
BRANCH   9  12
ATOM     12  C   UNL     1       1.633   0.338  -0.506  1.00  0.00     0.327 C 
BRANCH  12  13
ATOM     13  C   UNL     1       1.317  -0.283  -1.917  1.00  0.00     0.239 C 
ATOM     14  C   UNL     1       0.463   0.550  -2.883  1.00  0.00     0.077 C 
ATOM     15  N   UNL     1       2.499  -0.454  -2.789  1.00  0.00    -0.330 N 
ATOM     16  C   UNL     1       1.442   1.440  -3.653  1.00  0.00     0.068 C 
ATOM     17  C   UNL     1       2.813   0.868  -3.331  1.00  0.00     0.262 C 
ATOM     18  C   UNL     1       3.638  -1.121  -2.196  1.00  0.00     0.333 C 
ATOM     19  H   UNL     1       2.260  -1.113  -3.531  1.00  0.00     0.348 HD
ENDBRANCH  12  13
ENDBRANCH   9  12
ENDBRANCH   8   9
ENDBRANCH   7   8
BRANCH   7  20
ATOM     20  C   UNL     1      -1.278   3.494   0.307  1.00  0.00     0.028 A 
ATOM     21  C   UNL     1      -1.972   4.692   0.517  1.00  0.00     0.011 A 
ATOM     22  C   UNL     1      -2.070   2.387  -0.097  1.00  0.00     0.011 A 
ATOM     23  C   UNL     1      -3.370   4.756   0.390  1.00  0.00     0.001 A 
ATOM     24  C   UNL     1      -3.458   2.442  -0.223  1.00  0.00     0.001 A 
ATOM     25  C   UNL     1      -4.113   3.633   0.029  1.00  0.00     0.000 A 
ENDBRANCH   7  20
BRANCH   7  26
ATOM     26  N   UNL     1       0.675   3.360  -1.081  1.00  0.00    -0.336 N 
ATOM     27  H   UNL     1       0.399   4.243  -1.511  1.00  0.00     0.345 HD
ATOM     28  H   UNL     1       0.210   2.588  -1.560  1.00  0.00     0.345 HD
ATOM     29  H   UNL     1       1.686   3.247  -1.156  1.00  0.00     0.345 HD
ENDBRANCH   7  26
ENDBRANCH   4   7
ENDBRANCH   2   3
ENDBRANCH   1   2
BRANCH   1  30
ATOM     30  C   UNL     1       4.899   5.005  -1.612  1.00  0.00     0.023 C 
BRANCH  30  31
ATOM     31  C   UNL     1       6.150   5.282  -0.798  1.00  0.00     0.116 C 
BRANCH  31  32
ATOM     32  N   UNL     1       7.013   4.128  -0.572  1.00  0.00    -0.352 N 
ATOM     33  C   UNL     1       8.379   4.131  -0.378  1.00  0.00     0.251 C 
ATOM     34  H   UNL     1       6.571   3.248  -0.556  1.00  0.00     0.163 HD
ATOM     35  O   UNL     1       8.994   3.077  -0.235  1.00  0.00    -0.269 OA
BRANCH  33  36
ATOM     36  C   UNL     1       9.096   5.425  -0.403  1.00  0.00     0.039 A 
ATOM     37  C   UNL     1      10.186   5.589  -1.261  1.00  0.00     0.014 A 
ATOM     38  C   UNL     1       8.607   6.507   0.331  1.00  0.00     0.014 A 
ATOM     39  C   UNL     1      10.722   6.865  -1.455  1.00  0.00     0.010 A 
ATOM     40  C   UNL     1       9.068   7.786   0.052  1.00  0.00     0.010 A 
ATOM     41  C   UNL     1      10.133   7.982  -0.840  1.00  0.00    -0.014 A 
BRANCH  41  42
ATOM     42  C   UNL     1      10.603   9.368  -1.100  1.00  0.00     0.031 A 
ATOM     43  C   UNL     1      11.082  10.219   0.048  1.00  0.00     0.074 A 
ATOM     44  C   UNL     1      10.486   9.902  -2.333  1.00  0.00     0.049 A 
ATOM     45  N   UNL     1      11.416  11.482   0.056  1.00  0.00    -0.248 NA
ATOM     46  C   UNL     1      11.147   9.575   1.371  1.00  0.00     0.031 C 
ATOM     47  C   UNL     1       9.945   9.216  -3.509  1.00  0.00     0.029 A 
ATOM     48  N   UNL     1      10.786  11.160  -2.795  1.00  0.00    -0.354 N 
ATOM     49  C   UNL     1      11.676  11.796   1.385  1.00  0.00     0.074 A 
ATOM     50  C   UNL     1      11.417  10.604   2.160  1.00  0.00     0.031 C 
ATOM     51  C   UNL     1       9.961  10.057  -4.557  1.00  0.00     0.029 A 
ATOM     52  C   UNL     1      10.485  11.348  -4.125  1.00  0.00     0.049 A 
ATOM     53  H   UNL     1      11.180  11.862  -2.228  1.00  0.00     0.167 HD
ATOM     54  C   UNL     1      12.129  12.957   1.912  1.00  0.00     0.034 A 
ATOM     55  C   UNL     1      10.615  12.439  -4.906  1.00  0.00     0.034 A 
ATOM     56  C   UNL     1      12.461  14.115   1.128  1.00  0.00     0.049 A 
ATOM     57  C   UNL     1      11.200  13.694  -4.313  1.00  0.00     0.074 A 
ATOM     58  C   UNL     1      13.032  15.303   1.547  1.00  0.00     0.029 A 
ATOM     59  N   UNL     1      12.257  14.226  -0.238  1.00  0.00    -0.354 N 
ATOM     60  N   UNL     1      11.597  13.918  -3.084  1.00  0.00    -0.248 NA
ATOM     61  C   UNL     1      11.391  14.834  -5.222  1.00  0.00     0.031 C 
ATOM     62  C   UNL     1      13.163  16.138   0.433  1.00  0.00     0.029 A 
ATOM     63  C   UNL     1      12.691  15.463  -0.681  1.00  0.00     0.049 A 
ATOM     64  H   UNL     1      11.862  13.528  -0.809  1.00  0.00     0.167 HD
ATOM     65  C   UNL     1      12.117  15.207  -3.080  1.00  0.00     0.074 A 
ATOM     66  C   UNL     1      12.004  15.707  -4.435  1.00  0.00     0.031 C 
ATOM     67  C   UNL     1      12.628  15.920  -2.045  1.00  0.00     0.034 A 
BRANCH  54  68
ATOM     68  C   UNL     1      12.360  13.004   3.400  1.00  0.00     0.023 A 
ATOM     69  C   UNL     1      13.426  12.269   3.960  1.00  0.00     0.012 A 
ATOM     70  C   UNL     1      11.554  13.798   4.238  1.00  0.00     0.148 A 
ATOM     71  C   UNL     1      13.659  12.287   5.334  1.00  0.00     0.002 A 
ATOM     72  C   UNL     1      11.822  13.849   5.601  1.00  0.00     0.091 A 
ATOM     73  F   UNL     1      10.532  14.472   3.692  1.00  0.00    -0.205 F 
ATOM     74  C   UNL     1      12.864  13.084   6.152  1.00  0.00     0.022 A 
BRANCH  72  75
ATOM     75  S   UNL     1      10.908  14.907   6.729  1.00  0.00     0.127 S 
ATOM     76  O   UNL     1      10.112  13.929   7.470  1.00  0.00    -0.237 OA
ATOM     77  O   UNL     1      11.980  15.532   7.503  1.00  0.00    -0.237 OA
ATOM     78  O   UNL     1      10.150  15.825   5.891  1.00  0.00    -0.744 OA
ENDBRANCH  72  75
ENDBRANCH  54  68
BRANCH  55  79
ATOM     79  C   UNL     1      10.267  12.368  -6.354  1.00  0.00     0.023 A 
ATOM     80  C   UNL     1      11.301  12.392  -7.311  1.00  0.00     0.012 A 
ATOM     81  C   UNL     1       8.934  12.249  -6.790  1.00  0.00     0.148 A 
ATOM     82  C   UNL     1      11.014  12.332  -8.675  1.00  0.00     0.002 A 
ATOM     83  C   UNL     1       8.657  12.137  -8.149  1.00  0.00     0.091 A 
ATOM     84  F   UNL     1       7.962  12.238  -5.867  1.00  0.00    -0.205 F 
ATOM     85  C   UNL     1       9.693  12.195  -9.093  1.00  0.00     0.022 A 
BRANCH  83  86
ATOM     86  S   UNL     1       7.001  11.828  -8.774  1.00  0.00     0.127 S 
ATOM     87  O   UNL     1       6.669  13.110  -9.389  1.00  0.00    -0.237 OA
ATOM     88  O   UNL     1       7.232  10.733  -9.717  1.00  0.00    -0.237 OA
ATOM     89  O   UNL     1       6.207  11.458  -7.610  1.00  0.00    -0.744 OA
ENDBRANCH  83  86
ENDBRANCH  55  79
BRANCH  67  90
ATOM     90  C   UNL     1      13.143  17.304  -2.334  1.00  0.00     0.023 A 
ATOM     91  C   UNL     1      12.234  18.353  -2.576  1.00  0.00     0.012 A 
ATOM     92  C   UNL     1      14.523  17.582  -2.276  1.00  0.00     0.148 A 
ATOM     93  C   UNL     1      12.693  19.653  -2.782  1.00  0.00     0.002 A 
ATOM     94  C   UNL     1      14.969  18.889  -2.435  1.00  0.00     0.091 A 
ATOM     95  F   UNL     1      15.373  16.567  -2.064  1.00  0.00    -0.205 F 
ATOM     96  C   UNL     1      14.057  19.923  -2.699  1.00  0.00     0.022 A 
BRANCH  94  97
ATOM     97  S   UNL     1      16.697  19.343  -2.245  1.00  0.00     0.127 S 
ATOM     98  O   UNL     1      17.098  19.579  -3.631  1.00  0.00    -0.237 OA
ATOM     99  O   UNL     1      16.613  20.549  -1.420  1.00  0.00    -0.237 OA
ATOM    100  O   UNL     1      17.338  18.210  -1.591  1.00  0.00    -0.744 OA
ENDBRANCH  94  97
ENDBRANCH  67  90
ENDBRANCH  41  42
ENDBRANCH  33  36
ENDBRANCH  31  32
ENDBRANCH  30  31
ENDBRANCH   1  30
TORSDOF 20
