REMARK SMILES O=C(NCCCCNC(=O)c1cc2c(c(S(=O)(=O)Nc3cc(C(F)(F)F)ccc3-n3cccn3)c1)CCC2)c1ccc(-c2c3nc(c(-c4cccc(S(=O)(=O)[O-])c4F)c4ccc([nH]4)c(-c4cccc(S(=O)(=O)[O-])c4F)c4nc(c(-c5cccc(S(=O)(=O)[O-])c5F)c5ccc2[nH]5)C=C4)C=C3)cc1
REMARK SMILES IDX 6 1 5 2 4 3 3 4 1 5 2 6 39 8 40 9 101 10 41 11 100 12 42 13
REMARK SMILES IDX 43 14 44 15 94 16 45 17 99 18 93 19 95 20 46 21 98 22 92 23
REMARK SMILES IDX 91 24 47 26 79 27 59 28 78 29 60 30 63 31 77 32 96 33 61 34
REMARK SMILES IDX 62 35 76 37 97 38 64 39 48 40 49 41 57 42 50 43 52 44 58 45
REMARK SMILES IDX 51 46 53 47 54 48 55 49 56 50 80 51 81 52 89 53 82 54 84 55
REMARK SMILES IDX 90 56 83 57 85 58 86 59 87 60 88 61 65 62 66 63 74 64 67 65
REMARK SMILES IDX 69 66 75 67 68 68 70 69 71 70 72 71 73 72 7 73 8 74 9 75
REMARK SMILES IDX 10 77 11 78 12 79 35 80 13 81 15 82 14 83 38 84 36 85 37 86
REMARK SMILES IDX 16 87 17 88 18 89 19 90 20 92 21 93 29 94 22 95 28 96 27 97
REMARK SMILES IDX 30 98 31 99 34 100 32 101 33 102 23 103 24 104 25 105 26 106
REMARK H PARENT 3 7 95 25 63 36 8 76 19 91
REMARK Flexibility Score: inf
ROOT
ATOM      1  C   UNL     1       4.554   1.473   3.168  1.00  0.00     0.023 C 
ENDROOT
BRANCH   1   2
ATOM      2  C   UNL     1       5.005   1.427   1.707  1.00  0.00     0.023 C 
BRANCH   2   3
ATOM      3  C   UNL     1       4.636   0.163   0.929  1.00  0.00     0.116 C 
BRANCH   3   4
ATOM      4  N   UNL     1       3.224  -0.166   0.922  1.00  0.00    -0.352 N 
ATOM      5  O   UNL     1       1.124  -0.474   0.337  1.00  0.00    -0.269 OA
ATOM      6  C   UNL     1       2.149   0.187   0.148  1.00  0.00     0.251 C 
ATOM      7  H   UNL     1       2.979  -0.789   1.644  1.00  0.00     0.163 HD
BRANCH   6   8
ATOM      8  C   UNL     1       2.112   1.308  -0.835  1.00  0.00     0.039 A 
ATOM      9  C   UNL     1       3.204   2.080  -1.227  1.00  0.00     0.014 A 
ATOM     10  C   UNL     1       0.848   1.619  -1.381  1.00  0.00     0.014 A 
ATOM     11  C   UNL     1       3.031   3.167  -2.083  1.00  0.00     0.010 A 
ATOM     12  C   UNL     1       0.671   2.697  -2.249  1.00  0.00     0.010 A 
ATOM     13  C   UNL     1       1.764   3.486  -2.584  1.00  0.00    -0.014 A 
BRANCH  13  14
ATOM     14  C   UNL     1       1.682   4.553  -3.580  1.00  0.00     0.031 A 
ATOM     15  C   UNL     1       2.380   4.262  -4.862  1.00  0.00     0.074 A 
ATOM     16  C   UNL     1       0.967   5.689  -3.461  1.00  0.00     0.049 A 
ATOM     17  N   UNL     1       3.450   4.822  -5.325  1.00  0.00    -0.248 NA
ATOM     18  C   UNL     1       1.886   3.143  -5.675  1.00  0.00     0.031 C 
ATOM     19  C   UNL     1      -0.031   6.024  -2.445  1.00  0.00     0.029 A 
ATOM     20  N   UNL     1       0.912   6.754  -4.318  1.00  0.00    -0.354 N 
ATOM     21  C   UNL     1       3.645   4.277  -6.593  1.00  0.00     0.074 A 
ATOM     22  C   UNL     1       2.757   3.147  -6.686  1.00  0.00     0.031 C 
ATOM     23  C   UNL     1      -0.750   7.090  -2.868  1.00  0.00     0.029 A 
ATOM     24  C   UNL     1      -0.176   7.592  -4.106  1.00  0.00     0.049 A 
ATOM     25  H   UNL     1       1.582   6.912  -5.022  1.00  0.00     0.167 HD
ATOM     26  C   UNL     1       4.369   4.924  -7.548  1.00  0.00     0.034 A 
ATOM     27  C   UNL     1      -0.607   8.584  -4.923  1.00  0.00     0.034 A 
ATOM     28  C   UNL     1       5.152   5.997  -6.992  1.00  0.00     0.049 A 
ATOM     29  C   UNL     1       0.515   8.969  -5.807  1.00  0.00     0.074 A 
ATOM     30  C   UNL     1       6.127   6.108  -6.020  1.00  0.00     0.029 A 
ATOM     31  N   UNL     1       4.724   7.276  -7.242  1.00  0.00    -0.354 N 
ATOM     32  N   UNL     1       1.575   9.608  -5.402  1.00  0.00    -0.248 NA
ATOM     33  C   UNL     1       0.624   8.339  -7.112  1.00  0.00     0.031 C 
ATOM     34  C   UNL     1       5.892   7.374  -5.407  1.00  0.00     0.029 A 
ATOM     35  C   UNL     1       4.818   7.972  -6.069  1.00  0.00     0.049 A 
ATOM     36  H   UNL     1       4.408   7.628  -8.106  1.00  0.00     0.167 HD
ATOM     37  C   UNL     1       2.606   9.084  -6.167  1.00  0.00     0.074 A 
ATOM     38  C   UNL     1       1.945   8.416  -7.284  1.00  0.00     0.031 C 
ATOM     39  C   UNL     1       3.873   8.989  -5.667  1.00  0.00     0.034 A 
BRANCH  26  40
ATOM     40  C   UNL     1       4.124   4.845  -9.041  1.00  0.00     0.023 A 
ATOM     41  C   UNL     1       5.070   5.474  -9.886  1.00  0.00     0.012 A 
ATOM     42  C   UNL     1       2.901   4.458  -9.632  1.00  0.00     0.148 A 
ATOM     43  C   UNL     1       4.785   5.772 -11.222  1.00  0.00     0.002 A 
ATOM     44  C   UNL     1       2.655   4.681 -10.983  1.00  0.00     0.091 A 
ATOM     45  F   UNL     1       1.906   3.993  -8.871  1.00  0.00    -0.205 F 
ATOM     46  C   UNL     1       3.576   5.370 -11.774  1.00  0.00     0.022 A 
BRANCH  44  47
ATOM     47  S   UNL     1       1.135   4.127 -11.766  1.00  0.00     0.127 S 
ATOM     48  O   UNL     1       0.406   5.383 -11.912  1.00  0.00    -0.237 OA
ATOM     49  O   UNL     1       1.635   3.551 -13.015  1.00  0.00    -0.237 OA
ATOM     50  O   UNL     1       0.561   3.151 -10.849  1.00  0.00    -0.744 OA
ENDBRANCH  44  47
ENDBRANCH  26  40
BRANCH  27  51
ATOM     51  C   UNL     1      -1.968   9.121  -5.148  1.00  0.00     0.023 A 
ATOM     52  C   UNL     1      -2.127  10.405  -5.710  1.00  0.00     0.012 A 
ATOM     53  C   UNL     1      -3.095   8.274  -5.091  1.00  0.00     0.148 A 
ATOM     54  C   UNL     1      -3.357  10.816  -6.236  1.00  0.00     0.002 A 
ATOM     55  C   UNL     1      -4.318   8.689  -5.610  1.00  0.00     0.091 A 
ATOM     56  F   UNL     1      -2.943   7.030  -4.617  1.00  0.00    -0.205 F 
ATOM     57  C   UNL     1      -4.450   9.954  -6.196  1.00  0.00     0.022 A 
BRANCH  55  58
ATOM     58  S   UNL     1      -5.764   7.621  -5.619  1.00  0.00     0.127 S 
ATOM     59  O   UNL     1      -6.807   8.517  -5.118  1.00  0.00    -0.237 OA
ATOM     60  O   UNL     1      -5.879   7.279  -7.034  1.00  0.00    -0.237 OA
ATOM     61  O   UNL     1      -5.446   6.516  -4.723  1.00  0.00    -0.744 OA
ENDBRANCH  55  58
ENDBRANCH  27  51
BRANCH  39  62
ATOM     62  C   UNL     1       4.221   9.777  -4.432  1.00  0.00     0.023 A 
ATOM     63  C   UNL     1       3.538   9.614  -3.209  1.00  0.00     0.012 A 
ATOM     64  C   UNL     1       5.366  10.592  -4.465  1.00  0.00     0.148 A 
ATOM     65  C   UNL     1       3.966  10.278  -2.057  1.00  0.00     0.002 A 
ATOM     66  C   UNL     1       5.819  11.208  -3.306  1.00  0.00     0.091 A 
ATOM     67  F   UNL     1       6.009  10.742  -5.634  1.00  0.00    -0.205 F 
ATOM     68  C   UNL     1       5.114  11.064  -2.102  1.00  0.00     0.022 A 
BRANCH  66  69
ATOM     69  S   UNL     1       7.368  12.114  -3.284  1.00  0.00     0.127 S 
ATOM     70  O   UNL     1       6.917  13.497  -3.420  1.00  0.00    -0.237 OA
ATOM     71  O   UNL     1       7.918  11.777  -1.969  1.00  0.00    -0.237 OA
ATOM     72  O   UNL     1       8.146  11.588  -4.400  1.00  0.00    -0.744 OA
ENDBRANCH  66  69
ENDBRANCH  39  62
ENDBRANCH  13  14
ENDBRANCH   6   8
ENDBRANCH   3   4
ENDBRANCH   2   3
ENDBRANCH   1   2
BRANCH   1  73
ATOM     73  C   UNL     1       5.022   0.330   4.063  1.00  0.00     0.116 C 
BRANCH  73  74
ATOM     74  N   UNL     1       6.462   0.303   4.310  1.00  0.00    -0.352 N 
ATOM     75  C   UNL     1       7.159   0.148   5.506  1.00  0.00     0.251 C 
ATOM     76  H   UNL     1       7.025   0.411   3.509  1.00  0.00     0.163 HD
ATOM     77  O   UNL     1       8.364   0.198   5.541  1.00  0.00    -0.269 OA
BRANCH  75  78
ATOM     78  C   UNL     1       6.388  -0.056   6.763  1.00  0.00     0.041 A 
ATOM     79  C   UNL     1       5.388  -1.023   6.790  1.00  0.00     0.018 A 
ATOM     80  C   UNL     1       6.588   0.814   7.860  1.00  0.00     0.036 A 
ATOM     81  C   UNL     1       4.439  -0.920   7.783  1.00  0.00    -0.043 A 
ATOM     82  C   UNL     1       5.654   0.860   8.918  1.00  0.00     0.092 A 
ATOM     83  C   UNL     1       4.518   0.069   8.785  1.00  0.00    -0.024 A 
ATOM     84  C   UNL     1       3.140  -1.667   7.835  1.00  0.00     0.036 C 
ATOM     85  C   UNL     1       3.167   0.166   9.424  1.00  0.00     0.037 C 
ATOM     86  C   UNL     1       2.644  -1.258   9.219  1.00  0.00     0.010 C 
BRANCH  82  87
ATOM     87  S   UNL     1       5.829   2.120  10.168  1.00  0.00     0.262 S 
ATOM     88  O   UNL     1       7.128   2.736   9.976  1.00  0.00    -0.201 OA
ATOM     89  O   UNL     1       4.634   2.937  10.142  1.00  0.00    -0.201 OA
BRANCH  87  90
ATOM     90  N   UNL     1       5.933   1.482  11.755  1.00  0.00    -0.277 N 
ATOM     91  H   UNL     1       6.627   1.829  12.361  1.00  0.00     0.180 HD
BRANCH  90  92
ATOM     92  C   UNL     1       5.046   0.460  12.234  1.00  0.00     0.075 A 
ATOM     93  C   UNL     1       3.814   0.835  12.799  1.00  0.00     0.042 A 
ATOM     94  C   UNL     1       5.324  -0.901  12.036  1.00  0.00     0.089 A 
ATOM     95  C   UNL     1       2.833  -0.133  13.106  1.00  0.00     0.058 A 
ATOM     96  C   UNL     1       4.364  -1.870  12.368  1.00  0.00     0.031 A 
ATOM     97  C   UNL     1       3.131  -1.488  12.903  1.00  0.00     0.015 A 
BRANCH  94  98
ATOM     98  N   UNL     1       6.538  -1.326  11.441  1.00  0.00    -0.239 N 
ATOM     99  C   UNL     1       7.776  -0.727  11.512  1.00  0.00     0.115 A 
ATOM    100  N   UNL     1       6.558  -2.395  10.605  1.00  0.00    -0.177 NA
ATOM    101  C   UNL     1       8.541  -1.278  10.515  1.00  0.00     0.042 A 
ATOM    102  C   UNL     1       7.723  -2.274   9.961  1.00  0.00     0.135 A 
ENDBRANCH  94  98
BRANCH  95 103
ATOM    103  C   UNL     1       1.456   0.290  13.569  1.00  0.00     0.416 C 
ATOM    104  F   UNL     1       1.455   0.755  14.847  1.00  0.00    -0.166 F 
ATOM    105  F   UNL     1       0.933   1.285  12.802  1.00  0.00    -0.166 F 
ATOM    106  F   UNL     1       0.541  -0.720  13.536  1.00  0.00    -0.166 F 
ENDBRANCH  95 103
ENDBRANCH  90  92
ENDBRANCH  87  90
ENDBRANCH  82  87
ENDBRANCH  75  78
ENDBRANCH  73  74
ENDBRANCH   1  73
TORSDOF 19
