REMARK SMILES CC[C@H](C(=O)NCc1ccc(C(=O)NCCCCNC(=O)c2ccc(-c3c4nc(c(-c5cccc(S(=O)(=O)[O-])c5F)c5ccc([nH]5)c(-c5cccc(S(=O)(=O)[O-])c5F)c5nc(c(-c6cccc(S(=O)(=O)[O-])c6F)c6ccc3[nH]6)C=C5)C=C4)cc2)o1)c1ccccc1
REMARK SMILES IDX 16 1 15 2 14 3 12 4 13 5 11 7 8 8 9 9 85 10 10 11 7 12 6 13
REMARK SMILES IDX 4 14 5 15 3 17 2 18 1 19 86 20 87 21 91 22 88 23 90 24 89 25
REMARK SMILES IDX 17 26 18 27 19 28 20 29 21 31 22 32 23 33 84 34 24 35 83 36
REMARK SMILES IDX 25 37 26 38 27 39 77 40 28 41 82 42 76 43 78 44 29 45 81 46
REMARK SMILES IDX 75 47 74 48 30 50 62 51 42 52 61 53 43 54 46 55 60 56 79 57
REMARK SMILES IDX 44 58 45 59 59 61 80 62 47 63 31 64 32 65 40 66 33 67 35 68
REMARK SMILES IDX 41 69 34 70 36 71 37 72 38 73 39 74 63 75 64 76 72 77 65 78
REMARK SMILES IDX 67 79 73 80 66 81 68 82 69 83 70 84 71 85 48 86 49 87 57 88
REMARK SMILES IDX 50 89 52 90 58 91 51 92 53 93 54 94 55 95 56 96
REMARK H PARENT 14 6 6 16 19 30 78 49 46 60
REMARK Flexibility Score: inf
ROOT
ATOM      1  C   UNL     1       7.846   1.421  -3.267  1.00  0.00     0.023 C 
ENDROOT
BRANCH   1   2
ATOM      2  C   UNL     1       7.544   2.355  -2.098  1.00  0.00     0.116 C 
BRANCH   2   3
ATOM      3  N   UNL     1       6.449   3.239  -2.417  1.00  0.00    -0.349 N 
ATOM      4  C   UNL     1       5.108   3.141  -2.133  1.00  0.00     0.286 C 
ATOM      5  O   UNL     1       4.408   4.085  -2.498  1.00  0.00    -0.266 OA
ATOM      6  H   UNL     1       6.705   4.045  -2.922  1.00  0.00     0.163 HD
BRANCH   4   7
ATOM      7  C   UNL     1       4.570   1.998  -1.415  1.00  0.00     0.191 A 
ATOM      8  C   UNL     1       2.967   1.026  -0.243  1.00  0.00     0.124 A 
ATOM      9  C   UNL     1       3.990   0.112  -0.311  1.00  0.00     0.048 A 
ATOM     10  O   UNL     1       3.308   2.162  -0.900  1.00  0.00    -0.454 OA
ATOM     11  C   UNL     1       4.998   0.718  -1.098  1.00  0.00     0.056 A 
BRANCH   8  12
ATOM     12  C   UNL     1       1.643   1.032   0.403  1.00  0.00     0.191 C 
BRANCH  12  13
ATOM     13  N   UNL     1       0.872  -0.088  -0.085  1.00  0.00    -0.348 N 
ATOM     14  C   UNL     1       0.433  -1.217   0.537  1.00  0.00     0.227 C 
ATOM     15  O   UNL     1      -0.249  -1.986  -0.145  1.00  0.00    -0.274 OA
ATOM     16  H   UNL     1       0.620  -0.025  -1.034  1.00  0.00     0.163 HD
BRANCH  14  17
ATOM     17  C   UNL     1       0.809  -1.512   2.011  1.00  0.00     0.108 C 
BRANCH  17  18
ATOM     18  C   UNL     1       0.260  -0.456   3.005  1.00  0.00     0.015 C 
ATOM     19  C   UNL     1      -1.114   0.097   2.653  1.00  0.00     0.005 C 
ENDBRANCH  17  18
BRANCH  17  20
ATOM     20  C   UNL     1       0.500  -2.971   2.405  1.00  0.00    -0.036 A 
ATOM     21  C   UNL     1      -0.359  -3.324   3.460  1.00  0.00     0.004 A 
ATOM     22  C   UNL     1       1.122  -4.019   1.699  1.00  0.00     0.004 A 
ATOM     23  C   UNL     1      -0.565  -4.661   3.814  1.00  0.00     0.000 A 
ATOM     24  C   UNL     1       0.897  -5.358   2.038  1.00  0.00     0.000 A 
ATOM     25  C   UNL     1       0.062  -5.678   3.104  1.00  0.00     0.000 A 
ENDBRANCH  17  20
ENDBRANCH  14  17
ENDBRANCH  12  13
ENDBRANCH   8  12
ENDBRANCH   4   7
ENDBRANCH   2   3
ENDBRANCH   1   2
BRANCH   1  26
ATOM     26  C   UNL     1       8.670   2.081  -4.377  1.00  0.00     0.023 C 
BRANCH  26  27
ATOM     27  C   UNL     1      10.019   2.635  -3.927  1.00  0.00     0.116 C 
BRANCH  27  28
ATOM     28  N   UNL     1      10.848   1.645  -3.254  1.00  0.00    -0.352 N 
ATOM     29  C   UNL     1      12.215   1.511  -3.300  1.00  0.00     0.251 C 
ATOM     30  H   UNL     1      10.370   0.989  -2.696  1.00  0.00     0.163 HD
ATOM     31  O   UNL     1      12.765   0.548  -2.776  1.00  0.00    -0.269 OA
BRANCH  29  32
ATOM     32  C   UNL     1      13.002   2.529  -4.022  1.00  0.00     0.039 A 
ATOM     33  C   UNL     1      13.907   2.115  -5.000  1.00  0.00     0.014 A 
ATOM     34  C   UNL     1      12.787   3.888  -3.777  1.00  0.00     0.014 A 
ATOM     35  C   UNL     1      14.554   3.073  -5.782  1.00  0.00     0.010 A 
ATOM     36  C   UNL     1      13.371   4.835  -4.611  1.00  0.00     0.010 A 
ATOM     37  C   UNL     1      14.262   4.438  -5.619  1.00  0.00    -0.014 A 
BRANCH  37  38
ATOM     38  C   UNL     1      14.867   5.464  -6.505  1.00  0.00     0.031 A 
ATOM     39  C   UNL     1      15.749   6.536  -5.928  1.00  0.00     0.074 A 
ATOM     40  C   UNL     1      14.552   5.479  -7.816  1.00  0.00     0.049 A 
ATOM     41  N   UNL     1      16.325   7.543  -6.532  1.00  0.00    -0.248 NA
ATOM     42  C   UNL     1      15.998   6.489  -4.477  1.00  0.00     0.031 C 
ATOM     43  C   UNL     1      13.643   4.542  -8.480  1.00  0.00     0.029 A 
ATOM     44  N   UNL     1      14.943   6.329  -8.821  1.00  0.00    -0.354 N 
ATOM     45  C   UNL     1      16.971   8.264  -5.537  1.00  0.00     0.074 A 
ATOM     46  C   UNL     1      16.687   7.603  -4.282  1.00  0.00     0.031 C 
ATOM     47  C   UNL     1      13.553   4.862  -9.781  1.00  0.00     0.029 A 
ATOM     48  C   UNL     1      14.366   6.046 -10.038  1.00  0.00     0.049 A 
ATOM     49  H   UNL     1      15.575   7.071  -8.684  1.00  0.00     0.167 HD
ATOM     50  C   UNL     1      17.756   9.361  -5.657  1.00  0.00     0.034 A 
ATOM     51  C   UNL     1      14.471   6.677 -11.224  1.00  0.00     0.034 A 
ATOM     52  C   UNL     1      18.064   9.995  -6.910  1.00  0.00     0.049 A 
ATOM     53  C   UNL     1      15.370   7.878 -11.335  1.00  0.00     0.074 A 
ATOM     54  C   UNL     1      18.916  11.058  -7.148  1.00  0.00     0.029 A 
ATOM     55  N   UNL     1      17.521   9.636  -8.134  1.00  0.00    -0.354 N 
ATOM     56  N   UNL     1      16.101   8.451 -10.409  1.00  0.00    -0.248 NA
ATOM     57  C   UNL     1      15.488   8.501 -12.661  1.00  0.00     0.031 C 
ATOM     58  C   UNL     1      18.862  11.364  -8.511  1.00  0.00     0.029 A 
ATOM     59  C   UNL     1      18.008  10.465  -9.129  1.00  0.00     0.049 A 
ATOM     60  H   UNL     1      16.883   8.899  -8.274  1.00  0.00     0.167 HD
ATOM     61  C   UNL     1      16.793   9.474 -11.047  1.00  0.00     0.074 A 
ATOM     62  C   UNL     1      16.410   9.428 -12.443  1.00  0.00     0.031 C 
ATOM     63  C   UNL     1      17.657  10.378 -10.523  1.00  0.00     0.034 A 
BRANCH  50  64
ATOM     64  C   UNL     1      18.374   9.922  -4.403  1.00  0.00     0.023 A 
ATOM     65  C   UNL     1      19.394   9.204  -3.745  1.00  0.00     0.012 A 
ATOM     66  C   UNL     1      17.991  11.184  -3.909  1.00  0.00     0.148 A 
ATOM     67  C   UNL     1      19.997   9.715  -2.596  1.00  0.00     0.002 A 
ATOM     68  C   UNL     1      18.631  11.710  -2.793  1.00  0.00     0.091 A 
ATOM     69  F   UNL     1      17.006  11.844  -4.536  1.00  0.00    -0.205 F 
ATOM     70  C   UNL     1      19.623  10.971  -2.128  1.00  0.00     0.022 A 
BRANCH  68  71
ATOM     71  S   UNL     1      18.282  13.353  -2.158  1.00  0.00     0.127 S 
ATOM     72  O   UNL     1      17.637  13.045  -0.882  1.00  0.00    -0.237 OA
ATOM     73  O   UNL     1      19.622  13.926  -2.041  1.00  0.00    -0.237 OA
ATOM     74  O   UNL     1      17.428  13.995  -3.147  1.00  0.00    -0.744 OA
ENDBRANCH  68  71
ENDBRANCH  50  64
BRANCH  51  75
ATOM     75  C   UNL     1      13.745   6.154 -12.417  1.00  0.00     0.023 A 
ATOM     76  C   UNL     1      14.474   5.585 -13.479  1.00  0.00     0.012 A 
ATOM     77  C   UNL     1      12.341   6.207 -12.499  1.00  0.00     0.148 A 
ATOM     78  C   UNL     1      13.821   5.113 -14.618  1.00  0.00     0.002 A 
ATOM     79  C   UNL     1      11.692   5.682 -13.610  1.00  0.00     0.091 A 
ATOM     80  F   UNL     1      11.666   6.760 -11.481  1.00  0.00    -0.205 F 
ATOM     81  C   UNL     1      12.431   5.153 -14.680  1.00  0.00     0.022 A 
BRANCH  79  82
ATOM     82  S   UNL     1       9.903   5.572 -13.719  1.00  0.00     0.127 S 
ATOM     83  O   UNL     1       9.606   6.546 -14.765  1.00  0.00    -0.237 OA
ATOM     84  O   UNL     1       9.711   4.173 -14.104  1.00  0.00    -0.237 OA
ATOM     85  O   UNL     1       9.407   5.901 -12.389  1.00  0.00    -0.744 OA
ENDBRANCH  79  82
ENDBRANCH  51  75
BRANCH  63  86
ATOM     86  C   UNL     1      18.290  11.369 -11.466  1.00  0.00     0.023 A 
ATOM     87  C   UNL     1      17.517  12.407 -12.022  1.00  0.00     0.012 A 
ATOM     88  C   UNL     1      19.670  11.309 -11.742  1.00  0.00     0.148 A 
ATOM     89  C   UNL     1      18.101  13.349 -12.868  1.00  0.00     0.002 A 
ATOM     90  C   UNL     1      20.256  12.283 -12.542  1.00  0.00     0.091 A 
ATOM     91  F   UNL     1      20.385  10.304 -11.216  1.00  0.00    -0.205 F 
ATOM     92  C   UNL     1      19.471  13.295 -13.117  1.00  0.00     0.022 A 
BRANCH  90  93
ATOM     93  S   UNL     1      22.026  12.352 -12.836  1.00  0.00     0.127 S 
ATOM     94  O   UNL     1      22.108  11.975 -14.247  1.00  0.00    -0.237 OA
ATOM     95  O   UNL     1      22.330  13.757 -12.561  1.00  0.00    -0.237 OA
ATOM     96  O   UNL     1      22.627  11.409 -11.903  1.00  0.00    -0.744 OA
ENDBRANCH  90  93
ENDBRANCH  63  86
ENDBRANCH  37  38
ENDBRANCH  29  32
ENDBRANCH  27  28
ENDBRANCH  26  27
ENDBRANCH   1  26
TORSDOF 19
