REMARK SMILES CS(=O)(=O)N1C[C@@H]2CN(C(=O)c3ccco3)C[C@]2(C(=O)NCCCCNC(=O)c2ccc(-c3c4nc(c(-c5cccc(S(=O)(=O)[O-])c5F)c5ccc([nH]5)c(-c5cccc(S(=O)(=O)[O-])c5F)c5nc(c(-c6cccc(S(=O)(=O)[O-])c6F)c6ccc3[nH]6)C=C5)C=C4)cc2)C1
REMARK SMILES IDX 24 1 23 2 22 3 21 4 19 5 20 6 18 8 5 9 6 10 92 11 7 12 8 13
REMARK SMILES IDX 17 14 9 15 2 16 1 17 3 18 4 19 10 20 11 21 12 22 13 23 16 24
REMARK SMILES IDX 14 25 15 26 25 27 26 28 27 29 28 31 29 32 30 33 91 34 31 35
REMARK SMILES IDX 90 36 32 37 33 38 34 39 84 40 35 41 89 42 83 43 85 44 36 45
REMARK SMILES IDX 88 46 82 47 81 48 37 50 69 51 49 52 68 53 50 54 53 55 67 56
REMARK SMILES IDX 86 57 51 58 52 59 66 61 87 62 54 63 38 64 39 65 47 66 40 67
REMARK SMILES IDX 42 68 48 69 41 70 43 71 44 72 45 73 46 74 70 75 71 76 79 77
REMARK SMILES IDX 72 78 74 79 80 80 73 81 75 82 76 83 77 84 78 85 55 86 56 87
REMARK SMILES IDX 64 88 57 89 59 90 65 91 58 92 60 93 61 94 62 95 63 96
REMARK H PARENT 21 7 26 30 85 49 53 60
REMARK Flexibility Score: inf
ROOT
ATOM      1  C   UNL     1       1.245   7.133   6.574  1.00  0.00     0.023 C 
ENDROOT
BRANCH   1   2
ATOM      2  C   UNL     1       1.833   5.884   5.941  1.00  0.00     0.023 C 
BRANCH   2   3
ATOM      3  C   UNL     1       0.854   5.067   5.112  1.00  0.00     0.116 C 
BRANCH   3   4
ATOM      4  N   UNL     1       0.697   5.692   3.816  1.00  0.00    -0.356 N 
ATOM      5  C   UNL     1       1.537   5.518   2.740  1.00  0.00     0.229 C 
ATOM      6  O   UNL     1       1.533   6.351   1.835  1.00  0.00    -0.274 OA
ATOM      7  H   UNL     1      -0.074   6.291   3.695  1.00  0.00     0.163 HD
BRANCH   5   8
ATOM      8  C   UNL     1       2.392   4.221   2.752  1.00  0.00     0.086 C 
ATOM      9  N   UNL     1       1.426   2.271   1.473  1.00  0.00    -0.201 NA
ATOM     10  C   UNL     1       2.767   1.888   1.877  1.00  0.00     0.108 C 
ATOM     11  C   UNL     1       1.392   3.774   1.558  1.00  0.00     0.121 C 
ATOM     12  C   UNL     1       3.437   3.220   2.121  1.00  0.00     0.042 C 
ATOM     13  C   UNL     1       4.577   3.061   3.103  1.00  0.00     0.126 C 
ATOM     14  C   UNL     1       3.661   5.210   3.019  1.00  0.00     0.138 C 
ATOM     15  N   UNL     1       4.646   4.357   3.696  1.00  0.00    -0.334 N 
BRANCH   9  16
ATOM     16  S   UNL     1       0.789   1.654   0.030  1.00  0.00     0.211 S 
ATOM     17  C   UNL     1       0.971  -0.107   0.229  1.00  0.00     0.176 C 
ATOM     18  O   UNL     1       1.669   2.072  -1.045  1.00  0.00    -0.213 OA
ATOM     19  O   UNL     1      -0.620   1.964   0.011  1.00  0.00    -0.213 OA
ENDBRANCH   9  16
BRANCH  15  20
ATOM     20  C   UNL     1       5.352   4.488   4.893  1.00  0.00     0.289 C 
ATOM     21  O   UNL     1       6.012   3.526   5.301  1.00  0.00    -0.265 OA
BRANCH  20  22
ATOM     22  C   UNL     1       5.217   5.672   5.713  1.00  0.00     0.191 A 
ATOM     23  C   UNL     1       5.040   5.762   7.086  1.00  0.00     0.056 A 
ATOM     24  O   UNL     1       5.328   6.929   5.187  1.00  0.00    -0.459 OA
ATOM     25  C   UNL     1       5.011   7.137   7.409  1.00  0.00     0.043 A 
ATOM     26  C   UNL     1       5.226   7.805   6.227  1.00  0.00     0.196 A 
ENDBRANCH  20  22
ENDBRANCH  15  20
ENDBRANCH   5   8
ENDBRANCH   3   4
ENDBRANCH   2   3
ENDBRANCH   1   2
BRANCH   1  27
ATOM     27  C   UNL     1       0.436   6.821   7.811  1.00  0.00     0.116 C 
BRANCH  27  28
ATOM     28  N   UNL     1       1.224   6.161   8.851  1.00  0.00    -0.352 N 
ATOM     29  C   UNL     1       1.216   6.381  10.205  1.00  0.00     0.251 C 
ATOM     30  H   UNL     1       1.844   5.463   8.536  1.00  0.00     0.163 HD
ATOM     31  O   UNL     1       2.036   5.828  10.930  1.00  0.00    -0.269 OA
BRANCH  29  32
ATOM     32  C   UNL     1       0.236   7.336  10.751  1.00  0.00     0.039 A 
ATOM     33  C   UNL     1       0.667   8.318  11.642  1.00  0.00     0.014 A 
ATOM     34  C   UNL     1      -1.076   7.329  10.275  1.00  0.00     0.014 A 
ATOM     35  C   UNL     1      -0.206   9.347  11.989  1.00  0.00     0.010 A 
ATOM     36  C   UNL     1      -1.885   8.427  10.504  1.00  0.00     0.010 A 
ATOM     37  C   UNL     1      -1.470   9.438  11.381  1.00  0.00    -0.014 A 
BRANCH  37  38
ATOM     38  C   UNL     1      -2.383  10.573  11.649  1.00  0.00     0.031 A 
ATOM     39  C   UNL     1      -3.765  10.309  12.183  1.00  0.00     0.074 A 
ATOM     40  C   UNL     1      -2.006  11.825  11.319  1.00  0.00     0.049 A 
ATOM     41  N   UNL     1      -4.730  11.156  12.422  1.00  0.00    -0.248 NA
ATOM     42  C   UNL     1      -4.130   8.904  12.440  1.00  0.00     0.031 C 
ATOM     43  C   UNL     1      -0.733  12.192  10.692  1.00  0.00     0.029 A 
ATOM     44  N   UNL     1      -2.670  13.019  11.441  1.00  0.00    -0.354 N 
ATOM     45  C   UNL     1      -5.821  10.387  12.806  1.00  0.00     0.074 A 
ATOM     46  C   UNL     1      -5.419   9.003  12.718  1.00  0.00     0.031 C 
ATOM     47  C   UNL     1      -0.702  13.520  10.503  1.00  0.00     0.029 A 
ATOM     48  C   UNL     1      -1.963  14.095  10.957  1.00  0.00     0.049 A 
ATOM     49  H   UNL     1      -3.568  13.098  11.837  1.00  0.00     0.167 HD
ATOM     50  C   UNL     1      -7.038  10.795  13.231  1.00  0.00     0.034 A 
ATOM     51  C   UNL     1      -2.298  15.397  10.882  1.00  0.00     0.034 A 
ATOM     52  C   UNL     1      -7.411  12.175  13.368  1.00  0.00     0.049 A 
ATOM     53  C   UNL     1      -3.633  15.834  11.420  1.00  0.00     0.074 A 
ATOM     54  C   UNL     1      -8.573  12.702  13.898  1.00  0.00     0.029 A 
ATOM     55  N   UNL     1      -6.631  13.246  12.960  1.00  0.00    -0.354 N 
ATOM     56  N   UNL     1      -4.587  15.105  11.948  1.00  0.00    -0.248 NA
ATOM     57  C   UNL     1      -3.924  17.273  11.388  1.00  0.00     0.031 C 
ATOM     58  C   UNL     1      -8.514  14.094  13.773  1.00  0.00     0.029 A 
ATOM     59  C   UNL     1      -7.295  14.434  13.207  1.00  0.00     0.049 A 
ATOM     60  H   UNL     1      -5.737  13.172  12.554  1.00  0.00     0.167 HD
ATOM     61  C   UNL     1      -5.577  15.998  12.339  1.00  0.00     0.074 A 
ATOM     62  C   UNL     1      -5.094  17.324  12.009  1.00  0.00     0.031 C 
ATOM     63  C   UNL     1      -6.782  15.746  12.907  1.00  0.00     0.034 A 
BRANCH  50  64
ATOM     64  C   UNL     1      -8.037   9.735  13.617  1.00  0.00     0.023 A 
ATOM     65  C   UNL     1      -7.819   8.946  14.766  1.00  0.00     0.012 A 
ATOM     66  C   UNL     1      -9.211   9.546  12.864  1.00  0.00     0.148 A 
ATOM     67  C   UNL     1      -8.731   7.959  15.135  1.00  0.00     0.002 A 
ATOM     68  C   UNL     1     -10.142   8.597  13.268  1.00  0.00     0.091 A 
ATOM     69  F   UNL     1      -9.389  10.287  11.761  1.00  0.00    -0.205 F 
ATOM     70  C   UNL     1      -9.897   7.793  14.393  1.00  0.00     0.022 A 
BRANCH  68  71
ATOM     71  S   UNL     1     -11.713   8.365  12.431  1.00  0.00     0.127 S 
ATOM     72  O   UNL     1     -11.530   7.049  11.821  1.00  0.00    -0.237 OA
ATOM     73  O   UNL     1     -12.660   8.393  13.546  1.00  0.00    -0.237 OA
ATOM     74  O   UNL     1     -11.840   9.474  11.497  1.00  0.00    -0.744 OA
ENDBRANCH  68  71
ENDBRANCH  50  64
BRANCH  51  75
ATOM     75  C   UNL     1      -1.331  16.384  10.324  1.00  0.00     0.023 A 
ATOM     76  C   UNL     1      -0.717  17.319  11.179  1.00  0.00     0.012 A 
ATOM     77  C   UNL     1      -0.990  16.376   8.957  1.00  0.00     0.148 A 
ATOM     78  C   UNL     1       0.194  18.251  10.678  1.00  0.00     0.002 A 
ATOM     79  C   UNL     1      -0.039  17.267   8.476  1.00  0.00     0.091 A 
ATOM     80  F   UNL     1      -1.590  15.481   8.160  1.00  0.00    -0.205 F 
ATOM     81  C   UNL     1       0.540  18.218   9.330  1.00  0.00     0.022 A 
BRANCH  79  82
ATOM     82  S   UNL     1       0.569  17.208   6.787  1.00  0.00     0.127 S 
ATOM     83  O   UNL     1       0.044  18.455   6.236  1.00  0.00    -0.237 OA
ATOM     84  O   UNL     1       2.018  17.185   6.991  1.00  0.00    -0.237 OA
ATOM     85  O   UNL     1       0.024  15.985   6.214  1.00  0.00    -0.744 OA
ENDBRANCH  79  82
ENDBRANCH  51  75
BRANCH  63  86
ATOM     86  C   UNL     1      -7.653  16.926  13.245  1.00  0.00     0.023 A 
ATOM     87  C   UNL     1      -8.271  17.664  12.216  1.00  0.00     0.012 A 
ATOM     88  C   UNL     1      -7.916  17.257  14.589  1.00  0.00     0.148 A 
ATOM     89  C   UNL     1      -9.107  18.738  12.520  1.00  0.00     0.002 A 
ATOM     90  C   UNL     1      -8.793  18.292  14.885  1.00  0.00     0.091 A 
ATOM     91  F   UNL     1      -7.306  16.551  15.552  1.00  0.00    -0.205 F 
ATOM     92  C   UNL     1      -9.377  19.043  13.852  1.00  0.00     0.022 A 
BRANCH  90  93
ATOM     93  S   UNL     1      -9.281  18.689  16.567  1.00  0.00     0.127 S 
ATOM     94  O   UNL     1      -8.606  19.969  16.777  1.00  0.00    -0.237 OA
ATOM     95  O   UNL     1     -10.737  18.777  16.454  1.00  0.00    -0.237 OA
ATOM     96  O   UNL     1      -8.804  17.589  17.395  1.00  0.00    -0.744 OA
ENDBRANCH  90  93
ENDBRANCH  63  86
ENDBRANCH  37  38
ENDBRANCH  29  32
ENDBRANCH  27  28
ENDBRANCH   1  27
TORSDOF 17
