REMARK SMILES Cc1cc(=O)n2nc(C[N@@H+](C)CC(=O)NCCCCNC(=O)c3ccc(-c4c5nc(c(-c6cccc(S(=O)(=O)[O-])c6F)c6ccc([nH]6)c(-c6cccc(S(=O)(=O)[O-])c6F)c6nc(c(-c7cccc(S(=O)(=O)[O-])c7F)c7ccc4[nH]7)C=C6)C=C5)cc3)sc2n1
REMARK SMILES IDX 17 1 16 2 15 3 13 4 14 5 12 7 10 8 11 9 9 11 8 12 1 13 2 14
REMARK SMILES IDX 3 15 88 16 4 17 87 18 5 19 6 20 86 21 7 22 18 23 19 24 20 25
REMARK SMILES IDX 21 26 22 28 23 29 24 30 85 31 25 32 84 33 26 34 27 35 28 36
REMARK SMILES IDX 78 37 29 38 83 39 77 40 79 41 30 42 82 43 76 44 75 45 31 47
REMARK SMILES IDX 63 48 43 49 62 50 44 51 47 52 61 53 80 54 45 55 46 56 60 58
REMARK SMILES IDX 81 59 48 60 32 61 33 62 41 63 34 64 36 65 42 66 35 67 37 68
REMARK SMILES IDX 38 69 39 70 40 71 64 72 65 73 73 74 66 75 68 76 74 77 67 78
REMARK SMILES IDX 69 79 70 80 71 81 72 82 49 83 50 84 58 85 51 86 53 87 59 88
REMARK SMILES IDX 52 89 54 90 55 91 56 92 57 93
REMARK H PARENT 15 6 10 10 20 27 79 46 47 57
REMARK Flexibility Score: inf
ROOT
ATOM      1  C   UNL     1      -1.571   8.278  -7.339  1.00  0.00     0.023 C 
ENDROOT
BRANCH   1   2
ATOM      2  C   UNL     1      -2.764   7.869  -6.470  1.00  0.00     0.116 C 
BRANCH   2   3
ATOM      3  N   UNL     1      -2.989   6.443  -6.518  1.00  0.00    -0.351 N 
ATOM      4  C   UNL     1      -2.672   5.485  -5.604  1.00  0.00     0.275 C 
ATOM      5  O   UNL     1      -2.830   4.306  -5.927  1.00  0.00    -0.269 OA
ATOM      6  H   UNL     1      -3.438   6.116  -7.330  1.00  0.00     0.163 HD
BRANCH   4   7
ATOM      7  C   UNL     1      -2.127   5.850  -4.221  1.00  0.00     0.363 C 
BRANCH   7   8
ATOM      8  N   UNL     1      -0.669   6.051  -4.141  1.00  0.00    -0.324 N 
ATOM      9  C   UNL     1      -0.197   7.415  -4.199  1.00  0.00     0.333 C 
ATOM     10  H   UNL     1      -0.507   5.804  -3.164  1.00  0.00     0.348 HD
BRANCH   8  11
ATOM     11  C   UNL     1       0.157   5.086  -4.877  1.00  0.00     0.333 C 
BRANCH  11  12
ATOM     12  C   UNL     1       0.311   3.834  -4.051  1.00  0.00     0.172 A 
ATOM     13  C   UNL     1       1.013  -0.380   0.124  1.00  0.00     0.067 C 
ATOM     14  C   UNL     1       0.696   0.333  -1.158  1.00  0.00     0.046 A 
ATOM     15  C   UNL     1       0.083  -0.292  -2.176  1.00  0.00     0.097 A 
ATOM     16  N   UNL     1       1.078   1.653  -1.188  1.00  0.00    -0.224 NA
ATOM     17  C   UNL     1      -0.211   0.451  -3.425  1.00  0.00     0.275 A 
ATOM     18  C   UNL     1       0.771   2.296  -2.263  1.00  0.00     0.215 A 
ATOM     19  O   UNL     1      -0.692  -0.150  -4.379  1.00  0.00    -0.267 OA
ATOM     20  N   UNL     1       0.139   1.782  -3.363  1.00  0.00    -0.167 N 
ATOM     21  S   UNL     1       1.138   3.966  -2.506  1.00  0.00    -0.073 S 
ATOM     22  N   UNL     1      -0.116   2.659  -4.392  1.00  0.00    -0.150 NA
ENDBRANCH  11  12
ENDBRANCH   8  11
ENDBRANCH   7   8
ENDBRANCH   4   7
ENDBRANCH   2   3
ENDBRANCH   1   2
BRANCH   1  23
ATOM     23  C   UNL     1      -1.770   8.210  -8.856  1.00  0.00     0.023 C 
BRANCH  23  24
ATOM     24  C   UNL     1      -2.874   9.104  -9.397  1.00  0.00     0.116 C 
BRANCH  24  25
ATOM     25  N   UNL     1      -2.648  10.518  -9.106  1.00  0.00    -0.352 N 
ATOM     26  C   UNL     1      -3.525  11.568  -9.315  1.00  0.00     0.251 C 
ATOM     27  H   UNL     1      -1.774  10.749  -8.718  1.00  0.00     0.163 HD
ATOM     28  O   UNL     1      -3.117  12.713  -9.409  1.00  0.00    -0.269 OA
BRANCH  26  29
ATOM     29  C   UNL     1      -4.965  11.264  -9.422  1.00  0.00     0.039 A 
ATOM     30  C   UNL     1      -5.731  11.815 -10.447  1.00  0.00     0.014 A 
ATOM     31  C   UNL     1      -5.524  10.361  -8.516  1.00  0.00     0.014 A 
ATOM     32  C   UNL     1      -7.037  11.363 -10.615  1.00  0.00     0.010 A 
ATOM     33  C   UNL     1      -6.771   9.825  -8.757  1.00  0.00     0.010 A 
ATOM     34  C   UNL     1      -7.540  10.331  -9.797  1.00  0.00    -0.014 A 
BRANCH  34  35
ATOM     35  C   UNL     1      -8.784   9.655 -10.169  1.00  0.00     0.031 A 
ATOM     36  C   UNL     1      -8.803   9.231 -11.594  1.00  0.00     0.074 A 
ATOM     37  C   UNL     1      -9.778   9.303  -9.322  1.00  0.00     0.049 A 
ATOM     38  N   UNL     1      -9.325   9.891 -12.576  1.00  0.00    -0.248 NA
ATOM     39  C   UNL     1      -7.980   8.090 -12.024  1.00  0.00     0.031 C 
ATOM     40  C   UNL     1      -9.773   9.380  -7.856  1.00  0.00     0.029 A 
ATOM     41  N   UNL     1     -10.980   8.707  -9.583  1.00  0.00    -0.354 N 
ATOM     42  C   UNL     1      -9.192   9.057 -13.681  1.00  0.00     0.074 A 
ATOM     43  C   UNL     1      -8.141   8.136 -13.351  1.00  0.00     0.031 C 
ATOM     44  C   UNL     1     -10.791   8.642  -7.356  1.00  0.00     0.029 A 
ATOM     45  C   UNL     1     -11.631   8.207  -8.455  1.00  0.00     0.049 A 
ATOM     46  H   UNL     1     -11.355   8.637 -10.491  1.00  0.00     0.167 HD
ATOM     47  C   UNL     1     -10.216   8.970 -14.578  1.00  0.00     0.034 A 
ATOM     48  C   UNL     1     -12.789   7.504  -8.427  1.00  0.00     0.034 A 
ATOM     49  C   UNL     1     -11.194   9.998 -14.315  1.00  0.00     0.049 A 
ATOM     50  C   UNL     1     -13.546   7.882  -9.636  1.00  0.00     0.074 A 
ATOM     51  C   UNL     1     -11.321  11.360 -14.469  1.00  0.00     0.029 A 
ATOM     52  N   UNL     1     -12.136   9.596 -13.406  1.00  0.00    -0.354 N 
ATOM     53  N   UNL     1     -14.055   9.069  -9.811  1.00  0.00    -0.248 NA
ATOM     54  C   UNL     1     -13.507   7.024 -10.813  1.00  0.00     0.031 C 
ATOM     55  C   UNL     1     -12.314  11.774 -13.531  1.00  0.00     0.029 A 
ATOM     56  C   UNL     1     -12.800  10.654 -12.862  1.00  0.00     0.049 A 
ATOM     57  H   UNL     1     -12.312   8.656 -13.175  1.00  0.00     0.167 HD
ATOM     58  C   UNL     1     -13.947   9.260 -11.172  1.00  0.00     0.074 A 
ATOM     59  C   UNL     1     -13.806   7.929 -11.746  1.00  0.00     0.031 C 
ATOM     60  C   UNL     1     -13.602  10.477 -11.673  1.00  0.00     0.034 A 
BRANCH  47  61
ATOM     61  C   UNL     1     -10.671   7.715 -15.313  1.00  0.00     0.023 A 
ATOM     62  C   UNL     1     -11.782   7.866 -16.182  1.00  0.00     0.012 A 
ATOM     63  C   UNL     1     -10.309   6.391 -14.983  1.00  0.00     0.148 A 
ATOM     64  C   UNL     1     -12.531   6.773 -16.630  1.00  0.00     0.002 A 
ATOM     65  C   UNL     1     -11.016   5.302 -15.485  1.00  0.00     0.091 A 
ATOM     66  F   UNL     1      -9.354   6.159 -14.083  1.00  0.00    -0.205 F 
ATOM     67  C   UNL     1     -12.147   5.487 -16.281  1.00  0.00     0.022 A 
BRANCH  65  68
ATOM     68  S   UNL     1     -10.549   3.608 -15.096  1.00  0.00     0.127 S 
ATOM     69  O   UNL     1     -11.687   3.171 -14.292  1.00  0.00    -0.237 OA
ATOM     70  O   UNL     1     -10.464   3.015 -16.430  1.00  0.00    -0.237 OA
ATOM     71  O   UNL     1      -9.274   3.700 -14.396  1.00  0.00    -0.744 OA
ENDBRANCH  65  68
ENDBRANCH  47  61
BRANCH  48  72
ATOM     72  C   UNL     1     -13.323   6.458  -7.525  1.00  0.00     0.023 A 
ATOM     73  C   UNL     1     -14.713   6.206  -7.515  1.00  0.00     0.012 A 
ATOM     74  C   UNL     1     -12.463   5.481  -6.986  1.00  0.00     0.148 A 
ATOM     75  C   UNL     1     -15.225   4.983  -7.072  1.00  0.00     0.002 A 
ATOM     76  C   UNL     1     -12.977   4.259  -6.555  1.00  0.00     0.091 A 
ATOM     77  F   UNL     1     -11.143   5.714  -6.995  1.00  0.00    -0.205 F 
ATOM     78  C   UNL     1     -14.355   4.000  -6.616  1.00  0.00     0.022 A 
BRANCH  76  79
ATOM     79  S   UNL     1     -11.924   2.909  -6.007  1.00  0.00     0.127 S 
ATOM     80  O   UNL     1     -12.569   2.512  -4.755  1.00  0.00    -0.237 OA
ATOM     81  O   UNL     1     -12.070   1.953  -7.100  1.00  0.00    -0.237 OA
ATOM     82  O   UNL     1     -10.597   3.488  -5.842  1.00  0.00    -0.744 OA
ENDBRANCH  76  79
ENDBRANCH  48  72
BRANCH  60  83
ATOM     83  C   UNL     1     -13.936  11.695 -10.875  1.00  0.00     0.023 A 
ATOM     84  C   UNL     1     -13.297  12.040  -9.670  1.00  0.00     0.012 A 
ATOM     85  C   UNL     1     -14.842  12.594 -11.459  1.00  0.00     0.148 A 
ATOM     86  C   UNL     1     -13.557  13.274  -9.066  1.00  0.00     0.002 A 
ATOM     87  C   UNL     1     -15.051  13.838 -10.891  1.00  0.00     0.091 A 
ATOM     88  F   UNL     1     -15.459  12.221 -12.591  1.00  0.00    -0.205 F 
ATOM     89  C   UNL     1     -14.418  14.181  -9.687  1.00  0.00     0.022 A 
BRANCH  87  90
ATOM     90  S   UNL     1     -16.024  15.088 -11.731  1.00  0.00     0.127 S 
ATOM     91  O   UNL     1     -17.234  15.133 -10.913  1.00  0.00    -0.237 OA
ATOM     92  O   UNL     1     -15.167  16.270 -11.627  1.00  0.00    -0.237 OA
ATOM     93  O   UNL     1     -16.207  14.606 -13.095  1.00  0.00    -0.744 OA
ENDBRANCH  87  90
ENDBRANCH  60  83
ENDBRANCH  34  35
ENDBRANCH  26  29
ENDBRANCH  24  25
ENDBRANCH  23  24
ENDBRANCH   1  23
TORSDOF 17
