REMARK SMILES CS(=O)(=O)c1ccc(/C=C(/C(=O)NCCCCNC(=O)c2ccc(-c3c4nc(c(-c5cccc(S(=O)(=O)[O-])c5F)c5ccc([nH]5)c(-c5cccc(S(=O)(=O)[O-])c5F)c5nc(c(-c6cccc(S(=O)(=O)[O-])c6F)c6ccc3[nH]6)C=C5)C=C4)cc2)c2cccc(Br)c2)cc1
REMARK SMILES IDX 16 1 15 2 14 3 13 4 11 5 12 6 10 8 9 9 8 10 5 11 6 12 92 13
REMARK SMILES IDX 7 14 91 15 2 16 1 17 3 18 4 19 84 20 85 21 90 22 86 23 88 24
REMARK SMILES IDX 87 25 89 26 17 27 18 28 19 29 20 31 21 32 22 33 83 34 23 35
REMARK SMILES IDX 82 36 24 37 25 38 26 39 76 40 27 41 81 42 75 43 77 44 28 45
REMARK SMILES IDX 80 46 74 47 73 48 29 50 61 51 41 52 60 53 42 54 45 55 59 56
REMARK SMILES IDX 78 57 43 58 44 59 58 61 79 62 46 63 30 64 31 65 39 66 32 67
REMARK SMILES IDX 34 68 40 69 33 70 35 71 36 72 37 73 38 74 62 75 63 76 71 77
REMARK SMILES IDX 64 78 66 79 72 80 65 81 67 82 68 83 69 84 70 85 47 86 48 87
REMARK SMILES IDX 56 88 49 89 51 90 57 91 50 92 52 93 53 94 54 95 55 96
REMARK H PARENT 13 7 18 30 77 49 45 60
REMARK Flexibility Score: inf
ROOT
ATOM      1  C   UNL     1       3.274  -8.358   7.421  1.00  0.00     0.023 C 
ENDROOT
BRANCH   1   2
ATOM      2  C   UNL     1       3.039  -7.164   6.484  1.00  0.00     0.023 C 
BRANCH   2   3
ATOM      3  C   UNL     1       3.647  -7.321   5.088  1.00  0.00     0.116 C 
BRANCH   3   4
ATOM      4  N   UNL     1       2.879  -8.268   4.304  1.00  0.00    -0.352 N 
ATOM      5  C   UNL     1       1.919  -8.146   3.350  1.00  0.00     0.251 C 
ATOM      6  O   UNL     1       1.466  -9.203   2.902  1.00  0.00    -0.269 OA
ATOM      7  H   UNL     1       3.103  -9.205   4.507  1.00  0.00     0.163 HD
BRANCH   5   8
ATOM      8  C   UNL     1       1.458  -6.823   2.773  1.00  0.00     0.047 C 
ATOM      9  C   UNL     1       1.422  -5.684   3.502  1.00  0.00     0.022 C 
BRANCH   9  10
ATOM     10  C   UNL     1       1.095  -4.303   3.081  1.00  0.00    -0.025 A 
ATOM     11  C   UNL     1       0.677  -1.650   2.267  1.00  0.00     0.067 A 
ATOM     12  C   UNL     1      -0.215  -2.648   1.870  1.00  0.00     0.021 A 
ATOM     13  C   UNL     1       1.741  -1.949   3.117  1.00  0.00     0.021 A 
ATOM     14  C   UNL     1      -0.013  -3.965   2.295  1.00  0.00     0.009 A 
ATOM     15  C   UNL     1       1.948  -3.273   3.515  1.00  0.00     0.009 A 
BRANCH  11  16
ATOM     16  S   UNL     1       0.426   0.018   1.712  1.00  0.00     0.175 S 
ATOM     17  C   UNL     1       1.156   0.029   0.095  1.00  0.00     0.163 C 
ATOM     18  O   UNL     1       1.208   0.893   2.560  1.00  0.00    -0.224 OA
ATOM     19  O   UNL     1      -1.006   0.215   1.560  1.00  0.00    -0.224 OA
ENDBRANCH  11  16
ENDBRANCH   9  10
BRANCH   8  20
ATOM     20  C   UNL     1       0.870  -6.860   1.407  1.00  0.00    -0.012 A 
ATOM     21  C   UNL     1      -0.339  -7.552   1.213  1.00  0.00     0.009 A 
ATOM     22  C   UNL     1       1.431  -6.161   0.331  1.00  0.00     0.024 A 
ATOM     23  C   UNL     1      -0.990  -7.530  -0.019  1.00  0.00     0.002 A 
ATOM     24  C   UNL     1       0.761  -6.125  -0.894  1.00  0.00     0.018 A 
ATOM     25  C   UNL     1      -0.445  -6.804  -1.074  1.00  0.00     0.016 A 
ATOM     26  Br  UNL     1       1.469  -5.099  -2.317  1.00  0.00    -0.051 Br
ENDBRANCH   8  20
ENDBRANCH   5   8
ENDBRANCH   3   4
ENDBRANCH   2   3
ENDBRANCH   1   2
BRANCH   1  27
ATOM     27  C   UNL     1       4.737  -8.679   7.725  1.00  0.00     0.116 C 
BRANCH  27  28
ATOM     28  N   UNL     1       5.472  -7.542   8.257  1.00  0.00    -0.352 N 
ATOM     29  C   UNL     1       6.511  -7.522   9.154  1.00  0.00     0.251 C 
ATOM     30  H   UNL     1       5.183  -6.660   7.927  1.00  0.00     0.163 HD
ATOM     31  O   UNL     1       6.937  -6.445   9.563  1.00  0.00    -0.269 OA
BRANCH  29  32
ATOM     32  C   UNL     1       7.090  -8.788   9.654  1.00  0.00     0.039 A 
ATOM     33  C   UNL     1       7.323  -8.916  11.026  1.00  0.00     0.014 A 
ATOM     34  C   UNL     1       7.402  -9.840   8.789  1.00  0.00     0.014 A 
ATOM     35  C   UNL     1       7.810 -10.121  11.538  1.00  0.00     0.010 A 
ATOM     36  C   UNL     1       7.832 -11.061   9.307  1.00  0.00     0.010 A 
ATOM     37  C   UNL     1       8.037 -11.215  10.686  1.00  0.00    -0.014 A 
BRANCH  37  38
ATOM     38  C   UNL     1       8.442 -12.533  11.236  1.00  0.00     0.031 A 
ATOM     39  C   UNL     1       9.786 -13.126  10.914  1.00  0.00     0.074 A 
ATOM     40  C   UNL     1       7.556 -13.235  11.970  1.00  0.00     0.049 A 
ATOM     41  N   UNL     1      10.303 -14.258  11.318  1.00  0.00    -0.248 NA
ATOM     42  C   UNL     1      10.653 -12.362  10.003  1.00  0.00     0.031 C 
ATOM     43  C   UNL     1       6.185 -12.815  12.267  1.00  0.00     0.029 A 
ATOM     44  N   UNL     1       7.668 -14.457  12.584  1.00  0.00    -0.354 N 
ATOM     45  C   UNL     1      11.539 -14.358  10.691  1.00  0.00     0.074 A 
ATOM     46  C   UNL     1      11.681 -13.186   9.854  1.00  0.00     0.031 C 
ATOM     47  C   UNL     1       5.587 -13.758  13.011  1.00  0.00     0.029 A 
ATOM     48  C   UNL     1       6.524 -14.854  13.235  1.00  0.00     0.049 A 
ATOM     49  H   UNL     1       8.490 -14.999  12.560  1.00  0.00     0.167 HD
ATOM     50  C   UNL     1      12.483 -15.320  10.826  1.00  0.00     0.034 A 
ATOM     51  C   UNL     1       6.261 -15.971  13.942  1.00  0.00     0.034 A 
ATOM     52  C   UNL     1      12.357 -16.460  11.695  1.00  0.00     0.049 A 
ATOM     53  C   UNL     1       7.355 -16.984  14.139  1.00  0.00     0.074 A 
ATOM     54  C   UNL     1      13.295 -17.439  11.974  1.00  0.00     0.029 A 
ATOM     55  N   UNL     1      11.222 -16.778  12.424  1.00  0.00    -0.354 N 
ATOM     56  N   UNL     1       8.585 -16.968  13.687  1.00  0.00    -0.248 NA
ATOM     57  C   UNL     1       7.038 -18.147  14.980  1.00  0.00     0.031 C 
ATOM     58  C   UNL     1      12.722 -18.354  12.866  1.00  0.00     0.029 A 
ATOM     59  C   UNL     1      11.432 -17.938  13.150  1.00  0.00     0.049 A 
ATOM     60  H   UNL     1      10.387 -16.255  12.425  1.00  0.00     0.167 HD
ATOM     61  C   UNL     1       9.198 -18.100  14.211  1.00  0.00     0.074 A 
ATOM     62  C   UNL     1       8.211 -18.763  15.039  1.00  0.00     0.031 C 
ATOM     63  C   UNL     1      10.457 -18.561  14.009  1.00  0.00     0.034 A 
BRANCH  50  64
ATOM     64  C   UNL     1      13.773 -15.142  10.068  1.00  0.00     0.023 A 
ATOM     65  C   UNL     1      14.691 -14.159  10.493  1.00  0.00     0.012 A 
ATOM     66  C   UNL     1      14.106 -15.974   8.982  1.00  0.00     0.148 A 
ATOM     67  C   UNL     1      15.906 -13.986   9.832  1.00  0.00     0.002 A 
ATOM     68  C   UNL     1      15.337 -15.821   8.351  1.00  0.00     0.091 A 
ATOM     69  F   UNL     1      13.213 -16.887   8.576  1.00  0.00    -0.205 F 
ATOM     70  C   UNL     1      16.232 -14.822   8.768  1.00  0.00     0.022 A 
BRANCH  68  71
ATOM     71  S   UNL     1      15.881 -16.897   7.019  1.00  0.00     0.127 S 
ATOM     72  O   UNL     1      15.744 -16.020   5.857  1.00  0.00    -0.237 OA
ATOM     73  O   UNL     1      17.263 -17.190   7.401  1.00  0.00    -0.237 OA
ATOM     74  O   UNL     1      14.989 -18.047   7.046  1.00  0.00    -0.744 OA
ENDBRANCH  68  71
ENDBRANCH  50  64
BRANCH  51  75
ATOM     75  C   UNL     1       4.934 -16.136  14.597  1.00  0.00     0.023 A 
ATOM     76  C   UNL     1       4.840 -16.024  15.998  1.00  0.00     0.012 A 
ATOM     77  C   UNL     1       3.764 -16.361  13.846  1.00  0.00     0.148 A 
ATOM     78  C   UNL     1       3.610 -16.162  16.642  1.00  0.00     0.002 A 
ATOM     79  C   UNL     1       2.534 -16.444  14.489  1.00  0.00     0.091 A 
ATOM     80  F   UNL     1       3.876 -16.480  12.515  1.00  0.00    -0.205 F 
ATOM     81  C   UNL     1       2.457 -16.361  15.888  1.00  0.00     0.022 A 
BRANCH  79  82
ATOM     82  S   UNL     1       0.988 -16.561  13.583  1.00  0.00     0.127 S 
ATOM     83  O   UNL     1       0.639 -17.967  13.766  1.00  0.00    -0.237 OA
ATOM     84  O   UNL     1       0.137 -15.615  14.306  1.00  0.00    -0.237 OA
ATOM     85  O   UNL     1       1.306 -16.154  12.221  1.00  0.00    -0.744 OA
ENDBRANCH  79  82
ENDBRANCH  51  75
BRANCH  63  86
ATOM     86  C   UNL     1      10.846 -19.839  14.705  1.00  0.00     0.023 A 
ATOM     87  C   UNL     1      10.319 -21.065  14.252  1.00  0.00     0.012 A 
ATOM     88  C   UNL     1      11.767 -19.835  15.770  1.00  0.00     0.148 A 
ATOM     89  C   UNL     1      10.673 -22.262  14.872  1.00  0.00     0.002 A 
ATOM     90  C   UNL     1      12.150 -21.037  16.355  1.00  0.00     0.091 A 
ATOM     91  F   UNL     1      12.242 -18.658  16.206  1.00  0.00    -0.205 F 
ATOM     92  C   UNL     1      11.596 -22.250  15.915  1.00  0.00     0.022 A 
BRANCH  90  93
ATOM     93  S   UNL     1      13.400 -21.110  17.643  1.00  0.00     0.127 S 
ATOM     94  O   UNL     1      12.582 -21.192  18.851  1.00  0.00    -0.237 OA
ATOM     95  O   UNL     1      14.125 -22.338  17.313  1.00  0.00    -0.237 OA
ATOM     96  O   UNL     1      14.188 -19.893  17.492  1.00  0.00    -0.744 OA
ENDBRANCH  90  93
ENDBRANCH  63  86
ENDBRANCH  37  38
ENDBRANCH  29  32
ENDBRANCH  27  28
ENDBRANCH   1  27
TORSDOF 17
