REMARK SMILES COCCCC(=O)N[C@H]1CC[C@@H](C(=O)NCCCCNC(=O)c2ccc(-c3c4nc(c(-c5cccc(S(=O)(=O)[O-])c5F)c5ccc([nH]5)c(-c5cccc(S(=O)(=O)[O-])c5F)c5nc(c(-c6cccc(S(=O)(=O)[O-])c6F)c6ccc3[nH]6)C=C5)C=C4)cc2)CC1
REMARK SMILES IDX 16 1 15 2 13 3 14 4 12 6 9 7 10 8 87 9 11 10 86 11 8 12 6 13
REMARK SMILES IDX 7 14 5 16 4 17 3 18 2 19 1 20 17 21 18 22 19 23 20 24 21 25
REMARK SMILES IDX 22 27 23 28 24 29 85 30 25 31 84 32 26 33 27 34 28 35 78 36
REMARK SMILES IDX 29 37 83 38 77 39 79 40 30 41 82 42 76 43 75 44 31 46 63 47
REMARK SMILES IDX 43 48 62 49 44 50 47 51 61 52 80 53 45 54 46 55 60 57 81 58
REMARK SMILES IDX 48 59 32 60 33 61 41 62 34 63 36 64 42 65 35 66 37 67 38 68
REMARK SMILES IDX 39 69 40 70 64 71 65 72 73 73 66 74 68 75 74 76 67 77 69 78
REMARK SMILES IDX 70 79 71 80 72 81 49 82 50 83 58 84 51 85 53 86 59 87 52 88
REMARK SMILES IDX 54 89 55 90 56 91 57 92
REMARK H PARENT 15 5 8 15 20 26 79 45 47 56
REMARK Flexibility Score: inf
ROOT
ATOM      1  C   UNL     1       0.284   0.762   1.486  1.00  0.00     0.116 C 
ENDROOT
BRANCH   1   2
ATOM      2  N   UNL     1      -1.229   1.252   0.459  1.00  0.00    -0.356 N 
ATOM      3  C   UNL     1      -1.242   2.038  -0.978  1.00  0.00     0.223 C 
ATOM      4  O   UNL     1      -2.358   2.348  -1.417  1.00  0.00    -0.275 OA
ATOM      5  H   UNL     1      -2.107   1.006   0.830  1.00  0.00     0.163 HD
BRANCH   3   6
ATOM      6  C   UNL     1       0.305   2.320  -2.051  1.00  0.00     0.078 C 
ATOM      7  C   UNL     1       2.966   1.090  -0.617  1.00  0.00     0.082 C 
ATOM      8  C   UNL     1       2.493   0.485  -2.042  1.00  0.00     0.026 C 
ATOM      9  C   UNL     1       2.804   2.663  -0.844  1.00  0.00     0.026 C 
ATOM     10  C   UNL     1       1.200   1.161  -2.801  1.00  0.00     0.015 C 
ATOM     11  C   UNL     1       1.490   3.287  -1.594  1.00  0.00     0.015 C 
BRANCH   7  12
ATOM     12  N   UNL     1       2.965   0.132   0.884  1.00  0.00    -0.353 N 
ATOM     13  C   UNL     1       2.477  -0.234   2.285  1.00  0.00     0.220 C 
ATOM     14  O   UNL     1       3.162  -1.148   2.784  1.00  0.00    -0.275 OA
ATOM     15  H   UNL     1       3.673  -0.531   0.720  1.00  0.00     0.163 HD
BRANCH  13  16
ATOM     16  C   UNL     1       1.083   0.400   3.422  1.00  0.00     0.102 C 
BRANCH  16  17
ATOM     17  C   UNL     1      -0.228   1.823   3.155  1.00  0.00     0.038 C 
BRANCH  17  18
ATOM     18  C   UNL     1      -0.226   2.808   1.488  1.00  0.00     0.160 C 
BRANCH  18  19
ATOM     19  O   UNL     1       0.626   1.944   0.056  1.00  0.00    -0.385 OA
ATOM     20  C   UNL     1       0.245   0.252  -0.658  1.00  0.00     0.194 C 
ENDBRANCH  18  19
ENDBRANCH  17  18
ENDBRANCH  16  17
ENDBRANCH  13  16
ENDBRANCH   7  12
ENDBRANCH   3   6
ENDBRANCH   1   2
BRANCH   1  21
ATOM     21  C   UNL     1       1.738   2.075   2.091  1.00  0.00     0.023 C 
BRANCH  21  22
ATOM     22  C   UNL     1       1.976   3.086   3.466  1.00  0.00     0.023 C 
BRANCH  22  23
ATOM     23  C   UNL     1       2.205   2.616   4.943  1.00  0.00     0.116 C 
BRANCH  23  24
ATOM     24  N   UNL     1       3.237   1.599   5.129  1.00  0.00    -0.352 N 
ATOM     25  C   UNL     1       3.378   0.699   6.168  1.00  0.00     0.251 C 
ATOM     26  H   UNL     1       3.920   1.548   4.422  1.00  0.00     0.163 HD
ATOM     27  O   UNL     1       4.335  -0.083   6.194  1.00  0.00    -0.269 OA
BRANCH  25  28
ATOM     28  C   UNL     1       2.430   0.706   7.303  1.00  0.00     0.039 A 
ATOM     29  C   UNL     1       2.920   1.099   8.549  1.00  0.00     0.014 A 
ATOM     30  C   UNL     1       1.086   0.341   7.166  1.00  0.00     0.014 A 
ATOM     31  C   UNL     1       2.048   1.221   9.630  1.00  0.00     0.010 A 
ATOM     32  C   UNL     1       0.201   0.530   8.229  1.00  0.00     0.010 A 
ATOM     33  C   UNL     1       0.672   0.987   9.466  1.00  0.00    -0.014 A 
BRANCH  33  34
ATOM     34  C   UNL     1      -0.264   1.266  10.584  1.00  0.00     0.031 A 
ATOM     35  C   UNL     1      -1.033   0.155  11.240  1.00  0.00     0.074 A 
ATOM     36  C   UNL     1      -0.432   2.543  10.985  1.00  0.00     0.049 A 
ATOM     37  N   UNL     1      -1.839   0.211  12.268  1.00  0.00    -0.248 NA
ATOM     38  C   UNL     1      -0.895  -1.190  10.659  1.00  0.00     0.031 C 
ATOM     39  C   UNL     1       0.201   3.710  10.364  1.00  0.00     0.029 A 
ATOM     40  N   UNL     1      -1.182   3.077  12.001  1.00  0.00    -0.354 N 
ATOM     41  C   UNL     1      -2.317  -1.081  12.447  1.00  0.00     0.074 A 
ATOM     42  C   UNL     1      -1.745  -1.892  11.394  1.00  0.00     0.031 C 
ATOM     43  C   UNL     1      -0.162   4.817  11.031  1.00  0.00     0.029 A 
ATOM     44  C   UNL     1      -1.076   4.445  12.105  1.00  0.00     0.049 A 
ATOM     45  H   UNL     1      -1.743   2.533  12.600  1.00  0.00     0.167 HD
ATOM     46  C   UNL     1      -3.133  -1.554  13.418  1.00  0.00     0.034 A 
ATOM     47  C   UNL     1      -1.649   5.302  12.973  1.00  0.00     0.034 A 
ATOM     48  C   UNL     1      -3.678  -0.740  14.471  1.00  0.00     0.049 A 
ATOM     49  C   UNL     1      -2.530   4.745  14.058  1.00  0.00     0.074 A 
ATOM     50  C   UNL     1      -4.460  -1.128  15.543  1.00  0.00     0.029 A 
ATOM     51  N   UNL     1      -3.510   0.633  14.574  1.00  0.00    -0.354 N 
ATOM     52  N   UNL     1      -2.846   3.496  14.303  1.00  0.00    -0.248 NA
ATOM     53  C   UNL     1      -3.101   5.708  15.009  1.00  0.00     0.031 C 
ATOM     54  C   UNL     1      -4.795   0.016  16.275  1.00  0.00     0.029 A 
ATOM     55  C   UNL     1      -4.185   1.111  15.684  1.00  0.00     0.049 A 
ATOM     56  H   UNL     1      -2.988   1.186  13.950  1.00  0.00     0.167 HD
ATOM     57  C   UNL     1      -3.623   3.518  15.454  1.00  0.00     0.074 A 
ATOM     58  C   UNL     1      -3.708   4.904  15.871  1.00  0.00     0.031 C 
ATOM     59  C   UNL     1      -4.221   2.489  16.103  1.00  0.00     0.034 A 
BRANCH  46  60
ATOM     60  C   UNL     1      -3.454  -3.027  13.406  1.00  0.00     0.023 A 
ATOM     61  C   UNL     1      -2.447  -3.966  13.712  1.00  0.00     0.012 A 
ATOM     62  C   UNL     1      -4.760  -3.482  13.137  1.00  0.00     0.148 A 
ATOM     63  C   UNL     1      -2.723  -5.333  13.710  1.00  0.00     0.002 A 
ATOM     64  C   UNL     1      -5.039  -4.843  13.184  1.00  0.00     0.091 A 
ATOM     65  F   UNL     1      -5.701  -2.578  12.829  1.00  0.00    -0.205 F 
ATOM     66  C   UNL     1      -4.019  -5.770  13.456  1.00  0.00     0.022 A 
BRANCH  64  67
ATOM     67  S   UNL     1      -6.692  -5.504  12.949  1.00  0.00     0.127 S 
ATOM     68  O   UNL     1      -6.547  -6.217  11.681  1.00  0.00    -0.237 OA
ATOM     69  O   UNL     1      -6.845  -6.368  14.120  1.00  0.00    -0.237 OA
ATOM     70  O   UNL     1      -7.586  -4.355  12.918  1.00  0.00    -0.744 OA
ENDBRANCH  64  67
ENDBRANCH  46  60
BRANCH  47  71
ATOM     71  C   UNL     1      -1.358   6.762  12.889  1.00  0.00     0.023 A 
ATOM     72  C   UNL     1      -0.610   7.386  13.908  1.00  0.00     0.012 A 
ATOM     73  C   UNL     1      -1.801   7.532  11.796  1.00  0.00     0.148 A 
ATOM     74  C   UNL     1      -0.342   8.755  13.858  1.00  0.00     0.002 A 
ATOM     75  C   UNL     1      -1.482   8.883  11.724  1.00  0.00     0.091 A 
ATOM     76  F   UNL     1      -2.517   6.923  10.841  1.00  0.00    -0.205 F 
ATOM     77  C   UNL     1      -0.770   9.501  12.763  1.00  0.00     0.022 A 
BRANCH  75  78
ATOM     78  S   UNL     1      -1.877   9.890  10.291  1.00  0.00     0.127 S 
ATOM     79  O   UNL     1      -2.897  10.787  10.828  1.00  0.00    -0.237 OA
ATOM     80  O   UNL     1      -0.589  10.522  10.002  1.00  0.00    -0.237 OA
ATOM     81  O   UNL     1      -2.330   8.958   9.267  1.00  0.00    -0.744 OA
ENDBRANCH  75  78
ENDBRANCH  47  71
BRANCH  59  82
ATOM     82  C   UNL     1      -4.990   2.813  17.357  1.00  0.00     0.023 A 
ATOM     83  C   UNL     1      -6.216   3.503  17.276  1.00  0.00     0.012 A 
ATOM     84  C   UNL     1      -4.526   2.370  18.611  1.00  0.00     0.148 A 
ATOM     85  C   UNL     1      -6.949   3.781  18.429  1.00  0.00     0.002 A 
ATOM     86  C   UNL     1      -5.290   2.600  19.748  1.00  0.00     0.091 A 
ATOM     87  F   UNL     1      -3.349   1.730  18.668  1.00  0.00    -0.205 F 
ATOM     88  C   UNL     1      -6.493   3.319  19.662  1.00  0.00     0.022 A 
BRANCH  86  89
ATOM     89  S   UNL     1      -4.834   1.953  21.360  1.00  0.00     0.127 S 
ATOM     90  O   UNL     1      -4.449   3.171  22.072  1.00  0.00    -0.237 OA
ATOM     91  O   UNL     1      -6.087   1.350  21.816  1.00  0.00    -0.237 OA
ATOM     92  O   UNL     1      -3.756   1.002  21.123  1.00  0.00    -0.744 OA
ENDBRANCH  86  89
ENDBRANCH  59  82
ENDBRANCH  33  34
ENDBRANCH  25  28
ENDBRANCH  23  24
ENDBRANCH  22  23
ENDBRANCH  21  22
ENDBRANCH   1  21
TORSDOF 19
