REMARK SMILES Cc1ccccc1N[C@H](C(=O)NCCCCNC(=O)c1ccc(-c2c3nc(c(-c4cccc(S(=O)(=O)[O-])c4F)c4ccc([nH]4)c(-c4cccc(S(=O)(=O)[O-])c4F)c4nc(c(-c5cccc(S(=O)(=O)[O-])c5F)c5ccc2[nH]5)C=C4)C=C3)cc1)c1ccccc1
REMARK SMILES IDX 15 1 14 2 13 3 12 4 10 5 11 6 9 8 8 9 7 11 1 12 2 13 3 14
REMARK SMILES IDX 4 15 6 16 5 17 83 18 84 19 88 20 85 21 87 22 86 23 16 24
REMARK SMILES IDX 17 25 18 26 19 28 20 29 21 30 82 31 22 32 81 33 23 34 24 35
REMARK SMILES IDX 25 36 75 37 26 38 80 39 74 40 76 41 27 42 79 43 73 44 72 45
REMARK SMILES IDX 28 47 60 48 40 49 59 50 41 51 44 52 58 53 77 54 42 55 43 56
REMARK SMILES IDX 57 58 78 59 45 60 29 61 30 62 38 63 31 64 33 65 39 66 32 67
REMARK SMILES IDX 34 68 35 69 36 70 37 71 61 72 62 73 70 74 63 75 65 76 71 77
REMARK SMILES IDX 64 78 66 79 67 80 68 81 69 82 46 83 47 84 55 85 48 86 50 87
REMARK SMILES IDX 56 88 49 89 51 90 52 91 53 92 54 93
REMARK H PARENT 12 7 8 10 17 27 76 46 44 57
REMARK Flexibility Score: inf
ROOT
ATOM      1  C   UNL     1       3.218   2.545   4.123  1.00  0.00     0.023 C 
ENDROOT
BRANCH   1   2
ATOM      2  C   UNL     1       1.972   3.375   3.829  1.00  0.00     0.023 C 
BRANCH   2   3
ATOM      3  C   UNL     1       1.778   3.716   2.357  1.00  0.00     0.116 C 
BRANCH   3   4
ATOM      4  N   UNL     1       1.454   2.561   1.534  1.00  0.00    -0.354 N 
ATOM      5  C   UNL     1       0.736   2.546   0.361  1.00  0.00     0.247 C 
ATOM      6  O   UNL     1       0.635   1.469  -0.238  1.00  0.00    -0.272 OA
ATOM      7  H   UNL     1       1.787   1.691   1.852  1.00  0.00     0.163 HD
BRANCH   5   8
ATOM      8  C   UNL     1       0.047   3.844  -0.180  1.00  0.00     0.200 C 
BRANCH   8   9
ATOM      9  N   UNL     1      -1.009   4.229   0.803  1.00  0.00    -0.370 N 
ATOM     10  H   UNL     1      -1.720   3.549   0.836  1.00  0.00     0.161 HD
BRANCH   9  11
ATOM     11  C   UNL     1      -1.276   5.260   1.676  1.00  0.00     0.038 A 
ATOM     12  C   UNL     1      -2.681   3.725   3.188  1.00  0.00     0.046 C 
ATOM     13  C   UNL     1      -2.199   5.080   2.733  1.00  0.00    -0.028 A 
ATOM     14  C   UNL     1      -2.637   6.180   3.508  1.00  0.00     0.005 A 
ATOM     15  C   UNL     1      -2.109   7.449   3.319  1.00  0.00     0.000 A 
ATOM     16  C   UNL     1      -0.652   6.509   1.653  1.00  0.00     0.026 A 
ATOM     17  C   UNL     1      -1.076   7.603   2.417  1.00  0.00     0.002 A 
ENDBRANCH   9  11
ENDBRANCH   8   9
BRANCH   8  18
ATOM     18  C   UNL     1       1.021   4.896  -0.682  1.00  0.00    -0.016 A 
ATOM     19  C   UNL     1       0.558   6.133  -1.154  1.00  0.00     0.006 A 
ATOM     20  C   UNL     1       2.411   4.684  -0.661  1.00  0.00     0.006 A 
ATOM     21  C   UNL     1       1.430   7.216  -1.222  1.00  0.00     0.000 A 
ATOM     22  C   UNL     1       3.286   5.757  -0.735  1.00  0.00     0.000 A 
ATOM     23  C   UNL     1       2.773   7.030  -0.929  1.00  0.00     0.000 A 
ENDBRANCH   8  18
ENDBRANCH   5   8
ENDBRANCH   3   4
ENDBRANCH   2   3
ENDBRANCH   1   2
BRANCH   1  24
ATOM     24  C   UNL     1       4.521   3.225   3.735  1.00  0.00     0.116 C 
BRANCH  24  25
ATOM     25  N   UNL     1       4.970   4.204   4.700  1.00  0.00    -0.352 N 
ATOM     26  C   UNL     1       6.218   4.773   4.841  1.00  0.00     0.251 C 
ATOM     27  H   UNL     1       4.291   4.506   5.346  1.00  0.00     0.163 HD
ATOM     28  O   UNL     1       6.537   5.182   5.956  1.00  0.00    -0.269 OA
BRANCH  26  29
ATOM     29  C   UNL     1       7.083   5.036   3.654  1.00  0.00     0.039 A 
ATOM     30  C   UNL     1       7.904   6.176   3.696  1.00  0.00     0.014 A 
ATOM     31  C   UNL     1       6.931   4.355   2.450  1.00  0.00     0.014 A 
ATOM     32  C   UNL     1       8.360   6.760   2.515  1.00  0.00     0.010 A 
ATOM     33  C   UNL     1       7.305   4.965   1.279  1.00  0.00     0.010 A 
ATOM     34  C   UNL     1       7.959   6.199   1.315  1.00  0.00    -0.014 A 
BRANCH  34  35
ATOM     35  C   UNL     1       8.122   6.799   0.008  1.00  0.00     0.031 A 
ATOM     36  C   UNL     1       9.235   6.389  -0.858  1.00  0.00     0.074 A 
ATOM     37  C   UNL     1       7.021   7.379  -0.514  1.00  0.00     0.049 A 
ATOM     38  N   UNL     1       9.537   6.988  -1.957  1.00  0.00    -0.248 NA
ATOM     39  C   UNL     1      10.099   5.256  -0.547  1.00  0.00     0.031 C 
ATOM     40  C   UNL     1       6.654   7.451  -1.919  1.00  0.00     0.029 A 
ATOM     41  N   UNL     1       6.056   8.147   0.140  1.00  0.00    -0.354 N 
ATOM     42  C   UNL     1      10.403   6.161  -2.635  1.00  0.00     0.074 A 
ATOM     43  C   UNL     1      10.797   5.149  -1.681  1.00  0.00     0.031 C 
ATOM     44  C   UNL     1       5.732   8.409  -2.070  1.00  0.00     0.029 A 
ATOM     45  C   UNL     1       5.600   9.089  -0.790  1.00  0.00     0.049 A 
ATOM     46  H   UNL     1       5.756   8.046   1.072  1.00  0.00     0.167 HD
ATOM     47  C   UNL     1      10.547   6.308  -3.981  1.00  0.00     0.034 A 
ATOM     48  C   UNL     1       5.579  10.437  -0.604  1.00  0.00     0.034 A 
ATOM     49  C   UNL     1       9.662   7.364  -4.492  1.00  0.00     0.049 A 
ATOM     50  C   UNL     1       6.402  11.140  -1.660  1.00  0.00     0.074 A 
ATOM     51  C   UNL     1       8.404   7.326  -5.074  1.00  0.00     0.029 A 
ATOM     52  N   UNL     1       9.892   8.691  -4.148  1.00  0.00    -0.354 N 
ATOM     53  N   UNL     1       7.117  10.499  -2.542  1.00  0.00    -0.248 NA
ATOM     54  C   UNL     1       6.508  12.584  -1.826  1.00  0.00     0.031 C 
ATOM     55  C   UNL     1       7.856   8.634  -5.028  1.00  0.00     0.029 A 
ATOM     56  C   UNL     1       8.785   9.476  -4.439  1.00  0.00     0.049 A 
ATOM     57  H   UNL     1      10.727   9.028  -3.751  1.00  0.00     0.167 HD
ATOM     58  C   UNL     1       7.845  11.367  -3.299  1.00  0.00     0.074 A 
ATOM     59  C   UNL     1       7.376  12.670  -2.854  1.00  0.00     0.031 C 
ATOM     60  C   UNL     1       8.797  10.915  -4.174  1.00  0.00     0.034 A 
BRANCH  47  61
ATOM     61  C   UNL     1      11.209   5.271  -4.865  1.00  0.00     0.023 A 
ATOM     62  C   UNL     1      10.707   5.115  -6.177  1.00  0.00     0.012 A 
ATOM     63  C   UNL     1      12.273   4.416  -4.495  1.00  0.00     0.148 A 
ATOM     64  C   UNL     1      11.162   4.118  -7.043  1.00  0.00     0.002 A 
ATOM     65  C   UNL     1      12.687   3.378  -5.338  1.00  0.00     0.091 A 
ATOM     66  F   UNL     1      12.932   4.641  -3.351  1.00  0.00    -0.205 F 
ATOM     67  C   UNL     1      12.131   3.227  -6.613  1.00  0.00     0.022 A 
BRANCH  65  68
ATOM     68  S   UNL     1      13.870   2.120  -4.824  1.00  0.00     0.127 S 
ATOM     69  O   UNL     1      13.211   0.881  -5.246  1.00  0.00    -0.237 OA
ATOM     70  O   UNL     1      15.059   2.466  -5.599  1.00  0.00    -0.237 OA
ATOM     71  O   UNL     1      13.993   2.257  -3.378  1.00  0.00    -0.744 OA
ENDBRANCH  65  68
ENDBRANCH  47  61
BRANCH  48  72
ATOM     72  C   UNL     1       5.356  10.836   0.813  1.00  0.00     0.023 A 
ATOM     73  C   UNL     1       4.051  10.614   1.320  1.00  0.00     0.012 A 
ATOM     74  C   UNL     1       6.432  10.908   1.714  1.00  0.00     0.148 A 
ATOM     75  C   UNL     1       3.846  10.318   2.669  1.00  0.00     0.002 A 
ATOM     76  C   UNL     1       6.223  10.575   3.053  1.00  0.00     0.091 A 
ATOM     77  F   UNL     1       7.652  11.161   1.226  1.00  0.00    -0.205 F 
ATOM     78  C   UNL     1       4.939  10.253   3.524  1.00  0.00     0.022 A 
BRANCH  76  79
ATOM     79  S   UNL     1       7.596  10.307   4.185  1.00  0.00     0.127 S 
ATOM     80  O   UNL     1       7.575  11.536   4.971  1.00  0.00    -0.237 OA
ATOM     81  O   UNL     1       7.169   9.108   4.905  1.00  0.00    -0.237 OA
ATOM     82  O   UNL     1       8.756  10.108   3.330  1.00  0.00    -0.744 OA
ENDBRANCH  76  79
ENDBRANCH  48  72
BRANCH  60  83
ATOM     83  C   UNL     1       9.840  11.771  -4.863  1.00  0.00     0.023 A 
ATOM     84  C   UNL     1      10.183  13.056  -4.404  1.00  0.00     0.012 A 
ATOM     85  C   UNL     1      10.635  11.240  -5.914  1.00  0.00     0.148 A 
ATOM     86  C   UNL     1      11.222  13.795  -4.979  1.00  0.00     0.002 A 
ATOM     87  C   UNL     1      11.747  11.925  -6.392  1.00  0.00     0.091 A 
ATOM     88  F   UNL     1      10.310  10.068  -6.479  1.00  0.00    -0.205 F 
ATOM     89  C   UNL     1      12.025  13.218  -5.952  1.00  0.00     0.022 A 
BRANCH  87  90
ATOM     90  S   UNL     1      12.951  11.103  -7.445  1.00  0.00     0.127 S 
ATOM     91  O   UNL     1      12.488  11.471  -8.781  1.00  0.00    -0.237 OA
ATOM     92  O   UNL     1      14.207  11.737  -7.039  1.00  0.00    -0.237 OA
ATOM     93  O   UNL     1      12.855   9.693  -7.093  1.00  0.00    -0.744 OA
ENDBRANCH  87  90
ENDBRANCH  60  83
ENDBRANCH  34  35
ENDBRANCH  26  29
ENDBRANCH  24  25
ENDBRANCH   1  24
TORSDOF 17
