REMARK SMILES CC(C)(C)OC(=O)N1CCC[C@@](CC2CCC2)(C(=O)NCCCCNC(=O)c2ccc(-c3c4nc(c(-c5cccc(S(=O)(=O)[O-])c5F)c5ccc([nH]5)c(-c5cccc(S(=O)(=O)[O-])c5F)c5nc(c(-c6cccc(S(=O)(=O)[O-])c6F)c6ccc3[nH]6)C=C5)C=C4)cc2)C1
REMARK SMILES IDX 22 1 21 2 20 3 18 4 19 5 12 7 8 8 9 9 91 10 10 11 11 12 6 13
REMARK SMILES IDX 7 14 5 15 2 16 1 17 3 18 4 19 13 20 14 21 15 22 17 23 16 24
REMARK SMILES IDX 23 25 24 26 25 27 26 28 27 30 28 31 29 32 90 33 30 34 89 35
REMARK SMILES IDX 31 36 32 37 33 38 83 39 34 40 88 41 82 42 84 43 35 44 87 45
REMARK SMILES IDX 81 46 80 47 36 49 68 50 48 51 67 52 49 53 52 54 66 55 85 56
REMARK SMILES IDX 50 57 51 58 65 60 86 61 53 62 37 63 38 64 46 65 39 66 41 67
REMARK SMILES IDX 47 68 40 69 42 70 43 71 44 72 45 73 69 74 70 75 78 76 71 77
REMARK SMILES IDX 73 78 79 79 72 80 74 81 75 82 76 83 77 84 54 85 55 86 63 87
REMARK SMILES IDX 56 88 58 89 64 90 57 91 59 92 60 93 61 94 62 95
REMARK H PARENT 20 6 25 29 84 48 52 59
REMARK Flexibility Score: inf
ROOT
ATOM      1  C   UNL     1       5.149   7.416   6.861  1.00  0.00     0.023 C 
ENDROOT
BRANCH   1   2
ATOM      2  C   UNL     1       5.240   6.619   5.568  1.00  0.00     0.116 C 
BRANCH   2   3
ATOM      3  N   UNL     1       5.137   5.188   5.667  1.00  0.00    -0.356 N 
ATOM      4  C   UNL     1       4.446   4.350   4.834  1.00  0.00     0.228 C 
ATOM      5  O   UNL     1       4.914   3.215   4.697  1.00  0.00    -0.274 OA
ATOM      6  H   UNL     1       5.615   4.765   6.416  1.00  0.00     0.163 HD
BRANCH   4   7
ATOM      7  C   UNL     1       3.110   4.759   4.140  1.00  0.00     0.067 C 
ATOM      8  N   UNL     1       0.974   3.521   3.505  1.00  0.00    -0.307 N 
ATOM      9  C   UNL     1       0.153   4.252   4.446  1.00  0.00     0.123 C 
ATOM     10  C   UNL     1       2.385   3.349   3.882  1.00  0.00     0.140 C 
ATOM     11  C   UNL     1       0.738   5.630   4.691  1.00  0.00     0.023 C 
ATOM     12  C   UNL     1       2.193   5.518   5.138  1.00  0.00     0.020 C 
BRANCH   8  13
ATOM     13  C   UNL     1       0.440   3.191   2.271  1.00  0.00     0.410 C 
ATOM     14  O   UNL     1      -0.548   3.750   1.814  1.00  0.00    -0.224 OA
BRANCH  13  15
ATOM     15  O   UNL     1       1.089   2.162   1.665  1.00  0.00    -0.444 OA
BRANCH  15  16
ATOM     16  C   UNL     1       0.608   1.636   0.396  1.00  0.00     0.106 C 
ATOM     17  C   UNL     1       1.280   0.263   0.237  1.00  0.00     0.056 C 
ATOM     18  C   UNL     1       1.070   2.557  -0.736  1.00  0.00     0.056 C 
ATOM     19  C   UNL     1      -0.913   1.405   0.347  1.00  0.00     0.056 C 
ENDBRANCH  15  16
ENDBRANCH  13  15
ENDBRANCH   8  13
BRANCH   7  20
ATOM     20  C   UNL     1       3.264   5.367   2.707  1.00  0.00     0.022 C 
BRANCH  20  21
ATOM     21  C   UNL     1       3.655   6.814   2.369  1.00  0.00    -0.010 C 
ATOM     22  C   UNL     1       3.278   8.142   3.070  1.00  0.00     0.003 C 
ATOM     23  C   UNL     1       5.132   7.250   2.342  1.00  0.00     0.003 C 
ATOM     24  C   UNL     1       4.726   8.635   2.874  1.00  0.00     0.001 C 
ENDBRANCH  20  21
ENDBRANCH   7  20
ENDBRANCH   4   7
ENDBRANCH   2   3
ENDBRANCH   1   2
BRANCH   1  25
ATOM     25  C   UNL     1       6.500   7.844   7.433  1.00  0.00     0.023 C 
BRANCH  25  26
ATOM     26  C   UNL     1       7.427   8.620   6.496  1.00  0.00     0.116 C 
BRANCH  26  27
ATOM     27  N   UNL     1       6.925   9.918   6.067  1.00  0.00    -0.352 N 
ATOM     28  C   UNL     1       7.642  11.086   5.902  1.00  0.00     0.251 C 
ATOM     29  H   UNL     1       5.961   9.969   5.872  1.00  0.00     0.163 HD
ATOM     30  O   UNL     1       7.083  12.120   5.552  1.00  0.00    -0.269 OA
BRANCH  28  31
ATOM     31  C   UNL     1       9.089  11.087   6.218  1.00  0.00     0.039 A 
ATOM     32  C   UNL     1       9.565  11.991   7.170  1.00  0.00     0.014 A 
ATOM     33  C   UNL     1       9.940  10.126   5.667  1.00  0.00     0.014 A 
ATOM     34  C   UNL     1      10.875  11.867   7.641  1.00  0.00     0.010 A 
ATOM     35  C   UNL     1      11.216   9.953   6.200  1.00  0.00     0.010 A 
ATOM     36  C   UNL     1      11.694  10.813   7.201  1.00  0.00    -0.014 A 
BRANCH  36  37
ATOM     37  C   UNL     1      13.034  10.582   7.805  1.00  0.00     0.031 A 
ATOM     38  C   UNL     1      14.275  10.653   6.956  1.00  0.00     0.074 A 
ATOM     39  C   UNL     1      13.130  10.232   9.105  1.00  0.00     0.049 A 
ATOM     40  N   UNL     1      15.520  10.454   7.301  1.00  0.00    -0.248 NA
ATOM     41  C   UNL     1      14.092  10.964   5.529  1.00  0.00     0.031 C 
ATOM     42  C   UNL     1      11.999  10.046  10.018  1.00  0.00     0.029 A 
ATOM     43  N   UNL     1      14.228   9.949   9.881  1.00  0.00    -0.354 N 
ATOM     44  C   UNL     1      16.264  10.583   6.134  1.00  0.00     0.074 A 
ATOM     45  C   UNL     1      15.326  10.841   5.063  1.00  0.00     0.031 C 
ATOM     46  C   UNL     1      12.462   9.691  11.228  1.00  0.00     0.029 A 
ATOM     47  C   UNL     1      13.916   9.591  11.173  1.00  0.00     0.049 A 
ATOM     48  H   UNL     1      15.152   9.997   9.544  1.00  0.00     0.167 HD
ATOM     49  C   UNL     1      17.607  10.521   5.970  1.00  0.00     0.034 A 
ATOM     50  C   UNL     1      14.710   9.215  12.197  1.00  0.00     0.034 A 
ATOM     51  C   UNL     1      18.540  10.299   7.041  1.00  0.00     0.049 A 
ATOM     52  C   UNL     1      16.201   9.185  11.994  1.00  0.00     0.074 A 
ATOM     53  C   UNL     1      19.923  10.307   6.990  1.00  0.00     0.029 A 
ATOM     54  N   UNL     1      18.190  10.016   8.351  1.00  0.00    -0.354 N 
ATOM     55  N   UNL     1      16.893   9.472  10.918  1.00  0.00    -0.248 NA
ATOM     56  C   UNL     1      17.024   8.815  13.155  1.00  0.00     0.031 C 
ATOM     57  C   UNL     1      20.409   9.992   8.262  1.00  0.00     0.029 A 
ATOM     58  C   UNL     1      19.330   9.832   9.116  1.00  0.00     0.049 A 
ATOM     59  H   UNL     1      17.268   9.954   8.689  1.00  0.00     0.167 HD
ATOM     60  C   UNL     1      18.230   9.356  11.283  1.00  0.00     0.074 A 
ATOM     61  C   UNL     1      18.251   8.994  12.685  1.00  0.00     0.031 C 
ATOM     62  C   UNL     1      19.340   9.522  10.522  1.00  0.00     0.034 A 
BRANCH  49  63
ATOM     63  C   UNL     1      18.156  10.742   4.585  1.00  0.00     0.023 A 
ATOM     64  C   UNL     1      18.105  12.028   4.010  1.00  0.00     0.012 A 
ATOM     65  C   UNL     1      18.783   9.695   3.881  1.00  0.00     0.148 A 
ATOM     66  C   UNL     1      18.638  12.262   2.743  1.00  0.00     0.002 A 
ATOM     67  C   UNL     1      19.355   9.947   2.640  1.00  0.00     0.091 A 
ATOM     68  F   UNL     1      18.805   8.475   4.436  1.00  0.00    -0.205 F 
ATOM     69  C   UNL     1      19.273  11.226   2.064  1.00  0.00     0.022 A 
BRANCH  67  70
ATOM     70  S   UNL     1      20.267   8.702   1.721  1.00  0.00     0.127 S 
ATOM     71  O   UNL     1      19.389   8.483   0.572  1.00  0.00    -0.237 OA
ATOM     72  O   UNL     1      21.513   9.403   1.411  1.00  0.00    -0.237 OA
ATOM     73  O   UNL     1      20.414   7.565   2.617  1.00  0.00    -0.744 OA
ENDBRANCH  67  70
ENDBRANCH  49  63
BRANCH  50  74
ATOM     74  C   UNL     1      14.117   8.882  13.525  1.00  0.00     0.023 A 
ATOM     75  C   UNL     1      14.352   9.730  14.625  1.00  0.00     0.012 A 
ATOM     76  C   UNL     1      13.320   7.735  13.703  1.00  0.00     0.148 A 
ATOM     77  C   UNL     1      13.840   9.421  15.886  1.00  0.00     0.002 A 
ATOM     78  C   UNL     1      12.764   7.464  14.948  1.00  0.00     0.091 A 
ATOM     79  F   UNL     1      13.116   6.934  12.648  1.00  0.00    -0.205 F 
ATOM     80  C   UNL     1      13.039   8.293  16.046  1.00  0.00     0.022 A 
BRANCH  78  81
ATOM     81  S   UNL     1      11.614   6.109  15.214  1.00  0.00     0.127 S 
ATOM     82  O   UNL     1      12.410   5.197  16.031  1.00  0.00    -0.237 OA
ATOM     83  O   UNL     1      10.521   6.777  15.920  1.00  0.00    -0.237 OA
ATOM     84  O   UNL     1      11.262   5.626  13.885  1.00  0.00    -0.744 OA
ENDBRANCH  78  81
ENDBRANCH  50  74
BRANCH  62  85
ATOM     85  C   UNL     1      20.680   9.364  11.193  1.00  0.00     0.023 A 
ATOM     86  C   UNL     1      21.127   8.087  11.587  1.00  0.00     0.012 A 
ATOM     87  C   UNL     1      21.529  10.476  11.363  1.00  0.00     0.148 A 
ATOM     88  C   UNL     1      22.381   7.925  12.174  1.00  0.00     0.002 A 
ATOM     89  C   UNL     1      22.798  10.299  11.899  1.00  0.00     0.091 A 
ATOM     90  F   UNL     1      21.079  11.685  10.997  1.00  0.00    -0.205 F 
ATOM     91  C   UNL     1      23.221   9.028  12.318  1.00  0.00     0.022 A 
BRANCH  89  92
ATOM     92  S   UNL     1      23.985  11.642  12.029  1.00  0.00     0.127 S 
ATOM     93  O   UNL     1      24.035  11.855  13.474  1.00  0.00    -0.237 OA
ATOM     94  O   UNL     1      25.192  11.043  11.458  1.00  0.00    -0.237 OA
ATOM     95  O   UNL     1      23.432  12.745  11.255  1.00  0.00    -0.744 OA
ENDBRANCH  89  92
ENDBRANCH  62  85
ENDBRANCH  36  37
ENDBRANCH  28  31
ENDBRANCH  26  27
ENDBRANCH  25  26
ENDBRANCH   1  25
TORSDOF 19
