REMARK SMILES O=C(NCCCCNC(=O)c1cccn1CC(=O)N1CCc2ccccc2C1)c1ccc(-c2c3nc(c(-c4cccc(S(=O)(=O)[O-])c4F)c4ccc([nH]4)c(-c4cccc(S(=O)(=O)[O-])c4F)c4nc(c(-c5cccc(S(=O)(=O)[O-])c5F)c5ccc2[nH]5)C=C4)C=C3)cc1
REMARK SMILES IDX 5 1 4 2 3 3 1 4 2 5 29 7 30 8 91 9 31 10 90 11 32 12 33 13
REMARK SMILES IDX 34 14 84 15 35 16 89 17 83 18 85 19 36 20 88 21 82 22 81 23
REMARK SMILES IDX 37 25 69 26 49 27 68 28 50 29 53 30 67 31 86 32 51 33 52 34
REMARK SMILES IDX 66 36 87 37 54 38 38 39 39 40 47 41 40 42 42 43 48 44 41 45
REMARK SMILES IDX 43 46 44 47 45 48 46 49 70 50 71 51 79 52 72 53 74 54 80 55
REMARK SMILES IDX 73 56 75 57 76 58 77 59 78 60 55 61 56 62 64 63 57 64 59 65
REMARK SMILES IDX 65 66 58 67 60 68 61 69 62 70 63 71 6 72 7 73 8 74 9 75
REMARK SMILES IDX 10 77 11 78 12 79 15 80 13 81 14 82 16 83 17 84 18 85 19 86
REMARK SMILES IDX 20 87 28 88 21 89 27 90 22 91 26 92 23 93 25 94 24 95
REMARK H PARENT 3 6 85 24 53 35 8 76
REMARK Flexibility Score: inf
ROOT
ATOM      1  C   UNL     1       4.979   1.092   1.618  1.00  0.00     0.023 C 
ENDROOT
BRANCH   1   2
ATOM      2  C   UNL     1       4.580  -0.211   0.932  1.00  0.00     0.116 C 
BRANCH   2   3
ATOM      3  N   UNL     1       3.154  -0.413   0.760  1.00  0.00    -0.352 N 
ATOM      4  O   UNL     1       1.084  -0.392  -0.017  1.00  0.00    -0.269 OA
ATOM      5  C   UNL     1       2.200   0.132  -0.063  1.00  0.00     0.251 C 
ATOM      6  H   UNL     1       2.789  -1.094   1.370  1.00  0.00     0.163 HD
BRANCH   5   7
ATOM      7  C   UNL     1       2.411   1.327  -0.927  1.00  0.00     0.039 A 
ATOM      8  C   UNL     1       3.657   1.764  -1.373  1.00  0.00     0.014 A 
ATOM      9  C   UNL     1       1.264   2.044  -1.323  1.00  0.00     0.014 A 
ATOM     10  C   UNL     1       3.772   2.937  -2.111  1.00  0.00     0.010 A 
ATOM     11  C   UNL     1       1.367   3.204  -2.094  1.00  0.00     0.010 A 
ATOM     12  C   UNL     1       2.629   3.656  -2.477  1.00  0.00    -0.014 A 
BRANCH  12  13
ATOM     13  C   UNL     1       2.829   4.776  -3.425  1.00  0.00     0.031 A 
ATOM     14  C   UNL     1       3.063   4.236  -4.855  1.00  0.00     0.074 A 
ATOM     15  C   UNL     1       2.924   6.027  -2.883  1.00  0.00     0.049 A 
ATOM     16  N   UNL     1       4.004   4.494  -5.722  1.00  0.00    -0.248 NA
ATOM     17  C   UNL     1       2.215   3.101  -5.307  1.00  0.00     0.031 C 
ATOM     18  C   UNL     1       2.587   6.385  -1.485  1.00  0.00     0.029 A 
ATOM     19  N   UNL     1       3.329   7.249  -3.375  1.00  0.00    -0.354 N 
ATOM     20  C   UNL     1       3.719   3.722  -6.881  1.00  0.00     0.074 A 
ATOM     21  C   UNL     1       2.721   2.771  -6.497  1.00  0.00     0.031 C 
ATOM     22  C   UNL     1       2.872   7.683  -1.232  1.00  0.00     0.029 A 
ATOM     23  C   UNL     1       3.436   8.292  -2.422  1.00  0.00     0.049 A 
ATOM     24  H   UNL     1       3.530   7.388  -4.329  1.00  0.00     0.167 HD
ATOM     25  C   UNL     1       4.185   4.028  -8.131  1.00  0.00     0.034 A 
ATOM     26  C   UNL     1       4.012   9.529  -2.563  1.00  0.00     0.034 A 
ATOM     27  C   UNL     1       4.903   5.261  -8.088  1.00  0.00     0.049 A 
ATOM     28  C   UNL     1       4.510   9.546  -3.942  1.00  0.00     0.074 A 
ATOM     29  C   UNL     1       6.200   5.680  -7.965  1.00  0.00     0.029 A 
ATOM     30  N   UNL     1       4.093   6.365  -8.146  1.00  0.00    -0.354 N 
ATOM     31  N   UNL     1       3.777   9.708  -4.998  1.00  0.00    -0.248 NA
ATOM     32  C   UNL     1       5.912   9.190  -4.165  1.00  0.00     0.031 C 
ATOM     33  C   UNL     1       6.124   7.082  -7.762  1.00  0.00     0.029 A 
ATOM     34  C   UNL     1       4.779   7.427  -7.628  1.00  0.00     0.049 A 
ATOM     35  H   UNL     1       3.175   6.389  -8.501  1.00  0.00     0.167 HD
ATOM     36  C   UNL     1       4.548   9.160  -5.996  1.00  0.00     0.074 A 
ATOM     37  C   UNL     1       5.903   9.098  -5.490  1.00  0.00     0.031 C 
ATOM     38  C   UNL     1       3.979   8.440  -6.993  1.00  0.00     0.034 A 
BRANCH  25  39
ATOM     39  C   UNL     1       3.830   3.559  -9.545  1.00  0.00     0.023 A 
ATOM     40  C   UNL     1       4.730   3.996 -10.566  1.00  0.00     0.012 A 
ATOM     41  C   UNL     1       2.599   3.037  -9.982  1.00  0.00     0.148 A 
ATOM     42  C   UNL     1       4.379   4.067 -11.913  1.00  0.00     0.002 A 
ATOM     43  C   UNL     1       2.275   3.049 -11.349  1.00  0.00     0.091 A 
ATOM     44  F   UNL     1       1.709   2.599  -9.088  1.00  0.00    -0.205 F 
ATOM     45  C   UNL     1       3.139   3.608 -12.303  1.00  0.00     0.022 A 
BRANCH  43  46
ATOM     46  S   UNL     1       0.745   2.366 -12.005  1.00  0.00     0.127 S 
ATOM     47  O   UNL     1      -0.021   3.570 -12.317  1.00  0.00    -0.237 OA
ATOM     48  O   UNL     1       1.222   1.633 -13.182  1.00  0.00    -0.237 OA
ATOM     49  O   UNL     1       0.215   1.510 -10.954  1.00  0.00    -0.744 OA
ENDBRANCH  43  46
ENDBRANCH  25  39
BRANCH  26  50
ATOM     50  C   UNL     1       4.401  10.693  -1.678  1.00  0.00     0.023 A 
ATOM     51  C   UNL     1       3.831  10.948  -0.423  1.00  0.00     0.012 A 
ATOM     52  C   UNL     1       5.434  11.596  -2.086  1.00  0.00     0.148 A 
ATOM     53  C   UNL     1       4.327  11.973   0.411  1.00  0.00     0.002 A 
ATOM     54  C   UNL     1       5.992  12.535  -1.224  1.00  0.00     0.091 A 
ATOM     55  F   UNL     1       5.876  11.574  -3.348  1.00  0.00    -0.205 F 
ATOM     56  C   UNL     1       5.432  12.736   0.032  1.00  0.00     0.022 A 
BRANCH  54  57
ATOM     57  S   UNL     1       7.517  13.416  -1.626  1.00  0.00     0.127 S 
ATOM     58  O   UNL     1       7.130  14.813  -1.440  1.00  0.00    -0.237 OA
ATOM     59  O   UNL     1       8.431  12.893  -0.611  1.00  0.00    -0.237 OA
ATOM     60  O   UNL     1       7.859  13.048  -2.993  1.00  0.00    -0.744 OA
ENDBRANCH  54  57
ENDBRANCH  26  50
BRANCH  38  61
ATOM     61  C   UNL     1       2.450   8.509  -7.012  1.00  0.00     0.023 A 
ATOM     62  C   UNL     1       1.843   9.686  -7.473  1.00  0.00     0.012 A 
ATOM     63  C   UNL     1       1.605   7.514  -6.454  1.00  0.00     0.148 A 
ATOM     64  C   UNL     1       0.458   9.866  -7.385  1.00  0.00     0.002 A 
ATOM     65  C   UNL     1       0.225   7.694  -6.353  1.00  0.00     0.091 A 
ATOM     66  F   UNL     1       2.162   6.385  -6.026  1.00  0.00    -0.205 F 
ATOM     67  C   UNL     1      -0.350   8.876  -6.826  1.00  0.00     0.022 A 
BRANCH  65  68
ATOM     68  S   UNL     1      -0.887   6.503  -5.569  1.00  0.00     0.127 S 
ATOM     69  O   UNL     1      -1.641   7.342  -4.636  1.00  0.00    -0.237 OA
ATOM     70  O   UNL     1      -1.668   6.020  -6.705  1.00  0.00    -0.237 OA
ATOM     71  O   UNL     1      -0.045   5.503  -4.921  1.00  0.00    -0.744 OA
ENDBRANCH  65  68
ENDBRANCH  38  61
ENDBRANCH  12  13
ENDBRANCH   5   7
ENDBRANCH   2   3
ENDBRANCH   1   2
BRANCH   1  72
ATOM     72  C   UNL     1       4.451   1.273   3.039  1.00  0.00     0.023 C 
BRANCH  72  73
ATOM     73  C   UNL     1       4.838   0.198   4.053  1.00  0.00     0.116 C 
BRANCH  73  74
ATOM     74  N   UNL     1       6.273   0.132   4.270  1.00  0.00    -0.351 N 
ATOM     75  C   UNL     1       7.005   0.279   5.424  1.00  0.00     0.267 C 
ATOM     76  H   UNL     1       6.806  -0.046   3.462  1.00  0.00     0.163 HD
ATOM     77  O   UNL     1       8.226   0.293   5.332  1.00  0.00    -0.268 OA
BRANCH  75  78
ATOM     78  C   UNL     1       6.312   0.453   6.686  1.00  0.00     0.107 A 
ATOM     79  C   UNL     1       5.324  -0.340   7.252  1.00  0.00     0.033 A 
ATOM     80  N   UNL     1       6.579   1.462   7.603  1.00  0.00    -0.334 N 
ATOM     81  C   UNL     1       4.984   0.202   8.512  1.00  0.00     0.020 A 
ATOM     82  C   UNL     1       5.783   1.304   8.711  1.00  0.00     0.087 A 
BRANCH  80  83
ATOM     83  C   UNL     1       7.595   2.498   7.451  1.00  0.00     0.222 C 
BRANCH  83  84
ATOM     84  C   UNL     1       7.161   3.952   7.585  1.00  0.00     0.242 C 
ATOM     85  O   UNL     1       7.786   4.678   8.369  1.00  0.00    -0.273 OA
BRANCH  84  86
ATOM     86  N   UNL     1       6.215   4.485   6.713  1.00  0.00    -0.336 N 
ATOM     87  C   UNL     1       5.181   3.690   6.053  1.00  0.00     0.124 C 
ATOM     88  C   UNL     1       6.197   5.943   6.537  1.00  0.00     0.155 C 
ATOM     89  C   UNL     1       4.438   4.370   4.910  1.00  0.00     0.057 C 
ATOM     90  C   UNL     1       4.891   6.527   6.056  1.00  0.00    -0.025 A 
ATOM     91  C   UNL     1       4.021   5.759   5.272  1.00  0.00    -0.041 A 
ATOM     92  C   UNL     1       4.585   7.873   6.285  1.00  0.00     0.006 A 
ATOM     93  C   UNL     1       2.848   6.318   4.754  1.00  0.00     0.004 A 
ATOM     94  C   UNL     1       3.415   8.431   5.767  1.00  0.00     0.000 A 
ATOM     95  C   UNL     1       2.543   7.652   5.010  1.00  0.00     0.000 A 
ENDBRANCH  84  86
ENDBRANCH  83  84
ENDBRANCH  80  83
ENDBRANCH  75  78
ENDBRANCH  73  74
ENDBRANCH  72  73
ENDBRANCH   1  72
TORSDOF 17
