REMARK SMILES O=C(NCCCCNC(=O)c1[nH]ncc1C[NH+]1CCC([N@H+]2CCC[C@@H](C(=O)N3CCCC3)C2)CC1)c1ccc(-c2c3nc(c(-c4cccc(S(=O)(=O)[O-])c4F)c4ccc([nH]4)c(-c4cccc(S(=O)(=O)[O-])c4F)c4nc(c(-c5cccc(S(=O)(=O)[O-])c5F)c5ccc2[nH]5)C=C4)C=C3)cc1
REMARK SMILES IDX 6 1 5 2 4 3 3 4 1 5 2 6 36 8 37 9 98 10 38 11 97 12 39 13
REMARK SMILES IDX 40 14 41 15 91 16 42 17 96 18 90 19 92 20 43 21 95 22 89 23
REMARK SMILES IDX 88 24 44 26 76 27 56 28 75 29 57 30 60 31 74 32 93 33 58 34
REMARK SMILES IDX 59 35 73 37 94 38 61 39 45 40 46 41 54 42 47 43 49 44 55 45
REMARK SMILES IDX 48 46 50 47 51 48 52 49 53 50 77 51 78 52 86 53 79 54 81 55
REMARK SMILES IDX 87 56 80 57 82 58 83 59 84 60 85 61 62 62 63 63 71 64 64 65
REMARK SMILES IDX 66 66 72 67 65 68 67 69 68 70 69 71 70 72 7 73 8 74 9 75
REMARK SMILES IDX 10 77 11 78 12 79 15 80 13 81 14 83 16 84 17 85 18 86 35 87
REMARK SMILES IDX 19 89 34 90 20 91 21 92 22 93 33 94 23 96 25 97 24 98 26 99
REMARK SMILES IDX 27 100 28 101 29 102 32 103 30 104 31 105
REMARK H PARENT 3 7 92 25 60 36 8 76 12 82 17 88 21 95
REMARK Flexibility Score: inf
ROOT
ATOM      1  C   UNL     1       4.482   2.478  -2.827  1.00  0.00     0.023 C 
ENDROOT
BRANCH   1   2
ATOM      2  C   UNL     1       4.953   1.150  -2.244  1.00  0.00     0.023 C 
BRANCH   2   3
ATOM      3  C   UNL     1       4.598   0.923  -0.781  1.00  0.00     0.116 C 
BRANCH   3   4
ATOM      4  N   UNL     1       3.163   0.889  -0.539  1.00  0.00    -0.352 N 
ATOM      5  O   UNL     1       1.173  -0.040  -0.015  1.00  0.00    -0.269 OA
ATOM      6  C   UNL     1       2.396  -0.131  -0.019  1.00  0.00     0.251 C 
ATOM      7  H   UNL     1       2.672   1.708  -0.779  1.00  0.00     0.163 HD
BRANCH   6   8
ATOM      8  C   UNL     1       3.066  -1.344   0.495  1.00  0.00     0.039 A 
ATOM      9  C   UNL     1       4.176  -1.225   1.332  1.00  0.00     0.014 A 
ATOM     10  C   UNL     1       2.615  -2.605   0.098  1.00  0.00     0.014 A 
ATOM     11  C   UNL     1       4.943  -2.346   1.617  1.00  0.00     0.010 A 
ATOM     12  C   UNL     1       3.328  -3.746   0.480  1.00  0.00     0.010 A 
ATOM     13  C   UNL     1       4.521  -3.624   1.209  1.00  0.00    -0.014 A 
BRANCH  13  14
ATOM     14  C   UNL     1       5.309  -4.807   1.642  1.00  0.00     0.031 A 
ATOM     15  C   UNL     1       5.977  -5.723   0.652  1.00  0.00     0.074 A 
ATOM     16  C   UNL     1       5.440  -5.028   2.965  1.00  0.00     0.049 A 
ATOM     17  N   UNL     1       6.742  -6.759   0.885  1.00  0.00    -0.248 NA
ATOM     18  C   UNL     1       5.759  -5.454  -0.778  1.00  0.00     0.031 C 
ATOM     19  C   UNL     1       4.794  -4.235   4.016  1.00  0.00     0.029 A 
ATOM     20  N   UNL     1       6.160  -5.967   3.657  1.00  0.00    -0.354 N 
ATOM     21  C   UNL     1       7.067  -7.287  -0.359  1.00  0.00     0.074 A 
ATOM     22  C   UNL     1       6.411  -6.460  -1.349  1.00  0.00     0.031 C 
ATOM     23  C   UNL     1       5.178  -4.692   5.215  1.00  0.00     0.029 A 
ATOM     24  C   UNL     1       6.047  -5.847   5.022  1.00  0.00     0.049 A 
ATOM     25  H   UNL     1       6.705  -6.660   3.219  1.00  0.00     0.167 HD
ATOM     26  C   UNL     1       7.854  -8.353  -0.647  1.00  0.00     0.034 A 
ATOM     27  C   UNL     1       6.569  -6.590   6.015  1.00  0.00     0.034 A 
ATOM     28  C   UNL     1       8.534  -9.149   0.343  1.00  0.00     0.049 A 
ATOM     29  C   UNL     1       7.462  -7.741   5.660  1.00  0.00     0.074 A 
ATOM     30  C   UNL     1       9.395 -10.215   0.147  1.00  0.00     0.029 A 
ATOM     31  N   UNL     1       8.429  -8.970   1.714  1.00  0.00    -0.354 N 
ATOM     32  N   UNL     1       7.854  -8.145   4.476  1.00  0.00    -0.248 NA
ATOM     33  C   UNL     1       8.007  -8.524   6.776  1.00  0.00     0.031 C 
ATOM     34  C   UNL     1       9.798 -10.691   1.399  1.00  0.00     0.029 A 
ATOM     35  C   UNL     1       9.204  -9.909   2.376  1.00  0.00     0.049 A 
ATOM     36  H   UNL     1       7.884  -8.278   2.154  1.00  0.00     0.167 HD
ATOM     37  C   UNL     1       8.702  -9.220   4.704  1.00  0.00     0.074 A 
ATOM     38  C   UNL     1       8.800  -9.376   6.142  1.00  0.00     0.031 C 
ATOM     39  C   UNL     1       9.322 -10.024   3.807  1.00  0.00     0.034 A 
BRANCH  26  40
ATOM     40  C   UNL     1       8.073  -8.704  -2.097  1.00  0.00     0.023 A 
ATOM     41  C   UNL     1       8.935  -7.908  -2.879  1.00  0.00     0.012 A 
ATOM     42  C   UNL     1       7.512  -9.869  -2.657  1.00  0.00     0.148 A 
ATOM     43  C   UNL     1       9.221  -8.255  -4.199  1.00  0.00     0.002 A 
ATOM     44  C   UNL     1       7.832 -10.229  -3.962  1.00  0.00     0.091 A 
ATOM     45  F   UNL     1       6.683 -10.604  -1.904  1.00  0.00    -0.205 F 
ATOM     46  C   UNL     1       8.679  -9.420  -4.736  1.00  0.00     0.022 A 
BRANCH  44  47
ATOM     47  S   UNL     1       7.246 -11.748  -4.725  1.00  0.00     0.127 S 
ATOM     48  O   UNL     1       6.315 -11.234  -5.728  1.00  0.00    -0.237 OA
ATOM     49  O   UNL     1       8.480 -12.314  -5.272  1.00  0.00    -0.237 OA
ATOM     50  O   UNL     1       6.641 -12.528  -3.655  1.00  0.00    -0.744 OA
ENDBRANCH  44  47
ENDBRANCH  26  40
BRANCH  27  51
ATOM     51  C   UNL     1       6.281  -6.239   7.433  1.00  0.00     0.023 A 
ATOM     52  C   UNL     1       7.314  -5.747   8.252  1.00  0.00     0.012 A 
ATOM     53  C   UNL     1       4.979  -6.345   7.958  1.00  0.00     0.148 A 
ATOM     54  C   UNL     1       7.061  -5.395   9.579  1.00  0.00     0.002 A 
ATOM     55  C   UNL     1       4.720  -5.931   9.259  1.00  0.00     0.091 A 
ATOM     56  F   UNL     1       4.010  -6.834   7.170  1.00  0.00    -0.205 F 
ATOM     57  C   UNL     1       5.763  -5.473  10.078  1.00  0.00     0.022 A 
BRANCH  55  58
ATOM     58  S   UNL     1       3.048  -5.856   9.909  1.00  0.00     0.127 S 
ATOM     59  O   UNL     1       2.978  -7.080  10.702  1.00  0.00    -0.237 OA
ATOM     60  O   UNL     1       3.074  -4.617  10.688  1.00  0.00    -0.237 OA
ATOM     61  O   UNL     1       2.185  -5.800   8.737  1.00  0.00    -0.744 OA
ENDBRANCH  55  58
ENDBRANCH  27  51
BRANCH  39  62
ATOM     62  C   UNL     1      10.169 -11.139   4.359  1.00  0.00     0.023 A 
ATOM     63  C   UNL     1       9.546 -12.257   4.949  1.00  0.00     0.012 A 
ATOM     64  C   UNL     1      11.573 -11.101   4.261  1.00  0.00     0.148 A 
ATOM     65  C   UNL     1      10.308 -13.301   5.470  1.00  0.00     0.002 A 
ATOM     66  C   UNL     1      12.325 -12.167   4.740  1.00  0.00     0.091 A 
ATOM     67  F   UNL     1      12.148 -10.019   3.716  1.00  0.00    -0.205 F 
ATOM     68  C   UNL     1      11.696 -13.261   5.356  1.00  0.00     0.022 A 
BRANCH  66  69
ATOM     69  S   UNL     1      14.110 -12.237   4.557  1.00  0.00     0.127 S 
ATOM     70  O   UNL     1      14.562 -11.906   5.907  1.00  0.00    -0.237 OA
ATOM     71  O   UNL     1      14.330 -13.630   4.165  1.00  0.00    -0.237 OA
ATOM     72  O   UNL     1      14.442 -11.263   3.526  1.00  0.00    -0.744 OA
ENDBRANCH  66  69
ENDBRANCH  39  62
ENDBRANCH  13  14
ENDBRANCH   6   8
ENDBRANCH   3   4
ENDBRANCH   2   3
ENDBRANCH   1   2
BRANCH   1  73
ATOM     73  C   UNL     1       4.826   3.705  -1.994  1.00  0.00     0.116 C 
BRANCH  73  74
ATOM     74  N   UNL     1       6.258   3.890  -1.804  1.00  0.00    -0.351 N 
ATOM     75  C   UNL     1       7.007   5.013  -2.012  1.00  0.00     0.269 C 
ATOM     76  H   UNL     1       6.751   3.102  -1.482  1.00  0.00     0.163 HD
ATOM     77  O   UNL     1       8.242   4.919  -1.979  1.00  0.00    -0.268 OA
BRANCH  75  78
ATOM     78  C   UNL     1       6.352   6.242  -2.339  1.00  0.00     0.131 A 
ATOM     79  N   UNL     1       6.769   7.020  -3.384  1.00  0.00    -0.272 N 
ATOM     80  C   UNL     1       5.290   6.935  -1.761  1.00  0.00     0.057 A 
ATOM     81  N   UNL     1       5.955   8.052  -3.652  1.00  0.00    -0.183 NA
ATOM     82  H   UNL     1       7.592   6.839  -3.894  1.00  0.00     0.190 HD
ATOM     83  C   UNL     1       5.058   7.998  -2.666  1.00  0.00     0.145 A 
BRANCH  80  84
ATOM     84  C   UNL     1       4.529   6.596  -0.522  1.00  0.00     0.303 C 
BRANCH  84  85
ATOM     85  N   UNL     1       4.677   7.556   0.570  1.00  0.00    -0.331 N 
ATOM     86  C   UNL     1       6.057   7.737   1.014  1.00  0.00     0.268 C 
ATOM     87  C   UNL     1       3.975   8.820   0.376  1.00  0.00     0.268 C 
ATOM     88  H   UNL     1       4.189   7.106   1.344  1.00  0.00     0.348 HD
ATOM     89  C   UNL     1       6.090   8.490   2.344  1.00  0.00     0.126 C 
ATOM     90  C   UNL     1       3.913   9.590   1.694  1.00  0.00     0.126 C 
ATOM     91  C   UNL     1       5.328   9.827   2.249  1.00  0.00     0.195 C 
BRANCH  91  92
ATOM     92  N   UNL     1       5.307  10.650   3.485  1.00  0.00    -0.331 N 
ATOM     93  C   UNL     1       4.664  10.003   4.639  1.00  0.00     0.262 C 
ATOM     94  C   UNL     1       6.673  11.077   3.835  1.00  0.00     0.275 C 
ATOM     95  H   UNL     1       4.728  11.461   3.266  1.00  0.00     0.348 HD
ATOM     96  C   UNL     1       4.621  10.943   5.850  1.00  0.00     0.062 C 
ATOM     97  C   UNL     1       6.691  12.056   5.018  1.00  0.00     0.134 C 
ATOM     98  C   UNL     1       6.016  11.436   6.234  1.00  0.00     0.025 C 
BRANCH  97  99
ATOM     99  C   UNL     1       8.159  12.380   5.254  1.00  0.00     0.231 C 
ATOM    100  O   UNL     1       8.989  11.490   5.447  1.00  0.00    -0.274 OA
ATOM    101  N   UNL     1       8.545  13.683   5.054  1.00  0.00    -0.342 N 
ATOM    102  C   UNL     1       7.801  14.895   5.329  1.00  0.00     0.119 C 
ATOM    103  C   UNL     1       9.868  13.984   4.542  1.00  0.00     0.119 C 
ATOM    104  C   UNL     1       8.402  15.896   4.361  1.00  0.00     0.023 C 
ATOM    105  C   UNL     1       9.874  15.492   4.311  1.00  0.00     0.023 C 
ENDBRANCH  97  99
ENDBRANCH  91  92
ENDBRANCH  84  85
ENDBRANCH  80  84
ENDBRANCH  75  78
ENDBRANCH  73  74
ENDBRANCH   1  73
TORSDOF 18
