REMARK SMILES CC(=O)Nc1ccc(/C=C2/CCc3oc(C(=O)NCCCCNC(=O)c4ccc(-c5c6nc(c(-c7cccc(S(=O)(=O)[O-])c7F)c7ccc([nH]7)c(-c7cccc(S(=O)(=O)[O-])c7F)c7nc(c(-c8cccc(S(=O)(=O)[O-])c8F)c8ccc5[nH]8)C=C7)C=C6)cc4)c(C)c3C2=O)cc1
REMARK SMILES IDX 21 1 20 2 19 3 18 4 16 5 17 6 15 8 9 9 10 10 11 11 92 12
REMARK SMILES IDX 12 13 91 14 93 15 13 16 89 17 14 18 90 19 8 20 5 21 6 22
REMARK SMILES IDX 95 23 7 24 94 25 4 26 1 27 2 28 3 29 22 31 23 32 24 33 25 35
REMARK SMILES IDX 26 36 27 37 88 38 28 39 87 40 29 41 30 42 31 43 81 44 32 45
REMARK SMILES IDX 86 46 80 47 82 48 33 49 85 50 79 51 78 52 34 54 66 55 46 56
REMARK SMILES IDX 65 57 47 58 50 59 64 60 83 61 48 62 49 63 63 65 84 66 51 67
REMARK SMILES IDX 35 68 36 69 44 70 37 71 39 72 45 73 38 74 40 75 41 76 42 77
REMARK SMILES IDX 43 78 67 79 68 80 76 81 69 82 71 83 77 84 70 85 72 86 73 87
REMARK SMILES IDX 74 88 75 89 52 90 53 91 61 92 54 93 56 94 62 95 55 96 57 97
REMARK SMILES IDX 58 98 59 99 60 100
REMARK H PARENT 18 7 4 30 23 34 82 53 50 64
REMARK Flexibility Score: inf
ROOT
ATOM      1  C   UNL     1       5.265  14.337   5.709  1.00  0.00     0.023 C 
ENDROOT
BRANCH   1   2
ATOM      2  C   UNL     1       5.244  12.900   5.163  1.00  0.00     0.023 C 
BRANCH   2   3
ATOM      3  C   UNL     1       3.852  12.273   5.024  1.00  0.00     0.116 C 
BRANCH   3   4
ATOM      4  N   UNL     1       3.109  12.821   3.899  1.00  0.00    -0.349 N 
ATOM      5  C   UNL     1       2.791  12.315   2.654  1.00  0.00     0.287 C 
ATOM      6  O   UNL     1       2.150  13.070   1.918  1.00  0.00    -0.266 OA
ATOM      7  H   UNL     1       2.766  13.730   4.057  1.00  0.00     0.163 HD
BRANCH   5   8
ATOM      8  C   UNL     1       3.209  10.983   2.232  1.00  0.00     0.195 A 
ATOM      9  C   UNL     1       4.391   5.389   0.917  1.00  0.00     0.016 C 
ATOM     10  C   UNL     1       4.587   6.715   1.055  1.00  0.00     0.001 C 
ATOM     11  C   UNL     1       5.688   7.199   1.999  1.00  0.00     0.048 C 
ATOM     12  C   UNL     1       3.807   7.824   0.365  1.00  0.00     0.192 C 
ATOM     13  C   UNL     1       5.116   8.087   3.107  1.00  0.00     0.081 C 
ATOM     14  C   UNL     1       3.646   8.997   1.221  1.00  0.00     0.067 A 
ATOM     15  O   UNL     1       3.430   7.764  -0.790  1.00  0.00    -0.289 OA
ATOM     16  C   UNL     1       4.256   9.081   2.446  1.00  0.00     0.116 A 
ATOM     17  C   UNL     1       2.939  10.237   1.074  1.00  0.00     0.012 A 
ATOM     18  O   UNL     1       4.037  10.257   3.043  1.00  0.00    -0.455 OA
ATOM     19  C   UNL     1       2.090  10.618  -0.088  1.00  0.00     0.049 C 
BRANCH   9  20
ATOM     20  C   UNL     1       3.428   4.551   0.180  1.00  0.00    -0.025 A 
ATOM     21  C   UNL     1       1.626   2.720  -1.019  1.00  0.00     0.041 A 
ATOM     22  C   UNL     1       1.351   4.088  -1.001  1.00  0.00     0.027 A 
ATOM     23  C   UNL     1       2.826   2.271  -0.480  1.00  0.00     0.027 A 
ATOM     24  C   UNL     1       2.225   4.988  -0.373  1.00  0.00     0.010 A 
ATOM     25  C   UNL     1       3.716   3.177   0.106  1.00  0.00     0.010 A 
BRANCH  21  26
ATOM     26  N   UNL     1       0.695   1.871  -1.635  1.00  0.00    -0.326 N 
ATOM     27  C   UNL     1       0.868  -0.102  -0.132  1.00  0.00     0.114 C 
ATOM     28  C   UNL     1       0.415   0.551  -1.412  1.00  0.00     0.221 C 
ATOM     29  O   UNL     1      -0.269  -0.071  -2.227  1.00  0.00    -0.275 OA
ATOM     30  H   UNL     1       0.155   2.293  -2.342  1.00  0.00     0.169 HD
ENDBRANCH  21  26
ENDBRANCH   9  20
ENDBRANCH   5   8
ENDBRANCH   3   4
ENDBRANCH   2   3
ENDBRANCH   1   2
BRANCH   1  31
ATOM     31  C   UNL     1       4.695  14.502   7.117  1.00  0.00     0.116 C 
BRANCH  31  32
ATOM     32  N   UNL     1       5.442  13.751   8.124  1.00  0.00    -0.352 N 
ATOM     33  C   UNL     1       5.135  13.563   9.458  1.00  0.00     0.251 C 
ATOM     34  H   UNL     1       6.272  13.323   7.812  1.00  0.00     0.163 HD
ATOM     35  O   UNL     1       6.016  13.258  10.256  1.00  0.00    -0.269 OA
BRANCH  33  36
ATOM     36  C   UNL     1       3.743  13.732   9.917  1.00  0.00     0.039 A 
ATOM     37  C   UNL     1       3.464  14.350  11.140  1.00  0.00     0.014 A 
ATOM     38  C   UNL     1       2.708  13.266   9.108  1.00  0.00     0.014 A 
ATOM     39  C   UNL     1       2.136  14.577  11.497  1.00  0.00     0.010 A 
ATOM     40  C   UNL     1       1.404  13.596   9.402  1.00  0.00     0.010 A 
ATOM     41  C   UNL     1       1.108  14.222  10.609  1.00  0.00    -0.014 A 
BRANCH  41  42
ATOM     42  C   UNL     1      -0.266  14.655  10.860  1.00  0.00     0.031 A 
ATOM     43  C   UNL     1      -0.420  16.127  11.020  1.00  0.00     0.074 A 
ATOM     44  C   UNL     1      -1.338  13.844  10.725  1.00  0.00     0.049 A 
ATOM     45  N   UNL     1      -0.753  16.773  12.088  1.00  0.00    -0.248 NA
ATOM     46  C   UNL     1      -0.001  16.995   9.908  1.00  0.00     0.031 C 
ATOM     47  C   UNL     1      -1.349  12.454  10.254  1.00  0.00     0.029 A 
ATOM     48  N   UNL     1      -2.667  14.135  10.831  1.00  0.00    -0.354 N 
ATOM     49  C   UNL     1      -0.836  18.112  11.706  1.00  0.00     0.074 A 
ATOM     50  C   UNL     1      -0.143  18.206  10.450  1.00  0.00     0.031 C 
ATOM     51  C   UNL     1      -2.599  12.120   9.869  1.00  0.00     0.029 A 
ATOM     52  C   UNL     1      -3.500  13.202  10.215  1.00  0.00     0.049 A 
ATOM     53  H   UNL     1      -3.006  14.932  11.300  1.00  0.00     0.167 HD
ATOM     54  C   UNL     1      -1.711  18.962  12.315  1.00  0.00     0.034 A 
ATOM     55  C   UNL     1      -4.826  13.328   9.961  1.00  0.00     0.034 A 
ATOM     56  C   UNL     1      -2.209  18.389  13.544  1.00  0.00     0.049 A 
ATOM     57  C   UNL     1      -5.343  14.383  10.858  1.00  0.00     0.074 A 
ATOM     58  C   UNL     1      -1.646  17.914  14.711  1.00  0.00     0.029 A 
ATOM     59  N   UNL     1      -3.489  17.891  13.508  1.00  0.00    -0.354 N 
ATOM     60  N   UNL     1      -5.428  14.251  12.151  1.00  0.00    -0.248 NA
ATOM     61  C   UNL     1      -5.402  15.746  10.361  1.00  0.00     0.031 C 
ATOM     62  C   UNL     1      -2.454  16.799  15.084  1.00  0.00     0.029 A 
ATOM     63  C   UNL     1      -3.503  16.696  14.169  1.00  0.00     0.049 A 
ATOM     64  H   UNL     1      -4.263  18.322  13.078  1.00  0.00     0.167 HD
ATOM     65  C   UNL     1      -5.061  15.495  12.641  1.00  0.00     0.074 A 
ATOM     66  C   UNL     1      -5.200  16.404  11.505  1.00  0.00     0.031 C 
ATOM     67  C   UNL     1      -4.391  15.607  13.826  1.00  0.00     0.034 A 
BRANCH  54  68
ATOM     68  C   UNL     1      -2.459  20.104  11.639  1.00  0.00     0.023 A 
ATOM     69  C   UNL     1      -3.329  20.864  12.460  1.00  0.00     0.012 A 
ATOM     70  C   UNL     1      -2.593  20.286  10.244  1.00  0.00     0.148 A 
ATOM     71  C   UNL     1      -4.343  21.666  11.924  1.00  0.00     0.002 A 
ATOM     72  C   UNL     1      -3.554  21.143   9.715  1.00  0.00     0.091 A 
ATOM     73  F   UNL     1      -1.878  19.551   9.393  1.00  0.00    -0.205 F 
ATOM     74  C   UNL     1      -4.459  21.803  10.549  1.00  0.00     0.022 A 
BRANCH  72  75
ATOM     75  S   UNL     1      -3.719  21.403   7.943  1.00  0.00     0.127 S 
ATOM     76  O   UNL     1      -4.980  20.721   7.665  1.00  0.00    -0.237 OA
ATOM     77  O   UNL     1      -3.770  22.862   7.861  1.00  0.00    -0.237 OA
ATOM     78  O   UNL     1      -2.529  20.812   7.343  1.00  0.00    -0.744 OA
ENDBRANCH  72  75
ENDBRANCH  54  68
BRANCH  55  79
ATOM     79  C   UNL     1      -5.670  12.744   8.893  1.00  0.00     0.023 A 
ATOM     80  C   UNL     1      -7.071  12.711   9.054  1.00  0.00     0.012 A 
ATOM     81  C   UNL     1      -5.144  12.483   7.609  1.00  0.00     0.148 A 
ATOM     82  C   UNL     1      -7.921  12.476   7.966  1.00  0.00     0.002 A 
ATOM     83  C   UNL     1      -5.993  12.242   6.531  1.00  0.00     0.091 A 
ATOM     84  F   UNL     1      -3.821  12.569   7.423  1.00  0.00    -0.205 F 
ATOM     85  C   UNL     1      -7.382  12.251   6.703  1.00  0.00     0.022 A 
BRANCH  83  86
ATOM     86  S   UNL     1      -5.367  11.970   4.867  1.00  0.00     0.127 S 
ATOM     87  O   UNL     1      -6.149  10.811   4.433  1.00  0.00    -0.237 OA
ATOM     88  O   UNL     1      -5.714  13.226   4.208  1.00  0.00    -0.237 OA
ATOM     89  O   UNL     1      -3.942  11.706   5.021  1.00  0.00    -0.744 OA
ENDBRANCH  83  86
ENDBRANCH  55  79
BRANCH  67  90
ATOM     90  C   UNL     1      -4.359  14.409  14.742  1.00  0.00     0.023 A 
ATOM     91  C   UNL     1      -3.771  13.181  14.374  1.00  0.00     0.012 A 
ATOM     92  C   UNL     1      -4.789  14.585  16.068  1.00  0.00     0.148 A 
ATOM     93  C   UNL     1      -3.639  12.145  15.302  1.00  0.00     0.002 A 
ATOM     94  C   UNL     1      -4.607  13.573  17.001  1.00  0.00     0.091 A 
ATOM     95  F   UNL     1      -5.350  15.758  16.403  1.00  0.00    -0.205 F 
ATOM     96  C   UNL     1      -4.043  12.346  16.620  1.00  0.00     0.022 A 
BRANCH  94  97
ATOM     97  S   UNL     1      -4.982  13.830  18.736  1.00  0.00     0.127 S 
ATOM     98  O   UNL     1      -6.251  13.121  18.882  1.00  0.00    -0.237 OA
ATOM     99  O   UNL     1      -3.845  13.194  19.403  1.00  0.00    -0.237 OA
ATOM    100  O   UNL     1      -5.043  15.275  18.920  1.00  0.00    -0.744 OA
ENDBRANCH  94  97
ENDBRANCH  67  90
ENDBRANCH  41  42
ENDBRANCH  33  36
ENDBRANCH  31  32
ENDBRANCH   1  31
TORSDOF 16
