REMARK SMILES Cc1cc(N2CCC[C@H](C(=O)NCCCCNC(=O)c3ccc(-c4c5nc(c(-c6cccc(S(=O)(=O)[O-])c6F)c6ccc([nH]6)c(-c6cccc(S(=O)(=O)[O-])c6F)c6nc(c(-c7cccc(S(=O)(=O)[O-])c7F)c7ccc4[nH]7)C=C6)C=C5)cc3)C2)nc(C(C)C)n1
REMARK SMILES IDX 15 1 14 2 13 3 12 4 10 5 11 6 9 8 5 9 6 10 83 11 7 12 8 13
REMARK SMILES IDX 4 14 1 15 2 16 3 17 89 18 85 19 84 20 86 21 87 22 88 23
REMARK SMILES IDX 16 24 17 25 18 26 19 28 20 29 21 30 82 31 22 32 81 33 23 34
REMARK SMILES IDX 24 35 25 36 75 37 26 38 80 39 74 40 76 41 27 42 79 43 73 44
REMARK SMILES IDX 72 45 28 47 60 48 40 49 59 50 41 51 44 52 58 53 77 54 42 55
REMARK SMILES IDX 43 56 57 58 78 59 45 60 29 61 30 62 38 63 31 64 33 65 39 66
REMARK SMILES IDX 32 67 34 68 35 69 36 70 37 71 61 72 62 73 70 74 63 75 65 76
REMARK SMILES IDX 71 77 64 78 66 79 67 80 68 81 69 82 46 83 47 84 55 85 48 86
REMARK SMILES IDX 50 87 56 88 49 89 51 90 52 91 53 92 54 93
REMARK H PARENT 12 7 17 27 76 46 44 57
REMARK Flexibility Score: inf
ROOT
ATOM      1  C   UNL     1       6.544   0.134   0.521  1.00  0.00     0.023 C 
ENDROOT
BRANCH   1   2
ATOM      2  C   UNL     1       5.700  -1.132   0.405  1.00  0.00     0.023 C 
BRANCH   2   3
ATOM      3  C   UNL     1       4.473  -0.993  -0.492  1.00  0.00     0.116 C 
BRANCH   3   4
ATOM      4  N   UNL     1       4.665  -1.569  -1.804  1.00  0.00    -0.356 N 
ATOM      5  C   UNL     1       4.042  -2.604  -2.419  1.00  0.00     0.224 C 
ATOM      6  O   UNL     1       4.286  -2.763  -3.623  1.00  0.00    -0.275 OA
ATOM      7  H   UNL     1       5.367  -1.136  -2.342  1.00  0.00     0.163 HD
BRANCH   5   8
ATOM      8  C   UNL     1       3.075  -3.572  -1.731  1.00  0.00     0.098 C 
ATOM      9  N   UNL     1       1.569  -2.513  -0.100  1.00  0.00    -0.356 N 
ATOM     10  C   UNL     1       1.863  -3.418   0.990  1.00  0.00     0.118 C 
ATOM     11  C   UNL     1       1.699  -2.975  -1.470  1.00  0.00     0.131 C 
ATOM     12  C   UNL     1       3.281  -3.974   0.836  1.00  0.00     0.022 C 
ATOM     13  C   UNL     1       3.649  -4.411  -0.584  1.00  0.00     0.017 C 
BRANCH   9  14
ATOM     14  C   UNL     1       0.776  -1.403   0.093  1.00  0.00     0.132 A 
ATOM     15  C   UNL     1      -2.802  -0.300   0.121  1.00  0.00     0.067 C 
ATOM     16  C   UNL     1      -1.306  -0.311   0.163  1.00  0.00     0.043 A 
ATOM     17  C   UNL     1      -0.599  -1.497   0.133  1.00  0.00     0.070 A 
ATOM     18  N   UNL     1      -0.699   0.891   0.169  1.00  0.00    -0.238 NA
ATOM     19  C   UNL     1       0.645   0.894   0.136  1.00  0.00     0.133 A 
ATOM     20  N   UNL     1       1.401  -0.216   0.102  1.00  0.00    -0.216 NA
BRANCH  19  21
ATOM     21  C   UNL     1       1.367   2.220   0.049  1.00  0.00     0.051 C 
ATOM     22  C   UNL     1       1.047   2.923  -1.270  1.00  0.00     0.016 C 
ATOM     23  C   UNL     1       1.041   3.111   1.245  1.00  0.00     0.016 C 
ENDBRANCH  19  21
ENDBRANCH   9  14
ENDBRANCH   5   8
ENDBRANCH   3   4
ENDBRANCH   2   3
ENDBRANCH   1   2
BRANCH   1  24
ATOM     24  C   UNL     1       5.815   1.356   1.074  1.00  0.00     0.116 C 
BRANCH  24  25
ATOM     25  N   UNL     1       5.249   1.174   2.407  1.00  0.00    -0.352 N 
ATOM     26  C   UNL     1       5.067   2.146   3.368  1.00  0.00     0.251 C 
ATOM     27  H   UNL     1       4.967   0.262   2.645  1.00  0.00     0.163 HD
ATOM     28  O   UNL     1       4.641   1.872   4.485  1.00  0.00    -0.269 OA
BRANCH  26  29
ATOM     29  C   UNL     1       5.440   3.533   3.024  1.00  0.00     0.039 A 
ATOM     30  C   UNL     1       6.437   4.179   3.757  1.00  0.00     0.014 A 
ATOM     31  C   UNL     1       4.891   4.126   1.885  1.00  0.00     0.014 A 
ATOM     32  C   UNL     1       6.950   5.393   3.292  1.00  0.00     0.010 A 
ATOM     33  C   UNL     1       5.449   5.296   1.389  1.00  0.00     0.010 A 
ATOM     34  C   UNL     1       6.491   5.935   2.081  1.00  0.00    -0.014 A 
BRANCH  34  35
ATOM     35  C   UNL     1       7.082   7.160   1.487  1.00  0.00     0.031 A 
ATOM     36  C   UNL     1       6.219   8.374   1.290  1.00  0.00     0.074 A 
ATOM     37  C   UNL     1       8.338   7.130   0.997  1.00  0.00     0.049 A 
ATOM     38  N   UNL     1       6.483   9.479   0.645  1.00  0.00    -0.248 NA
ATOM     39  C   UNL     1       4.861   8.320   1.859  1.00  0.00     0.031 C 
ATOM     40  C   UNL     1       9.245   5.982   1.053  1.00  0.00     0.029 A 
ATOM     41  N   UNL     1       9.054   8.083   0.314  1.00  0.00    -0.354 N 
ATOM     42  C   UNL     1       5.312  10.226   0.682  1.00  0.00     0.074 A 
ATOM     43  C   UNL     1       4.328   9.439   1.391  1.00  0.00     0.031 C 
ATOM     44  C   UNL     1      10.392   6.295   0.427  1.00  0.00     0.029 A 
ATOM     45  C   UNL     1      10.294   7.652  -0.099  1.00  0.00     0.049 A 
ATOM     46  H   UNL     1       8.712   8.989   0.137  1.00  0.00     0.167 HD
ATOM     47  C   UNL     1       5.085  11.468   0.195  1.00  0.00     0.034 A 
ATOM     48  C   UNL     1      11.240   8.280  -0.826  1.00  0.00     0.034 A 
ATOM     49  C   UNL     1       6.088  12.274  -0.444  1.00  0.00     0.049 A 
ATOM     50  C   UNL     1      10.992   9.695  -1.280  1.00  0.00     0.074 A 
ATOM     51  C   UNL     1       5.988  13.579  -0.889  1.00  0.00     0.029 A 
ATOM     52  N   UNL     1       7.380  11.853  -0.716  1.00  0.00    -0.354 N 
ATOM     53  N   UNL     1       9.929  10.441  -1.104  1.00  0.00    -0.248 NA
ATOM     54  C   UNL     1      12.085  10.368  -1.999  1.00  0.00     0.031 C 
ATOM     55  C   UNL     1       7.223  13.950  -1.430  1.00  0.00     0.029 A 
ATOM     56  C   UNL     1       8.093  12.877  -1.313  1.00  0.00     0.049 A 
ATOM     57  H   UNL     1       7.738  10.959  -0.514  1.00  0.00     0.167 HD
ATOM     58  C   UNL     1      10.240  11.683  -1.645  1.00  0.00     0.074 A 
ATOM     59  C   UNL     1      11.595  11.592  -2.151  1.00  0.00     0.031 C 
ATOM     60  C   UNL     1       9.469  12.794  -1.730  1.00  0.00     0.034 A 
BRANCH  47  61
ATOM     61  C   UNL     1       3.717  12.059   0.402  1.00  0.00     0.023 A 
ATOM     62  C   UNL     1       3.334  12.476   1.693  1.00  0.00     0.012 A 
ATOM     63  C   UNL     1       2.832  12.247  -0.677  1.00  0.00     0.148 A 
ATOM     64  C   UNL     1       2.078  13.037   1.915  1.00  0.00     0.002 A 
ATOM     65  C   UNL     1       1.597  12.847  -0.455  1.00  0.00     0.091 A 
ATOM     66  F   UNL     1       3.202  11.822  -1.893  1.00  0.00    -0.205 F 
ATOM     67  C   UNL     1       1.214  13.232   0.841  1.00  0.00     0.022 A 
BRANCH  65  68
ATOM     68  S   UNL     1       0.449  13.210  -1.788  1.00  0.00     0.127 S 
ATOM     69  O   UNL     1      -0.555  12.163  -1.608  1.00  0.00    -0.237 OA
ATOM     70  O   UNL     1      -0.008  14.558  -1.447  1.00  0.00    -0.237 OA
ATOM     71  O   UNL     1       1.229  13.131  -3.015  1.00  0.00    -0.744 OA
ENDBRANCH  65  68
ENDBRANCH  47  61
BRANCH  48  72
ATOM     72  C   UNL     1      12.546   7.611  -1.087  1.00  0.00     0.023 A 
ATOM     73  C   UNL     1      13.694   8.065  -0.407  1.00  0.00     0.012 A 
ATOM     74  C   UNL     1      12.659   6.517  -1.966  1.00  0.00     0.148 A 
ATOM     75  C   UNL     1      14.934   7.463  -0.620  1.00  0.00     0.002 A 
ATOM     76  C   UNL     1      13.889   5.890  -2.137  1.00  0.00     0.091 A 
ATOM     77  F   UNL     1      11.560   6.106  -2.615  1.00  0.00    -0.205 F 
ATOM     78  C   UNL     1      15.031   6.371  -1.477  1.00  0.00     0.022 A 
BRANCH  76  79
ATOM     79  S   UNL     1      14.078   4.399  -3.123  1.00  0.00     0.127 S 
ATOM     80  O   UNL     1      14.722   4.915  -4.327  1.00  0.00    -0.237 OA
ATOM     81  O   UNL     1      14.935   3.575  -2.270  1.00  0.00    -0.237 OA
ATOM     82  O   UNL     1      12.729   3.876  -3.295  1.00  0.00    -0.744 OA
ENDBRANCH  76  79
ENDBRANCH  48  72
BRANCH  60  83
ATOM     83  C   UNL     1      10.073  14.032  -2.334  1.00  0.00     0.023 A 
ATOM     84  C   UNL     1      10.211  14.131  -3.731  1.00  0.00     0.012 A 
ATOM     85  C   UNL     1      10.387  15.140  -1.523  1.00  0.00     0.148 A 
ATOM     86  C   UNL     1      10.665  15.314  -4.313  1.00  0.00     0.002 A 
ATOM     87  C   UNL     1      10.799  16.329  -2.112  1.00  0.00     0.091 A 
ATOM     88  F   UNL     1      10.266  15.015  -0.193  1.00  0.00    -0.205 F 
ATOM     89  C   UNL     1      10.945  16.415  -3.507  1.00  0.00     0.022 A 
BRANCH  87  90
ATOM     90  S   UNL     1      11.088  17.825  -1.160  1.00  0.00     0.127 S 
ATOM     91  O   UNL     1      12.546  17.921  -1.193  1.00  0.00    -0.237 OA
ATOM     92  O   UNL     1      10.391  18.839  -1.953  1.00  0.00    -0.237 OA
ATOM     93  O   UNL     1      10.506  17.583   0.153  1.00  0.00    -0.744 OA
ENDBRANCH  87  90
ENDBRANCH  60  83
ENDBRANCH  34  35
ENDBRANCH  26  29
ENDBRANCH  24  25
ENDBRANCH   1  24
TORSDOF 16
