REMARK SMILES [NH3+]C[C@H]1CC[C@@H](C(=O)N[C@@H]2C=C[C@@H](C(=O)NCCCCNC(=O)c3ccc(-c4c5nc(c(-c6cccc(S(=O)(=O)[O-])c6F)c6ccc([nH]6)c(-c6cccc(S(=O)(=O)[O-])c6F)c6nc(c(-c7cccc(S(=O)(=O)[O-])c7F)c7ccc4[nH]7)C=C6)C=C5)cc3)C2)CC1
REMARK SMILES IDX 18 1 17 2 16 3 14 4 15 5 13 7 10 8 11 9 87 10 12 11 9 12
REMARK SMILES IDX 7 13 8 14 6 16 3 17 4 18 89 19 5 20 88 21 2 22 1 23 19 27
REMARK SMILES IDX 20 28 21 29 22 30 23 32 24 33 25 34 86 35 26 36 85 37 27 38
REMARK SMILES IDX 28 39 29 40 79 41 30 42 84 43 78 44 80 45 31 46 83 47 77 48
REMARK SMILES IDX 76 49 32 51 64 52 44 53 63 54 45 55 48 56 62 57 81 58 46 59
REMARK SMILES IDX 47 60 61 62 82 63 49 64 33 65 34 66 42 67 35 68 37 69 43 70
REMARK SMILES IDX 36 71 38 72 39 73 40 74 41 75 65 76 66 77 74 78 67 79 69 80
REMARK SMILES IDX 75 81 68 82 70 83 71 84 72 85 73 86 50 87 51 88 59 89 52 90
REMARK SMILES IDX 54 91 60 92 53 93 55 94 56 95 57 96 58 97
REMARK H PARENT 16 6 9 15 1 24 1 25 1 26 21 31 80 50 48 61
REMARK Flexibility Score: inf
ROOT
ATOM      1  C   UNL     1      -2.411  -2.823   4.142  1.00  0.00     0.023 C 
ENDROOT
BRANCH   1   2
ATOM      2  C   UNL     1      -1.920  -1.423   3.732  1.00  0.00     0.116 C 
BRANCH   2   3
ATOM      3  N   UNL     1      -0.459  -1.198   3.806  1.00  0.00    -0.356 N 
ATOM      4  C   UNL     1       0.598  -0.870   3.006  1.00  0.00     0.227 C 
ATOM      5  O   UNL     1       1.588  -0.509   3.670  1.00  0.00    -0.274 OA
ATOM      6  H   UNL     1      -0.149  -1.326   4.732  1.00  0.00     0.163 HD
BRANCH   4   7
ATOM      7  C   UNL     1       0.818  -0.903   1.387  1.00  0.00     0.103 C 
ATOM      8  C   UNL     1       0.162  -2.829  -1.185  1.00  0.00     0.106 C 
ATOM      9  C   UNL     1      -0.855  -1.352  -1.099  1.00  0.00    -0.006 C 
ATOM     10  C   UNL     1       1.330  -2.610   0.441  1.00  0.00     0.047 C 
ATOM     11  C   UNL     1      -0.532  -0.133   0.141  1.00  0.00    -0.016 C 
BRANCH   8  12
ATOM     12  N   UNL     1       0.317  -2.508  -2.696  1.00  0.00    -0.350 N 
ATOM     13  C   UNL     1      -0.408  -1.473  -3.454  1.00  0.00     0.223 C 
ATOM     14  O   UNL     1      -0.617  -1.658  -4.655  1.00  0.00    -0.275 OA
ATOM     15  H   UNL     1       0.965  -3.052  -3.199  1.00  0.00     0.164 HD
BRANCH  13  16
ATOM     16  C   UNL     1      -0.918   0.006  -2.680  1.00  0.00     0.078 C 
ATOM     17  C   UNL     1      -0.688  -1.988   0.581  1.00  0.00     0.044 C 
ATOM     18  C   UNL     1       0.945  -1.032  -0.629  1.00  0.00     0.010 C 
ATOM     19  C   UNL     1      -2.490  -1.208   0.046  1.00  0.00     0.010 C 
ATOM     20  C   UNL     1       0.525   0.262  -1.925  1.00  0.00     0.014 C 
ATOM     21  C   UNL     1      -2.437   0.015  -1.494  1.00  0.00     0.014 C 
BRANCH  17  22
ATOM     22  C   UNL     1      -0.999  -3.506   1.169  1.00  0.00     0.262 C 
BRANCH  22  23
ATOM     23  N   UNL     1      -0.290  -3.932   2.374  1.00  0.00    -0.357 N 
ATOM     24  H   UNL     1      -0.577  -4.880   2.620  1.00  0.00     0.344 HD
ATOM     25  H   UNL     1      -0.513  -3.299   3.142  1.00  0.00     0.344 HD
ATOM     26  H   UNL     1       0.715  -3.916   2.201  1.00  0.00     0.344 HD
ENDBRANCH  22  23
ENDBRANCH  17  22
ENDBRANCH  13  16
ENDBRANCH   8  12
ENDBRANCH   4   7
ENDBRANCH   2   3
ENDBRANCH   1   2
BRANCH   1  27
ATOM     27  C   UNL     1      -2.479  -3.122   5.625  1.00  0.00     0.023 C 
BRANCH  27  28
ATOM     28  C   UNL     1      -3.693  -2.510   6.275  1.00  0.00     0.116 C 
BRANCH  28  29
ATOM     29  N   UNL     1      -4.948  -2.848   5.593  1.00  0.00    -0.352 N 
ATOM     30  C   UNL     1      -6.181  -3.053   6.157  1.00  0.00     0.251 C 
ATOM     31  H   UNL     1      -4.899  -2.938   4.614  1.00  0.00     0.163 HD
ATOM     32  O   UNL     1      -7.136  -3.441   5.498  1.00  0.00    -0.269 OA
BRANCH  30  33
ATOM     33  C   UNL     1      -6.282  -2.808   7.598  1.00  0.00     0.039 A 
ATOM     34  C   UNL     1      -6.695  -3.838   8.437  1.00  0.00     0.014 A 
ATOM     35  C   UNL     1      -5.749  -1.617   8.095  1.00  0.00     0.014 A 
ATOM     36  C   UNL     1      -6.525  -3.681   9.807  1.00  0.00     0.010 A 
ATOM     37  C   UNL     1      -5.430  -1.540   9.433  1.00  0.00     0.010 A 
ATOM     38  C   UNL     1      -5.862  -2.546  10.306  1.00  0.00    -0.014 A 
BRANCH  38  39
ATOM     39  C   UNL     1      -5.673  -2.346  11.754  1.00  0.00     0.031 A 
ATOM     40  C   UNL     1      -6.283  -1.135  12.403  1.00  0.00     0.074 A 
ATOM     41  C   UNL     1      -4.912  -3.209  12.453  1.00  0.00     0.049 A 
ATOM     42  N   UNL     1      -6.229  -0.758  13.651  1.00  0.00    -0.248 NA
ATOM     43  C   UNL     1      -7.014  -0.195  11.529  1.00  0.00     0.031 C 
ATOM     44  C   UNL     1      -4.192  -4.357  11.893  1.00  0.00     0.029 A 
ATOM     45  N   UNL     1      -4.611  -3.248  13.787  1.00  0.00    -0.354 N 
ATOM     46  C   UNL     1      -6.877   0.469  13.698  1.00  0.00     0.074 A 
ATOM     47  C   UNL     1      -7.253   0.814  12.349  1.00  0.00     0.031 C 
ATOM     48  C   UNL     1      -3.560  -5.005  12.885  1.00  0.00     0.029 A 
ATOM     49  C   UNL     1      -3.804  -4.303  14.139  1.00  0.00     0.049 A 
ATOM     50  H   UNL     1      -4.941  -2.583  14.434  1.00  0.00     0.167 HD
ATOM     51  C   UNL     1      -7.180   1.221  14.778  1.00  0.00     0.034 A 
ATOM     52  C   UNL     1      -3.325  -4.659  15.346  1.00  0.00     0.034 A 
ATOM     53  C   UNL     1      -6.851   0.835  16.119  1.00  0.00     0.049 A 
ATOM     54  C   UNL     1      -3.724  -3.836  16.541  1.00  0.00     0.074 A 
ATOM     55  C   UNL     1      -7.185   1.463  17.302  1.00  0.00     0.029 A 
ATOM     56  N   UNL     1      -6.102  -0.285  16.450  1.00  0.00    -0.354 N 
ATOM     57  N   UNL     1      -4.480  -2.765  16.591  1.00  0.00    -0.248 NA
ATOM     58  C   UNL     1      -3.238  -4.292  17.850  1.00  0.00     0.031 C 
ATOM     59  C   UNL     1      -6.607   0.741  18.350  1.00  0.00     0.029 A 
ATOM     60  C   UNL     1      -5.950  -0.360  17.820  1.00  0.00     0.049 A 
ATOM     61  H   UNL     1      -5.734  -0.930  15.803  1.00  0.00     0.167 HD
ATOM     62  C   UNL     1      -4.589  -2.438  17.937  1.00  0.00     0.074 A 
ATOM     63  C   UNL     1      -3.842  -3.442  18.669  1.00  0.00     0.031 C 
ATOM     64  C   UNL     1      -5.236  -1.397  18.519  1.00  0.00     0.034 A 
BRANCH  51  65
ATOM     65  C   UNL     1      -7.939   2.500  14.547  1.00  0.00     0.023 A 
ATOM     66  C   UNL     1      -9.279   2.454  14.105  1.00  0.00     0.012 A 
ATOM     67  C   UNL     1      -7.335   3.747  14.792  1.00  0.00     0.148 A 
ATOM     68  C   UNL     1      -9.991   3.628  13.871  1.00  0.00     0.002 A 
ATOM     69  C   UNL     1      -8.069   4.912  14.609  1.00  0.00     0.091 A 
ATOM     70  F   UNL     1      -6.053   3.771  15.181  1.00  0.00    -0.205 F 
ATOM     71  C   UNL     1      -9.391   4.856  14.135  1.00  0.00     0.022 A 
BRANCH  69  72
ATOM     72  S   UNL     1      -7.416   6.537  14.999  1.00  0.00     0.127 S 
ATOM     73  O   UNL     1      -7.317   7.142  13.671  1.00  0.00    -0.237 OA
ATOM     74  O   UNL     1      -8.471   7.094  15.846  1.00  0.00    -0.237 OA
ATOM     75  O   UNL     1      -6.147   6.311  15.675  1.00  0.00    -0.744 OA
ENDBRANCH  69  72
ENDBRANCH  51  65
BRANCH  52  76
ATOM     76  C   UNL     1      -2.483  -5.879  15.488  1.00  0.00     0.023 A 
ATOM     77  C   UNL     1      -2.995  -7.006  16.160  1.00  0.00     0.012 A 
ATOM     78  C   UNL     1      -1.188  -5.937  14.939  1.00  0.00     0.148 A 
ATOM     79  C   UNL     1      -2.218  -8.155  16.317  1.00  0.00     0.002 A 
ATOM     80  C   UNL     1      -0.441  -7.104  15.049  1.00  0.00     0.091 A 
ATOM     81  F   UNL     1      -0.717  -4.853  14.306  1.00  0.00    -0.205 F 
ATOM     82  C   UNL     1      -0.946  -8.207  15.755  1.00  0.00     0.022 A 
BRANCH  80  83
ATOM     83  S   UNL     1       1.153  -7.306  14.246  1.00  0.00     0.127 S 
ATOM     84  O   UNL     1       2.061  -7.342  15.389  1.00  0.00    -0.237 OA
ATOM     85  O   UNL     1       0.981  -8.585  13.554  1.00  0.00    -0.237 OA
ATOM     86  O   UNL     1       1.296  -6.159  13.360  1.00  0.00    -0.744 OA
ENDBRANCH  80  83
ENDBRANCH  52  76
BRANCH  64  87
ATOM     87  C   UNL     1      -5.197  -1.311  20.020  1.00  0.00     0.023 A 
ATOM     88  C   UNL     1      -4.002  -0.959  20.675  1.00  0.00     0.012 A 
ATOM     89  C   UNL     1      -6.372  -1.506  20.773  1.00  0.00     0.148 A 
ATOM     90  C   UNL     1      -3.966  -0.839  22.063  1.00  0.00     0.002 A 
ATOM     91  C   UNL     1      -6.342  -1.328  22.149  1.00  0.00     0.091 A 
ATOM     92  F   UNL     1      -7.495  -1.854  20.128  1.00  0.00    -0.205 F 
ATOM     93  C   UNL     1      -5.138  -1.011  22.797  1.00  0.00     0.022 A 
BRANCH  91  94
ATOM     94  S   UNL     1      -7.822  -1.423  23.161  1.00  0.00     0.127 S 
ATOM     95  O   UNL     1      -7.602  -2.671  23.891  1.00  0.00    -0.237 OA
ATOM     96  O   UNL     1      -7.716  -0.212  23.976  1.00  0.00    -0.237 OA
ATOM     97  O   UNL     1      -8.945  -1.432  22.234  1.00  0.00    -0.744 OA
ENDBRANCH  91  94
ENDBRANCH  64  87
ENDBRANCH  38  39
ENDBRANCH  30  33
ENDBRANCH  28  29
ENDBRANCH  27  28
ENDBRANCH   1  27
TORSDOF 18
