REMARK SMILES Cc1cc(C)c(NS(=O)(=O)c2cccc3cc(C)cnc23)c(C(=O)NCCCCNC(=O)c2ccc(-c3c4nc(c(-c5cccc(S(=O)(=O)[O-])c5F)c5ccc([nH]5)c(-c5cccc(S(=O)(=O)[O-])c5F)c5nc(c(-c6cccc(S(=O)(=O)[O-])c6F)c6ccc3[nH]6)C=C5)C=C4)cc2)c1
REMARK SMILES IDX 27 1 26 2 25 3 23 4 24 5 22 7 1 8 2 9 3 10 96 11 4 12 5 13
REMARK SMILES IDX 6 14 7 15 8 17 9 18 10 19 11 20 12 21 21 22 13 23 15 24
REMARK SMILES IDX 20 25 14 26 16 27 19 28 17 29 18 30 28 31 29 32 30 33 31 34
REMARK SMILES IDX 32 36 33 37 34 38 95 39 35 40 94 41 36 42 37 43 38 44 88 45
REMARK SMILES IDX 39 46 93 47 87 48 89 49 40 50 92 51 86 52 85 53 41 55 73 56
REMARK SMILES IDX 53 57 72 58 54 59 57 60 71 61 90 62 55 63 56 64 70 66 91 67
REMARK SMILES IDX 58 68 42 69 43 70 51 71 44 72 46 73 52 74 45 75 47 76 48 77
REMARK SMILES IDX 49 78 50 79 74 80 75 81 83 82 76 83 78 84 84 85 77 86 79 87
REMARK SMILES IDX 80 88 81 89 82 90 59 91 60 92 68 93 61 94 63 95 69 96 62 97
REMARK SMILES IDX 64 98 65 99 66 100 67 101
REMARK H PARENT 25 6 7 16 30 35 89 54 57 65
REMARK Flexibility Score: inf
ROOT
ATOM      1  C   UNL     1       3.182  -3.685   0.930  1.00  0.00     0.023 C 
ENDROOT
BRANCH   1   2
ATOM      2  C   UNL     1       2.120  -3.824  -0.164  1.00  0.00     0.116 C 
BRANCH   2   3
ATOM      3  N   UNL     1       0.801  -3.894   0.444  1.00  0.00    -0.352 N 
ATOM      4  C   UNL     1      -0.161  -2.935   0.658  1.00  0.00     0.253 C 
ATOM      5  O   UNL     1      -1.182  -3.258   1.264  1.00  0.00    -0.269 OA
ATOM      6  H   UNL     1       0.552  -4.793   0.761  1.00  0.00     0.163 HD
BRANCH   4   7
ATOM      7  C   UNL     1      -0.057  -1.562   0.081  1.00  0.00     0.064 A 
ATOM      8  C   UNL     1       2.691   0.917  -0.740  1.00  0.00     0.044 C 
ATOM      9  C   UNL     1       1.345   0.259  -0.698  1.00  0.00    -0.050 A 
ATOM     10  C   UNL     1       0.267   0.721  -1.459  1.00  0.00     0.009 A 
ATOM     11  C   UNL     1       1.174  -0.899   0.057  1.00  0.00     0.019 A 
ATOM     12  C   UNL     1      -1.007   0.113  -1.385  1.00  0.00    -0.026 A 
ATOM     13  C   UNL     1      -2.077   0.624  -2.307  1.00  0.00     0.046 C 
ATOM     14  C   UNL     1      -1.206  -0.944  -0.480  1.00  0.00     0.065 A 
BRANCH  14  15
ATOM     15  N   UNL     1      -2.493  -1.506  -0.156  1.00  0.00    -0.278 N 
ATOM     16  H   UNL     1      -2.560  -2.487  -0.191  1.00  0.00     0.180 HD
BRANCH  15  17
ATOM     17  S   UNL     1      -3.893  -0.682   0.276  1.00  0.00     0.264 S 
ATOM     18  O   UNL     1      -4.732  -0.755  -0.911  1.00  0.00    -0.201 OA
ATOM     19  O   UNL     1      -4.376  -1.286   1.502  1.00  0.00    -0.201 OA
BRANCH  17  20
ATOM     20  C   UNL     1      -3.728   1.050   0.616  1.00  0.00     0.114 A 
ATOM     21  C   UNL     1      -4.821   1.838   0.183  1.00  0.00     0.024 A 
ATOM     22  C   UNL     1      -2.569   1.633   1.117  1.00  0.00     0.091 A 
ATOM     23  C   UNL     1      -4.726   3.219   0.131  1.00  0.00     0.002 A 
ATOM     24  C   UNL     1      -2.450   3.034   0.935  1.00  0.00     0.002 A 
ATOM     25  N   UNL     1      -1.572   0.941   1.707  1.00  0.00    -0.255 NA
ATOM     26  C   UNL     1      -3.520   3.812   0.462  1.00  0.00     0.010 A 
ATOM     27  C   UNL     1      -1.214   3.642   1.181  1.00  0.00     0.015 A 
ATOM     28  C   UNL     1      -0.403   1.572   1.972  1.00  0.00     0.115 A 
ATOM     29  C   UNL     1      -0.145   2.892   1.654  1.00  0.00    -0.032 A 
ATOM     30  C   UNL     1       1.223   3.482   1.756  1.00  0.00     0.046 C 
ENDBRANCH  17  20
ENDBRANCH  15  17
ENDBRANCH  14  15
ENDBRANCH   4   7
ENDBRANCH   2   3
ENDBRANCH   1   2
BRANCH   1  31
ATOM     31  C   UNL     1       3.671  -5.029   1.474  1.00  0.00     0.023 C 
BRANCH  31  32
ATOM     32  C   UNL     1       4.542  -5.814   0.500  1.00  0.00     0.116 C 
BRANCH  32  33
ATOM     33  N   UNL     1       5.773  -5.118   0.147  1.00  0.00    -0.352 N 
ATOM     34  C   UNL     1       6.997  -5.666  -0.151  1.00  0.00     0.251 C 
ATOM     35  H   UNL     1       5.721  -4.135   0.119  1.00  0.00     0.163 HD
ATOM     36  O   UNL     1       7.975  -4.946  -0.338  1.00  0.00    -0.269 OA
BRANCH  34  37
ATOM     37  C   UNL     1       7.124  -7.135  -0.196  1.00  0.00     0.039 A 
ATOM     38  C   UNL     1       8.091  -7.753   0.601  1.00  0.00     0.014 A 
ATOM     39  C   UNL     1       6.235  -7.896  -0.959  1.00  0.00     0.014 A 
ATOM     40  C   UNL     1       8.117  -9.146   0.688  1.00  0.00     0.010 A 
ATOM     41  C   UNL     1       6.221  -9.279  -0.817  1.00  0.00     0.010 A 
ATOM     42  C   UNL     1       7.158  -9.917   0.010  1.00  0.00    -0.014 A 
BRANCH  42  43
ATOM     43  C   UNL     1       7.101 -11.390   0.175  1.00  0.00     0.031 A 
ATOM     44  C   UNL     1       7.351 -12.293  -1.000  1.00  0.00     0.074 A 
ATOM     45  C   UNL     1       6.729 -11.910   1.362  1.00  0.00     0.049 A 
ATOM     46  N   UNL     1       7.303 -13.598  -1.060  1.00  0.00    -0.248 NA
ATOM     47  C   UNL     1       7.668 -11.646  -2.284  1.00  0.00     0.031 C 
ATOM     48  C   UNL     1       6.366 -11.134   2.550  1.00  0.00     0.029 A 
ATOM     49  N   UNL     1       6.566 -13.214   1.757  1.00  0.00    -0.354 N 
ATOM     50  C   UNL     1       7.548 -13.927  -2.387  1.00  0.00     0.074 A 
ATOM     51  C   UNL     1       7.710 -12.683  -3.108  1.00  0.00     0.031 C 
ATOM     52  C   UNL     1       6.029 -11.976   3.541  1.00  0.00     0.029 A 
ATOM     53  C   UNL     1       6.132 -13.349   3.055  1.00  0.00     0.049 A 
ATOM     54  H   UNL     1       6.743 -13.982   1.166  1.00  0.00     0.167 HD
ATOM     55  C   UNL     1       7.664 -15.153  -2.949  1.00  0.00     0.034 A 
ATOM     56  C   UNL     1       5.853 -14.454   3.774  1.00  0.00     0.034 A 
ATOM     57  C   UNL     1       7.558 -16.386  -2.218  1.00  0.00     0.049 A 
ATOM     58  C   UNL     1       6.054 -15.805   3.142  1.00  0.00     0.074 A 
ATOM     59  C   UNL     1       7.757 -17.676  -2.675  1.00  0.00     0.029 A 
ATOM     60  N   UNL     1       7.224 -16.482  -0.877  1.00  0.00    -0.354 N 
ATOM     61  N   UNL     1       6.463 -16.096   1.930  1.00  0.00    -0.248 NA
ATOM     62  C   UNL     1       5.795 -16.980   3.986  1.00  0.00     0.031 C 
ATOM     63  C   UNL     1       7.534 -18.555  -1.610  1.00  0.00     0.029 A 
ATOM     64  C   UNL     1       7.208 -17.810  -0.488  1.00  0.00     0.049 A 
ATOM     65  H   UNL     1       7.026 -15.719  -0.287  1.00  0.00     0.167 HD
ATOM     66  C   UNL     1       6.546 -17.482   1.878  1.00  0.00     0.074 A 
ATOM     67  C   UNL     1       6.164 -17.973   3.187  1.00  0.00     0.031 C 
ATOM     68  C   UNL     1       6.888 -18.279   0.836  1.00  0.00     0.034 A 
BRANCH  55  69
ATOM     69  C   UNL     1       7.995 -15.219  -4.416  1.00  0.00     0.023 A 
ATOM     70  C   UNL     1       9.294 -14.879  -4.846  1.00  0.00     0.012 A 
ATOM     71  C   UNL     1       7.049 -15.665  -5.359  1.00  0.00     0.148 A 
ATOM     72  C   UNL     1       9.640 -14.952  -6.194  1.00  0.00     0.002 A 
ATOM     73  C   UNL     1       7.413 -15.774  -6.697  1.00  0.00     0.091 A 
ATOM     74  F   UNL     1       5.812 -15.960  -4.936  1.00  0.00    -0.205 F 
ATOM     75  C   UNL     1       8.704 -15.409  -7.117  1.00  0.00     0.022 A 
BRANCH  73  76
ATOM     76  S   UNL     1       6.303 -16.421  -7.953  1.00  0.00     0.127 S 
ATOM     77  O   UNL     1       5.956 -15.209  -8.692  1.00  0.00    -0.237 OA
ATOM     78  O   UNL     1       7.168 -17.352  -8.680  1.00  0.00    -0.237 OA
ATOM     79  O   UNL     1       5.207 -17.052  -7.231  1.00  0.00    -0.744 OA
ENDBRANCH  73  76
ENDBRANCH  55  69
BRANCH  56  80
ATOM     80  C   UNL     1       5.441 -14.331   5.201  1.00  0.00     0.023 A 
ATOM     81  C   UNL     1       6.341 -14.720   6.212  1.00  0.00     0.012 A 
ATOM     82  C   UNL     1       4.185 -13.808   5.564  1.00  0.00     0.148 A 
ATOM     83  C   UNL     1       5.987 -14.622   7.558  1.00  0.00     0.002 A 
ATOM     84  C   UNL     1       3.859 -13.664   6.908  1.00  0.00     0.091 A 
ATOM     85  F   UNL     1       3.336 -13.456   4.588  1.00  0.00    -0.205 F 
ATOM     86  C   UNL     1       4.751 -14.085   7.906  1.00  0.00     0.022 A 
BRANCH  84  87
ATOM     87  S   UNL     1       2.344 -12.860   7.444  1.00  0.00     0.127 S 
ATOM     88  O   UNL     1       1.535 -13.999   7.868  1.00  0.00    -0.237 OA
ATOM     89  O   UNL     1       2.821 -12.003   8.531  1.00  0.00    -0.237 OA
ATOM     90  O   UNL     1       1.861 -12.131   6.279  1.00  0.00    -0.744 OA
ENDBRANCH  84  87
ENDBRANCH  56  80
BRANCH  68  91
ATOM     91  C   UNL     1       6.902 -19.766   1.067  1.00  0.00     0.023 A 
ATOM     92  C   UNL     1       5.684 -20.466   1.165  1.00  0.00     0.012 A 
ATOM     93  C   UNL     1       8.116 -20.479   1.103  1.00  0.00     0.148 A 
ATOM     94  C   UNL     1       5.674 -21.852   1.321  1.00  0.00     0.002 A 
ATOM     95  C   UNL     1       8.098 -21.864   1.213  1.00  0.00     0.091 A 
ATOM     96  F   UNL     1       9.265 -19.791   1.030  1.00  0.00    -0.205 F 
ATOM     97  C   UNL     1       6.879 -22.551   1.332  1.00  0.00     0.022 A 
BRANCH  95  98
ATOM     98  S   UNL     1       9.598 -22.851   1.140  1.00  0.00     0.127 S 
ATOM     99  O   UNL     1       9.783 -23.216   2.543  1.00  0.00    -0.237 OA
ATOM    100  O   UNL     1       9.203 -23.958   0.268  1.00  0.00    -0.237 OA
ATOM    101  O   UNL     1      10.621 -21.979   0.578  1.00  0.00    -0.744 OA
ENDBRANCH  95  98
ENDBRANCH  68  91
ENDBRANCH  42  43
ENDBRANCH  34  37
ENDBRANCH  32  33
ENDBRANCH  31  32
ENDBRANCH   1  31
TORSDOF 17
