REMARK SMILES O=C(NCCCCNC(=O)c1ccc2c(c1)[C@@H](C1CCOCC1)C(=O)N2)c1ccc(-c2c3nc(c(-c4cccc(S(=O)(=O)[O-])c4F)c4ccc([nH]4)c(-c4cccc(S(=O)(=O)[O-])c4F)c4nc(c(-c5cccc(S(=O)(=O)[O-])c5F)c5ccc2[nH]5)C=C4)C=C3)cc1
REMARK SMILES IDX 4 1 3 2 1 3 2 4 27 6 28 7 89 8 29 9 88 10 30 11 31 12 32 13
REMARK SMILES IDX 82 14 33 15 87 16 81 17 83 18 34 19 86 20 80 21 79 22 35 24
REMARK SMILES IDX 67 25 47 26 66 27 48 28 51 29 65 30 84 31 49 32 50 33 64 35
REMARK SMILES IDX 85 36 52 37 36 38 37 39 45 40 38 41 40 42 46 43 39 44 41 45
REMARK SMILES IDX 42 46 43 47 44 48 68 49 69 50 77 51 70 52 72 53 78 54 71 55
REMARK SMILES IDX 73 56 74 57 75 58 76 59 53 60 54 61 62 62 55 63 57 64 63 65
REMARK SMILES IDX 56 66 58 67 59 68 60 69 61 70 5 71 6 72 7 73 8 74 9 75 10 77
REMARK SMILES IDX 11 78 12 79 16 80 13 81 15 82 14 83 17 84 26 85 24 86 25 88
REMARK SMILES IDX 18 89 19 90 23 91 20 92 22 93 21 94
REMARK H PARENT 3 5 83 23 51 34 8 76 26 87
REMARK Flexibility Score: inf
ROOT
ATOM      1  C   UNL     1       4.620  -0.997  -0.637  1.00  0.00     0.116 C 
ENDROOT
BRANCH   1   2
ATOM      2  N   UNL     1       3.185  -0.757  -0.724  1.00  0.00    -0.352 N 
ATOM      3  O   UNL     1       1.184   0.113  -0.147  1.00  0.00    -0.269 OA
ATOM      4  C   UNL     1       2.405   0.140  -0.028  1.00  0.00     0.251 C 
ATOM      5  H   UNL     1       2.703  -1.318  -1.374  1.00  0.00     0.163 HD
BRANCH   4   6
ATOM      6  C   UNL     1       3.051   1.099   0.895  1.00  0.00     0.039 A 
ATOM      7  C   UNL     1       4.206   1.776   0.505  1.00  0.00     0.014 A 
ATOM      8  C   UNL     1       2.541   1.269   2.184  1.00  0.00     0.014 A 
ATOM      9  C   UNL     1       4.971   2.429   1.461  1.00  0.00     0.010 A 
ATOM     10  C   UNL     1       3.252   2.036   3.113  1.00  0.00     0.010 A 
ATOM     11  C   UNL     1       4.506   2.571   2.779  1.00  0.00    -0.014 A 
BRANCH  11  12
ATOM     12  C   UNL     1       5.344   3.306   3.764  1.00  0.00     0.031 A 
ATOM     13  C   UNL     1       5.850   2.643   5.020  1.00  0.00     0.074 A 
ATOM     14  C   UNL     1       5.681   4.584   3.498  1.00  0.00     0.049 A 
ATOM     15  N   UNL     1       6.639   3.130   5.944  1.00  0.00    -0.248 NA
ATOM     16  C   UNL     1       5.412   1.262   5.282  1.00  0.00     0.031 C 
ATOM     17  C   UNL     1       5.227   5.349   2.333  1.00  0.00     0.029 A 
ATOM     18  N   UNL     1       6.488   5.462   4.175  1.00  0.00    -0.354 N 
ATOM     19  C   UNL     1       6.751   2.143   6.917  1.00  0.00     0.074 A 
ATOM     20  C   UNL     1       5.943   1.027   6.474  1.00  0.00     0.031 C 
ATOM     21  C   UNL     1       5.795   6.562   2.352  1.00  0.00     0.029 A 
ATOM     22  C   UNL     1       6.597   6.689   3.562  1.00  0.00     0.049 A 
ATOM     23  H   UNL     1       6.945   5.237   5.017  1.00  0.00     0.167 HD
ATOM     24  C   UNL     1       7.467   2.159   8.068  1.00  0.00     0.034 A 
ATOM     25  C   UNL     1       7.253   7.803   3.937  1.00  0.00     0.034 A 
ATOM     26  C   UNL     1       8.295   3.260   8.490  1.00  0.00     0.049 A 
ATOM     27  C   UNL     1       8.050   7.783   5.209  1.00  0.00     0.074 A 
ATOM     28  C   UNL     1       9.113   3.343   9.604  1.00  0.00     0.029 A 
ATOM     29  N   UNL     1       8.399   4.474   7.829  1.00  0.00    -0.354 N 
ATOM     30  N   UNL     1       8.238   6.796   6.050  1.00  0.00    -0.248 NA
ATOM     31  C   UNL     1       8.751   9.023   5.567  1.00  0.00     0.031 C 
ATOM     32  C   UNL     1       9.677   4.623   9.639  1.00  0.00     0.029 A 
ATOM     33  C   UNL     1       9.253   5.319   8.519  1.00  0.00     0.049 A 
ATOM     34  H   UNL     1       7.934   4.703   6.992  1.00  0.00     0.167 HD
ATOM     35  C   UNL     1       9.113   7.281   7.014  1.00  0.00     0.074 A 
ATOM     36  C   UNL     1       9.431   8.644   6.640  1.00  0.00     0.031 C 
ATOM     37  C   UNL     1       9.601   6.657   8.113  1.00  0.00     0.034 A 
BRANCH  24  38
ATOM     38  C   UNL     1       7.401   0.944   8.961  1.00  0.00     0.023 A 
ATOM     39  C   UNL     1       8.023  -0.259   8.567  1.00  0.00     0.012 A 
ATOM     40  C   UNL     1       6.781   1.015  10.226  1.00  0.00     0.148 A 
ATOM     41  C   UNL     1       7.995  -1.380   9.398  1.00  0.00     0.002 A 
ATOM     42  C   UNL     1       6.800  -0.091  11.068  1.00  0.00     0.091 A 
ATOM     43  F   UNL     1       6.181   2.160  10.579  1.00  0.00    -0.205 F 
ATOM     44  C   UNL     1       7.394  -1.292  10.651  1.00  0.00     0.022 A 
BRANCH  42  45
ATOM     45  S   UNL     1       6.129  -0.052  12.734  1.00  0.00     0.127 S 
ATOM     46  O   UNL     1       4.954  -0.912  12.598  1.00  0.00    -0.237 OA
ATOM     47  O   UNL     1       7.220  -0.632  13.518  1.00  0.00    -0.237 OA
ATOM     48  O   UNL     1       5.849   1.347  13.024  1.00  0.00    -0.744 OA
ENDBRANCH  42  45
ENDBRANCH  24  38
BRANCH  25  49
ATOM     49  C   UNL     1       7.211   9.016   3.074  1.00  0.00     0.023 A 
ATOM     50  C   UNL     1       8.381   9.444   2.419  1.00  0.00     0.012 A 
ATOM     51  C   UNL     1       6.013   9.730   2.881  1.00  0.00     0.148 A 
ATOM     52  C   UNL     1       8.367  10.585   1.615  1.00  0.00     0.002 A 
ATOM     53  C   UNL     1       5.992  10.828   2.031  1.00  0.00     0.091 A 
ATOM     54  F   UNL     1       4.912   9.309   3.520  1.00  0.00    -0.205 F 
ATOM     55  C   UNL     1       7.171  11.270   1.414  1.00  0.00     0.022 A 
BRANCH  53  56
ATOM     56  S   UNL     1       4.473  11.686   1.606  1.00  0.00     0.127 S 
ATOM     57  O   UNL     1       4.667  12.977   2.262  1.00  0.00    -0.237 OA
ATOM     58  O   UNL     1       4.546  11.719   0.145  1.00  0.00    -0.237 OA
ATOM     59  O   UNL     1       3.393  10.864   2.136  1.00  0.00    -0.744 OA
ENDBRANCH  53  56
ENDBRANCH  25  49
BRANCH  37  60
ATOM     60  C   UNL     1      10.585   7.418   8.963  1.00  0.00     0.023 A 
ATOM     61  C   UNL     1      10.161   8.519   9.733  1.00  0.00     0.012 A 
ATOM     62  C   UNL     1      11.932   7.008   9.030  1.00  0.00     0.148 A 
ATOM     63  C   UNL     1      11.070   9.227  10.519  1.00  0.00     0.002 A 
ATOM     64  C   UNL     1      12.819   7.682   9.859  1.00  0.00     0.091 A 
ATOM     65  F   UNL     1      12.323   5.971   8.274  1.00  0.00    -0.205 F 
ATOM     66  C   UNL     1      12.395   8.802  10.591  1.00  0.00     0.022 A 
BRANCH  64  67
ATOM     67  S   UNL     1      14.515   7.141  10.090  1.00  0.00     0.127 S 
ATOM     68  O   UNL     1      15.258   8.164   9.357  1.00  0.00    -0.237 OA
ATOM     69  O   UNL     1      14.665   7.203  11.545  1.00  0.00    -0.237 OA
ATOM     70  O   UNL     1      14.587   5.796   9.534  1.00  0.00    -0.744 OA
ENDBRANCH  64  67
ENDBRANCH  37  60
ENDBRANCH  11  12
ENDBRANCH   4   6
ENDBRANCH   1   2
BRANCH   1  71
ATOM     71  C   UNL     1       4.973  -2.433  -0.278  1.00  0.00     0.023 C 
BRANCH  71  72
ATOM     72  C   UNL     1       4.513  -3.479  -1.285  1.00  0.00     0.023 C 
BRANCH  72  73
ATOM     73  C   UNL     1       4.938  -3.214  -2.724  1.00  0.00     0.116 C 
BRANCH  73  74
ATOM     74  N   UNL     1       6.383  -3.234  -2.901  1.00  0.00    -0.352 N 
ATOM     75  C   UNL     1       7.127  -4.016  -3.750  1.00  0.00     0.251 C 
ATOM     76  H   UNL     1       6.892  -2.606  -2.339  1.00  0.00     0.163 HD
ATOM     77  O   UNL     1       8.352  -4.024  -3.706  1.00  0.00    -0.269 OA
BRANCH  75  78
ATOM     78  C   UNL     1       6.421  -4.885  -4.711  1.00  0.00     0.040 A 
ATOM     79  C   UNL     1       5.490  -4.322  -5.611  1.00  0.00     0.016 A 
ATOM     80  C   UNL     1       6.653  -6.266  -4.659  1.00  0.00     0.020 A 
ATOM     81  C   UNL     1       4.701  -5.145  -6.411  1.00  0.00     0.027 A 
ATOM     82  C   UNL     1       5.870  -7.072  -5.466  1.00  0.00    -0.011 A 
ATOM     83  C   UNL     1       4.907  -6.504  -6.305  1.00  0.00     0.045 A 
ATOM     84  C   UNL     1       5.843  -8.575  -5.620  1.00  0.00     0.114 C 
ATOM     85  N   UNL     1       4.222  -7.497  -6.978  1.00  0.00    -0.325 N 
ATOM     86  C   UNL     1       4.698  -8.757  -6.649  1.00  0.00     0.232 C 
ATOM     87  H   UNL     1       3.487  -7.331  -7.611  1.00  0.00     0.169 HD
ATOM     88  O   UNL     1       4.289  -9.800  -7.136  1.00  0.00    -0.274 OA
BRANCH  84  89
ATOM     89  C   UNL     1       5.670  -9.361  -4.302  1.00  0.00     0.010 C 
ATOM     90  C   UNL     1       5.666 -10.882  -4.537  1.00  0.00     0.033 C 
ATOM     91  C   UNL     1       4.429  -8.958  -3.486  1.00  0.00     0.033 C 
ATOM     92  C   UNL     1       5.436 -11.648  -3.240  1.00  0.00     0.160 C 
ATOM     93  C   UNL     1       4.286  -9.836  -2.247  1.00  0.00     0.160 C 
ATOM     94  O   UNL     1       4.234 -11.214  -2.607  1.00  0.00    -0.381 OA
ENDBRANCH  84  89
ENDBRANCH  75  78
ENDBRANCH  73  74
ENDBRANCH  72  73
ENDBRANCH  71  72
ENDBRANCH   1  71
TORSDOF 15
