REMARK SMILES N#C/C(=C\c1ccc(-c2ccc(C(=O)NCCCCNC(=O)c3ccc(-c4c5nc(c(-c6cccc(S(=O)(=O)[O-])c6F)c6ccc([nH]6)c(-c6cccc(S(=O)(=O)[O-])c6F)c6nc(c(-c7cccc(S(=O)(=O)[O-])c7F)c7ccc4[nH]7)C=C6)C=C5)cc3)cc2)o1)[C@@H]1N=c2cc(Br)cnc2=N1
REMARK SMILES IDX 17 1 16 2 15 3 13 4 14 5 12 7 9 8 10 9 87 10 11 11 86 12
REMARK SMILES IDX 8 13 5 14 6 15 88 16 7 17 4 18 3 19 2 20 1 21 89 22 90 23
REMARK SMILES IDX 98 24 91 25 97 26 92 27 96 28 93 29 95 30 94 31 18 32 19 33
REMARK SMILES IDX 20 34 21 35 22 37 23 38 24 39 85 40 25 41 84 42 26 43 27 44
REMARK SMILES IDX 28 45 78 46 29 47 83 48 77 49 79 50 30 51 82 52 76 53 75 54
REMARK SMILES IDX 31 56 63 57 43 58 62 59 44 60 47 61 61 62 80 63 45 64 46 65
REMARK SMILES IDX 60 67 81 68 48 69 32 70 33 71 41 72 34 73 36 74 42 75 35 76
REMARK SMILES IDX 37 77 38 78 39 79 40 80 64 81 65 82 73 83 66 84 68 85 74 86
REMARK SMILES IDX 67 87 69 88 70 89 71 90 72 91 49 92 50 93 58 94 51 95 53 96
REMARK SMILES IDX 59 97 52 98 54 99 55 100 56 101 57 102
REMARK H PARENT 15 6 20 36 79 55 47 66
REMARK Flexibility Score: inf
ROOT
ATOM      1  C   UNL     1      -1.657  -4.624 -10.581  1.00  0.00     0.023 C 
ENDROOT
BRANCH   1   2
ATOM      2  C   UNL     1      -1.163  -3.305 -11.182  1.00  0.00     0.116 C 
BRANCH   2   3
ATOM      3  N   UNL     1      -2.082  -2.220 -10.889  1.00  0.00    -0.352 N 
ATOM      4  C   UNL     1      -2.059  -1.243  -9.923  1.00  0.00     0.251 C 
ATOM      5  O   UNL     1      -2.930  -0.375  -9.946  1.00  0.00    -0.269 OA
ATOM      6  H   UNL     1      -2.861  -2.176 -11.490  1.00  0.00     0.163 HD
BRANCH   4   7
ATOM      7  C   UNL     1      -0.993  -1.163  -8.886  1.00  0.00     0.039 A 
ATOM      8  C   UNL     1       1.085  -0.864  -7.019  1.00  0.00     0.017 A 
ATOM      9  C   UNL     1       0.390   0.259  -7.471  1.00  0.00     0.013 A 
ATOM     10  C   UNL     1       0.697  -2.133  -7.448  1.00  0.00     0.013 A 
ATOM     11  C   UNL     1      -0.642   0.109  -8.406  1.00  0.00     0.014 A 
ATOM     12  C   UNL     1      -0.354  -2.280  -8.349  1.00  0.00     0.014 A 
BRANCH   8  13
ATOM     13  C   UNL     1       2.241  -0.758  -6.164  1.00  0.00     0.134 A 
ATOM     14  C   UNL     1       3.221  -0.464  -4.206  1.00  0.00     0.128 A 
ATOM     15  C   UNL     1       4.197  -0.843  -5.124  1.00  0.00     0.051 A 
ATOM     16  O   UNL     1       2.013  -0.447  -4.863  1.00  0.00    -0.457 OA
ATOM     17  C   UNL     1       3.575  -1.002  -6.378  1.00  0.00     0.051 A 
BRANCH  14  18
ATOM     18  C   UNL     1       3.349  -0.124  -2.831  1.00  0.00     0.066 C 
ATOM     19  C   UNL     1       4.250   0.783  -2.402  1.00  0.00     0.080 C 
BRANCH  19  20
ATOM     20  C   UNL     1       5.117   1.498  -3.425  1.00  0.00     0.099 C 
ATOM     21  N   UNL     1       5.837   2.092  -4.273  1.00  0.00    -0.193 NA
ENDBRANCH  19  20
BRANCH  19  22
ATOM     22  C   UNL     1       4.394   1.166  -0.956  1.00  0.00     0.265 C 
ATOM     23  N   UNL     1       3.882   2.548  -0.738  1.00  0.00    -0.249 NA
ATOM     24  N   UNL     1       5.809   1.052  -0.518  1.00  0.00    -0.232 NA
ATOM     25  C   UNL     1       4.901   3.135  -0.219  1.00  0.00     0.106 A 
ATOM     26  C   UNL     1       6.069   2.236  -0.082  1.00  0.00     0.175 A 
ATOM     27  C   UNL     1       5.052   4.517   0.229  1.00  0.00     0.049 A 
ATOM     28  N   UNL     1       7.275   2.605   0.433  1.00  0.00    -0.234 NA
ATOM     29  C   UNL     1       6.246   4.868   0.725  1.00  0.00     0.038 A 
ATOM     30  C   UNL     1       7.341   3.847   0.799  1.00  0.00     0.129 A 
ATOM     31  Br  UNL     1       6.617   6.581   1.344  1.00  0.00    -0.049 Br
ENDBRANCH  19  22
ENDBRANCH  14  18
ENDBRANCH   8  13
ENDBRANCH   4   7
ENDBRANCH   2   3
ENDBRANCH   1   2
BRANCH   1  32
ATOM     32  C   UNL     1      -2.758  -5.316 -11.383  1.00  0.00     0.023 C 
BRANCH  32  33
ATOM     33  C   UNL     1      -2.338  -5.790 -12.769  1.00  0.00     0.116 C 
BRANCH  33  34
ATOM     34  N   UNL     1      -1.222  -6.724 -12.743  1.00  0.00    -0.352 N 
ATOM     35  C   UNL     1      -0.962  -7.763 -13.607  1.00  0.00     0.251 C 
ATOM     36  H   UNL     1      -0.571  -6.597 -12.016  1.00  0.00     0.163 HD
ATOM     37  O   UNL     1      -0.032  -8.528 -13.393  1.00  0.00    -0.269 OA
BRANCH  35  38
ATOM     38  C   UNL     1      -1.849  -7.965 -14.773  1.00  0.00     0.039 A 
ATOM     39  C   UNL     1      -2.384  -9.235 -14.999  1.00  0.00     0.014 A 
ATOM     40  C   UNL     1      -2.184  -6.896 -15.607  1.00  0.00     0.014 A 
ATOM     41  C   UNL     1      -3.311  -9.418 -16.026  1.00  0.00     0.010 A 
ATOM     42  C   UNL     1      -3.159  -7.065 -16.585  1.00  0.00     0.010 A 
ATOM     43  C   UNL     1      -3.731  -8.327 -16.805  1.00  0.00    -0.014 A 
BRANCH  43  44
ATOM     44  C   UNL     1      -4.784  -8.477 -17.840  1.00  0.00     0.031 A 
ATOM     45  C   UNL     1      -4.461  -8.229 -19.288  1.00  0.00     0.074 A 
ATOM     46  C   UNL     1      -6.053  -8.732 -17.464  1.00  0.00     0.049 A 
ATOM     47  N   UNL     1      -5.259  -8.248 -20.324  1.00  0.00    -0.248 NA
ATOM     48  C   UNL     1      -3.067  -7.883 -19.612  1.00  0.00     0.031 C 
ATOM     49  C   UNL     1      -6.508  -8.895 -16.081  1.00  0.00     0.029 A 
ATOM     50  N   UNL     1      -7.198  -8.864 -18.208  1.00  0.00    -0.354 N 
ATOM     51  C   UNL     1      -4.479  -7.877 -21.411  1.00  0.00     0.074 A 
ATOM     52  C   UNL     1      -3.149  -7.612 -20.907  1.00  0.00     0.031 C 
ATOM     53  C   UNL     1      -7.836  -9.098 -16.076  1.00  0.00     0.029 A 
ATOM     54  C   UNL     1      -8.329  -9.060 -17.449  1.00  0.00     0.049 A 
ATOM     55  H   UNL     1      -7.210  -8.821 -19.191  1.00  0.00     0.167 HD
ATOM     56  C   UNL     1      -4.829  -7.793 -22.716  1.00  0.00     0.034 A 
ATOM     57  C   UNL     1      -9.619  -9.188 -17.818  1.00  0.00     0.034 A 
ATOM     58  C   UNL     1      -6.136  -8.117 -23.221  1.00  0.00     0.049 A 
ATOM     59  C   UNL     1      -9.966  -9.167 -19.282  1.00  0.00     0.074 A 
ATOM     60  C   UNL     1      -6.558  -8.178 -24.537  1.00  0.00     0.029 A 
ATOM     61  N   UNL     1      -7.232  -8.431 -22.433  1.00  0.00    -0.354 N 
ATOM     62  N   UNL     1      -9.174  -9.003 -20.314  1.00  0.00    -0.248 NA
ATOM     63  C   UNL     1     -11.375  -9.390 -19.637  1.00  0.00     0.031 C 
ATOM     64  C   UNL     1      -7.916  -8.514 -24.544  1.00  0.00     0.029 A 
ATOM     65  C   UNL     1      -8.334  -8.678 -23.233  1.00  0.00     0.049 A 
ATOM     66  H   UNL     1      -7.228  -8.471 -21.449  1.00  0.00     0.167 HD
ATOM     67  C   UNL     1      -9.980  -9.135 -21.439  1.00  0.00     0.074 A 
ATOM     68  C   UNL     1     -11.319  -9.417 -20.962  1.00  0.00     0.031 C 
ATOM     69  C   UNL     1      -9.647  -9.017 -22.747  1.00  0.00     0.034 A 
BRANCH  56  70
ATOM     70  C   UNL     1      -3.765  -7.396 -23.705  1.00  0.00     0.023 A 
ATOM     71  C   UNL     1      -2.744  -8.312 -24.029  1.00  0.00     0.012 A 
ATOM     72  C   UNL     1      -3.812  -6.151 -24.362  1.00  0.00     0.148 A 
ATOM     73  C   UNL     1      -1.768  -7.985 -24.968  1.00  0.00     0.002 A 
ATOM     74  C   UNL     1      -2.860  -5.848 -25.328  1.00  0.00     0.091 A 
ATOM     75  F   UNL     1      -4.778  -5.285 -24.024  1.00  0.00    -0.205 F 
ATOM     76  C   UNL     1      -1.832  -6.759 -25.625  1.00  0.00     0.022 A 
BRANCH  74  77
ATOM     77  S   UNL     1      -2.900  -4.329 -26.285  1.00  0.00     0.127 S 
ATOM     78  O   UNL     1      -1.772  -3.593 -25.717  1.00  0.00    -0.237 OA
ATOM     79  O   UNL     1      -2.686  -4.816 -27.648  1.00  0.00    -0.237 OA
ATOM     80  O   UNL     1      -4.213  -3.743 -26.050  1.00  0.00    -0.744 OA
ENDBRANCH  74  77
ENDBRANCH  56  70
BRANCH  57  81
ATOM     81  C   UNL     1     -10.667  -9.425 -16.785  1.00  0.00     0.023 A 
ATOM     82  C   UNL     1     -11.272 -10.694 -16.695  1.00  0.00     0.012 A 
ATOM     83  C   UNL     1     -11.044  -8.418 -15.876  1.00  0.00     0.148 A 
ATOM     84  C   UNL     1     -12.257 -10.946 -15.739  1.00  0.00     0.002 A 
ATOM     85  C   UNL     1     -11.986  -8.693 -14.891  1.00  0.00     0.091 A 
ATOM     86  F   UNL     1     -10.467  -7.213 -15.986  1.00  0.00    -0.205 F 
ATOM     87  C   UNL     1     -12.606  -9.950 -14.831  1.00  0.00     0.022 A 
BRANCH  85  88
ATOM     88  S   UNL     1     -12.393  -7.511 -13.600  1.00  0.00     0.127 S 
ATOM     89  O   UNL     1     -13.702  -7.032 -14.034  1.00  0.00    -0.237 OA
ATOM     90  O   UNL     1     -12.411  -8.357 -12.406  1.00  0.00    -0.237 OA
ATOM     91  O   UNL     1     -11.315  -6.531 -13.620  1.00  0.00    -0.744 OA
ENDBRANCH  85  88
ENDBRANCH  57  81
BRANCH  69  92
ATOM     92  C   UNL     1     -10.734  -9.220 -23.768  1.00  0.00     0.023 A 
ATOM     93  C   UNL     1     -11.713  -8.224 -23.952  1.00  0.00     0.012 A 
ATOM     94  C   UNL     1     -10.736 -10.356 -24.602  1.00  0.00     0.148 A 
ATOM     95  C   UNL     1     -12.694  -8.368 -24.931  1.00  0.00     0.002 A 
ATOM     96  C   UNL     1     -11.690 -10.470 -25.607  1.00  0.00     0.091 A 
ATOM     97  F   UNL     1      -9.808 -11.302 -24.398  1.00  0.00    -0.205 F 
ATOM     98  C   UNL     1     -12.676  -9.483 -25.766  1.00  0.00     0.022 A 
BRANCH  96  99
ATOM     99  S   UNL     1     -11.681 -11.825 -26.787  1.00  0.00     0.127 S 
ATOM    100  O   UNL     1     -12.790 -12.647 -26.305  1.00  0.00    -0.237 OA
ATOM    101  O   UNL     1     -11.936 -11.139 -28.054  1.00  0.00    -0.237 OA
ATOM    102  O   UNL     1     -10.360 -12.432 -26.687  1.00  0.00    -0.744 OA
ENDBRANCH  96  99
ENDBRANCH  69  92
ENDBRANCH  43  44
ENDBRANCH  35  38
ENDBRANCH  33  34
ENDBRANCH  32  33
ENDBRANCH   1  32
TORSDOF 18
