REMARK SMILES CCOC(=O)c1cccc(NC(=O)CCC(=O)NCCCCNC(=O)c2ccc(-c3c4nc(c(-c5cccc(S(=O)(=O)[O-])c5F)c5ccc([nH]5)c(-c5cccc(S(=O)(=O)[O-])c5F)c5nc(c(-c6cccc(S(=O)(=O)[O-])c6F)c6ccc3[nH]6)C=C5)C=C4)cc2)c1
REMARK SMILES IDX 19 1 18 2 16 3 17 4 15 6 14 7 12 8 11 9 13 11 10 12 6 13
REMARK SMILES IDX 7 14 89 15 8 16 9 17 4 18 5 19 3 20 2 21 1 22 20 23 21 24
REMARK SMILES IDX 22 25 23 26 24 27 25 29 26 30 27 31 88 32 28 33 87 34 29 35
REMARK SMILES IDX 30 36 31 37 81 38 32 39 86 40 80 41 82 42 33 43 85 44 79 45
REMARK SMILES IDX 78 46 34 48 66 49 46 50 65 51 47 52 50 53 64 54 83 55 48 56
REMARK SMILES IDX 49 57 63 59 84 60 51 61 35 62 36 63 44 64 37 65 39 66 45 67
REMARK SMILES IDX 38 68 40 69 41 70 42 71 43 72 67 73 68 74 76 75 69 76 71 77
REMARK SMILES IDX 77 78 70 79 72 80 73 81 74 82 75 83 52 84 53 85 61 86 54 87
REMARK SMILES IDX 56 88 62 89 55 90 57 91 58 92 59 93 60 94
REMARK H PARENT 18 5 11 10 23 28 82 47 50 58
REMARK Flexibility Score: inf
ROOT
ATOM      1  C   UNL     1       2.897   7.942  -2.314  1.00  0.00     0.116 C 
ENDROOT
BRANCH   1   2
ATOM      2  N   UNL     1       3.793   6.826  -2.557  1.00  0.00    -0.356 N 
ATOM      3  C   UNL     1       4.678   6.625  -3.572  1.00  0.00     0.220 C 
ATOM      4  O   UNL     1       5.478   5.692  -3.494  1.00  0.00    -0.275 OA
ATOM      5  H   UNL     1       3.756   6.106  -1.887  1.00  0.00     0.163 HD
BRANCH   3   6
ATOM      6  C   UNL     1       4.674   7.531  -4.778  1.00  0.00     0.110 C 
BRANCH   6   7
ATOM      7  C   UNL     1       3.881   6.998  -5.965  1.00  0.00     0.110 C 
BRANCH   7   8
ATOM      8  C   UNL     1       2.407   6.757  -5.711  1.00  0.00     0.224 C 
ATOM      9  N   UNL     1       1.903   5.595  -5.200  1.00  0.00    -0.326 N 
ATOM     10  H   UNL     1       0.921   5.584  -5.125  1.00  0.00     0.169 HD
ATOM     11  O   UNL     1       1.612   7.687  -5.897  1.00  0.00    -0.275 OA
BRANCH   9  12
ATOM     12  C   UNL     1       2.520   4.411  -4.762  1.00  0.00     0.042 A 
ATOM     13  C   UNL     1       2.689   2.788  -2.969  1.00  0.00     0.062 A 
ATOM     14  C   UNL     1       3.881   2.306  -3.512  1.00  0.00     0.016 A 
ATOM     15  C   UNL     1       1.974   3.796  -3.627  1.00  0.00     0.041 A 
ATOM     16  C   UNL     1       4.340   2.813  -4.723  1.00  0.00     0.003 A 
ATOM     17  C   UNL     1       3.660   3.863  -5.344  1.00  0.00     0.026 A 
BRANCH  13  18
ATOM     18  C   UNL     1       2.309   2.327  -1.618  1.00  0.00     0.338 C 
ATOM     19  O   UNL     1       3.130   2.154  -0.733  1.00  0.00    -0.246 OA
BRANCH  18  20
ATOM     20  O   UNL     1       0.974   2.119  -1.546  1.00  0.00    -0.462 OA
BRANCH  20  21
ATOM     21  C   UNL     1       0.512   1.578  -0.293  1.00  0.00     0.230 C 
ATOM     22  C   UNL     1       0.800   0.088  -0.205  1.00  0.00     0.049 C 
ENDBRANCH  20  21
ENDBRANCH  18  20
ENDBRANCH  13  18
ENDBRANCH   9  12
ENDBRANCH   7   8
ENDBRANCH   6   7
ENDBRANCH   3   6
ENDBRANCH   1   2
BRANCH   1  23
ATOM     23  C   UNL     1       1.422   7.549  -2.304  1.00  0.00     0.023 C 
BRANCH  23  24
ATOM     24  C   UNL     1       1.049   6.479  -1.283  1.00  0.00     0.023 C 
BRANCH  24  25
ATOM     25  C   UNL     1       1.317   6.863   0.160  1.00  0.00     0.116 C 
BRANCH  25  26
ATOM     26  N   UNL     1       0.581   8.052   0.555  1.00  0.00    -0.352 N 
ATOM     27  C   UNL     1      -0.420   8.206   1.480  1.00  0.00     0.251 C 
ATOM     28  H   UNL     1       0.841   8.877   0.084  1.00  0.00     0.163 HD
ATOM     29  O   UNL     1      -1.063   9.253   1.498  1.00  0.00    -0.269 OA
BRANCH  27  30
ATOM     30  C   UNL     1      -0.729   7.127   2.445  1.00  0.00     0.039 A 
ATOM     31  C   UNL     1      -2.054   6.933   2.843  1.00  0.00     0.014 A 
ATOM     32  C   UNL     1       0.283   6.337   2.995  1.00  0.00     0.014 A 
ATOM     33  C   UNL     1      -2.359   5.936   3.772  1.00  0.00     0.010 A 
ATOM     34  C   UNL     1      -0.037   5.266   3.818  1.00  0.00     0.010 A 
ATOM     35  C   UNL     1      -1.353   5.086   4.259  1.00  0.00    -0.014 A 
BRANCH  35  36
ATOM     36  C   UNL     1      -1.642   4.053   5.284  1.00  0.00     0.031 A 
ATOM     37  C   UNL     1      -0.952   4.109   6.625  1.00  0.00     0.074 A 
ATOM     38  C   UNL     1      -2.464   3.029   4.989  1.00  0.00     0.049 A 
ATOM     39  N   UNL     1      -1.058   3.294   7.642  1.00  0.00    -0.248 NA
ATOM     40  C   UNL     1       0.019   5.197   6.836  1.00  0.00     0.031 C 
ATOM     41  C   UNL     1      -3.099   2.800   3.689  1.00  0.00     0.029 A 
ATOM     42  N   UNL     1      -2.893   1.978   5.758  1.00  0.00    -0.354 N 
ATOM     43  C   UNL     1      -0.132   3.736   8.581  1.00  0.00     0.074 A 
ATOM     44  C   UNL     1       0.562   4.859   7.995  1.00  0.00     0.031 C 
ATOM     45  C   UNL     1      -3.851   1.689   3.757  1.00  0.00     0.029 A 
ATOM     46  C   UNL     1      -3.743   1.122   5.098  1.00  0.00     0.049 A 
ATOM     47  H   UNL     1      -2.618   1.848   6.694  1.00  0.00     0.167 HD
ATOM     48  C   UNL     1       0.092   3.281   9.836  1.00  0.00     0.034 A 
ATOM     49  C   UNL     1      -4.377   0.016   5.533  1.00  0.00     0.034 A 
ATOM     50  C   UNL     1      -0.665   2.222  10.443  1.00  0.00     0.049 A 
ATOM     51  C   UNL     1      -4.220  -0.388   6.974  1.00  0.00     0.074 A 
ATOM     52  C   UNL     1      -0.612   1.758  11.745  1.00  0.00     0.029 A 
ATOM     53  N   UNL     1      -1.625   1.467   9.787  1.00  0.00    -0.354 N 
ATOM     54  N   UNL     1      -3.475   0.157   7.906  1.00  0.00    -0.248 NA
ATOM     55  C   UNL     1      -5.030  -1.522   7.438  1.00  0.00     0.031 C 
ATOM     56  C   UNL     1      -1.537   0.716  11.873  1.00  0.00     0.029 A 
ATOM     57  C   UNL     1      -2.176   0.542  10.655  1.00  0.00     0.049 A 
ATOM     58  H   UNL     1      -1.877   1.573   8.841  1.00  0.00     0.167 HD
ATOM     59  C   UNL     1      -3.748  -0.548   9.073  1.00  0.00     0.074 A 
ATOM     60  C   UNL     1      -4.749  -1.540   8.734  1.00  0.00     0.031 C 
ATOM     61  C   UNL     1      -3.208  -0.402  10.309  1.00  0.00     0.034 A 
BRANCH  48  62
ATOM     62  C   UNL     1       1.148   3.981  10.653  1.00  0.00     0.023 A 
ATOM     63  C   UNL     1       0.922   5.300  11.102  1.00  0.00     0.012 A 
ATOM     64  C   UNL     1       2.351   3.335  10.998  1.00  0.00     0.148 A 
ATOM     65  C   UNL     1       1.893   5.981  11.835  1.00  0.00     0.002 A 
ATOM     66  C   UNL     1       3.295   4.004  11.771  1.00  0.00     0.091 A 
ATOM     67  F   UNL     1       2.564   2.091  10.545  1.00  0.00    -0.205 F 
ATOM     68  C   UNL     1       3.074   5.330  12.177  1.00  0.00     0.022 A 
BRANCH  66  69
ATOM     69  S   UNL     1       4.811   3.221  12.332  1.00  0.00     0.127 S 
ATOM     70  O   UNL     1       5.804   3.833  11.451  1.00  0.00    -0.237 OA
ATOM     71  O   UNL     1       4.886   3.656  13.728  1.00  0.00    -0.237 OA
ATOM     72  O   UNL     1       4.608   1.790  12.157  1.00  0.00    -0.744 OA
ENDBRANCH  66  69
ENDBRANCH  48  62
BRANCH  49  73
ATOM     73  C   UNL     1      -5.303  -0.708   4.618  1.00  0.00     0.023 A 
ATOM     74  C   UNL     1      -6.693  -0.608   4.822  1.00  0.00     0.012 A 
ATOM     75  C   UNL     1      -4.821  -1.437   3.514  1.00  0.00     0.148 A 
ATOM     76  C   UNL     1      -7.586  -1.244   3.959  1.00  0.00     0.002 A 
ATOM     77  C   UNL     1      -5.717  -2.021   2.626  1.00  0.00     0.091 A 
ATOM     78  F   UNL     1      -3.494  -1.526   3.341  1.00  0.00    -0.205 F 
ATOM     79  C   UNL     1      -7.100  -1.940   2.855  1.00  0.00     0.022 A 
BRANCH  77  80
ATOM     80  S   UNL     1      -5.183  -2.810   1.103  1.00  0.00     0.127 S 
ATOM     81  O   UNL     1      -5.401  -4.222   1.404  1.00  0.00    -0.237 OA
ATOM     82  O   UNL     1      -6.109  -2.238   0.124  1.00  0.00    -0.237 OA
ATOM     83  O   UNL     1      -3.796  -2.405   0.919  1.00  0.00    -0.744 OA
ENDBRANCH  77  80
ENDBRANCH  49  73
BRANCH  61  84
ATOM     84  C   UNL     1      -3.703  -1.320  11.393  1.00  0.00     0.023 A 
ATOM     85  C   UNL     1      -3.324  -2.677  11.385  1.00  0.00     0.012 A 
ATOM     86  C   UNL     1      -4.489  -0.828  12.453  1.00  0.00     0.148 A 
ATOM     87  C   UNL     1      -3.752  -3.538  12.394  1.00  0.00     0.002 A 
ATOM     88  C   UNL     1      -4.872  -1.681  13.480  1.00  0.00     0.091 A 
ATOM     89  F   UNL     1      -4.859   0.462  12.434  1.00  0.00    -0.205 F 
ATOM     90  C   UNL     1      -4.515  -3.039  13.447  1.00  0.00     0.022 A 
BRANCH  88  91
ATOM     91  S   UNL     1      -5.773  -1.088  14.917  1.00  0.00     0.127 S 
ATOM     92  O   UNL     1      -7.148  -1.446  14.576  1.00  0.00    -0.237 OA
ATOM     93  O   UNL     1      -5.190  -1.875  16.004  1.00  0.00    -0.237 OA
ATOM     94  O   UNL     1      -5.489   0.339  14.994  1.00  0.00    -0.744 OA
ENDBRANCH  88  91
ENDBRANCH  61  84
ENDBRANCH  35  36
ENDBRANCH  27  30
ENDBRANCH  25  26
ENDBRANCH  24  25
ENDBRANCH  23  24
ENDBRANCH   1  23
TORSDOF 20
