REMARK SMILES CC1(C)O[C@@H]2C[C@@H]3[C@H]4CCC5=CC(=O)C=C[C@@]5(C)[C@]4(F)[C@H](O)C[C@]3(C)[C@]2(C(=O)NCCCCNC(=O)c2ccc(-c3c4nc(c(-c5cccc(S(=O)(=O)[O-])c5F)c5ccc([nH]5)c(-c5cccc(S(=O)(=O)[O-])c5F)c5nc(c(-c6cccc(S(=O)(=O)[O-])c6F)c6ccc3[nH]6)C=C5)C=C4)cc2)O1
REMARK SMILES IDX 32 1 31 2 30 3 29 4 27 5 28 6 26 8 1 9 2 10 4 11 100 12 3 13
REMARK SMILES IDX 5 14 6 15 24 16 7 17 23 18 25 19 8 20 21 21 9 22 19 23 10 24
REMARK SMILES IDX 17 25 20 26 11 27 16 28 18 29 12 30 15 31 13 32 14 33 22 34
REMARK SMILES IDX 33 36 34 37 35 38 36 40 37 41 38 42 99 43 39 44 98 45 40 46
REMARK SMILES IDX 41 47 42 48 92 49 43 50 97 51 91 52 93 53 44 54 96 55 90 56
REMARK SMILES IDX 89 57 45 59 77 60 57 61 76 62 58 63 61 64 75 65 94 66 59 67
REMARK SMILES IDX 60 68 74 70 95 71 62 72 46 73 47 74 55 75 48 76 50 77 56 78
REMARK SMILES IDX 49 79 51 80 52 81 53 82 54 83 78 84 79 85 87 86 80 87 82 88
REMARK SMILES IDX 88 89 81 90 83 91 84 92 85 93 86 94 63 95 64 96 72 97 65 98
REMARK SMILES IDX 67 99 73 100 66 101 68 102 69 103 70 104 71 105
REMARK H PARENT 29 7 22 35 34 39 93 58 61 69
REMARK Flexibility Score: inf
ROOT
ATOM      1  C   UNL     1      -4.631  -0.905  -3.948  1.00  0.00     0.023 C 
ENDROOT
BRANCH   1   2
ATOM      2  C   UNL     1      -3.539   0.156  -3.795  1.00  0.00     0.023 C 
BRANCH   2   3
ATOM      3  C   UNL     1      -3.778   1.107  -2.629  1.00  0.00     0.116 C 
BRANCH   3   4
ATOM      4  N   UNL     1      -3.650   0.405  -1.382  1.00  0.00    -0.353 N 
ATOM      5  C   UNL     1      -2.812   0.546  -0.341  1.00  0.00     0.255 C 
ATOM      6  O   UNL     1      -2.915  -0.335   0.525  1.00  0.00    -0.272 OA
ATOM      7  H   UNL     1      -4.304  -0.322  -1.267  1.00  0.00     0.163 HD
BRANCH   5   8
ATOM      8  C   UNL     1      -1.856   1.726  -0.125  1.00  0.00     0.181 C 
ATOM      9  C   UNL     1       0.445  -0.406  -0.801  1.00  0.00     0.075 C 
ATOM     10  C   UNL     1       0.362   0.977  -0.175  1.00  0.00     0.164 C 
ATOM     11  O   UNL     1       0.285   1.935  -1.231  1.00  0.00    -0.344 OA
ATOM     12  O   UNL     1      -0.796   1.072   0.664  1.00  0.00    -0.331 OA
ATOM     13  C   UNL     1       1.618   1.241   0.661  1.00  0.00     0.075 C 
ATOM     14  C   UNL     1      -1.034   2.502  -1.211  1.00  0.00     0.164 C 
ATOM     15  C   UNL     1      -0.896   4.004  -0.689  1.00  0.00     0.040 C 
ATOM     16  C   UNL     1      -2.511   2.897   0.726  1.00  0.00     0.014 C 
ATOM     17  C   UNL     1      -1.246   3.800   0.789  1.00  0.00     0.008 C 
ATOM     18  C   UNL     1      -3.133   2.623   2.108  1.00  0.00     0.046 C 
ATOM     19  C   UNL     1      -3.683   3.522  -0.095  1.00  0.00     0.015 C 
ATOM     20  C   UNL     1      -0.553   4.178   2.113  1.00  0.00     0.035 C 
ATOM     21  C   UNL     1      -2.193   2.633   3.302  1.00  0.00     0.154 C 
ATOM     22  C   UNL     1       0.254   5.465   2.096  1.00  0.00     0.012 C 
ATOM     23  C   UNL     1      -1.350   3.951   3.404  1.00  0.00     0.152 C 
ATOM     24  C   UNL     1       1.350   5.328   3.157  1.00  0.00     0.032 C 
ATOM     25  C   UNL     1      -0.359   3.989   4.659  1.00  0.00     0.044 C 
ATOM     26  F   UNL     1      -2.229   5.002   3.503  1.00  0.00    -0.239 F 
ATOM     27  C   UNL     1       0.796   5.014   4.526  1.00  0.00    -0.053 C 
ATOM     28  C   UNL     1      -1.117   4.268   5.957  1.00  0.00    -0.009 C 
ATOM     29  C   UNL     1       0.343   2.616   4.891  1.00  0.00     0.024 C 
ATOM     30  C   UNL     1       1.396   5.520   5.622  1.00  0.00     0.052 C 
ATOM     31  C   UNL     1      -0.492   4.694   7.066  1.00  0.00     0.048 C 
ATOM     32  C   UNL     1       0.908   5.171   6.978  1.00  0.00     0.178 C 
ATOM     33  O   UNL     1       1.599   5.346   7.972  1.00  0.00    -0.290 OA
BRANCH  21  34
ATOM     34  O   UNL     1      -1.421   1.438   3.267  1.00  0.00    -0.390 OA
ATOM     35  H   UNL     1      -0.902   1.412   2.447  1.00  0.00     0.211 HD
ENDBRANCH  21  34
ENDBRANCH   5   8
ENDBRANCH   3   4
ENDBRANCH   2   3
ENDBRANCH   1   2
BRANCH   1  36
ATOM     36  C   UNL     1      -6.051  -0.351  -3.921  1.00  0.00     0.116 C 
BRANCH  36  37
ATOM     37  N   UNL     1      -6.233   0.758  -4.851  1.00  0.00    -0.352 N 
ATOM     38  C   UNL     1      -7.228   0.945  -5.775  1.00  0.00     0.251 C 
ATOM     39  H   UNL     1      -5.550   1.466  -4.811  1.00  0.00     0.163 HD
ATOM     40  O   UNL     1      -7.163   1.862  -6.588  1.00  0.00    -0.269 OA
BRANCH  38  41
ATOM     41  C   UNL     1      -8.356   0.000  -5.786  1.00  0.00     0.039 A 
ATOM     42  C   UNL     1      -8.671  -0.663  -6.972  1.00  0.00     0.014 A 
ATOM     43  C   UNL     1      -9.030  -0.288  -4.596  1.00  0.00     0.014 A 
ATOM     44  C   UNL     1      -9.631  -1.673  -6.949  1.00  0.00     0.010 A 
ATOM     45  C   UNL     1      -9.922  -1.350  -4.561  1.00  0.00     0.010 A 
ATOM     46  C   UNL     1     -10.235  -2.049  -5.738  1.00  0.00    -0.014 A 
BRANCH  46  47
ATOM     47  C   UNL     1     -11.193  -3.179  -5.676  1.00  0.00     0.031 A 
ATOM     48  C   UNL     1     -12.613  -2.935  -5.246  1.00  0.00     0.074 A 
ATOM     49  C   UNL     1     -10.760  -4.432  -5.917  1.00  0.00     0.049 A 
ATOM     50  N   UNL     1     -13.580  -3.797  -5.075  1.00  0.00    -0.248 NA
ATOM     51  C   UNL     1     -12.987  -1.545  -4.934  1.00  0.00     0.031 C 
ATOM     52  C   UNL     1      -9.384  -4.803  -6.255  1.00  0.00     0.029 A 
ATOM     53  N   UNL     1     -11.428  -5.630  -5.888  1.00  0.00    -0.354 N 
ATOM     54  C   UNL     1     -14.661  -3.064  -4.603  1.00  0.00     0.074 A 
ATOM     55  C   UNL     1     -14.221  -1.693  -4.475  1.00  0.00     0.031 C 
ATOM     56  C   UNL     1      -9.312  -6.135  -6.410  1.00  0.00     0.029 A 
ATOM     57  C   UNL     1     -10.626  -6.716  -6.153  1.00  0.00     0.049 A 
ATOM     58  H   UNL     1     -12.390  -5.705  -5.695  1.00  0.00     0.167 HD
ATOM     59  C   UNL     1     -15.918  -3.487  -4.332  1.00  0.00     0.034 A 
ATOM     60  C   UNL     1     -10.917  -8.031  -6.181  1.00  0.00     0.034 A 
ATOM     61  C   UNL     1     -16.362  -4.843  -4.507  1.00  0.00     0.049 A 
ATOM     62  C   UNL     1     -12.334  -8.468  -5.923  1.00  0.00     0.074 A 
ATOM     63  C   UNL     1     -17.637  -5.356  -4.354  1.00  0.00     0.029 A 
ATOM     64  N   UNL     1     -15.544  -5.902  -4.869  1.00  0.00    -0.354 N 
ATOM     65  N   UNL     1     -13.384  -7.736  -5.642  1.00  0.00    -0.248 NA
ATOM     66  C   UNL     1     -12.614  -9.908  -6.024  1.00  0.00     0.031 C 
ATOM     67  C   UNL     1     -17.585  -6.731  -4.599  1.00  0.00     0.029 A 
ATOM     68  C   UNL     1     -16.284  -7.069  -4.935  1.00  0.00     0.049 A 
ATOM     69  H   UNL     1     -14.579  -5.833  -5.051  1.00  0.00     0.167 HD
ATOM     70  C   UNL     1     -14.456  -8.619  -5.569  1.00  0.00     0.074 A 
ATOM     71  C   UNL     1     -13.929  -9.938  -5.857  1.00  0.00     0.031 C 
ATOM     72  C   UNL     1     -15.755  -8.365  -5.276  1.00  0.00     0.034 A 
BRANCH  59  73
ATOM     73  C   UNL     1     -16.916  -2.460  -3.869  1.00  0.00     0.023 A 
ATOM     74  C   UNL     1     -17.391  -1.492  -4.779  1.00  0.00     0.012 A 
ATOM     75  C   UNL     1     -17.425  -2.482  -2.556  1.00  0.00     0.148 A 
ATOM     76  C   UNL     1     -18.327  -0.539  -4.380  1.00  0.00     0.002 A 
ATOM     77  C   UNL     1     -18.393  -1.559  -2.179  1.00  0.00     0.091 A 
ATOM     78  F   UNL     1     -16.945  -3.394  -1.699  1.00  0.00    -0.205 F 
ATOM     79  C   UNL     1     -18.836  -0.580  -3.085  1.00  0.00     0.022 A 
BRANCH  77  80
ATOM     80  S   UNL     1     -19.171  -1.577  -0.560  1.00  0.00     0.127 S 
ATOM     81  O   UNL     1     -18.606  -0.375   0.051  1.00  0.00    -0.237 OA
ATOM     82  O   UNL     1     -20.590  -1.479  -0.900  1.00  0.00    -0.237 OA
ATOM     83  O   UNL     1     -18.780  -2.836   0.059  1.00  0.00    -0.744 OA
ENDBRANCH  77  80
ENDBRANCH  59  73
BRANCH  60  84
ATOM     84  C   UNL     1      -9.861  -9.021  -6.533  1.00  0.00     0.023 A 
ATOM     85  C   UNL     1      -9.928  -9.695  -7.768  1.00  0.00     0.012 A 
ATOM     86  C   UNL     1      -8.780  -9.280  -5.668  1.00  0.00     0.148 A 
ATOM     87  C   UNL     1      -8.959 -10.634  -8.121  1.00  0.00     0.002 A 
ATOM     88  C   UNL     1      -7.787 -10.175  -6.051  1.00  0.00     0.091 A 
ATOM     89  F   UNL     1      -8.738  -8.636  -4.494  1.00  0.00    -0.205 F 
ATOM     90  C   UNL     1      -7.884 -10.867  -7.268  1.00  0.00     0.022 A 
BRANCH  88  91
ATOM     91  S   UNL     1      -6.300 -10.436  -5.078  1.00  0.00     0.127 S 
ATOM     92  O   UNL     1      -6.512 -11.786  -4.563  1.00  0.00    -0.237 OA
ATOM     93  O   UNL     1      -5.251 -10.319  -6.092  1.00  0.00    -0.237 OA
ATOM     94  O   UNL     1      -6.290  -9.372  -4.083  1.00  0.00    -0.744 OA
ENDBRANCH  88  91
ENDBRANCH  60  84
BRANCH  72  95
ATOM     95  C   UNL     1     -16.715  -9.525  -5.290  1.00  0.00     0.023 A 
ATOM     96  C   UNL     1     -16.674 -10.482  -4.258  1.00  0.00     0.012 A 
ATOM     97  C   UNL     1     -17.709  -9.619  -6.284  1.00  0.00     0.148 A 
ATOM     98  C   UNL     1     -17.588 -11.535  -4.232  1.00  0.00     0.002 A 
ATOM     99  C   UNL     1     -18.648 -10.641  -6.224  1.00  0.00     0.091 A 
ATOM    100  F   UNL     1     -17.719  -8.708  -7.268  1.00  0.00    -0.205 F 
ATOM    101  C   UNL     1     -18.582 -11.607  -5.206  1.00  0.00     0.022 A 
BRANCH  99 102
ATOM    102  S   UNL     1     -20.021 -10.756  -7.377  1.00  0.00     0.127 S 
ATOM    103  O   UNL     1     -19.627 -11.901  -8.195  1.00  0.00    -0.237 OA
ATOM    104  O   UNL     1     -21.155 -11.003  -6.486  1.00  0.00    -0.237 OA
ATOM    105  O   UNL     1     -20.068  -9.477  -8.072  1.00  0.00    -0.744 OA
ENDBRANCH  99 102
ENDBRANCH  72  95
ENDBRANCH  46  47
ENDBRANCH  38  41
ENDBRANCH  36  37
ENDBRANCH   1  36
TORSDOF 15
