REMARK SMILES COCc1c(C(=O)NCCCCNC(=O)c2ccc(-c3c4nc(c(-c5cccc(S(=O)(=O)[O-])c5F)c5ccc([nH]5)c(-c5cccc(S(=O)(=O)[O-])c5F)c5nc(c(-c6cccc(S(=O)(=O)[O-])c6F)c6ccc3[nH]6)C=C5)C=C4)cc2)sc2ccccc12
REMARK SMILES IDX 11 1 10 2 9 3 8 4 6 5 7 6 5 8 4 9 85 10 79 11 80 12 84 13
REMARK SMILES IDX 81 14 83 15 82 16 3 17 2 18 1 19 12 20 13 21 14 22 15 24
REMARK SMILES IDX 16 25 17 26 78 27 18 28 77 29 19 30 20 31 21 32 71 33 22 34
REMARK SMILES IDX 76 35 70 36 72 37 23 38 75 39 69 40 68 41 24 43 56 44 36 45
REMARK SMILES IDX 55 46 37 47 40 48 54 49 73 50 38 51 39 52 53 54 74 55 41 56
REMARK SMILES IDX 25 57 26 58 34 59 27 60 29 61 35 62 28 63 30 64 31 65 32 66
REMARK SMILES IDX 33 67 57 68 58 69 66 70 59 71 61 72 67 73 60 74 62 75 63 76
REMARK SMILES IDX 64 77 65 78 42 79 43 80 51 81 44 82 46 83 52 84 45 85 47 86
REMARK SMILES IDX 48 87 49 88 50 89
REMARK H PARENT 8 7 13 23 72 42 40 53
REMARK Flexibility Score: inf
ROOT
ATOM      1  C   UNL     1       0.974   7.812   4.614  1.00  0.00     0.023 C 
ENDROOT
BRANCH   1   2
ATOM      2  C   UNL     1       0.529   6.349   4.726  1.00  0.00     0.023 C 
BRANCH   2   3
ATOM      3  C   UNL     1      -0.479   5.919   3.660  1.00  0.00     0.116 C 
BRANCH   3   4
ATOM      4  N   UNL     1       0.182   5.681   2.391  1.00  0.00    -0.351 N 
ATOM      5  C   UNL     1       0.615   4.546   1.748  1.00  0.00     0.261 C 
ATOM      6  O   UNL     1       1.135   4.758   0.647  1.00  0.00    -0.268 OA
ATOM      7  H   UNL     1       0.358   6.506   1.884  1.00  0.00     0.163 HD
BRANCH   5   8
ATOM      8  C   UNL     1       0.442   3.182   2.259  1.00  0.00     0.099 A 
ATOM      9  C   UNL     1       0.464   2.010   1.488  1.00  0.00     0.009 A 
ATOM     10  C   UNL     1       0.169   0.829   2.292  1.00  0.00    -0.001 A 
ATOM     11  S   UNL     1       0.328   2.813   3.916  1.00  0.00    -0.130 S 
ATOM     12  C   UNL     1       0.041   1.153   3.644  1.00  0.00     0.035 A 
ATOM     13  C   UNL     1      -0.007  -0.539   1.950  1.00  0.00     0.010 A 
ATOM     14  C   UNL     1      -0.269   0.188   4.625  1.00  0.00     0.019 A 
ATOM     15  C   UNL     1      -0.302  -1.506   2.917  1.00  0.00     0.001 A 
ATOM     16  C   UNL     1      -0.439  -1.142   4.245  1.00  0.00     0.001 A 
BRANCH   9  17
ATOM     17  C   UNL     1       0.730   2.044  -0.007  1.00  0.00     0.197 C 
BRANCH  17  18
ATOM     18  O   UNL     1       0.591   0.786  -0.676  1.00  0.00    -0.380 OA
ATOM     19  C   UNL     1       1.849   0.191  -0.971  1.00  0.00     0.195 C 
ENDBRANCH  17  18
ENDBRANCH   9  17
ENDBRANCH   5   8
ENDBRANCH   3   4
ENDBRANCH   2   3
ENDBRANCH   1   2
BRANCH   1  20
ATOM     20  C   UNL     1      -0.139   8.846   4.775  1.00  0.00     0.116 C 
BRANCH  20  21
ATOM     21  N   UNL     1      -0.862   8.724   6.034  1.00  0.00    -0.352 N 
ATOM     22  C   UNL     1      -1.444   9.723   6.778  1.00  0.00     0.251 C 
ATOM     23  H   UNL     1      -0.944   7.813   6.397  1.00  0.00     0.163 HD
ATOM     24  O   UNL     1      -1.934   9.478   7.876  1.00  0.00    -0.269 OA
BRANCH  22  25
ATOM     25  C   UNL     1      -1.436  11.102   6.252  1.00  0.00     0.039 A 
ATOM     26  C   UNL     1      -0.923  12.130   7.049  1.00  0.00     0.014 A 
ATOM     27  C   UNL     1      -1.882  11.364   4.955  1.00  0.00     0.014 A 
ATOM     28  C   UNL     1      -0.791  13.414   6.516  1.00  0.00     0.010 A 
ATOM     29  C   UNL     1      -1.692  12.627   4.407  1.00  0.00     0.010 A 
ATOM     30  C   UNL     1      -1.141  13.662   5.179  1.00  0.00    -0.014 A 
BRANCH  30  31
ATOM     31  C   UNL     1      -0.932  14.989   4.547  1.00  0.00     0.031 A 
ATOM     32  C   UNL     1      -2.115  15.769   4.046  1.00  0.00     0.074 A 
ATOM     33  C   UNL     1       0.320  15.425   4.308  1.00  0.00     0.049 A 
ATOM     34  N   UNL     1      -2.140  16.865   3.334  1.00  0.00    -0.248 NA
ATOM     35  C   UNL     1      -3.448  15.225   4.358  1.00  0.00     0.031 C 
ATOM     36  C   UNL     1       1.549  14.723   4.684  1.00  0.00     0.029 A 
ATOM     37  N   UNL     1       0.767  16.547   3.655  1.00  0.00    -0.354 N 
ATOM     38  C   UNL     1      -3.481  17.115   3.071  1.00  0.00     0.074 A 
ATOM     39  C   UNL     1      -4.239  16.044   3.680  1.00  0.00     0.031 C 
ATOM     40  C   UNL     1       2.608  15.422   4.246  1.00  0.00     0.029 A 
ATOM     41  C   UNL     1       2.137  16.605   3.532  1.00  0.00     0.049 A 
ATOM     42  H   UNL     1       0.165  17.244   3.307  1.00  0.00     0.167 HD
ATOM     43  C   UNL     1      -4.033  18.156   2.405  1.00  0.00     0.034 A 
ATOM     44  C   UNL     1       2.922  17.501   2.901  1.00  0.00     0.034 A 
ATOM     45  C   UNL     1      -3.278  19.247   1.853  1.00  0.00     0.049 A 
ATOM     46  C   UNL     1       2.282  18.678   2.216  1.00  0.00     0.074 A 
ATOM     47  C   UNL     1      -3.748  20.393   1.237  1.00  0.00     0.029 A 
ATOM     48  N   UNL     1      -1.895  19.330   1.853  1.00  0.00    -0.354 N 
ATOM     49  N   UNL     1       1.010  18.974   2.104  1.00  0.00    -0.248 NA
ATOM     50  C   UNL     1       3.184  19.665   1.603  1.00  0.00     0.031 C 
ATOM     51  C   UNL     1      -2.647  21.166   0.856  1.00  0.00     0.029 A 
ATOM     52  C   UNL     1      -1.492  20.509   1.251  1.00  0.00     0.049 A 
ATOM     53  H   UNL     1      -1.288  18.651   2.227  1.00  0.00     0.167 HD
ATOM     54  C   UNL     1       0.960  20.199   1.448  1.00  0.00     0.074 A 
ATOM     55  C   UNL     1       2.330  20.596   1.197  1.00  0.00     0.031 C 
ATOM     56  C   UNL     1      -0.124  20.923   1.076  1.00  0.00     0.034 A 
BRANCH  43  57
ATOM     57  C   UNL     1      -5.534  18.195   2.288  1.00  0.00     0.023 A 
ATOM     58  C   UNL     1      -6.310  18.487   3.429  1.00  0.00     0.012 A 
ATOM     59  C   UNL     1      -6.173  18.002   1.048  1.00  0.00     0.148 A 
ATOM     60  C   UNL     1      -7.700  18.550   3.345  1.00  0.00     0.002 A 
ATOM     61  C   UNL     1      -7.556  18.110   0.964  1.00  0.00     0.091 A 
ATOM     62  F   UNL     1      -5.421  17.703  -0.020  1.00  0.00    -0.205 F 
ATOM     63  C   UNL     1      -8.321  18.373   2.112  1.00  0.00     0.022 A 
BRANCH  61  64
ATOM     64  S   UNL     1      -8.443  17.976  -0.593  1.00  0.00     0.127 S 
ATOM     65  O   UNL     1      -9.072  16.662  -0.462  1.00  0.00    -0.237 OA
ATOM     66  O   UNL     1      -9.370  19.105  -0.519  1.00  0.00    -0.237 OA
ATOM     67  O   UNL     1      -7.435  18.088  -1.637  1.00  0.00    -0.744 OA
ENDBRANCH  61  64
ENDBRANCH  43  57
BRANCH  44  68
ATOM     68  C   UNL     1       4.405  17.357   2.954  1.00  0.00     0.023 A 
ATOM     69  C   UNL     1       5.154  18.261   3.732  1.00  0.00     0.012 A 
ATOM     70  C   UNL     1       5.072  16.322   2.271  1.00  0.00     0.148 A 
ATOM     71  C   UNL     1       6.544  18.155   3.806  1.00  0.00     0.002 A 
ATOM     72  C   UNL     1       6.451  16.191   2.391  1.00  0.00     0.091 A 
ATOM     73  F   UNL     1       4.343  15.480   1.525  1.00  0.00    -0.205 F 
ATOM     74  C   UNL     1       7.191  17.115   3.145  1.00  0.00     0.022 A 
BRANCH  72  75
ATOM     75  S   UNL     1       7.350  14.806   1.681  1.00  0.00     0.127 S 
ATOM     76  O   UNL     1       8.043  15.441   0.563  1.00  0.00    -0.237 OA
ATOM     77  O   UNL     1       8.213  14.402   2.792  1.00  0.00    -0.237 OA
ATOM     78  O   UNL     1       6.335  13.824   1.325  1.00  0.00    -0.744 OA
ENDBRANCH  72  75
ENDBRANCH  44  68
BRANCH  56  79
ATOM     79  C   UNL     1       0.112  22.250   0.406  1.00  0.00     0.023 A 
ATOM     80  C   UNL     1       0.532  22.293  -0.937  1.00  0.00     0.012 A 
ATOM     81  C   UNL     1      -0.187  23.452   1.079  1.00  0.00     0.148 A 
ATOM     82  C   UNL     1       0.672  23.515  -1.594  1.00  0.00     0.002 A 
ATOM     83  C   UNL     1      -0.089  24.662   0.404  1.00  0.00     0.091 A 
ATOM     84  F   UNL     1      -0.567  23.388   2.364  1.00  0.00    -0.205 F 
ATOM     85  C   UNL     1       0.349  24.696  -0.930  1.00  0.00     0.022 A 
BRANCH  83  86
ATOM     86  S   UNL     1      -0.578  26.222   1.149  1.00  0.00     0.127 S 
ATOM     87  O   UNL     1       0.716  26.860   1.381  1.00  0.00    -0.237 OA
ATOM     88  O   UNL     1      -1.380  26.835   0.090  1.00  0.00    -0.237 OA
ATOM     89  O   UNL     1      -1.328  25.875   2.349  1.00  0.00    -0.744 OA
ENDBRANCH  83  86
ENDBRANCH  56  79
ENDBRANCH  30  31
ENDBRANCH  22  25
ENDBRANCH  20  21
ENDBRANCH   1  20
TORSDOF 16
