REMARK SMILES CN(C(=O)CC(=O)NCCCCNC(=O)c1ccc(-c2c3nc(c(-c4cccc(S(=O)(=O)[O-])c4F)c4ccc([nH]4)c(-c4cccc(S(=O)(=O)[O-])c4F)c4nc(c(-c5cccc(S(=O)(=O)[O-])c5F)c5ccc2[nH]5)C=C4)C=C3)cc1)C1CCC(C)(C)CC1
REMARK SMILES IDX 10 1 9 2 8 3 6 4 7 5 5 7 3 8 4 9 2 10 1 11 79 12 80 13 86 14
REMARK SMILES IDX 81 15 85 16 82 17 83 18 84 19 11 20 12 21 13 22 14 23 15 25
REMARK SMILES IDX 16 26 17 27 78 28 18 29 77 30 19 31 20 32 21 33 71 34 22 35
REMARK SMILES IDX 76 36 70 37 72 38 23 39 75 40 69 41 68 42 24 44 56 45 36 46
REMARK SMILES IDX 55 47 37 48 40 49 54 50 73 51 38 52 39 53 53 55 74 56 41 57
REMARK SMILES IDX 25 58 26 59 34 60 27 61 29 62 35 63 28 64 30 65 31 66 32 67
REMARK SMILES IDX 33 68 57 69 58 70 66 71 59 72 61 73 67 74 60 75 62 76 63 77
REMARK SMILES IDX 64 78 65 79 42 80 43 81 51 82 44 83 46 84 52 85 45 86 47 87
REMARK SMILES IDX 48 88 49 89 50 90
REMARK H PARENT 8 6 13 24 72 43 40 54
REMARK Flexibility Score: inf
ROOT
ATOM      1  C   UNL     1       2.309  -4.005   2.004  1.00  0.00     0.023 C 
ENDROOT
BRANCH   1   2
ATOM      2  C   UNL     1       1.243  -3.509   2.977  1.00  0.00     0.116 C 
BRANCH   2   3
ATOM      3  N   UNL     1       1.433  -2.101   3.267  1.00  0.00    -0.356 N 
ATOM      4  C   UNL     1       0.774  -1.020   2.766  1.00  0.00     0.229 C 
ATOM      5  O   UNL     1       1.193   0.101   3.064  1.00  0.00    -0.275 OA
ATOM      6  H   UNL     1       2.141  -1.898   3.920  1.00  0.00     0.163 HD
BRANCH   4   7
ATOM      7  C   UNL     1      -0.485  -1.174   1.956  1.00  0.00     0.200 C 
BRANCH   7   8
ATOM      8  C   UNL     1      -0.373  -1.850   0.610  1.00  0.00     0.231 C 
ATOM      9  O   UNL     1      -0.979  -2.914   0.469  1.00  0.00    -0.274 OA
BRANCH   8  10
ATOM     10  N   UNL     1       0.335  -1.250  -0.426  1.00  0.00    -0.342 N 
ATOM     11  C   UNL     1       1.029   0.026  -0.252  1.00  0.00     0.147 C 
BRANCH  10  12
ATOM     12  C   UNL     1       0.593  -1.934  -1.729  1.00  0.00     0.084 C 
ATOM     13  C   UNL     1       1.720  -2.966  -1.664  1.00  0.00     0.025 C 
ATOM     14  C   UNL     1      -0.626  -2.479  -2.495  1.00  0.00     0.025 C 
ATOM     15  C   UNL     1       1.250  -4.321  -1.161  1.00  0.00     0.008 C 
ATOM     16  C   UNL     1      -1.045  -3.930  -2.225  1.00  0.00     0.008 C 
ATOM     17  C   UNL     1       0.095  -4.943  -1.961  1.00  0.00    -0.035 C 
ATOM     18  C   UNL     1      -0.468  -6.119  -1.131  1.00  0.00     0.011 C 
ATOM     19  C   UNL     1       0.631  -5.508  -3.287  1.00  0.00     0.011 C 
ENDBRANCH  10  12
ENDBRANCH   8  10
ENDBRANCH   7   8
ENDBRANCH   4   7
ENDBRANCH   2   3
ENDBRANCH   1   2
BRANCH   1  20
ATOM     20  C   UNL     1       3.721  -4.131   2.563  1.00  0.00     0.023 C 
BRANCH  20  21
ATOM     21  C   UNL     1       3.866  -5.119   3.708  1.00  0.00     0.116 C 
BRANCH  21  22
ATOM     22  N   UNL     1       3.481  -6.481   3.360  1.00  0.00    -0.352 N 
ATOM     23  C   UNL     1       4.110  -7.664   3.683  1.00  0.00     0.251 C 
ATOM     24  H   UNL     1       2.661  -6.567   2.822  1.00  0.00     0.163 HD
ATOM     25  O   UNL     1       3.705  -8.725   3.232  1.00  0.00    -0.269 OA
BRANCH  23  26
ATOM     26  C   UNL     1       5.310  -7.626   4.550  1.00  0.00     0.039 A 
ATOM     27  C   UNL     1       6.448  -8.338   4.164  1.00  0.00     0.014 A 
ATOM     28  C   UNL     1       5.329  -6.836   5.701  1.00  0.00     0.014 A 
ATOM     29  C   UNL     1       7.633  -8.188   4.890  1.00  0.00     0.010 A 
ATOM     30  C   UNL     1       6.530  -6.611   6.359  1.00  0.00     0.010 A 
ATOM     31  C   UNL     1       7.694  -7.288   5.967  1.00  0.00    -0.014 A 
BRANCH  31  32
ATOM     32  C   UNL     1       8.961  -7.027   6.696  1.00  0.00     0.031 A 
ATOM     33  C   UNL     1       9.050  -7.302   8.173  1.00  0.00     0.074 A 
ATOM     34  C   UNL     1       9.989  -6.431   6.059  1.00  0.00     0.049 A 
ATOM     35  N   UNL     1      10.034  -7.060   8.999  1.00  0.00    -0.248 NA
ATOM     36  C   UNL     1       7.860  -7.887   8.814  1.00  0.00     0.031 C 
ATOM     37  C   UNL     1       9.988  -6.014   4.655  1.00  0.00     0.029 A 
ATOM     38  N   UNL     1      11.222  -6.042   6.519  1.00  0.00    -0.354 N 
ATOM     39  C   UNL     1       9.565  -7.411  10.259  1.00  0.00     0.074 A 
ATOM     40  C   UNL     1       8.196  -7.846  10.095  1.00  0.00     0.031 C 
ATOM     41  C   UNL     1      11.164  -5.432   4.368  1.00  0.00     0.029 A 
ATOM     42  C   UNL     1      11.992  -5.412   5.569  1.00  0.00     0.049 A 
ATOM     43  H   UNL     1      11.527  -6.198   7.442  1.00  0.00     0.167 HD
ATOM     44  C   UNL     1      10.224  -7.409  11.442  1.00  0.00     0.034 A 
ATOM     45  C   UNL     1      13.226  -4.877   5.656  1.00  0.00     0.034 A 
ATOM     46  C   UNL     1      11.606  -7.046  11.588  1.00  0.00     0.049 A 
ATOM     47  C   UNL     1      13.973  -4.970   6.959  1.00  0.00     0.074 A 
ATOM     48  C   UNL     1      12.404  -7.130  12.715  1.00  0.00     0.029 A 
ATOM     49  N   UNL     1      12.398  -6.528  10.574  1.00  0.00    -0.354 N 
ATOM     50  N   UNL     1      13.577  -5.480   8.100  1.00  0.00    -0.248 NA
ATOM     51  C   UNL     1      15.348  -4.453   6.977  1.00  0.00     0.031 C 
ATOM     52  C   UNL     1      13.676  -6.649  12.385  1.00  0.00     0.029 A 
ATOM     53  C   UNL     1      13.674  -6.280  11.049  1.00  0.00     0.049 A 
ATOM     54  H   UNL     1      12.096  -6.361   9.652  1.00  0.00     0.167 HD
ATOM     55  C   UNL     1      14.662  -5.373   8.963  1.00  0.00     0.074 A 
ATOM     56  C   UNL     1      15.739  -4.770   8.205  1.00  0.00     0.031 C 
ATOM     57  C   UNL     1      14.752  -5.728  10.269  1.00  0.00     0.034 A 
BRANCH  44  58
ATOM     58  C   UNL     1       9.469  -7.880  12.657  1.00  0.00     0.023 A 
ATOM     59  C   UNL     1       9.139  -9.245  12.785  1.00  0.00     0.012 A 
ATOM     60  C   UNL     1       9.110  -6.985  13.684  1.00  0.00     0.148 A 
ATOM     61  C   UNL     1       8.426  -9.706  13.890  1.00  0.00     0.002 A 
ATOM     62  C   UNL     1       8.439  -7.460  14.806  1.00  0.00     0.091 A 
ATOM     63  F   UNL     1       9.407  -5.686  13.536  1.00  0.00    -0.205 F 
ATOM     64  C   UNL     1       8.085  -8.816  14.904  1.00  0.00     0.022 A 
BRANCH  62  65
ATOM     65  S   UNL     1       8.029  -6.402  16.198  1.00  0.00     0.127 S 
ATOM     66  O   UNL     1       6.601  -6.173  15.985  1.00  0.00    -0.237 OA
ATOM     67  O   UNL     1       8.344  -7.258  17.343  1.00  0.00    -0.237 OA
ATOM     68  O   UNL     1       8.883  -5.230  16.070  1.00  0.00    -0.744 OA
ENDBRANCH  62  65
ENDBRANCH  44  58
BRANCH  45  69
ATOM     69  C   UNL     1      13.860  -4.289   4.442  1.00  0.00     0.023 A 
ATOM     70  C   UNL     1      14.904  -4.987   3.805  1.00  0.00     0.012 A 
ATOM     71  C   UNL     1      13.399  -3.082   3.882  1.00  0.00     0.148 A 
ATOM     72  C   UNL     1      15.493  -4.484   2.646  1.00  0.00     0.002 A 
ATOM     73  C   UNL     1      13.955  -2.612   2.697  1.00  0.00     0.091 A 
ATOM     74  F   UNL     1      12.409  -2.429   4.508  1.00  0.00    -0.205 F 
ATOM     75  C   UNL     1      15.012  -3.304   2.085  1.00  0.00     0.022 A 
BRANCH  73  76
ATOM     76  S   UNL     1      13.311  -1.176   1.830  1.00  0.00     0.127 S 
ATOM     77  O   UNL     1      14.392  -0.210   2.008  1.00  0.00    -0.237 OA
ATOM     78  O   UNL     1      13.161  -1.689   0.468  1.00  0.00    -0.237 OA
ATOM     79  O   UNL     1      12.055  -0.848   2.490  1.00  0.00    -0.744 OA
ENDBRANCH  73  76
ENDBRANCH  45  69
BRANCH  57  80
ATOM     80  C   UNL     1      16.066  -5.498  10.967  1.00  0.00     0.023 A 
ATOM     81  C   UNL     1      16.446  -4.188  11.321  1.00  0.00     0.012 A 
ATOM     82  C   UNL     1      16.880  -6.582  11.348  1.00  0.00     0.148 A 
ATOM     83  C   UNL     1      17.630  -3.960  12.021  1.00  0.00     0.002 A 
ATOM     84  C   UNL     1      18.035  -6.351  12.085  1.00  0.00     0.091 A 
ATOM     85  F   UNL     1      16.511  -7.819  10.983  1.00  0.00    -0.205 F 
ATOM     86  C   UNL     1      18.417  -5.040  12.413  1.00  0.00     0.022 A 
BRANCH  84  87
ATOM     87  S   UNL     1      19.056  -7.689  12.712  1.00  0.00     0.127 S 
ATOM     88  O   UNL     1      20.199  -7.645  11.802  1.00  0.00    -0.237 OA
ATOM     89  O   UNL     1      19.346  -7.248  14.078  1.00  0.00    -0.237 OA
ATOM     90  O   UNL     1      18.233  -8.889  12.631  1.00  0.00    -0.744 OA
ENDBRANCH  84  87
ENDBRANCH  57  80
ENDBRANCH  31  32
ENDBRANCH  23  26
ENDBRANCH  21  22
ENDBRANCH  20  21
ENDBRANCH   1  20
TORSDOF 17
