REMARK SMILES Cc1nn(C)c(C)c1C[C@@H](C)C(=O)N[C@@H](C(=O)NCCCCNC(=O)c1ccc(-c2c3nc(c(-c4cccc(S(=O)(=O)[O-])c4F)c4ccc([nH]4)c(-c4cccc(S(=O)(=O)[O-])c4F)c4nc(c(-c5cccc(S(=O)(=O)[O-])c5F)c5ccc2[nH]5)C=C4)C=C3)cc1)c1ccccc1Cl
REMARK SMILES IDX 20 1 19 2 18 3 16 4 17 5 15 7 14 8 12 9 13 10 10 12 11 13
REMARK SMILES IDX 9 14 8 15 1 16 2 17 3 18 4 19 6 20 5 21 7 22 89 23 90 24
REMARK SMILES IDX 94 25 91 26 93 27 95 28 92 29 21 30 22 31 23 32 24 33 25 35
REMARK SMILES IDX 26 36 27 37 88 38 28 39 87 40 29 41 30 42 31 43 81 44 32 45
REMARK SMILES IDX 86 46 80 47 82 48 33 49 85 50 79 51 78 52 34 54 66 55 46 56
REMARK SMILES IDX 65 57 47 58 50 59 64 60 83 61 48 62 49 63 63 65 84 66 51 67
REMARK SMILES IDX 35 68 36 69 44 70 37 71 39 72 45 73 38 74 40 75 41 76 42 77
REMARK SMILES IDX 43 78 67 79 68 80 76 81 69 82 71 83 77 84 70 85 72 86 73 87
REMARK SMILES IDX 74 88 75 89 52 90 53 91 61 92 54 93 56 94 62 95 55 96 57 97
REMARK SMILES IDX 58 98 59 99 60 100
REMARK H PARENT 18 6 14 11 23 34 82 53 50 64
REMARK Flexibility Score: inf
ROOT
ATOM      1  C   UNL     1      -3.662   5.286  -0.934  1.00  0.00     0.023 C 
ENDROOT
BRANCH   1   2
ATOM      2  C   UNL     1      -2.337   4.643  -1.310  1.00  0.00     0.116 C 
BRANCH   2   3
ATOM      3  N   UNL     1      -1.490   5.451  -2.156  1.00  0.00    -0.354 N 
ATOM      4  C   UNL     1      -0.148   5.712  -2.062  1.00  0.00     0.247 C 
ATOM      5  O   UNL     1       0.400   6.097  -3.103  1.00  0.00    -0.272 OA
ATOM      6  H   UNL     1      -1.946   5.880  -2.915  1.00  0.00     0.163 HD
BRANCH   4   7
ATOM      7  C   UNL     1       0.698   5.370  -0.779  1.00  0.00     0.203 C 
BRANCH   7   8
ATOM      8  N   UNL     1       0.005   5.545   0.502  1.00  0.00    -0.340 N 
ATOM      9  C   UNL     1      -0.346   4.696   1.503  1.00  0.00     0.224 C 
ATOM     10  O   UNL     1      -1.032   5.168   2.416  1.00  0.00    -0.275 OA
ATOM     11  H   UNL     1      -0.262   6.477   0.673  1.00  0.00     0.164 HD
BRANCH   9  12
ATOM     12  C   UNL     1       0.073   3.223   1.560  1.00  0.00     0.080 C 
ATOM     13  C   UNL     1       1.564   3.151   1.855  1.00  0.00     0.018 C 
BRANCH  12  14
ATOM     14  C   UNL     1      -0.466   2.396   0.381  1.00  0.00     0.052 C 
BRANCH  14  15
ATOM     15  C   UNL     1      -0.167   0.931   0.345  1.00  0.00    -0.003 A 
ATOM     16  C   UNL     1      -2.594  -0.105   0.437  1.00  0.00     0.069 C 
ATOM     17  C   UNL     1      -1.107  -0.143   0.393  1.00  0.00     0.063 A 
ATOM     18  N   UNL     1      -0.500  -1.331   0.309  1.00  0.00    -0.178 NA
ATOM     19  N   UNL     1       0.792  -1.036   0.121  1.00  0.00    -0.272 N 
ATOM     20  C   UNL     1       1.038   0.310   0.044  1.00  0.00     0.038 A 
ATOM     21  C   UNL     1       1.724  -2.126  -0.043  1.00  0.00     0.174 C 
ATOM     22  C   UNL     1       2.360   0.863  -0.349  1.00  0.00     0.066 C 
ENDBRANCH  14  15
ENDBRANCH  12  14
ENDBRANCH   9  12
ENDBRANCH   7   8
BRANCH   7  23
ATOM     23  C   UNL     1       2.019   6.136  -0.763  1.00  0.00     0.002 A 
ATOM     24  C   UNL     1       3.226   5.412  -0.859  1.00  0.00     0.008 A 
ATOM     25  C   UNL     1       2.095   7.537  -0.689  1.00  0.00     0.046 A 
ATOM     26  C   UNL     1       4.462   6.062  -0.869  1.00  0.00     0.000 A 
ATOM     27  C   UNL     1       3.335   8.186  -0.714  1.00  0.00     0.021 A 
ATOM     28  Cl  UNL     1       0.685   8.528  -0.552  1.00  0.00    -0.084 Cl
ATOM     29  C   UNL     1       4.516   7.450  -0.800  1.00  0.00     0.002 A 
ENDBRANCH   7  23
ENDBRANCH   4   7
ENDBRANCH   2   3
ENDBRANCH   1   2
BRANCH   1  30
ATOM     30  C   UNL     1      -4.726   5.251  -2.023  1.00  0.00     0.023 C 
BRANCH  30  31
ATOM     31  C   UNL     1      -5.040   3.873  -2.598  1.00  0.00     0.116 C 
BRANCH  31  32
ATOM     32  N   UNL     1      -5.458   2.893  -1.602  1.00  0.00    -0.352 N 
ATOM     33  C   UNL     1      -6.513   2.009  -1.661  1.00  0.00     0.251 C 
ATOM     34  H   UNL     1      -4.916   2.858  -0.781  1.00  0.00     0.163 HD
ATOM     35  O   UNL     1      -6.773   1.284  -0.705  1.00  0.00    -0.269 OA
BRANCH  33  36
ATOM     36  C   UNL     1      -7.355   1.980  -2.875  1.00  0.00     0.039 A 
ATOM     37  C   UNL     1      -8.733   2.170  -2.748  1.00  0.00     0.014 A 
ATOM     38  C   UNL     1      -6.767   1.866  -4.137  1.00  0.00     0.014 A 
ATOM     39  C   UNL     1      -9.511   2.346  -3.896  1.00  0.00     0.010 A 
ATOM     40  C   UNL     1      -7.530   2.119  -5.272  1.00  0.00     0.010 A 
ATOM     41  C   UNL     1      -8.906   2.374  -5.164  1.00  0.00    -0.014 A 
BRANCH  41  42
ATOM     42  C   UNL     1      -9.680   2.701  -6.390  1.00  0.00     0.031 A 
ATOM     43  C   UNL     1      -9.789   1.695  -7.503  1.00  0.00     0.074 A 
ATOM     44  C   UNL     1     -10.188   3.941  -6.550  1.00  0.00     0.049 A 
ATOM     45  N   UNL     1     -10.324   1.830  -8.688  1.00  0.00    -0.248 NA
ATOM     46  C   UNL     1      -9.190   0.371  -7.263  1.00  0.00     0.031 C 
ATOM     47  C   UNL     1     -10.077   5.035  -5.582  1.00  0.00     0.029 A 
ATOM     48  N   UNL     1     -10.872   4.500  -7.602  1.00  0.00    -0.354 N 
ATOM     49  C   UNL     1     -10.099   0.627  -9.345  1.00  0.00     0.074 A 
ATOM     50  C   UNL     1      -9.344  -0.214  -8.442  1.00  0.00     0.031 C 
ATOM     51  C   UNL     1     -10.668   6.131  -6.086  1.00  0.00     0.029 A 
ATOM     52  C   UNL     1     -11.177   5.830  -7.419  1.00  0.00     0.049 A 
ATOM     53  H   UNL     1     -11.120   3.997  -8.411  1.00  0.00     0.167 HD
ATOM     54  C   UNL     1     -10.515   0.239 -10.574  1.00  0.00     0.034 A 
ATOM     55  C   UNL     1     -11.791   6.708  -8.237  1.00  0.00     0.034 A 
ATOM     56  C   UNL     1     -11.311   1.055 -11.450  1.00  0.00     0.049 A 
ATOM     57  C   UNL     1     -12.286   6.236  -9.578  1.00  0.00     0.074 A 
ATOM     58  C   UNL     1     -11.842   0.727 -12.685  1.00  0.00     0.029 A 
ATOM     59  N   UNL     1     -11.697   2.359 -11.182  1.00  0.00    -0.354 N 
ATOM     60  N   UNL     1     -12.194   5.045 -10.118  1.00  0.00    -0.248 NA
ATOM     61  C   UNL     1     -13.000   7.218 -10.408  1.00  0.00     0.031 C 
ATOM     62  C   UNL     1     -12.549   1.834 -13.165  1.00  0.00     0.029 A 
ATOM     63  C   UNL     1     -12.464   2.849 -12.225  1.00  0.00     0.049 A 
ATOM     64  H   UNL     1     -11.460   2.862 -10.370  1.00  0.00     0.167 HD
ATOM     65  C   UNL     1     -12.867   5.124 -11.332  1.00  0.00     0.074 A 
ATOM     66  C   UNL     1     -13.382   6.474 -11.438  1.00  0.00     0.031 C 
ATOM     67  C   UNL     1     -13.027   4.172 -12.284  1.00  0.00     0.034 A 
BRANCH  54  68
ATOM     68  C   UNL     1     -10.187  -1.164 -11.009  1.00  0.00     0.023 A 
ATOM     69  C   UNL     1     -10.875  -2.242 -10.415  1.00  0.00     0.012 A 
ATOM     70  C   UNL     1      -9.251  -1.418 -12.030  1.00  0.00     0.148 A 
ATOM     71  C   UNL     1     -10.615  -3.554 -10.808  1.00  0.00     0.002 A 
ATOM     72  C   UNL     1      -9.027  -2.727 -12.444  1.00  0.00     0.091 A 
ATOM     73  F   UNL     1      -8.591  -0.382 -12.566  1.00  0.00    -0.205 F 
ATOM     74  C   UNL     1      -9.700  -3.795 -11.828  1.00  0.00     0.022 A 
BRANCH  72  75
ATOM     75  S   UNL     1      -7.921  -3.138 -13.799  1.00  0.00     0.127 S 
ATOM     76  O   UNL     1      -6.796  -3.743 -13.088  1.00  0.00    -0.237 OA
ATOM     77  O   UNL     1      -8.726  -4.079 -14.580  1.00  0.00    -0.237 OA
ATOM     78  O   UNL     1      -7.632  -1.882 -14.476  1.00  0.00    -0.744 OA
ENDBRANCH  72  75
ENDBRANCH  54  68
BRANCH  55  79
ATOM     79  C   UNL     1     -12.041   8.107  -7.783  1.00  0.00     0.023 A 
ATOM     80  C   UNL     1     -13.359   8.511  -7.494  1.00  0.00     0.012 A 
ATOM     81  C   UNL     1     -10.991   9.030  -7.621  1.00  0.00     0.148 A 
ATOM     82  C   UNL     1     -13.631   9.818  -7.087  1.00  0.00     0.002 A 
ATOM     83  C   UNL     1     -11.262  10.315  -7.164  1.00  0.00     0.091 A 
ATOM     84  F   UNL     1      -9.743   8.636  -7.917  1.00  0.00    -0.205 F 
ATOM     85  C   UNL     1     -12.583  10.717  -6.912  1.00  0.00     0.022 A 
BRANCH  83  86
ATOM     86  S   UNL     1      -9.951  11.486  -6.789  1.00  0.00     0.127 S 
ATOM     87  O   UNL     1      -9.954  12.332  -7.978  1.00  0.00    -0.237 OA
ATOM     88  O   UNL     1     -10.449  12.130  -5.572  1.00  0.00    -0.237 OA
ATOM     89  O   UNL     1      -8.761  10.671  -6.583  1.00  0.00    -0.744 OA
ENDBRANCH  83  86
ENDBRANCH  55  79
BRANCH  67  90
ATOM     90  C   UNL     1     -13.817   4.537 -13.512  1.00  0.00     0.023 A 
ATOM     91  C   UNL     1     -13.235   5.365 -14.492  1.00  0.00     0.012 A 
ATOM     92  C   UNL     1     -15.097   3.992 -13.735  1.00  0.00     0.148 A 
ATOM     93  C   UNL     1     -13.926   5.667 -15.664  1.00  0.00     0.002 A 
ATOM     94  C   UNL     1     -15.762   4.263 -14.925  1.00  0.00     0.091 A 
ATOM     95  F   UNL     1     -15.640   3.223 -12.780  1.00  0.00    -0.205 F 
ATOM     96  C   UNL     1     -15.182   5.107 -15.886  1.00  0.00     0.022 A 
BRANCH  94  97
ATOM     97  S   UNL     1     -17.343   3.514 -15.334  1.00  0.00     0.127 S 
ATOM     98  O   UNL     1     -18.261   4.636 -15.149  1.00  0.00    -0.237 OA
ATOM     99  O   UNL     1     -17.146   3.110 -16.727  1.00  0.00    -0.237 OA
ATOM    100  O   UNL     1     -17.512   2.405 -14.404  1.00  0.00    -0.744 OA
ENDBRANCH  94  97
ENDBRANCH  67  90
ENDBRANCH  41  42
ENDBRANCH  33  36
ENDBRANCH  31  32
ENDBRANCH  30  31
ENDBRANCH   1  30
TORSDOF 19
