REMARK SMILES C=CCN1C(=O)/C(=C/c2ccc(OCc3cccc(C(=O)NCCCCNC(=O)c4ccc(-c5c6nc(c(-c7cccc(S(=O)(=O)[O-])c7F)c7ccc([nH]7)c(-c7cccc(S(=O)(=O)[O-])c7F)c7nc(c(-c8cccc(S(=O)(=O)[O-])c8F)c8ccc5[nH]8)C=C7)C=C6)cc4)c3)cc2)C(=O)NC1=S
REMARK SMILES IDX 23 1 22 2 20 3 21 4 19 6 15 7 16 8 93 9 17 10 18 11 14 12
REMARK SMILES IDX 13 13 12 14 9 15 10 16 95 17 11 18 94 19 8 20 4 21 5 22
REMARK SMILES IDX 99 23 6 24 7 25 98 26 100 27 96 28 97 30 3 31 2 32 1 33
REMARK SMILES IDX 24 34 25 35 26 36 27 37 28 38 29 40 30 41 31 42 92 43 32 44
REMARK SMILES IDX 91 45 33 46 34 47 35 48 85 49 36 50 90 51 84 52 86 53 37 54
REMARK SMILES IDX 89 55 83 56 82 57 38 59 70 60 50 61 69 62 51 63 54 64 68 65
REMARK SMILES IDX 87 66 52 67 53 68 67 70 88 71 55 72 39 73 40 74 48 75 41 76
REMARK SMILES IDX 43 77 49 78 42 79 44 80 45 81 46 82 47 83 71 84 72 85 80 86
REMARK SMILES IDX 73 87 75 88 81 89 74 90 76 91 77 92 78 93 79 94 56 95 57 96
REMARK SMILES IDX 65 97 58 98 60 99 66 100 59 101 61 102 62 103 63 104 64 105
REMARK H PARENT 22 5 98 29 27 39 86 58 54 69
REMARK Flexibility Score: inf
ROOT
ATOM      1  C   UNL     1      -3.068   3.947  -8.931  1.00  0.00     0.116 C 
ENDROOT
BRANCH   1   2
ATOM      2  N   UNL     1      -3.167   2.985 -10.011  1.00  0.00    -0.352 N 
ATOM      3  C   UNL     1      -2.209   2.284 -10.702  1.00  0.00     0.251 C 
ATOM      4  O   UNL     1      -2.588   1.445 -11.520  1.00  0.00    -0.269 OA
ATOM      5  H   UNL     1      -4.089   2.800 -10.302  1.00  0.00     0.163 HD
BRANCH   3   6
ATOM      6  C   UNL     1      -0.742   2.456 -10.483  1.00  0.00     0.040 A 
ATOM      7  C   UNL     1       1.238   3.712  -9.792  1.00  0.00    -0.010 A 
ATOM      8  C   UNL     1       2.034   2.590 -10.046  1.00  0.00     0.007 A 
ATOM      9  C   UNL     1      -0.138   3.648 -10.074  1.00  0.00     0.021 A 
ATOM     10  C   UNL     1       1.460   1.419 -10.541  1.00  0.00     0.001 A 
ATOM     11  C   UNL     1       0.079   1.349 -10.742  1.00  0.00     0.014 A 
BRANCH   7  12
ATOM     12  C   UNL     1       1.832   4.962  -9.174  1.00  0.00     0.265 C 
BRANCH  12  13
ATOM     13  O   UNL     1       2.425   4.734  -7.888  1.00  0.00    -0.489 OA
BRANCH  13  14
ATOM     14  C   UNL     1       1.607   4.364  -6.854  1.00  0.00     0.119 A 
ATOM     15  C   UNL     1       0.120   3.324  -4.711  1.00  0.00    -0.024 A 
ATOM     16  C   UNL     1       1.514   3.207  -4.727  1.00  0.00     0.012 A 
ATOM     17  C   UNL     1      -0.518   4.028  -5.729  1.00  0.00     0.012 A 
ATOM     18  C   UNL     1       2.252   3.725  -5.793  1.00  0.00     0.047 A 
ATOM     19  C   UNL     1       0.228   4.561  -6.787  1.00  0.00     0.047 A 
BRANCH  15  20
ATOM     20  C   UNL     1      -0.622   2.686  -3.624  1.00  0.00     0.027 C 
ATOM     21  N   UNL     1      -1.503  -0.496  -2.276  1.00  0.00    -0.281 N 
ATOM     22  C   UNL     1      -1.585   0.897  -2.357  1.00  0.00     0.265 C 
ATOM     23  C   UNL     1      -1.499  -1.325  -3.392  1.00  0.00     0.183 C 
ATOM     24  O   UNL     1      -1.877   1.625  -1.410  1.00  0.00    -0.268 OA
ATOM     25  C   UNL     1      -1.198   1.468  -3.670  1.00  0.00     0.106 C 
ATOM     26  N   UNL     1      -1.473  -0.706  -4.614  1.00  0.00    -0.298 N 
ATOM     27  S   UNL     1      -1.512  -3.003  -3.409  1.00  0.00    -0.040 S 
ATOM     28  C   UNL     1      -1.309   0.628  -4.878  1.00  0.00     0.263 C 
ATOM     29  H   UNL     1      -1.587  -1.291  -5.398  1.00  0.00     0.172 HD
ATOM     30  O   UNL     1      -1.267   1.040  -6.024  1.00  0.00    -0.269 OA
BRANCH  21  31
ATOM     31  C   UNL     1      -1.396  -1.023  -0.914  1.00  0.00     0.155 C 
BRANCH  31  32
ATOM     32  C   UNL     1       0.075  -1.069  -0.573  1.00  0.00    -0.013 C 
ATOM     33  C   UNL     1       0.711  -0.147   0.164  1.00  0.00     0.006 C 
ENDBRANCH  31  32
ENDBRANCH  21  31
ENDBRANCH  15  20
ENDBRANCH  13  14
ENDBRANCH  12  13
ENDBRANCH   7  12
ENDBRANCH   3   6
ENDBRANCH   1   2
BRANCH   1  34
ATOM     34  C   UNL     1      -3.184   5.380  -9.460  1.00  0.00     0.023 C 
BRANCH  34  35
ATOM     35  C   UNL     1      -4.623   5.883  -9.601  1.00  0.00     0.023 C 
BRANCH  35  36
ATOM     36  C   UNL     1      -5.360   6.090  -8.281  1.00  0.00     0.116 C 
BRANCH  36  37
ATOM     37  N   UNL     1      -4.728   7.076  -7.415  1.00  0.00    -0.352 N 
ATOM     38  C   UNL     1      -5.327   7.927  -6.516  1.00  0.00     0.251 C 
ATOM     39  H   UNL     1      -3.748   7.141  -7.481  1.00  0.00     0.163 HD
ATOM     40  O   UNL     1      -4.661   8.772  -5.925  1.00  0.00    -0.269 OA
BRANCH  38  41
ATOM     41  C   UNL     1      -6.788   7.844  -6.306  1.00  0.00     0.039 A 
ATOM     42  C   UNL     1      -7.551   9.010  -6.410  1.00  0.00     0.014 A 
ATOM     43  C   UNL     1      -7.404   6.614  -6.064  1.00  0.00     0.014 A 
ATOM     44  C   UNL     1      -8.944   8.929  -6.348  1.00  0.00     0.010 A 
ATOM     45  C   UNL     1      -8.793   6.527  -6.069  1.00  0.00     0.010 A 
ATOM     46  C   UNL     1      -9.576   7.681  -6.218  1.00  0.00    -0.014 A 
BRANCH  46  47
ATOM     47  C   UNL     1     -11.055   7.555  -6.271  1.00  0.00     0.031 A 
ATOM     48  C   UNL     1     -11.817   7.049  -5.078  1.00  0.00     0.074 A 
ATOM     49  C   UNL     1     -11.698   7.794  -7.431  1.00  0.00     0.049 A 
ATOM     50  N   UNL     1     -13.097   6.810  -4.960  1.00  0.00    -0.248 NA
ATOM     51  C   UNL     1     -11.036   6.744  -3.868  1.00  0.00     0.031 C 
ATOM     52  C   UNL     1     -11.058   8.200  -8.685  1.00  0.00     0.029 A 
ATOM     53  N   UNL     1     -13.028   7.701  -7.755  1.00  0.00    -0.354 N 
ATOM     54  C   UNL     1     -13.271   6.293  -3.683  1.00  0.00     0.074 A 
ATOM     55  C   UNL     1     -11.960   6.224  -3.073  1.00  0.00     0.031 C 
ATOM     56  C   UNL     1     -11.995   8.322  -9.639  1.00  0.00     0.029 A 
ATOM     57  C   UNL     1     -13.298   7.982  -9.074  1.00  0.00     0.049 A 
ATOM     58  H   UNL     1     -13.725   7.455  -7.103  1.00  0.00     0.167 HD
ATOM     59  C   UNL     1     -14.420   5.939  -3.060  1.00  0.00     0.034 A 
ATOM     60  C   UNL     1     -14.462   7.968  -9.752  1.00  0.00     0.034 A 
ATOM     61  C   UNL     1     -15.726   6.062  -3.648  1.00  0.00     0.049 A 
ATOM     62  C   UNL     1     -15.732   7.633  -9.018  1.00  0.00     0.074 A 
ATOM     63  C   UNL     1     -16.958   5.826  -3.065  1.00  0.00     0.029 A 
ATOM     64  N   UNL     1     -15.971   6.456  -4.954  1.00  0.00    -0.354 N 
ATOM     65  N   UNL     1     -15.895   7.314  -7.757  1.00  0.00    -0.248 NA
ATOM     66  C   UNL     1     -16.982   7.693  -9.789  1.00  0.00     0.031 C 
ATOM     67  C   UNL     1     -17.949   6.069  -4.023  1.00  0.00     0.029 A 
ATOM     68  C   UNL     1     -17.333   6.467  -5.198  1.00  0.00     0.049 A 
ATOM     69  H   UNL     1     -15.277   6.693  -5.612  1.00  0.00     0.167 HD
ATOM     70  C   UNL     1     -17.265   7.169  -7.574  1.00  0.00     0.074 A 
ATOM     71  C   UNL     1     -17.889   7.456  -8.850  1.00  0.00     0.031 C 
ATOM     72  C   UNL     1     -17.944   6.814  -6.456  1.00  0.00     0.034 A 
BRANCH  59  73
ATOM     73  C   UNL     1     -14.322   5.450  -1.639  1.00  0.00     0.023 A 
ATOM     74  C   UNL     1     -14.033   6.371  -0.612  1.00  0.00     0.012 A 
ATOM     75  C   UNL     1     -14.567   4.103  -1.310  1.00  0.00     0.148 A 
ATOM     76  C   UNL     1     -13.958   5.955   0.716  1.00  0.00     0.002 A 
ATOM     77  C   UNL     1     -14.531   3.703   0.021  1.00  0.00     0.091 A 
ATOM     78  F   UNL     1     -14.816   3.236  -2.302  1.00  0.00    -0.205 F 
ATOM     79  C   UNL     1     -14.217   4.625   1.033  1.00  0.00     0.022 A 
BRANCH  77  80
ATOM     80  S   UNL     1     -14.921   2.027   0.538  1.00  0.00     0.127 S 
ATOM     81  O   UNL     1     -13.597   1.503   0.866  1.00  0.00    -0.237 OA
ATOM     82  O   UNL     1     -15.790   2.254   1.694  1.00  0.00    -0.237 OA
ATOM     83  O   UNL     1     -15.581   1.403  -0.600  1.00  0.00    -0.744 OA
ENDBRANCH  77  80
ENDBRANCH  59  73
BRANCH  60  84
ATOM     84  C   UNL     1     -14.489   8.368 -11.188  1.00  0.00     0.023 A 
ATOM     85  C   UNL     1     -15.064   9.604 -11.545  1.00  0.00     0.012 A 
ATOM     86  C   UNL     1     -13.923   7.559 -12.191  1.00  0.00     0.148 A 
ATOM     87  C   UNL     1     -15.099  10.014 -12.878  1.00  0.00     0.002 A 
ATOM     88  C   UNL     1     -13.915   7.997 -13.511  1.00  0.00     0.091 A 
ATOM     89  F   UNL     1     -13.395   6.379 -11.834  1.00  0.00    -0.205 F 
ATOM     90  C   UNL     1     -14.516   9.216 -13.859  1.00  0.00     0.022 A 
BRANCH  88  91
ATOM     91  S   UNL     1     -13.069   7.095 -14.815  1.00  0.00     0.127 S 
ATOM     92  O   UNL     1     -14.187   6.497 -15.539  1.00  0.00    -0.237 OA
ATOM     93  O   UNL     1     -12.376   8.169 -15.528  1.00  0.00    -0.237 OA
ATOM     94  O   UNL     1     -12.182   6.165 -14.129  1.00  0.00    -0.744 OA
ENDBRANCH  88  91
ENDBRANCH  60  84
BRANCH  72  95
ATOM     95  C   UNL     1     -19.445   6.738  -6.544  1.00  0.00     0.023 A 
ATOM     96  C   UNL     1     -20.049   5.658  -7.217  1.00  0.00     0.012 A 
ATOM     97  C   UNL     1     -20.255   7.689  -5.892  1.00  0.00     0.148 A 
ATOM     98  C   UNL     1     -21.437   5.540  -7.263  1.00  0.00     0.002 A 
ATOM     99  C   UNL     1     -21.637   7.540  -5.905  1.00  0.00     0.091 A 
ATOM    100  F   UNL     1     -19.661   8.721  -5.276  1.00  0.00    -0.205 F 
ATOM    101  C   UNL     1     -22.230   6.472  -6.597  1.00  0.00     0.022 A 
BRANCH  99 102
ATOM    102  S   UNL     1     -22.727   8.642  -4.996  1.00  0.00     0.127 S 
ATOM    103  O   UNL     1     -23.271   9.474  -6.068  1.00  0.00    -0.237 OA
ATOM    104  O   UNL     1     -23.686   7.713  -4.398  1.00  0.00    -0.237 OA
ATOM    105  O   UNL     1     -21.880   9.333  -4.033  1.00  0.00    -0.744 OA
ENDBRANCH  99 102
ENDBRANCH  72  95
ENDBRANCH  46  47
ENDBRANCH  38  41
ENDBRANCH  36  37
ENDBRANCH  35  36
ENDBRANCH  34  35
ENDBRANCH   1  34
TORSDOF 20
