REMARK SMILES C[C@@]1(C(=O)c2ccccc2N)[C@H](C(=O)NCCCCNC(=O)c2ccc(-c3c4nc(c(-c5cccc(S(=O)(=O)[O-])c5F)c5ccc([nH]5)c(-c5cccc(S(=O)(=O)[O-])c5F)c5nc(c(-c6cccc(S(=O)(=O)[O-])c6F)c6ccc3[nH]6)C=C5)C=C4)cc2)[C@@H]1C(=O)N1CCOCC1
REMARK SMILES IDX 17 1 16 2 15 3 13 4 14 5 12 7 1 8 2 9 86 10 3 11 4 12 5 13
REMARK SMILES IDX 6 14 10 15 7 16 9 17 8 18 11 19 87 22 88 23 89 24 90 25
REMARK SMILES IDX 94 26 91 27 93 28 92 29 18 30 19 31 20 32 21 33 22 35 23 36
REMARK SMILES IDX 24 37 85 38 25 39 84 40 26 41 27 42 28 43 78 44 29 45 83 46
REMARK SMILES IDX 77 47 79 48 30 49 82 50 76 51 75 52 31 54 63 55 43 56 62 57
REMARK SMILES IDX 44 58 47 59 61 60 80 61 45 62 46 63 60 65 81 66 48 67 32 68
REMARK SMILES IDX 33 69 41 70 34 71 36 72 42 73 35 74 37 75 38 76 39 77 40 78
REMARK SMILES IDX 64 79 65 80 73 81 66 82 68 83 74 84 67 85 69 86 70 87 71 88
REMARK SMILES IDX 72 89 49 90 50 91 58 92 51 93 53 94 59 95 52 96 54 97 55 98
REMARK SMILES IDX 56 99 57 100
REMARK H PARENT 15 6 11 20 11 21 20 34 79 53 47 64
REMARK Flexibility Score: inf
ROOT
ATOM      1  C   UNL     1      -3.884   2.010  -2.015  1.00  0.00     0.023 C 
ENDROOT
BRANCH   1   2
ATOM      2  C   UNL     1      -2.516   2.679  -1.947  1.00  0.00     0.116 C 
BRANCH   2   3
ATOM      3  N   UNL     1      -2.083   2.903  -0.591  1.00  0.00    -0.356 N 
ATOM      4  C   UNL     1      -0.821   3.031  -0.092  1.00  0.00     0.224 C 
ATOM      5  O   UNL     1      -0.645   3.949   0.712  1.00  0.00    -0.275 OA
ATOM      6  H   UNL     1      -2.806   2.974   0.074  1.00  0.00     0.163 HD
BRANCH   4   7
ATOM      7  C   UNL     1       0.347   2.153  -0.346  1.00  0.00     0.106 C 
ATOM      8  C   UNL     1       1.654  -0.096  -0.502  1.00  0.00     0.022 C 
ATOM      9  C   UNL     1       0.589   0.830  -1.097  1.00  0.00     0.056 C 
ATOM     10  C   UNL     1       1.163   2.186  -1.575  1.00  0.00     0.106 C 
BRANCH   9  11
ATOM     11  C   UNL     1      -0.697   0.075  -1.328  1.00  0.00     0.172 C 
ATOM     12  O   UNL     1      -1.319  -0.218  -0.306  1.00  0.00    -0.293 OA
BRANCH  11  13
ATOM     13  C   UNL     1      -1.245  -0.422  -2.634  1.00  0.00     0.041 A 
ATOM     14  C   UNL     1      -2.577  -0.897  -2.568  1.00  0.00     0.014 A 
ATOM     15  C   UNL     1      -0.629  -0.364  -3.891  1.00  0.00     0.042 A 
ATOM     16  C   UNL     1      -3.334  -1.149  -3.714  1.00  0.00     0.001 A 
ATOM     17  C   UNL     1      -1.417  -0.602  -5.038  1.00  0.00     0.026 A 
ATOM     18  C   UNL     1      -2.766  -0.942  -4.957  1.00  0.00     0.002 A 
BRANCH  15  19
ATOM     19  N   UNL     1       0.750  -0.343  -4.088  1.00  0.00    -0.398 N 
ATOM     20  H   UNL     1       1.354  -0.181  -3.328  1.00  0.00     0.156 HD
ATOM     21  H   UNL     1       1.120  -0.488  -4.989  1.00  0.00     0.156 HD
ENDBRANCH  15  19
ENDBRANCH  11  13
ENDBRANCH   9  11
BRANCH  10  22
ATOM     22  C   UNL     1       0.970   2.621  -2.964  1.00  0.00     0.227 C 
ATOM     23  O   UNL     1       1.598   2.000  -3.819  1.00  0.00    -0.275 OA
ATOM     24  N   UNL     1       0.256   3.753  -3.293  1.00  0.00    -0.338 N 
ATOM     25  C   UNL     1       0.395   5.010  -2.555  1.00  0.00     0.148 C 
ATOM     26  C   UNL     1      -0.067   3.926  -4.711  1.00  0.00     0.148 C 
ATOM     27  C   UNL     1      -0.752   5.983  -2.854  1.00  0.00     0.181 C 
ATOM     28  C   UNL     1      -1.226   4.895  -4.906  1.00  0.00     0.181 C 
ATOM     29  O   UNL     1      -0.953   6.148  -4.267  1.00  0.00    -0.378 OA
ENDBRANCH  10  22
ENDBRANCH   4   7
ENDBRANCH   2   3
ENDBRANCH   1   2
BRANCH   1  30
ATOM     30  C   UNL     1      -5.063   2.938  -2.298  1.00  0.00     0.023 C 
BRANCH  30  31
ATOM     31  C   UNL     1      -4.990   3.727  -3.605  1.00  0.00     0.116 C 
BRANCH  31  32
ATOM     32  N   UNL     1      -4.586   2.950  -4.779  1.00  0.00    -0.352 N 
ATOM     33  C   UNL     1      -4.958   3.132  -6.090  1.00  0.00     0.251 C 
ATOM     34  H   UNL     1      -3.970   2.201  -4.607  1.00  0.00     0.163 HD
ATOM     35  O   UNL     1      -4.540   2.384  -6.968  1.00  0.00    -0.269 OA
BRANCH  33  36
ATOM     36  C   UNL     1      -5.915   4.210  -6.414  1.00  0.00     0.039 A 
ATOM     37  C   UNL     1      -7.116   3.875  -7.046  1.00  0.00     0.014 A 
ATOM     38  C   UNL     1      -5.678   5.517  -5.980  1.00  0.00     0.014 A 
ATOM     39  C   UNL     1      -8.131   4.829  -7.136  1.00  0.00     0.010 A 
ATOM     40  C   UNL     1      -6.715   6.443  -6.011  1.00  0.00     0.010 A 
ATOM     41  C   UNL     1      -7.960   6.099  -6.562  1.00  0.00    -0.014 A 
BRANCH  41  42
ATOM     42  C   UNL     1      -9.093   7.053  -6.442  1.00  0.00     0.031 A 
ATOM     43  C   UNL     1      -9.037   8.393  -7.119  1.00  0.00     0.074 A 
ATOM     44  C   UNL     1     -10.108   6.762  -5.603  1.00  0.00     0.049 A 
ATOM     45  N   UNL     1      -9.889   9.383  -7.052  1.00  0.00    -0.248 NA
ATOM     46  C   UNL     1      -7.855   8.674  -7.950  1.00  0.00     0.031 C 
ATOM     47  C   UNL     1     -10.219   5.542  -4.797  1.00  0.00     0.029 A 
ATOM     48  N   UNL     1     -11.221   7.487  -5.253  1.00  0.00    -0.354 N 
ATOM     49  C   UNL     1      -9.327  10.417  -7.789  1.00  0.00     0.074 A 
ATOM     50  C   UNL     1      -8.052   9.942  -8.281  1.00  0.00     0.031 C 
ATOM     51  C   UNL     1     -11.328   5.608  -4.043  1.00  0.00     0.029 A 
ATOM     52  C   UNL     1     -12.000   6.879  -4.294  1.00  0.00     0.049 A 
ATOM     53  H   UNL     1     -11.441   8.360  -5.651  1.00  0.00     0.167 HD
ATOM     54  C   UNL     1      -9.839  11.642  -8.053  1.00  0.00     0.034 A 
ATOM     55  C   UNL     1     -13.125   7.298  -3.683  1.00  0.00     0.034 A 
ATOM     56  C   UNL     1     -11.137  12.083  -7.622  1.00  0.00     0.049 A 
ATOM     57  C   UNL     1     -13.722   8.621  -4.080  1.00  0.00     0.074 A 
ATOM     58  C   UNL     1     -11.800  13.253  -7.951  1.00  0.00     0.029 A 
ATOM     59  N   UNL     1     -11.970  11.377  -6.769  1.00  0.00    -0.354 N 
ATOM     60  N   UNL     1     -13.276   9.498  -4.946  1.00  0.00    -0.248 NA
ATOM     61  C   UNL     1     -14.997   8.995  -3.450  1.00  0.00     0.031 C 
ATOM     62  C   UNL     1     -13.032  13.257  -7.290  1.00  0.00     0.029 A 
ATOM     63  C   UNL     1     -13.138  12.087  -6.556  1.00  0.00     0.049 A 
ATOM     64  H   UNL     1     -11.761  10.500  -6.373  1.00  0.00     0.167 HD
ATOM     65  C   UNL     1     -14.230  10.508  -4.991  1.00  0.00     0.074 A 
ATOM     66  C   UNL     1     -15.290  10.124  -4.082  1.00  0.00     0.031 C 
ATOM     67  C   UNL     1     -14.217  11.660  -5.704  1.00  0.00     0.034 A 
BRANCH  54  68
ATOM     68  C   UNL     1      -9.027  12.575  -8.909  1.00  0.00     0.023 A 
ATOM     69  C   UNL     1      -8.946  12.341 -10.297  1.00  0.00     0.012 A 
ATOM     70  C   UNL     1      -8.420  13.722  -8.362  1.00  0.00     0.148 A 
ATOM     71  C   UNL     1      -8.252  13.223 -11.125  1.00  0.00     0.002 A 
ATOM     72  C   UNL     1      -7.762  14.615  -9.199  1.00  0.00     0.091 A 
ATOM     73  F   UNL     1      -8.493  13.914  -7.037  1.00  0.00    -0.205 F 
ATOM     74  C   UNL     1      -7.671  14.363 -10.578  1.00  0.00     0.022 A 
BRANCH  72  75
ATOM     75  S   UNL     1      -7.040  16.150  -8.607  1.00  0.00     0.127 S 
ATOM     76  O   UNL     1      -5.610  15.875  -8.744  1.00  0.00    -0.237 OA
ATOM     77  O   UNL     1      -7.567  17.126  -9.560  1.00  0.00    -0.237 OA
ATOM     78  O   UNL     1      -7.514  16.317  -7.240  1.00  0.00    -0.744 OA
ENDBRANCH  72  75
ENDBRANCH  54  68
BRANCH  55  79
ATOM     79  C   UNL     1     -13.807   6.421  -2.688  1.00  0.00     0.023 A 
ATOM     80  C   UNL     1     -15.027   5.808  -3.034  1.00  0.00     0.012 A 
ATOM     81  C   UNL     1     -13.250   6.171  -1.420  1.00  0.00     0.148 A 
ATOM     82  C   UNL     1     -15.697   4.991  -2.123  1.00  0.00     0.002 A 
ATOM     83  C   UNL     1     -13.897   5.313  -0.536  1.00  0.00     0.091 A 
ATOM     84  F   UNL     1     -12.097   6.774  -1.098  1.00  0.00    -0.205 F 
ATOM     85  C   UNL     1     -15.129   4.735  -0.878  1.00  0.00     0.022 A 
BRANCH  83  86
ATOM     86  S   UNL     1     -13.149   4.833   1.026  1.00  0.00     0.127 S 
ATOM     87  O   UNL     1     -13.781   5.760   1.960  1.00  0.00    -0.237 OA
ATOM     88  O   UNL     1     -13.572   3.438   1.160  1.00  0.00    -0.237 OA
ATOM     89  O   UNL     1     -11.716   4.999   0.822  1.00  0.00    -0.744 OA
ENDBRANCH  83  86
ENDBRANCH  55  79
BRANCH  67  90
ATOM     90  C   UNL     1     -15.396  12.585  -5.563  1.00  0.00     0.023 A 
ATOM     91  C   UNL     1     -15.532  13.361  -4.396  1.00  0.00     0.012 A 
ATOM     92  C   UNL     1     -16.313  12.751  -6.619  1.00  0.00     0.148 A 
ATOM     93  C   UNL     1     -16.578  14.274  -4.273  1.00  0.00     0.002 A 
ATOM     94  C   UNL     1     -17.328  13.694  -6.506  1.00  0.00     0.091 A 
ATOM     95  F   UNL     1     -16.179  11.985  -7.712  1.00  0.00    -0.205 F 
ATOM     96  C   UNL     1     -17.467  14.450  -5.331  1.00  0.00     0.022 A 
BRANCH  94  97
ATOM     97  S   UNL     1     -18.456  14.047  -7.859  1.00  0.00     0.127 S 
ATOM     98  O   UNL     1     -19.655  13.322  -7.446  1.00  0.00    -0.237 OA
ATOM     99  O   UNL     1     -18.573  15.505  -7.800  1.00  0.00    -0.237 OA
ATOM    100  O   UNL     1     -17.799  13.548  -9.060  1.00  0.00    -0.744 OA
ENDBRANCH  94  97
ENDBRANCH  67  90
ENDBRANCH  41  42
ENDBRANCH  33  36
ENDBRANCH  31  32
ENDBRANCH  30  31
ENDBRANCH   1  30
TORSDOF 18
