REMARK SMILES COc1ncccc1C(=O)N[C@@](C)(C(=O)NCCCCNC(=O)c1ccc(-c2c3nc(c(-c4cccc(S(=O)(=O)[O-])c4F)c4ccc([nH]4)c(-c4cccc(S(=O)(=O)[O-])c4F)c4nc(c(-c5cccc(S(=O)(=O)[O-])c5F)c5ccc2[nH]5)C=C4)C=C3)cc1)C(F)(F)F
REMARK SMILES IDX 18 1 17 2 16 3 14 4 15 5 12 7 13 8 11 9 9 10 10 11 8 13 3 14
REMARK SMILES IDX 4 15 5 16 7 17 6 18 2 19 1 20 87 21 88 22 89 23 90 24 19 25
REMARK SMILES IDX 20 26 21 27 22 28 23 30 24 31 25 32 86 33 26 34 85 35 27 36
REMARK SMILES IDX 28 37 29 38 79 39 30 40 84 41 78 42 80 43 31 44 83 45 77 46
REMARK SMILES IDX 76 47 32 49 64 50 44 51 63 52 45 53 48 54 62 55 81 56 46 57
REMARK SMILES IDX 47 58 61 60 82 61 49 62 33 63 34 64 42 65 35 66 37 67 43 68
REMARK SMILES IDX 36 69 38 70 39 71 40 72 41 73 65 74 66 75 74 76 67 77 69 78
REMARK SMILES IDX 75 79 68 80 70 81 71 82 72 83 73 84 50 85 51 86 59 87 52 88
REMARK SMILES IDX 54 89 60 90 53 91 55 92 56 93 57 94 58 95
REMARK H PARENT 16 6 11 12 21 29 80 48 48 59
REMARK Flexibility Score: inf
ROOT
ATOM      1  C   UNL     1       7.732   0.560   1.110  1.00  0.00     0.023 C 
ENDROOT
BRANCH   1   2
ATOM      2  C   UNL     1       7.476  -0.927   0.878  1.00  0.00     0.116 C 
BRANCH   2   3
ATOM      3  N   UNL     1       7.346  -1.681   2.115  1.00  0.00    -0.354 N 
ATOM      4  C   UNL     1       6.532  -2.698   2.527  1.00  0.00     0.254 C 
ATOM      5  O   UNL     1       6.836  -3.188   3.618  1.00  0.00    -0.272 OA
ATOM      6  H   UNL     1       7.985  -1.396   2.807  1.00  0.00     0.163 HD
BRANCH   4   7
ATOM      7  C   UNL     1       5.268  -3.142   1.747  1.00  0.00     0.212 C 
ATOM      8  C   UNL     1       5.599  -3.585   0.310  1.00  0.00     0.056 C 
BRANCH   7   9
ATOM      9  N   UNL     1       4.434  -1.879   1.748  1.00  0.00    -0.330 N 
ATOM     10  C   UNL     1       3.184  -1.335   1.737  1.00  0.00     0.257 C 
ATOM     11  O   UNL     1       3.222  -0.125   1.489  1.00  0.00    -0.269 OA
ATOM     12  H   UNL     1       5.067  -1.126   1.761  1.00  0.00     0.165 HD
BRANCH  10  13
ATOM     13  C   UNL     1       1.864  -1.968   2.004  1.00  0.00     0.101 A 
ATOM     14  C   UNL     1       0.673  -1.313   1.648  1.00  0.00     0.226 A 
ATOM     15  N   UNL     1      -0.582  -1.775   1.911  1.00  0.00    -0.221 NA
ATOM     16  C   UNL     1      -0.682  -2.933   2.584  1.00  0.00     0.115 A 
ATOM     17  C   UNL     1       1.689  -3.143   2.727  1.00  0.00     0.021 A 
ATOM     18  C   UNL     1       0.416  -3.648   3.007  1.00  0.00     0.021 A 
BRANCH  14  19
ATOM     19  O   UNL     1       0.663  -0.055   1.106  1.00  0.00    -0.480 OA
ATOM     20  C   UNL     1       0.571  -0.139  -0.308  1.00  0.00     0.280 C 
ENDBRANCH  14  19
ENDBRANCH  10  13
ENDBRANCH   7   9
BRANCH   7  21
ATOM     21  C   UNL     1       4.779  -4.405   2.479  1.00  0.00     0.420 C 
ATOM     22  F   UNL     1       4.398  -4.189   3.754  1.00  0.00    -0.168 F 
ATOM     23  F   UNL     1       3.711  -4.939   1.824  1.00  0.00    -0.168 F 
ATOM     24  F   UNL     1       5.714  -5.387   2.488  1.00  0.00    -0.168 F 
ENDBRANCH   7  21
ENDBRANCH   4   7
ENDBRANCH   2   3
ENDBRANCH   1   2
BRANCH   1  25
ATOM     25  C   UNL     1       8.933   0.907   1.990  1.00  0.00     0.023 C 
BRANCH  25  26
ATOM     26  C   UNL     1      10.245   0.224   1.624  1.00  0.00     0.116 C 
BRANCH  26  27
ATOM     27  N   UNL     1      10.674   0.504   0.263  1.00  0.00    -0.352 N 
ATOM     28  C   UNL     1      11.898   0.948  -0.189  1.00  0.00     0.251 C 
ATOM     29  H   UNL     1       9.995   0.357  -0.433  1.00  0.00     0.163 HD
ATOM     30  O   UNL     1      12.045   1.246  -1.362  1.00  0.00    -0.269 OA
BRANCH  28  31
ATOM     31  C   UNL     1      13.019   1.090   0.768  1.00  0.00     0.039 A 
ATOM     32  C   UNL     1      13.750   2.280   0.777  1.00  0.00     0.014 A 
ATOM     33  C   UNL     1      13.329   0.067   1.668  1.00  0.00     0.014 A 
ATOM     34  C   UNL     1      14.747   2.471   1.737  1.00  0.00     0.010 A 
ATOM     35  C   UNL     1      14.268   0.289   2.671  1.00  0.00     0.010 A 
ATOM     36  C   UNL     1      14.989   1.493   2.716  1.00  0.00    -0.014 A 
BRANCH  36  37
ATOM     37  C   UNL     1      15.985   1.711   3.797  1.00  0.00     0.031 A 
ATOM     38  C   UNL     1      17.188   0.813   3.910  1.00  0.00     0.074 A 
ATOM     39  C   UNL     1      15.768   2.668   4.722  1.00  0.00     0.049 A 
ATOM     40  N   UNL     1      18.133   0.809   4.815  1.00  0.00    -0.248 NA
ATOM     41  C   UNL     1      17.336  -0.237   2.888  1.00  0.00     0.031 C 
ATOM     42  C   UNL     1      14.604   3.557   4.765  1.00  0.00     0.029 A 
ATOM     43  N   UNL     1      16.506   3.038   5.819  1.00  0.00    -0.354 N 
ATOM     44  C   UNL     1      18.968  -0.253   4.489  1.00  0.00     0.074 A 
ATOM     45  C   UNL     1      18.395  -0.899   3.329  1.00  0.00     0.031 C 
ATOM     46  C   UNL     1      14.712   4.374   5.825  1.00  0.00     0.029 A 
ATOM     47  C   UNL     1      15.932   4.049   6.556  1.00  0.00     0.049 A 
ATOM     48  H   UNL     1      17.364   2.619   6.056  1.00  0.00     0.167 HD
ATOM     49  C   UNL     1      20.127  -0.635   5.077  1.00  0.00     0.034 A 
ATOM     50  C   UNL     1      16.343   4.644   7.694  1.00  0.00     0.034 A 
ATOM     51  C   UNL     1      20.715   0.033   6.206  1.00  0.00     0.049 A 
ATOM     52  C   UNL     1      17.645   4.212   8.314  1.00  0.00     0.074 A 
ATOM     53  C   UNL     1      21.917  -0.237   6.836  1.00  0.00     0.029 A 
ATOM     54  N   UNL     1      20.143   1.103   6.877  1.00  0.00    -0.354 N 
ATOM     55  N   UNL     1      18.493   3.300   7.905  1.00  0.00    -0.248 NA
ATOM     56  C   UNL     1      18.065   4.916   9.535  1.00  0.00     0.031 C 
ATOM     57  C   UNL     1      22.065   0.660   7.899  1.00  0.00     0.029 A 
ATOM     58  C   UNL     1      20.967   1.506   7.915  1.00  0.00     0.049 A 
ATOM     59  H   UNL     1      19.279   1.516   6.650  1.00  0.00     0.167 HD
ATOM     60  C   UNL     1      19.564   3.351   8.790  1.00  0.00     0.074 A 
ATOM     61  C   UNL     1      19.267   4.398   9.745  1.00  0.00     0.031 C 
ATOM     62  C   UNL     1      20.687   2.591   8.819  1.00  0.00     0.034 A 
BRANCH  49  63
ATOM     63  C   UNL     1      20.872  -1.794   4.466  1.00  0.00     0.023 A 
ATOM     64  C   UNL     1      21.508  -1.625   3.218  1.00  0.00     0.012 A 
ATOM     65  C   UNL     1      20.994  -3.023   5.142  1.00  0.00     0.148 A 
ATOM     66  C   UNL     1      22.223  -2.670   2.636  1.00  0.00     0.002 A 
ATOM     67  C   UNL     1      21.747  -4.046   4.576  1.00  0.00     0.091 A 
ATOM     68  F   UNL     1      20.367  -3.172   6.317  1.00  0.00    -0.205 F 
ATOM     69  C   UNL     1      22.352  -3.876   3.320  1.00  0.00     0.022 A 
BRANCH  67  70
ATOM     70  S   UNL     1      22.041  -5.611   5.408  1.00  0.00     0.127 S 
ATOM     71  O   UNL     1      21.265  -6.535   4.580  1.00  0.00    -0.237 OA
ATOM     72  O   UNL     1      23.491  -5.756   5.287  1.00  0.00    -0.237 OA
ATOM     73  O   UNL     1      21.558  -5.440   6.771  1.00  0.00    -0.744 OA
ENDBRANCH  67  70
ENDBRANCH  49  63
BRANCH  50  74
ATOM     74  C   UNL     1      15.553   5.762   8.287  1.00  0.00     0.023 A 
ATOM     75  C   UNL     1      16.085   7.066   8.269  1.00  0.00     0.012 A 
ATOM     76  C   UNL     1      14.288   5.546   8.864  1.00  0.00     0.148 A 
ATOM     77  C   UNL     1      15.392   8.127   8.852  1.00  0.00     0.002 A 
ATOM     78  C   UNL     1      13.577   6.617   9.394  1.00  0.00     0.091 A 
ATOM     79  F   UNL     1      13.803   4.296   8.884  1.00  0.00    -0.205 F 
ATOM     80  C   UNL     1      14.135   7.905   9.407  1.00  0.00     0.022 A 
BRANCH  78  81
ATOM     81  S   UNL     1      11.899   6.445  10.013  1.00  0.00     0.127 S 
ATOM     82  O   UNL     1      12.100   6.557  11.455  1.00  0.00    -0.237 OA
ATOM     83  O   UNL     1      11.228   7.587   9.392  1.00  0.00    -0.237 OA
ATOM     84  O   UNL     1      11.439   5.148   9.534  1.00  0.00    -0.744 OA
ENDBRANCH  78  81
ENDBRANCH  50  74
BRANCH  62  85
ATOM     85  C   UNL     1      21.707   2.891   9.886  1.00  0.00     0.023 A 
ATOM     86  C   UNL     1      21.441   2.553  11.227  1.00  0.00     0.012 A 
ATOM     87  C   UNL     1      22.957   3.443   9.545  1.00  0.00     0.148 A 
ATOM     88  C   UNL     1      22.391   2.793  12.219  1.00  0.00     0.002 A 
ATOM     89  C   UNL     1      23.919   3.632  10.531  1.00  0.00     0.091 A 
ATOM     90  F   UNL     1      23.184   3.775   8.266  1.00  0.00    -0.205 F 
ATOM     91  C   UNL     1      23.633   3.320  11.870  1.00  0.00     0.022 A 
BRANCH  89  92
ATOM     92  S   UNL     1      25.577   4.213  10.160  1.00  0.00     0.127 S 
ATOM     93  O   UNL     1      25.545   5.571  10.699  1.00  0.00    -0.237 OA
ATOM     94  O   UNL     1      26.410   3.276  10.915  1.00  0.00    -0.237 OA
ATOM     95  O   UNL     1      25.722   4.118   8.713  1.00  0.00    -0.744 OA
ENDBRANCH  89  92
ENDBRANCH  62  85
ENDBRANCH  36  37
ENDBRANCH  28  31
ENDBRANCH  26  27
ENDBRANCH  25  26
ENDBRANCH   1  25
TORSDOF 18
