REMARK SMILES C[C@H]1[C@@H](C(=O)NCCCCNC(=O)c2ccc(-c3c4nc(c(-c5cccc(S(=O)(=O)[O-])c5F)c5ccc([nH]5)c(-c5cccc(S(=O)(=O)[O-])c5F)c5nc(c(-c6cccc(S(=O)(=O)[O-])c6F)c6ccc3[nH]6)C=C5)C=C4)cc2)CCN1C(=O)/C=C/c1cccc(F)c1
REMARK SMILES IDX 8 1 7 2 6 3 4 4 5 5 3 7 1 8 2 9 79 10 77 11 78 12 80 13
REMARK SMILES IDX 81 14 82 15 83 16 84 17 85 18 90 19 86 20 88 21 87 22 89 23
REMARK SMILES IDX 9 24 10 25 11 26 12 27 13 29 14 30 15 31 76 32 16 33 75 34
REMARK SMILES IDX 17 35 18 36 19 37 69 38 20 39 74 40 68 41 70 42 21 43 73 44
REMARK SMILES IDX 67 45 66 46 22 48 54 49 34 50 53 51 35 52 38 53 52 54 71 55
REMARK SMILES IDX 36 56 37 57 51 59 72 60 39 61 23 62 24 63 32 64 25 65 27 66
REMARK SMILES IDX 33 67 26 68 28 69 29 70 30 71 31 72 55 73 56 74 64 75 57 76
REMARK SMILES IDX 59 77 65 78 58 79 60 80 61 81 62 82 63 83 40 84 41 85 49 86
REMARK SMILES IDX 42 87 44 88 50 89 43 90 45 91 46 92 47 93 48 94
REMARK H PARENT 6 6 11 28 70 47 38 58
REMARK Flexibility Score: inf
ROOT
ATOM      1  C   UNL     1       3.441   0.528  -2.011  1.00  0.00     0.023 C 
ENDROOT
BRANCH   1   2
ATOM      2  C   UNL     1       2.705   1.637  -1.258  1.00  0.00     0.116 C 
BRANCH   2   3
ATOM      3  N   UNL     1       1.394   1.853  -1.841  1.00  0.00    -0.356 N 
ATOM      4  C   UNL     1       0.162   1.413  -1.458  1.00  0.00     0.225 C 
ATOM      5  O   UNL     1      -0.767   1.612  -2.242  1.00  0.00    -0.275 OA
ATOM      6  H   UNL     1       1.395   2.413  -2.651  1.00  0.00     0.163 HD
BRANCH   4   7
ATOM      7  C   UNL     1      -0.073   0.810  -0.072  1.00  0.00     0.102 C 
ATOM      8  C   UNL     1       1.230  -1.361  -0.791  1.00  0.00     0.032 C 
ATOM      9  C   UNL     1       0.617  -0.518   0.321  1.00  0.00     0.094 C 
ATOM     10  N   UNL     1      -0.427  -1.316   0.969  1.00  0.00    -0.336 N 
ATOM     11  C   UNL     1      -1.576   0.565   0.221  1.00  0.00     0.037 C 
ATOM     12  C   UNL     1      -1.714  -0.928   0.444  1.00  0.00     0.121 C 
BRANCH  10  13
ATOM     13  C   UNL     1      -0.268  -2.460   1.727  1.00  0.00     0.246 C 
ATOM     14  O   UNL     1      -1.197  -3.176   2.087  1.00  0.00    -0.270 OA
BRANCH  13  15
ATOM     15  C   UNL     1       1.130  -2.899   1.991  1.00  0.00     0.072 C 
ATOM     16  C   UNL     1       1.985  -2.145   2.698  1.00  0.00     0.014 C 
BRANCH  16  17
ATOM     17  C   UNL     1       3.434  -2.378   2.844  1.00  0.00    -0.023 A 
ATOM     18  C   UNL     1       4.178  -1.461   3.607  1.00  0.00     0.008 A 
ATOM     19  C   UNL     1       4.124  -3.413   2.200  1.00  0.00     0.047 A 
ATOM     20  C   UNL     1       5.569  -1.572   3.723  1.00  0.00     0.004 A 
ATOM     21  C   UNL     1       5.508  -3.519   2.325  1.00  0.00     0.123 A 
ATOM     22  C   UNL     1       6.237  -2.607   3.077  1.00  0.00     0.039 A 
ATOM     23  F   UNL     1       6.149  -4.515   1.700  1.00  0.00    -0.207 F 
ENDBRANCH  16  17
ENDBRANCH  13  15
ENDBRANCH  10  13
ENDBRANCH   4   7
ENDBRANCH   2   3
ENDBRANCH   1   2
BRANCH   1  24
ATOM     24  C   UNL     1       4.277   0.967  -3.198  1.00  0.00     0.023 C 
BRANCH  24  25
ATOM     25  C   UNL     1       5.536   1.722  -2.829  1.00  0.00     0.116 C 
BRANCH  25  26
ATOM     26  N   UNL     1       6.433   0.988  -1.937  1.00  0.00    -0.352 N 
ATOM     27  C   UNL     1       7.796   0.820  -2.037  1.00  0.00     0.251 C 
ATOM     28  H   UNL     1       6.005   0.558  -1.161  1.00  0.00     0.163 HD
ATOM     29  O   UNL     1       8.403   0.118  -1.233  1.00  0.00    -0.269 OA
BRANCH  27  30
ATOM     30  C   UNL     1       8.501   1.464  -3.161  1.00  0.00     0.039 A 
ATOM     31  C   UNL     1       9.316   0.694  -3.991  1.00  0.00     0.014 A 
ATOM     32  C   UNL     1       8.227   2.798  -3.466  1.00  0.00     0.014 A 
ATOM     33  C   UNL     1       9.775   1.239  -5.191  1.00  0.00     0.010 A 
ATOM     34  C   UNL     1       8.572   3.288  -4.715  1.00  0.00     0.010 A 
ATOM     35  C   UNL     1       9.358   2.521  -5.588  1.00  0.00    -0.014 A 
BRANCH  35  36
ATOM     36  C   UNL     1       9.731   3.100  -6.903  1.00  0.00     0.031 A 
ATOM     37  C   UNL     1      10.465   4.414  -6.949  1.00  0.00     0.074 A 
ATOM     38  C   UNL     1       9.306   2.518  -8.043  1.00  0.00     0.049 A 
ATOM     39  N   UNL     1      10.774   5.151  -7.983  1.00  0.00    -0.248 NA
ATOM     40  C   UNL     1      10.853   5.008  -5.657  1.00  0.00     0.031 C 
ATOM     41  C   UNL     1       8.491   1.304  -8.129  1.00  0.00     0.029 A 
ATOM     42  N   UNL     1       9.480   2.889  -9.353  1.00  0.00    -0.354 N 
ATOM     43  C   UNL     1      11.333   6.312  -7.464  1.00  0.00     0.074 A 
ATOM     44  C   UNL     1      11.273   6.208  -6.024  1.00  0.00     0.031 C 
ATOM     45  C   UNL     1       8.252   1.022  -9.420  1.00  0.00     0.029 A 
ATOM     46  C   UNL     1       8.874   2.044 -10.254  1.00  0.00     0.049 A 
ATOM     47  H   UNL     1       9.991   3.687  -9.623  1.00  0.00     0.167 HD
ATOM     48  C   UNL     1      11.893   7.352  -8.123  1.00  0.00     0.034 A 
ATOM     49  C   UNL     1       8.833   2.088 -11.601  1.00  0.00     0.034 A 
ATOM     50  C   UNL     1      12.043   7.402  -9.549  1.00  0.00     0.049 A 
ATOM     51  C   UNL     1       9.562   3.197 -12.312  1.00  0.00     0.074 A 
ATOM     52  C   UNL     1      12.705   8.345 -10.313  1.00  0.00     0.029 A 
ATOM     53  N   UNL     1      11.537   6.455 -10.425  1.00  0.00    -0.354 N 
ATOM     54  N   UNL     1      10.236   4.200 -11.801  1.00  0.00    -0.248 NA
ATOM     55  C   UNL     1       9.562   3.160 -13.781  1.00  0.00     0.031 C 
ATOM     56  C   UNL     1      12.599   7.966 -11.655  1.00  0.00     0.029 A 
ATOM     57  C   UNL     1      11.876   6.785 -11.724  1.00  0.00     0.049 A 
ATOM     58  H   UNL     1      11.013   5.664 -10.162  1.00  0.00     0.167 HD
ATOM     59  C   UNL     1      10.767   4.893 -12.883  1.00  0.00     0.074 A 
ATOM     60  C   UNL     1      10.355   4.182 -14.076  1.00  0.00     0.031 C 
ATOM     61  C   UNL     1      11.511   6.026 -12.892  1.00  0.00     0.034 A 
BRANCH  48  62
ATOM     62  C   UNL     1      12.463   8.473  -7.295  1.00  0.00     0.023 A 
ATOM     63  C   UNL     1      13.640   8.252  -6.549  1.00  0.00     0.012 A 
ATOM     64  C   UNL     1      11.860   9.745  -7.274  1.00  0.00     0.148 A 
ATOM     65  C   UNL     1      14.184   9.265  -5.762  1.00  0.00     0.002 A 
ATOM     66  C   UNL     1      12.435  10.764  -6.522  1.00  0.00     0.091 A 
ATOM     67  F   UNL     1      10.728   9.929  -7.967  1.00  0.00    -0.205 F 
ATOM     68  C   UNL     1      13.588  10.522  -5.757  1.00  0.00     0.022 A 
BRANCH  66  69
ATOM     69  S   UNL     1      11.785  12.438  -6.509  1.00  0.00     0.127 S 
ATOM     70  O   UNL     1      11.162  12.502  -5.188  1.00  0.00    -0.237 OA
ATOM     71  O   UNL     1      12.999  13.242  -6.650  1.00  0.00    -0.237 OA
ATOM     72  O   UNL     1      10.871  12.520  -7.639  1.00  0.00    -0.744 OA
ENDBRANCH  66  69
ENDBRANCH  48  62
BRANCH  49  73
ATOM     73  C   UNL     1       8.165   0.995 -12.364  1.00  0.00     0.023 A 
ATOM     74  C   UNL     1       8.960   0.072 -13.072  1.00  0.00     0.012 A 
ATOM     75  C   UNL     1       6.766   0.840 -12.369  1.00  0.00     0.148 A 
ATOM     76  C   UNL     1       8.374  -0.967 -13.795  1.00  0.00     0.002 A 
ATOM     77  C   UNL     1       6.191  -0.228 -13.051  1.00  0.00     0.091 A 
ATOM     78  F   UNL     1       6.024   1.735 -11.701  1.00  0.00    -0.205 F 
ATOM     79  C   UNL     1       6.991  -1.123 -13.777  1.00  0.00     0.022 A 
BRANCH  77  80
ATOM     80  S   UNL     1       4.430  -0.577 -12.975  1.00  0.00     0.127 S 
ATOM     81  O   UNL     1       3.978  -0.127 -14.288  1.00  0.00    -0.237 OA
ATOM     82  O   UNL     1       4.414  -2.028 -12.780  1.00  0.00    -0.237 OA
ATOM     83  O   UNL     1       3.935   0.182 -11.834  1.00  0.00    -0.744 OA
ENDBRANCH  77  80
ENDBRANCH  49  73
BRANCH  61  84
ATOM     84  C   UNL     1      11.957   6.559 -14.225  1.00  0.00     0.023 A 
ATOM     85  C   UNL     1      11.028   7.213 -15.057  1.00  0.00     0.012 A 
ATOM     86  C   UNL     1      13.310   6.496 -14.609  1.00  0.00     0.148 A 
ATOM     87  C   UNL     1      11.436   7.777 -16.264  1.00  0.00     0.002 A 
ATOM     88  C   UNL     1      13.717   7.099 -15.793  1.00  0.00     0.091 A 
ATOM     89  F   UNL     1      14.174   5.850 -13.811  1.00  0.00    -0.205 F 
ATOM     90  C   UNL     1      12.781   7.732 -16.625  1.00  0.00     0.022 A 
BRANCH  88  91
ATOM     91  S   UNL     1      15.444   7.171 -16.283  1.00  0.00     0.127 S 
ATOM     92  O   UNL     1      15.502   6.143 -17.321  1.00  0.00    -0.237 OA
ATOM     93  O   UNL     1      15.573   8.543 -16.776  1.00  0.00    -0.237 OA
ATOM     94  O   UNL     1      16.212   6.892 -15.077  1.00  0.00    -0.744 OA
ENDBRANCH  88  91
ENDBRANCH  61  84
ENDBRANCH  35  36
ENDBRANCH  27  30
ENDBRANCH  25  26
ENDBRANCH  24  25
ENDBRANCH   1  24
TORSDOF 17
