REMARK SMILES O=C(NCCCCNC(=O)c1ccc(-c2c3nc(c(-c4cccc(S(=O)(=O)[O-])c4F)c4ccc([nH]4)c(-c4cccc(S(=O)(=O)[O-])c4F)c4nc(c(-c5cccc(S(=O)(=O)[O-])c5F)c5ccc2[nH]5)C=C4)C=C3)cc1)c1ccc(/N=C\c2ccccc2O)cc1
REMARK SMILES IDX 5 1 4 2 3 3 1 4 2 5 74 7 75 8 88 9 76 10 87 11 77 12 78 13
REMARK SMILES IDX 79 14 80 15 81 16 85 17 82 18 84 19 83 20 86 21 6 23 7 24
REMARK SMILES IDX 8 25 9 26 10 28 11 29 12 30 73 31 13 32 72 33 14 34 15 35
REMARK SMILES IDX 16 36 66 37 17 38 71 39 65 40 67 41 18 42 70 43 64 44 63 45
REMARK SMILES IDX 19 47 51 48 31 49 50 50 32 51 35 52 49 53 68 54 33 55 34 56
REMARK SMILES IDX 48 58 69 59 36 60 20 61 21 62 29 63 22 64 24 65 30 66 23 67
REMARK SMILES IDX 25 68 26 69 27 70 28 71 52 72 53 73 61 74 54 75 56 76 62 77
REMARK SMILES IDX 55 78 57 79 58 80 59 81 60 82 37 83 38 84 46 85 39 86 41 87
REMARK SMILES IDX 47 88 40 89 42 90 43 91 44 92 45 93
REMARK H PARENT 3 6 86 22 8 27 67 46 35 57
REMARK Flexibility Score: inf
ROOT
ATOM      1  C   UNL     1       4.857  -1.976  -1.453  1.00  0.00     0.023 C 
ENDROOT
BRANCH   1   2
ATOM      2  C   UNL     1       4.575  -0.543  -1.017  1.00  0.00     0.116 C 
BRANCH   2   3
ATOM      3  N   UNL     1       3.168  -0.183  -1.049  1.00  0.00    -0.352 N 
ATOM      4  O   UNL     1       1.186   0.584  -0.299  1.00  0.00    -0.269 OA
ATOM      5  C   UNL     1       2.381   0.415  -0.092  1.00  0.00     0.251 C 
ATOM      6  H   UNL     1       2.704  -0.401  -1.889  1.00  0.00     0.163 HD
BRANCH   5   7
ATOM      7  C   UNL     1       2.950   0.803   1.220  1.00  0.00     0.039 A 
ATOM      8  C   UNL     1       4.182   1.444   1.347  1.00  0.00     0.016 A 
ATOM      9  C   UNL     1       2.210   0.515   2.366  1.00  0.00     0.016 A 
ATOM     10  C   UNL     1       4.751   1.605   2.613  1.00  0.00     0.029 A 
ATOM     11  C   UNL     1       2.757   0.755   3.630  1.00  0.00     0.029 A 
ATOM     12  C   UNL     1       4.075   1.201   3.769  1.00  0.00     0.063 A 
BRANCH  12  13
ATOM     13  N   UNL     1       4.788   1.303   4.976  1.00  0.00    -0.256 NA
ATOM     14  C   UNL     1       4.615   0.566   6.031  1.00  0.00     0.123 C 
BRANCH  14  15
ATOM     15  C   UNL     1       3.666  -0.533   6.250  1.00  0.00     0.035 A 
ATOM     16  C   UNL     1       2.682  -0.309   7.220  1.00  0.00     0.013 A 
ATOM     17  C   UNL     1       3.669  -1.711   5.501  1.00  0.00     0.124 A 
ATOM     18  C   UNL     1       1.660  -1.242   7.393  1.00  0.00     0.001 A 
ATOM     19  C   UNL     1       2.653  -2.645   5.685  1.00  0.00     0.047 A 
ATOM     20  C   UNL     1       1.640  -2.402   6.617  1.00  0.00     0.004 A 
BRANCH  17  21
ATOM     21  O   UNL     1       4.611  -2.003   4.557  1.00  0.00    -0.507 OA
ATOM     22  H   UNL     1       5.315  -1.405   4.396  1.00  0.00     0.293 HD
ENDBRANCH  17  21
ENDBRANCH  14  15
ENDBRANCH  12  13
ENDBRANCH   5   7
ENDBRANCH   2   3
ENDBRANCH   1   2
BRANCH   1  23
ATOM     23  C   UNL     1       4.399  -2.352  -2.858  1.00  0.00     0.023 C 
BRANCH  23  24
ATOM     24  C   UNL     1       4.808  -1.394  -3.970  1.00  0.00     0.116 C 
BRANCH  24  25
ATOM     25  N   UNL     1       6.250  -1.231  -4.094  1.00  0.00    -0.352 N 
ATOM     26  C   UNL     1       7.043  -1.338  -5.213  1.00  0.00     0.251 C 
ATOM     27  H   UNL     1       6.723  -1.013  -3.259  1.00  0.00     0.163 HD
ATOM     28  O   UNL     1       8.264  -1.263  -5.109  1.00  0.00    -0.269 OA
BRANCH  26  29
ATOM     29  C   UNL     1       6.423  -1.583  -6.534  1.00  0.00     0.039 A 
ATOM     30  C   UNL     1       6.930  -2.607  -7.339  1.00  0.00     0.014 A 
ATOM     31  C   UNL     1       5.325  -0.832  -6.960  1.00  0.00     0.014 A 
ATOM     32  C   UNL     1       6.281  -2.934  -8.534  1.00  0.00     0.010 A 
ATOM     33  C   UNL     1       4.637  -1.209  -8.110  1.00  0.00     0.010 A 
ATOM     34  C   UNL     1       5.104  -2.266  -8.907  1.00  0.00    -0.014 A 
BRANCH  34  35
ATOM     35  C   UNL     1       4.325  -2.668 -10.109  1.00  0.00     0.031 A 
ATOM     36  C   UNL     1       4.121  -1.692 -11.238  1.00  0.00     0.074 A 
ATOM     37  C   UNL     1       3.701  -3.864 -10.132  1.00  0.00     0.049 A 
ATOM     38  N   UNL     1       3.393  -1.821 -12.316  1.00  0.00    -0.248 NA
ATOM     39  C   UNL     1       4.800  -0.390 -11.127  1.00  0.00     0.031 C 
ATOM     40  C   UNL     1       3.749  -4.865  -9.064  1.00  0.00     0.029 A 
ATOM     41  N   UNL     1       2.872  -4.425 -11.072  1.00  0.00    -0.354 N 
ATOM     42  C   UNL     1       3.479  -0.604 -12.982  1.00  0.00     0.074 A 
ATOM     43  C   UNL     1       4.320   0.258 -12.180  1.00  0.00     0.031 C 
ATOM     44  C   UNL     1       2.979  -5.912  -9.405  1.00  0.00     0.029 A 
ATOM     45  C   UNL     1       2.359  -5.647 -10.699  1.00  0.00     0.049 A 
ATOM     46  H   UNL     1       2.664  -3.994 -11.932  1.00  0.00     0.167 HD
ATOM     47  C   UNL     1       2.928  -0.244 -14.164  1.00  0.00     0.034 A 
ATOM     48  C   UNL     1       1.478  -6.456 -11.321  1.00  0.00     0.034 A 
ATOM     49  C   UNL     1       2.154  -1.126 -14.994  1.00  0.00     0.049 A 
ATOM     50  C   UNL     1       0.934  -6.052 -12.666  1.00  0.00     0.074 A 
ATOM     51  C   UNL     1       1.666  -0.895 -16.269  1.00  0.00     0.029 A 
ATOM     52  N   UNL     1       1.747  -2.400 -14.634  1.00  0.00    -0.354 N 
ATOM     53  N   UNL     1       1.186  -4.973 -13.367  1.00  0.00    -0.248 NA
ATOM     54  C   UNL     1       0.011  -6.991 -13.322  1.00  0.00     0.031 C 
ATOM     55  C   UNL     1       0.944  -2.023 -16.670  1.00  0.00     0.029 A 
ATOM     56  C   UNL     1       1.001  -2.963 -15.654  1.00  0.00     0.049 A 
ATOM     57  H   UNL     1       1.958  -2.839 -13.778  1.00  0.00     0.167 HD
ATOM     58  C   UNL     1       0.489  -5.124 -14.561  1.00  0.00     0.074 A 
ATOM     59  C   UNL     1      -0.181  -6.405 -14.496  1.00  0.00     0.031 C 
ATOM     60  C   UNL     1       0.398  -4.269 -15.609  1.00  0.00     0.034 A 
BRANCH  47  61
ATOM     61  C   UNL     1       3.184   1.149 -14.672  1.00  0.00     0.023 A 
ATOM     62  C   UNL     1       4.455   1.482 -15.182  1.00  0.00     0.012 A 
ATOM     63  C   UNL     1       2.144   2.097 -14.731  1.00  0.00     0.148 A 
ATOM     64  C   UNL     1       4.694   2.745 -15.723  1.00  0.00     0.002 A 
ATOM     65  C   UNL     1       2.378   3.339 -15.310  1.00  0.00     0.091 A 
ATOM     66  F   UNL     1       0.948   1.767 -14.222  1.00  0.00    -0.205 F 
ATOM     67  C   UNL     1       3.654   3.667 -15.798  1.00  0.00     0.022 A 
BRANCH  65  68
ATOM     68  S   UNL     1       1.085   4.567 -15.529  1.00  0.00     0.127 S 
ATOM     69  O   UNL     1       1.496   5.600 -14.578  1.00  0.00    -0.237 OA
ATOM     70  O   UNL     1       1.246   4.935 -16.936  1.00  0.00    -0.237 OA
ATOM     71  O   UNL     1      -0.168   3.894 -15.215  1.00  0.00    -0.744 OA
ENDBRANCH  65  68
ENDBRANCH  47  61
BRANCH  48  72
ATOM     72  C   UNL     1       1.098  -7.764 -10.714  1.00  0.00     0.023 A 
ATOM     73  C   UNL     1       1.533  -8.958 -11.323  1.00  0.00     0.012 A 
ATOM     74  C   UNL     1       0.316  -7.838  -9.546  1.00  0.00     0.148 A 
ATOM     75  C   UNL     1       1.161 -10.200 -10.805  1.00  0.00     0.002 A 
ATOM     76  C   UNL     1      -0.005  -9.078  -9.003  1.00  0.00     0.091 A 
ATOM     77  F   UNL     1      -0.105  -6.693  -8.988  1.00  0.00    -0.205 F 
ATOM     78  C   UNL     1       0.401 -10.260  -9.641  1.00  0.00     0.022 A 
BRANCH  76  79
ATOM     79  S   UNL     1      -0.869  -9.238  -7.436  1.00  0.00     0.127 S 
ATOM     80  O   UNL     1      -2.221  -9.577  -7.872  1.00  0.00    -0.237 OA
ATOM     81  O   UNL     1      -0.138 -10.331  -6.793  1.00  0.00    -0.237 OA
ATOM     82  O   UNL     1      -0.713  -7.949  -6.777  1.00  0.00    -0.744 OA
ENDBRANCH  76  79
ENDBRANCH  48  72
BRANCH  60  83
ATOM     83  C   UNL     1      -0.414  -4.699 -16.801  1.00  0.00     0.023 A 
ATOM     84  C   UNL     1      -1.821  -4.710 -16.722  1.00  0.00     0.012 A 
ATOM     85  C   UNL     1       0.214  -5.002 -18.025  1.00  0.00     0.148 A 
ATOM     86  C   UNL     1      -2.589  -5.043 -17.837  1.00  0.00     0.002 A 
ATOM     87  C   UNL     1      -0.559  -5.285 -19.145  1.00  0.00     0.091 A 
ATOM     88  F   UNL     1       1.554  -5.003 -18.074  1.00  0.00    -0.205 F 
ATOM     89  C   UNL     1      -1.960  -5.316 -19.050  1.00  0.00     0.022 A 
BRANCH  87  90
ATOM     90  S   UNL     1       0.161  -5.550 -20.769  1.00  0.00     0.127 S 
ATOM     91  O   UNL     1      -0.012  -6.992 -20.939  1.00  0.00    -0.237 OA
ATOM     92  O   UNL     1      -0.692  -4.728 -21.627  1.00  0.00    -0.237 OA
ATOM     93  O   UNL     1       1.541  -5.092 -20.675  1.00  0.00    -0.744 OA
ENDBRANCH  87  90
ENDBRANCH  60  83
ENDBRANCH  34  35
ENDBRANCH  26  29
ENDBRANCH  24  25
ENDBRANCH  23  24
ENDBRANCH   1  23
TORSDOF 17
