REMARK SMILES Cc1nsc(NC(=O)N2CCC[C@@H](C)C2)c1C(=O)NCCCCNC(=O)c1ccc(-c2c3nc(c(-c4cccc(S(=O)(=O)[O-])c4F)c4ccc([nH]4)c(-c4cccc(S(=O)(=O)[O-])c4F)c4nc(c(-c5cccc(S(=O)(=O)[O-])c5F)c5ccc2[nH]5)C=C4)C=C3)cc1
REMARK SMILES IDX 22 1 21 2 20 3 19 4 17 5 18 6 16 8 1 9 2 10 3 11 4 12 5 13
REMARK SMILES IDX 6 14 7 15 8 17 9 18 10 19 15 20 11 21 13 22 12 23 14 24
REMARK SMILES IDX 23 25 24 26 25 27 26 29 27 30 28 31 89 32 29 33 88 34 30 35
REMARK SMILES IDX 31 36 32 37 82 38 33 39 87 40 81 41 83 42 34 43 86 44 80 45
REMARK SMILES IDX 79 46 35 48 67 49 47 50 66 51 48 52 51 53 65 54 84 55 49 56
REMARK SMILES IDX 50 57 64 59 85 60 52 61 36 62 37 63 45 64 38 65 40 66 46 67
REMARK SMILES IDX 39 68 41 69 42 70 43 71 44 72 68 73 69 74 77 75 70 76 72 77
REMARK SMILES IDX 78 78 71 79 73 80 74 81 75 82 76 83 53 84 54 85 62 86 55 87
REMARK SMILES IDX 57 88 63 89 56 90 58 91 59 92 60 93 61 94
REMARK H PARENT 19 7 6 16 24 28 83 47 51 58
REMARK Flexibility Score: inf
ROOT
ATOM      1  C   UNL     1       1.587   4.172  -0.460  1.00  0.00     0.023 C 
ENDROOT
BRANCH   1   2
ATOM      2  C   UNL     1       1.285   2.679  -0.275  1.00  0.00     0.023 C 
BRANCH   2   3
ATOM      3  C   UNL     1      -0.183   2.291  -0.471  1.00  0.00     0.116 C 
BRANCH   3   4
ATOM      4  N   UNL     1      -0.526   2.032  -1.842  1.00  0.00    -0.352 N 
ATOM      5  C   UNL     1      -0.469   0.938  -2.655  1.00  0.00     0.256 C 
ATOM      6  O   UNL     1      -1.097   1.089  -3.712  1.00  0.00    -0.269 OA
ATOM      7  H   UNL     1      -0.885   2.827  -2.300  1.00  0.00     0.163 HD
BRANCH   5   8
ATOM      8  C   UNL     1       0.342  -0.277  -2.463  1.00  0.00     0.097 A 
ATOM      9  C   UNL     1       1.357  -0.630   0.035  1.00  0.00     0.069 C 
ATOM     10  C   UNL     1       1.207  -0.851  -1.427  1.00  0.00     0.066 A 
ATOM     11  N   UNL     1       2.037  -1.818  -1.843  1.00  0.00    -0.195 NA
ATOM     12  S   UNL     1       1.733  -2.152  -3.411  1.00  0.00    -0.017 S 
ATOM     13  C   UNL     1       0.315  -1.227  -3.498  1.00  0.00     0.130 A 
BRANCH  13  14
ATOM     14  N   UNL     1      -0.537  -1.340  -4.589  1.00  0.00    -0.297 N 
ATOM     15  C   UNL     1      -0.595  -2.355  -5.503  1.00  0.00     0.322 C 
ATOM     16  H   UNL     1      -1.176  -0.602  -4.719  1.00  0.00     0.172 HD
ATOM     17  O   UNL     1      -0.821  -2.102  -6.687  1.00  0.00    -0.248 OA
BRANCH  15  18
ATOM     18  N   UNL     1      -0.393  -3.650  -5.066  1.00  0.00    -0.324 N 
ATOM     19  C   UNL     1      -1.022  -4.209  -3.868  1.00  0.00     0.121 C 
ATOM     20  C   UNL     1       0.172  -4.625  -5.982  1.00  0.00     0.124 C 
ATOM     21  C   UNL     1      -0.089  -5.152  -3.104  1.00  0.00     0.022 C 
ATOM     22  C   UNL     1       1.283  -5.386  -5.252  1.00  0.00     0.005 C 
ATOM     23  C   UNL     1       0.712  -6.094  -4.012  1.00  0.00     0.007 C 
ATOM     24  C   UNL     1       1.995  -6.362  -6.179  1.00  0.00     0.009 C 
ENDBRANCH  15  18
ENDBRANCH  13  14
ENDBRANCH   5   8
ENDBRANCH   3   4
ENDBRANCH   2   3
ENDBRANCH   1   2
BRANCH   1  25
ATOM     25  C   UNL     1       0.944   5.086   0.584  1.00  0.00     0.116 C 
BRANCH  25  26
ATOM     26  N   UNL     1       1.392   4.787   1.942  1.00  0.00    -0.352 N 
ATOM     27  C   UNL     1       0.817   5.182   3.134  1.00  0.00     0.251 C 
ATOM     28  H   UNL     1       2.204   4.235   2.017  1.00  0.00     0.163 HD
ATOM     29  O   UNL     1       1.478   5.221   4.161  1.00  0.00    -0.269 OA
BRANCH  27  30
ATOM     30  C   UNL     1      -0.611   5.544   3.152  1.00  0.00     0.039 A 
ATOM     31  C   UNL     1      -1.038   6.699   3.812  1.00  0.00     0.014 A 
ATOM     32  C   UNL     1      -1.520   4.719   2.488  1.00  0.00     0.014 A 
ATOM     33  C   UNL     1      -2.376   7.072   3.721  1.00  0.00     0.010 A 
ATOM     34  C   UNL     1      -2.828   5.127   2.333  1.00  0.00     0.010 A 
ATOM     35  C   UNL     1      -3.261   6.297   2.957  1.00  0.00    -0.014 A 
BRANCH  35  36
ATOM     36  C   UNL     1      -4.594   6.810   2.643  1.00  0.00     0.031 A 
ATOM     37  C   UNL     1      -4.596   8.117   1.926  1.00  0.00     0.074 A 
ATOM     38  C   UNL     1      -5.718   6.074   2.777  1.00  0.00     0.049 A 
ATOM     39  N   UNL     1      -5.074   9.239   2.353  1.00  0.00    -0.248 NA
ATOM     40  C   UNL     1      -3.861   8.233   0.656  1.00  0.00     0.031 C 
ATOM     41  C   UNL     1      -5.818   4.677   3.209  1.00  0.00     0.029 A 
ATOM     42  N   UNL     1      -6.996   6.369   2.401  1.00  0.00    -0.354 N 
ATOM     43  C   UNL     1      -4.916  10.146   1.306  1.00  0.00     0.074 A 
ATOM     44  C   UNL     1      -3.991   9.535   0.390  1.00  0.00     0.031 C 
ATOM     45  C   UNL     1      -7.012   4.177   2.827  1.00  0.00     0.029 A 
ATOM     46  C   UNL     1      -7.808   5.245   2.250  1.00  0.00     0.049 A 
ATOM     47  H   UNL     1      -7.316   7.288   2.251  1.00  0.00     0.167 HD
ATOM     48  C   UNL     1      -5.754  11.212   1.168  1.00  0.00     0.034 A 
ATOM     49  C   UNL     1      -9.019   5.182   1.640  1.00  0.00     0.034 A 
ATOM     50  C   UNL     1      -6.541  11.405   2.362  1.00  0.00     0.049 A 
ATOM     51  C   UNL     1      -9.569   6.556   1.616  1.00  0.00     0.074 A 
ATOM     52  C   UNL     1      -6.258  11.624   3.696  1.00  0.00     0.029 A 
ATOM     53  N   UNL     1      -7.850  10.990   2.311  1.00  0.00    -0.354 N 
ATOM     54  N   UNL     1      -9.952   7.186   2.689  1.00  0.00    -0.248 NA
ATOM     55  C   UNL     1      -9.298   7.394   0.460  1.00  0.00     0.031 C 
ATOM     56  C   UNL     1      -7.243  10.877   4.403  1.00  0.00     0.029 A 
ATOM     57  C   UNL     1      -8.118  10.317   3.470  1.00  0.00     0.049 A 
ATOM     58  H   UNL     1      -8.481  11.149   1.572  1.00  0.00     0.167 HD
ATOM     59  C   UNL     1      -9.485   8.479   2.501  1.00  0.00     0.074 A 
ATOM     60  C   UNL     1      -9.220   8.582   1.067  1.00  0.00     0.031 C 
ATOM     61  C   UNL     1      -9.062   9.227   3.561  1.00  0.00     0.034 A 
BRANCH  48  62
ATOM     62  C   UNL     1      -6.177  11.857  -0.137  1.00  0.00     0.023 A 
ATOM     63  C   UNL     1      -7.008  13.001  -0.043  1.00  0.00     0.012 A 
ATOM     64  C   UNL     1      -6.063  11.259  -1.411  1.00  0.00     0.148 A 
ATOM     65  C   UNL     1      -7.758  13.463  -1.130  1.00  0.00     0.002 A 
ATOM     66  C   UNL     1      -6.752  11.768  -2.508  1.00  0.00     0.091 A 
ATOM     67  F   UNL     1      -5.390  10.118  -1.560  1.00  0.00    -0.205 F 
ATOM     68  C   UNL     1      -7.630  12.845  -2.365  1.00  0.00     0.022 A 
BRANCH  66  69
ATOM     69  S   UNL     1      -6.592  11.041  -4.145  1.00  0.00     0.127 S 
ATOM     70  O   UNL     1      -7.899  10.412  -4.314  1.00  0.00    -0.237 OA
ATOM     71  O   UNL     1      -6.359  12.224  -4.973  1.00  0.00    -0.237 OA
ATOM     72  O   UNL     1      -5.454  10.133  -4.064  1.00  0.00    -0.744 OA
ENDBRANCH  66  69
ENDBRANCH  48  62
BRANCH  49  73
ATOM     73  C   UNL     1      -9.675   4.068   0.912  1.00  0.00     0.023 A 
ATOM     74  C   UNL     1     -11.058   4.129   0.640  1.00  0.00     0.012 A 
ATOM     75  C   UNL     1      -8.912   3.088   0.241  1.00  0.00     0.148 A 
ATOM     76  C   UNL     1     -11.649   3.276  -0.301  1.00  0.00     0.002 A 
ATOM     77  C   UNL     1      -9.505   2.239  -0.689  1.00  0.00     0.091 A 
ATOM     78  F   UNL     1      -7.588   3.052   0.434  1.00  0.00    -0.205 F 
ATOM     79  C   UNL     1     -10.872   2.338  -0.973  1.00  0.00     0.022 A 
BRANCH  77  80
ATOM     80  S   UNL     1      -8.543   1.038  -1.619  1.00  0.00     0.127 S 
ATOM     81  O   UNL     1      -9.389  -0.154  -1.548  1.00  0.00    -0.237 OA
ATOM     82  O   UNL     1      -8.474   1.665  -2.936  1.00  0.00    -0.237 OA
ATOM     83  O   UNL     1      -7.275   0.912  -0.910  1.00  0.00    -0.744 OA
ENDBRANCH  77  80
ENDBRANCH  49  73
BRANCH  61  84
ATOM     84  C   UNL     1      -9.367   8.735   4.954  1.00  0.00     0.023 A 
ATOM     85  C   UNL     1      -8.881   7.507   5.448  1.00  0.00     0.012 A 
ATOM     86  C   UNL     1      -9.993   9.623   5.843  1.00  0.00     0.148 A 
ATOM     87  C   UNL     1      -9.035   7.164   6.794  1.00  0.00     0.002 A 
ATOM     88  C   UNL     1     -10.094   9.305   7.191  1.00  0.00     0.091 A 
ATOM     89  F   UNL     1     -10.452  10.788   5.359  1.00  0.00    -0.205 F 
ATOM     90  C   UNL     1      -9.627   8.071   7.669  1.00  0.00     0.022 A 
BRANCH  88  91
ATOM     91  S   UNL     1     -10.709  10.495   8.383  1.00  0.00     0.127 S 
ATOM     92  O   UNL     1     -12.063  10.006   8.631  1.00  0.00    -0.237 OA
ATOM     93  O   UNL     1      -9.782  10.329   9.504  1.00  0.00    -0.237 OA
ATOM     94  O   UNL     1     -10.619  11.796   7.729  1.00  0.00    -0.744 OA
ENDBRANCH  88  91
ENDBRANCH  61  84
ENDBRANCH  35  36
ENDBRANCH  27  30
ENDBRANCH  25  26
ENDBRANCH   1  25
TORSDOF 16
