REMARK SMILES C=C[C@@H]1[C@@H](O)C[C@H]2[C@]3(CC[C@]4(C)[C@@H]([C@H](C)CCC=C(C)C)CC[C@]24C)C[C@]13CCC(=O)NCCCCNC(=O)c1ccc(-c2c3nc(c(-c4cccc(S(=O)(=O)[O-])c4F)c4ccc([nH]4)c(-c4cccc(S(=O)(=O)[O-])c4F)c4nc(c(-c5cccc(S(=O)(=O)[O-])c5F)c5ccc2[nH]5)C=C4)C=C3)cc1
REMARK SMILES IDX 33 1 32 2 30 3 31 4 29 6 28 7 27 8 3 9 4 10 6 11 8 12 26 13
REMARK SMILES IDX 7 14 9 15 24 16 10 17 11 18 23 19 25 20 13 21 12 22 22 23
REMARK SMILES IDX 2 24 1 25 5 26 14 28 15 29 16 30 17 31 18 32 19 33 20 34
REMARK SMILES IDX 21 35 34 36 35 37 36 38 37 39 38 40 39 42 40 43 41 44 102 45
REMARK SMILES IDX 42 46 101 47 43 48 44 49 45 50 95 51 46 52 100 53 94 54
REMARK SMILES IDX 96 55 47 56 99 57 93 58 92 59 48 61 80 62 60 63 79 64 61 65
REMARK SMILES IDX 64 66 78 67 97 68 62 69 63 70 77 72 98 73 65 74 49 75 50 76
REMARK SMILES IDX 58 77 51 78 53 79 59 80 52 81 54 82 55 83 56 84 57 85 81 86
REMARK SMILES IDX 82 87 90 88 83 89 85 90 91 91 84 92 86 93 87 94 88 95 89 96
REMARK SMILES IDX 66 97 67 98 75 99 68 100 70 101 76 102 69 103 71 104 72 105
REMARK SMILES IDX 73 106 74 107
REMARK H PARENT 32 5 5 27 37 41 96 60 64 71
REMARK Flexibility Score: inf
ROOT
ATOM      1  C   UNL     1       1.830  -1.834  -2.236  1.00  0.00     0.116 C 
ENDROOT
BRANCH   1   2
ATOM      2  N   UNL     1       1.400  -1.967  -3.621  1.00  0.00    -0.356 N 
ATOM      3  C   UNL     1       0.441  -1.310  -4.333  1.00  0.00     0.220 C 
ATOM      4  O   UNL     1       0.140  -1.745  -5.447  1.00  0.00    -0.275 OA
ATOM      5  H   UNL     1       1.886  -2.653  -4.133  1.00  0.00     0.163 HD
BRANCH   3   6
ATOM      6  C   UNL     1      -0.198  -0.035  -3.813  1.00  0.00     0.100 C 
BRANCH   6   7
ATOM      7  C   UNL     1      -1.674  -0.177  -3.409  1.00  0.00     0.018 C 
BRANCH   7   8
ATOM      8  C   UNL     1      -1.926  -0.431  -1.912  1.00  0.00    -0.014 C 
ATOM      9  C   UNL     1      -1.760   0.826  -1.015  1.00  0.00     0.047 C 
ATOM     10  C   UNL     1      -2.734   0.872   0.196  1.00  0.00     0.122 C 
ATOM     11  C   UNL     1      -2.976  -0.484   0.851  1.00  0.00     0.037 C 
ATOM     12  C   UNL     1      -2.880  -1.590  -1.451  1.00  0.00    -0.019 C 
ATOM     13  C   UNL     1      -1.410  -1.733  -1.375  1.00  0.00     0.016 C 
ATOM     14  C   UNL     1      -3.649  -1.474  -0.127  1.00  0.00     0.005 C 
ATOM     15  C   UNL     1      -3.510  -2.553  -2.438  1.00  0.00     0.008 C 
ATOM     16  C   UNL     1      -4.001  -2.896   0.518  1.00  0.00    -0.023 C 
ATOM     17  C   UNL     1      -3.668  -3.919  -1.778  1.00  0.00     0.008 C 
ATOM     18  C   UNL     1      -4.601  -3.901  -0.564  1.00  0.00    -0.024 C 
ATOM     19  C   UNL     1      -5.220  -2.727   1.463  1.00  0.00     0.008 C 
ATOM     20  C   UNL     1      -2.801  -3.511   1.288  1.00  0.00     0.012 C 
ATOM     21  C   UNL     1      -6.010  -3.278  -0.829  1.00  0.00    -0.002 C 
ATOM     22  C   UNL     1      -4.713  -5.350  -0.028  1.00  0.00     0.012 C 
ATOM     23  C   UNL     1      -6.478  -2.891   0.597  1.00  0.00     0.005 C 
BRANCH   9  24
ATOM     24  C   UNL     1      -0.314   1.146  -0.648  1.00  0.00    -0.028 C 
ATOM     25  C   UNL     1       0.365   0.825   0.462  1.00  0.00     0.004 C 
ENDBRANCH   9  24
BRANCH  10  26
ATOM     26  O   UNL     1      -4.004   1.418  -0.190  1.00  0.00    -0.392 OA
ATOM     27  H   UNL     1      -4.423   0.834  -0.841  1.00  0.00     0.210 HD
ENDBRANCH  10  26
BRANCH  21  28
ATOM     28  C   UNL     1      -7.133  -3.931  -1.689  1.00  0.00    -0.010 C 
ATOM     29  C   UNL     1      -7.792  -5.201  -1.153  1.00  0.00     0.008 C 
BRANCH  28  30
ATOM     30  C   UNL     1      -6.973  -3.916  -3.238  1.00  0.00     0.008 C 
BRANCH  30  31
ATOM     31  C   UNL     1      -6.021  -4.800  -4.069  1.00  0.00     0.027 C 
BRANCH  31  32
ATOM     32  C   UNL     1      -5.757  -6.217  -3.647  1.00  0.00    -0.028 C 
ATOM     33  C   UNL     1      -4.695  -6.960  -4.027  1.00  0.00    -0.080 C 
ATOM     34  C   UNL     1      -4.450  -8.328  -3.444  1.00  0.00     0.039 C 
ATOM     35  C   UNL     1      -3.662  -6.525  -5.033  1.00  0.00     0.039 C 
ENDBRANCH  31  32
ENDBRANCH  30  31
ENDBRANCH  28  30
ENDBRANCH  21  28
ENDBRANCH   7   8
ENDBRANCH   6   7
ENDBRANCH   3   6
ENDBRANCH   1   2
BRANCH   1  36
ATOM     36  C   UNL     1       1.294  -3.003  -1.403  1.00  0.00     0.023 C 
BRANCH  36  37
ATOM     37  C   UNL     1       2.302  -3.937  -0.786  1.00  0.00     0.023 C 
BRANCH  37  38
ATOM     38  C   UNL     1       3.069  -3.300   0.354  1.00  0.00     0.116 C 
BRANCH  38  39
ATOM     39  N   UNL     1       2.264  -2.943   1.531  1.00  0.00    -0.352 N 
ATOM     40  C   UNL     1       2.539  -3.200   2.861  1.00  0.00     0.251 C 
ATOM     41  H   UNL     1       1.426  -2.461   1.349  1.00  0.00     0.163 HD
ATOM     42  O   UNL     1       1.768  -2.861   3.752  1.00  0.00    -0.269 OA
BRANCH  40  43
ATOM     43  C   UNL     1       3.772  -3.951   3.167  1.00  0.00     0.039 A 
ATOM     44  C   UNL     1       3.683  -5.176   3.829  1.00  0.00     0.014 A 
ATOM     45  C   UNL     1       4.958  -3.548   2.558  1.00  0.00     0.014 A 
ATOM     46  C   UNL     1       4.761  -6.062   3.760  1.00  0.00     0.010 A 
ATOM     47  C   UNL     1       5.942  -4.497   2.343  1.00  0.00     0.010 A 
ATOM     48  C   UNL     1       5.869  -5.760   2.952  1.00  0.00    -0.014 A 
BRANCH  48  49
ATOM     49  C   UNL     1       6.980  -6.723   2.726  1.00  0.00     0.031 A 
ATOM     50  C   UNL     1       8.399  -6.280   2.980  1.00  0.00     0.074 A 
ATOM     51  C   UNL     1       6.743  -7.928   2.166  1.00  0.00     0.049 A 
ATOM     52  N   UNL     1       9.518  -6.899   2.712  1.00  0.00    -0.248 NA
ATOM     53  C   UNL     1       8.587  -4.928   3.537  1.00  0.00     0.031 C 
ATOM     54  C   UNL     1       5.435  -8.428   1.732  1.00  0.00     0.029 A 
ATOM     55  N   UNL     1       7.606  -8.943   1.834  1.00  0.00    -0.354 N 
ATOM     56  C   UNL     1      10.526  -5.983   2.990  1.00  0.00     0.074 A 
ATOM     57  C   UNL     1       9.886  -4.747   3.372  1.00  0.00     0.031 C 
ATOM     58  C   UNL     1       5.581  -9.659   1.213  1.00  0.00     0.029 A 
ATOM     59  C   UNL     1       6.992 -10.030   1.254  1.00  0.00     0.049 A 
ATOM     60  H   UNL     1       8.576  -8.898   1.997  1.00  0.00     0.167 HD
ATOM     61  C   UNL     1      11.867  -6.166   2.992  1.00  0.00     0.034 A 
ATOM     62  C   UNL     1       7.508 -11.195   0.815  1.00  0.00     0.034 A 
ATOM     63  C   UNL     1      12.490  -7.433   2.743  1.00  0.00     0.049 A 
ATOM     64  C   UNL     1       8.985 -11.441   0.981  1.00  0.00     0.074 A 
ATOM     65  C   UNL     1      13.821  -7.779   2.877  1.00  0.00     0.029 A 
ATOM     66  N   UNL     1      11.815  -8.569   2.328  1.00  0.00    -0.354 N 
ATOM     67  N   UNL     1       9.908 -10.627   1.436  1.00  0.00    -0.248 NA
ATOM     68  C   UNL     1       9.486 -12.775   0.620  1.00  0.00     0.031 C 
ATOM     69  C   UNL     1      13.950  -9.131   2.540  1.00  0.00     0.029 A 
ATOM     70  C   UNL     1      12.699  -9.624   2.204  1.00  0.00     0.049 A 
ATOM     71  H   UNL     1      10.848  -8.618   2.147  1.00  0.00     0.167 HD
ATOM     72  C   UNL     1      11.091 -11.356   1.443  1.00  0.00     0.074 A 
ATOM     73  C   UNL     1      10.763 -12.686   0.970  1.00  0.00     0.031 C 
ATOM     74  C   UNL     1      12.340 -10.957   1.790  1.00  0.00     0.034 A 
BRANCH  61  75
ATOM     75  C   UNL     1      12.724  -4.986   3.369  1.00  0.00     0.023 A 
ATOM     76  C   UNL     1      12.696  -4.500   4.694  1.00  0.00     0.012 A 
ATOM     77  C   UNL     1      13.550  -4.354   2.422  1.00  0.00     0.148 A 
ATOM     78  C   UNL     1      13.428  -3.370   5.055  1.00  0.00     0.002 A 
ATOM     79  C   UNL     1      14.318  -3.259   2.803  1.00  0.00     0.091 A 
ATOM     80  F   UNL     1      13.546  -4.808   1.160  1.00  0.00    -0.205 F 
ATOM     81  C   UNL     1      14.245  -2.756   4.112  1.00  0.00     0.022 A 
BRANCH  79  82
ATOM     82  S   UNL     1      15.464  -2.454   1.679  1.00  0.00     0.127 S 
ATOM     83  O   UNL     1      14.716  -1.256   1.301  1.00  0.00    -0.237 OA
ATOM     84  O   UNL     1      16.621  -2.203   2.540  1.00  0.00    -0.237 OA
ATOM     85  O   UNL     1      15.707  -3.413   0.610  1.00  0.00    -0.744 OA
ENDBRANCH  79  82
ENDBRANCH  61  75
BRANCH  62  86
ATOM     86  C   UNL     1       6.603 -12.253   0.279  1.00  0.00     0.023 A 
ATOM     87  C   UNL     1       6.334 -13.392   1.063  1.00  0.00     0.012 A 
ATOM     88  C   UNL     1       5.962 -12.113  -0.967  1.00  0.00     0.148 A 
ATOM     89  C   UNL     1       5.466 -14.385   0.607  1.00  0.00     0.002 A 
ATOM     90  C   UNL     1       5.059 -13.081  -1.394  1.00  0.00     0.091 A 
ATOM     91  F   UNL     1       6.236 -11.027  -1.703  1.00  0.00    -0.205 F 
ATOM     92  C   UNL     1       4.820 -14.225  -0.616  1.00  0.00     0.022 A 
BRANCH  90  93
ATOM     93  S   UNL     1       4.079 -12.895  -2.890  1.00  0.00     0.127 S 
ATOM     94  O   UNL     1       4.679 -13.897  -3.767  1.00  0.00    -0.237 OA
ATOM     95  O   UNL     1       2.734 -13.220  -2.413  1.00  0.00    -0.237 OA
ATOM     96  O   UNL     1       4.251 -11.508  -3.300  1.00  0.00    -0.744 OA
ENDBRANCH  90  93
ENDBRANCH  62  86
BRANCH  74  97
ATOM     97  C   UNL     1      13.450 -11.967   1.697  1.00  0.00     0.023 A 
ATOM     98  C   UNL     1      13.960 -12.324   0.434  1.00  0.00     0.012 A 
ATOM     99  C   UNL     1      14.055 -12.479   2.861  1.00  0.00     0.148 A 
ATOM    100  C   UNL     1      15.042 -13.196   0.330  1.00  0.00     0.002 A 
ATOM    101  C   UNL     1      15.162 -13.311   2.751  1.00  0.00     0.091 A 
ATOM    102  F   UNL     1      13.541 -12.141   4.053  1.00  0.00    -0.205 F 
ATOM    103  C   UNL     1      15.651 -13.678   1.486  1.00  0.00     0.022 A 
BRANCH 101 104
ATOM    104  S   UNL     1      16.066 -13.894   4.189  1.00  0.00     0.127 S 
ATOM    105  O   UNL     1      15.607 -15.278   4.290  1.00  0.00    -0.237 OA
ATOM    106  O   UNL     1      17.460 -13.743   3.767  1.00  0.00    -0.237 OA
ATOM    107  O   UNL     1      15.674 -13.019   5.286  1.00  0.00    -0.744 OA
ENDBRANCH 101 104
ENDBRANCH  74  97
ENDBRANCH  48  49
ENDBRANCH  40  43
ENDBRANCH  38  39
ENDBRANCH  37  38
ENDBRANCH  36  37
ENDBRANCH   1  36
TORSDOF 22
