REMARK SMILES CC[C@H]1CCCCN1S(=O)(=O)c1ccc2oc(C(=O)NCCCCNC(=O)c3ccc(-c4c5nc(c(-c6cccc(S(=O)(=O)[O-])c6F)c6ccc([nH]6)c(-c6cccc(S(=O)(=O)[O-])c6F)c6nc(c(-c7cccc(S(=O)(=O)[O-])c7F)c7ccc4[nH]7)C=C6)C=C5)cc3)c(C)c2c1
REMARK SMILES IDX 22 1 21 2 20 3 18 4 19 5 17 7 12 8 13 9 94 10 14 11 93 12
REMARK SMILES IDX 15 13 91 14 16 15 92 16 9 17 10 18 11 19 8 20 3 21 4 22 5 23
REMARK SMILES IDX 7 24 6 25 2 26 1 27 23 28 24 29 25 30 26 31 27 33 28 34
REMARK SMILES IDX 29 35 90 36 30 37 89 38 31 39 32 40 33 41 83 42 34 43 88 44
REMARK SMILES IDX 82 45 84 46 35 47 87 48 81 49 80 50 36 52 68 53 48 54 67 55
REMARK SMILES IDX 49 56 52 57 66 58 85 59 50 60 51 61 65 63 86 64 53 65 37 66
REMARK SMILES IDX 38 67 46 68 39 69 41 70 47 71 40 72 42 73 43 74 44 75 45 76
REMARK SMILES IDX 69 77 70 78 78 79 71 80 73 81 79 82 72 83 74 84 75 85 76 86
REMARK SMILES IDX 77 87 54 88 55 89 63 90 56 91 58 92 64 93 57 94 59 95 60 96
REMARK SMILES IDX 61 97 62 98
REMARK H PARENT 20 6 25 32 84 51 52 62
REMARK Flexibility Score: inf
ROOT
ATOM      1  C   UNL     1       3.127  10.560   4.222  1.00  0.00     0.023 C 
ENDROOT
BRANCH   1   2
ATOM      2  C   UNL     1       1.960   9.656   3.858  1.00  0.00     0.116 C 
BRANCH   2   3
ATOM      3  N   UNL     1       0.879  10.256   3.109  1.00  0.00    -0.349 N 
ATOM      4  C   UNL     1      -0.016   9.654   2.237  1.00  0.00     0.287 C 
ATOM      5  O   UNL     1      -0.848  10.392   1.707  1.00  0.00    -0.266 OA
ATOM      6  H   UNL     1       0.761  11.226   3.235  1.00  0.00     0.163 HD
BRANCH   4   7
ATOM      7  C   UNL     1       0.083   8.231   1.932  1.00  0.00     0.195 A 
ATOM      8  C   UNL     1       0.821   3.902   0.653  1.00  0.00     0.083 A 
ATOM      9  C   UNL     1       0.058   4.326  -0.442  1.00  0.00     0.025 A 
ATOM     10  C   UNL     1       1.171   4.797   1.665  1.00  0.00     0.034 A 
ATOM     11  C   UNL     1      -0.374   5.667  -0.539  1.00  0.00     0.049 A 
ATOM     12  C   UNL     1       0.611   6.073   1.658  1.00  0.00     0.025 A 
ATOM     13  C   UNL     1      -0.071   6.502   0.539  1.00  0.00     0.135 A 
ATOM     14  C   UNL     1       0.495   7.099   2.629  1.00  0.00     0.008 A 
ATOM     15  O   UNL     1      -0.361   7.826   0.679  1.00  0.00    -0.451 OA
ATOM     16  C   UNL     1       0.746   6.876   4.075  1.00  0.00     0.049 C 
BRANCH   8  17
ATOM     17  S   UNL     1       1.516   2.269   0.758  1.00  0.00     0.243 S 
ATOM     18  O   UNL     1       2.925   2.460   1.030  1.00  0.00    -0.207 OA
ATOM     19  O   UNL     1       1.076   1.527  -0.407  1.00  0.00    -0.207 OA
BRANCH  17  20
ATOM     20  N   UNL     1       0.803   1.508   2.147  1.00  0.00    -0.195 NA
ATOM     21  C   UNL     1       1.159   0.036   2.266  1.00  0.00     0.073 C 
ATOM     22  C   UNL     1       0.308  -0.593   3.386  1.00  0.00     0.020 C 
ATOM     23  C   UNL     1       0.511   0.106   4.724  1.00  0.00     0.003 C 
ATOM     24  C   UNL     1       0.923   2.238   3.445  1.00  0.00     0.103 C 
ATOM     25  C   UNL     1       0.153   1.570   4.577  1.00  0.00     0.017 C 
BRANCH  21  26
ATOM     26  C   UNL     1       2.664  -0.221   2.513  1.00  0.00     0.017 C 
ATOM     27  C   UNL     1       3.399  -0.709   1.270  1.00  0.00     0.005 C 
ENDBRANCH  21  26
ENDBRANCH  17  20
ENDBRANCH   8  17
ENDBRANCH   4   7
ENDBRANCH   2   3
ENDBRANCH   1   2
BRANCH   1  28
ATOM     28  C   UNL     1       2.829  11.716   5.170  1.00  0.00     0.023 C 
BRANCH  28  29
ATOM     29  C   UNL     1       1.998  11.405   6.412  1.00  0.00     0.116 C 
BRANCH  29  30
ATOM     30  N   UNL     1       2.555  10.372   7.277  1.00  0.00    -0.352 N 
ATOM     31  C   UNL     1       2.822  10.399   8.629  1.00  0.00     0.251 C 
ATOM     32  H   UNL     1       2.774   9.524   6.826  1.00  0.00     0.163 HD
ATOM     33  O   UNL     1       3.317   9.412   9.170  1.00  0.00    -0.269 OA
BRANCH  31  34
ATOM     34  C   UNL     1       2.566  11.625   9.419  1.00  0.00     0.039 A 
ATOM     35  C   UNL     1       3.573  12.105  10.262  1.00  0.00     0.014 A 
ATOM     36  C   UNL     1       1.368  12.330   9.294  1.00  0.00     0.014 A 
ATOM     37  C   UNL     1       3.422  13.347  10.887  1.00  0.00     0.010 A 
ATOM     38  C   UNL     1       1.258  13.606   9.842  1.00  0.00     0.010 A 
ATOM     39  C   UNL     1       2.287  14.136  10.635  1.00  0.00    -0.014 A 
BRANCH  39  40
ATOM     40  C   UNL     1       2.182  15.529  11.149  1.00  0.00     0.031 A 
ATOM     41  C   UNL     1       1.058  15.927  12.067  1.00  0.00     0.074 A 
ATOM     42  C   UNL     1       3.041  16.468  10.700  1.00  0.00     0.049 A 
ATOM     43  N   UNL     1       0.786  17.102  12.575  1.00  0.00    -0.248 NA
ATOM     44  C   UNL     1       0.091  14.880  12.435  1.00  0.00     0.031 C 
ATOM     45  C   UNL     1       4.105  16.243   9.718  1.00  0.00     0.029 A 
ATOM     46  N   UNL     1       3.139  17.807  10.989  1.00  0.00    -0.354 N 
ATOM     47  C   UNL     1      -0.399  16.947  13.283  1.00  0.00     0.074 A 
ATOM     48  C   UNL     1      -0.816  15.573  13.109  1.00  0.00     0.031 C 
ATOM     49  C   UNL     1       4.755  17.398   9.498  1.00  0.00     0.029 A 
ATOM     50  C   UNL     1       4.147  18.450  10.306  1.00  0.00     0.049 A 
ATOM     51  H   UNL     1       2.544  18.265  11.625  1.00  0.00     0.167 HD
ATOM     52  C   UNL     1      -1.063  17.852  14.041  1.00  0.00     0.034 A 
ATOM     53  C   UNL     1       4.545  19.737  10.333  1.00  0.00     0.034 A 
ATOM     54  C   UNL     1      -0.611  19.197  14.271  1.00  0.00     0.049 A 
ATOM     55  C   UNL     1       3.854  20.697  11.263  1.00  0.00     0.074 A 
ATOM     56  C   UNL     1      -1.152  20.156  15.109  1.00  0.00     0.029 A 
ATOM     57  N   UNL     1       0.494  19.774  13.665  1.00  0.00    -0.354 N 
ATOM     58  N   UNL     1       2.845  20.479  12.071  1.00  0.00    -0.248 NA
ATOM     59  C   UNL     1       4.384  22.067  11.323  1.00  0.00     0.031 C 
ATOM     60  C   UNL     1      -0.374  21.314  15.008  1.00  0.00     0.029 A 
ATOM     61  C   UNL     1       0.655  21.073  14.113  1.00  0.00     0.049 A 
ATOM     62  H   UNL     1       1.078  19.325  13.011  1.00  0.00     0.167 HD
ATOM     63  C   UNL     1       2.643  21.669  12.761  1.00  0.00     0.074 A 
ATOM     64  C   UNL     1       3.648  22.600  12.290  1.00  0.00     0.031 C 
ATOM     65  C   UNL     1       1.700  21.968  13.687  1.00  0.00     0.034 A 
BRANCH  52  66
ATOM     66  C   UNL     1      -2.310  17.389  14.747  1.00  0.00     0.023 A 
ATOM     67  C   UNL     1      -2.194  16.515  15.847  1.00  0.00     0.012 A 
ATOM     68  C   UNL     1      -3.584  17.850  14.363  1.00  0.00     0.148 A 
ATOM     69  C   UNL     1      -3.327  16.078  16.532  1.00  0.00     0.002 A 
ATOM     70  C   UNL     1      -4.706  17.443  15.077  1.00  0.00     0.091 A 
ATOM     71  F   UNL     1      -3.679  18.662  13.300  1.00  0.00    -0.205 F 
ATOM     72  C   UNL     1      -4.580  16.550  16.154  1.00  0.00     0.022 A 
BRANCH  70  73
ATOM     73  S   UNL     1      -6.355  18.057  14.713  1.00  0.00     0.127 S 
ATOM     74  O   UNL     1      -6.949  16.914  14.023  1.00  0.00    -0.237 OA
ATOM     75  O   UNL     1      -6.895  18.310  16.049  1.00  0.00    -0.237 OA
ATOM     76  O   UNL     1      -6.163  19.253  13.904  1.00  0.00    -0.744 OA
ENDBRANCH  70  73
ENDBRANCH  52  66
BRANCH  53  77
ATOM     77  C   UNL     1       5.728  20.164   9.532  1.00  0.00     0.023 A 
ATOM     78  C   UNL     1       6.938  20.448  10.196  1.00  0.00     0.012 A 
ATOM     79  C   UNL     1       5.679  20.247   8.128  1.00  0.00     0.148 A 
ATOM     80  C   UNL     1       8.070  20.834   9.479  1.00  0.00     0.002 A 
ATOM     81  C   UNL     1       6.826  20.582   7.415  1.00  0.00     0.091 A 
ATOM     82  F   UNL     1       4.516  19.987   7.514  1.00  0.00    -0.205 F 
ATOM     83  C   UNL     1       8.018  20.890   8.089  1.00  0.00     0.022 A 
BRANCH  81  84
ATOM     84  S   UNL     1       6.883  20.546   5.620  1.00  0.00     0.127 S 
ATOM     85  O   UNL     1       6.860  21.969   5.291  1.00  0.00    -0.237 OA
ATOM     86  O   UNL     1       8.159  19.876   5.367  1.00  0.00    -0.237 OA
ATOM     87  O   UNL     1       5.715  19.777   5.210  1.00  0.00    -0.744 OA
ENDBRANCH  81  84
ENDBRANCH  53  77
BRANCH  65  88
ATOM     88  C   UNL     1       1.722  23.347  14.290  1.00  0.00     0.023 A 
ATOM     89  C   UNL     1       1.274  24.446  13.532  1.00  0.00     0.012 A 
ATOM     90  C   UNL     1       2.108  23.541  15.631  1.00  0.00     0.148 A 
ATOM     91  C   UNL     1       1.232  25.723  14.092  1.00  0.00     0.002 A 
ATOM     92  C   UNL     1       2.023  24.809  16.195  1.00  0.00     0.091 A 
ATOM     93  F   UNL     1       2.555  22.487  16.329  1.00  0.00    -0.205 F 
ATOM     94  C   UNL     1       1.594  25.902  15.425  1.00  0.00     0.022 A 
BRANCH  92  95
ATOM     95  S   UNL     1       2.383  25.105  17.931  1.00  0.00     0.127 S 
ATOM     96  O   UNL     1       3.727  25.674  17.864  1.00  0.00    -0.237 OA
ATOM     97  O   UNL     1       1.337  26.055  18.312  1.00  0.00    -0.237 OA
ATOM     98  O   UNL     1       2.278  23.807  18.583  1.00  0.00    -0.744 OA
ENDBRANCH  92  95
ENDBRANCH  65  88
ENDBRANCH  39  40
ENDBRANCH  31  34
ENDBRANCH  29  30
ENDBRANCH  28  29
ENDBRANCH   1  28
TORSDOF 17
