REMARK SMILES Cc1oc2c(C)c3oc(=O)c(CCC(=O)N[C@H](Cc4ccc(Cl)cc4)C(=O)NCCCCNC(=O)c4ccc(-c5c6nc(c(-c7cccc(S(=O)(=O)[O-])c7F)c7ccc([nH]7)c(-c7cccc(S(=O)(=O)[O-])c7F)c7nc(c(-c8cccc(S(=O)(=O)[O-])c8F)c8ccc5[nH]8)C=C7)C=C6)cc4)c(C)c3cc2c1C
REMARK SMILES IDX 30 1 29 2 28 3 26 4 27 5 17 7 16 8 14 9 15 10 13 12 12 13
REMARK SMILES IDX 11 14 1 15 2 16 3 17 104 18 4 19 103 20 105 21 5 22 102 23
REMARK SMILES IDX 6 24 7 25 101 26 8 27 99 28 9 29 100 30 10 31 18 32 19 33
REMARK SMILES IDX 20 34 25 35 21 36 24 37 22 38 23 39 31 40 32 41 33 42 34 43
REMARK SMILES IDX 35 45 36 46 37 47 98 48 38 49 97 50 39 51 40 52 41 53 91 54
REMARK SMILES IDX 42 55 96 56 90 57 92 58 43 59 95 60 89 61 88 62 44 64 76 65
REMARK SMILES IDX 56 66 75 67 57 68 60 69 74 70 93 71 58 72 59 73 73 75 94 76
REMARK SMILES IDX 61 77 45 78 46 79 54 80 47 81 49 82 55 83 48 84 50 85 51 86
REMARK SMILES IDX 52 87 53 88 77 89 78 90 86 91 79 92 81 93 87 94 80 95 82 96
REMARK SMILES IDX 83 97 84 98 85 99 62 100 63 101 71 102 64 103 66 104 72 105
REMARK SMILES IDX 65 106 67 107 68 108 69 109 70 110
REMARK H PARENT 28 6 16 11 33 44 92 63 60 74
REMARK Flexibility Score: inf
ROOT
ATOM      1  C   UNL     1       1.192   3.418   5.269  1.00  0.00     0.023 C 
ENDROOT
BRANCH   1   2
ATOM      2  C   UNL     1       0.405   2.157   4.937  1.00  0.00     0.116 C 
BRANCH   2   3
ATOM      3  N   UNL     1       0.507   1.136   5.965  1.00  0.00    -0.354 N 
ATOM      4  C   UNL     1      -0.099  -0.060   5.673  1.00  0.00     0.242 C 
ATOM      5  O   UNL     1       0.448  -0.822   4.875  1.00  0.00    -0.273 OA
ATOM      6  H   UNL     1       0.979   1.291   6.815  1.00  0.00     0.163 HD
BRANCH   4   7
ATOM      7  C   UNL     1      -1.414  -0.427   6.405  1.00  0.00     0.175 C 
BRANCH   7   8
ATOM      8  N   UNL     1      -2.055  -1.399   5.494  1.00  0.00    -0.344 N 
ATOM      9  C   UNL     1      -2.611  -2.619   5.731  1.00  0.00     0.220 C 
ATOM     10  O   UNL     1      -2.820  -3.364   4.770  1.00  0.00    -0.275 OA
ATOM     11  H   UNL     1      -2.084  -1.115   4.552  1.00  0.00     0.164 HD
BRANCH   9  12
ATOM     12  C   UNL     1      -3.011  -3.046   7.128  1.00  0.00     0.105 C 
BRANCH  12  13
ATOM     13  C   UNL     1      -2.065  -4.041   7.802  1.00  0.00     0.053 C 
BRANCH  13  14
ATOM     14  C   UNL     1      -0.768  -3.379   8.216  1.00  0.00     0.042 A 
ATOM     15  C   UNL     1       5.968   1.535   7.046  1.00  0.00     0.088 C 
ATOM     16  C   UNL     1       4.846   0.583   7.191  1.00  0.00     0.105 A 
ATOM     17  O   UNL     1       4.188   0.596   8.390  1.00  0.00    -0.461 OA
ATOM     18  C   UNL     1       4.276  -0.345   6.340  1.00  0.00    -0.002 A 
ATOM     19  C   UNL     1       3.224  -0.369   8.336  1.00  0.00     0.141 A 
ATOM     20  C   UNL     1       3.296  -1.023   7.118  1.00  0.00     0.025 A 
ATOM     21  C   UNL     1       4.567  -0.599   4.905  1.00  0.00     0.049 C 
ATOM     22  C   UNL     1       2.269  -0.642   9.324  1.00  0.00     0.036 A 
ATOM     23  C   UNL     1       2.416  -2.084   6.862  1.00  0.00     0.024 A 
ATOM     24  C   UNL     1       2.203   0.139  10.598  1.00  0.00     0.052 C 
ATOM     25  C   UNL     1       1.357  -1.670   8.979  1.00  0.00     0.145 A 
ATOM     26  C   UNL     1       1.414  -2.402   7.788  1.00  0.00     0.022 A 
ATOM     27  O   UNL     1       0.283  -1.893   9.870  1.00  0.00    -0.422 OA
ATOM     28  C   UNL     1       0.338  -3.355   7.445  1.00  0.00    -0.030 A 
ATOM     29  C   UNL     1      -0.830  -2.635   9.508  1.00  0.00     0.339 A 
ATOM     30  C   UNL     1       0.473  -4.117   6.146  1.00  0.00     0.046 C 
ATOM     31  O   UNL     1      -1.833  -2.647  10.216  1.00  0.00    -0.246 OA
ENDBRANCH  13  14
ENDBRANCH  12  13
ENDBRANCH   9  12
ENDBRANCH   7   8
BRANCH   7  32
ATOM     32  C   UNL     1      -2.284   0.789   6.791  1.00  0.00     0.070 C 
BRANCH  32  33
ATOM     33  C   UNL     1      -3.672   0.391   7.243  1.00  0.00    -0.045 A 
ATOM     34  C   UNL     1      -4.637   0.104   6.265  1.00  0.00     0.005 A 
ATOM     35  C   UNL     1      -3.960   0.128   8.590  1.00  0.00     0.005 A 
ATOM     36  C   UNL     1      -5.820  -0.545   6.609  1.00  0.00     0.021 A 
ATOM     37  C   UNL     1      -5.156  -0.510   8.935  1.00  0.00     0.021 A 
ATOM     38  C   UNL     1      -6.065  -0.871   7.940  1.00  0.00     0.041 A 
ATOM     39  Cl  UNL     1      -7.467  -1.782   8.345  1.00  0.00    -0.084 Cl
ENDBRANCH  32  33
ENDBRANCH   7  32
ENDBRANCH   4   7
ENDBRANCH   2   3
ENDBRANCH   1   2
BRANCH   1  40
ATOM     40  C   UNL     1       2.717   3.300   5.086  1.00  0.00     0.023 C 
BRANCH  40  41
ATOM     41  C   UNL     1       3.208   2.913   3.677  1.00  0.00     0.116 C 
BRANCH  41  42
ATOM     42  N   UNL     1       2.611   3.773   2.672  1.00  0.00    -0.352 N 
ATOM     43  C   UNL     1       3.168   4.627   1.763  1.00  0.00     0.251 C 
ATOM     44  H   UNL     1       1.628   3.733   2.639  1.00  0.00     0.163 HD
ATOM     45  O   UNL     1       2.467   5.551   1.349  1.00  0.00    -0.269 OA
BRANCH  43  46
ATOM     46  C   UNL     1       4.544   4.471   1.237  1.00  0.00     0.039 A 
ATOM     47  C   UNL     1       5.221   5.642   0.871  1.00  0.00     0.014 A 
ATOM     48  C   UNL     1       5.095   3.227   0.913  1.00  0.00     0.014 A 
ATOM     49  C   UNL     1       6.437   5.574   0.193  1.00  0.00     0.010 A 
ATOM     50  C   UNL     1       6.321   3.161   0.234  1.00  0.00     0.010 A 
ATOM     51  C   UNL     1       7.000   4.332  -0.131  1.00  0.00    -0.014 A 
BRANCH  51  52
ATOM     52  C   UNL     1       8.349   4.338  -0.740  1.00  0.00     0.031 A 
ATOM     53  C   UNL     1       9.335   3.400  -0.119  1.00  0.00     0.074 A 
ATOM     54  C   UNL     1       8.554   4.753  -2.011  1.00  0.00     0.049 A 
ATOM     55  N   UNL     1       9.412   2.139  -0.431  1.00  0.00    -0.248 NA
ATOM     56  C   UNL     1      10.106   3.758   1.071  1.00  0.00     0.031 C 
ATOM     57  C   UNL     1       7.633   4.451  -3.114  1.00  0.00     0.029 A 
ATOM     58  N   UNL     1       9.675   5.262  -2.634  1.00  0.00    -0.354 N 
ATOM     59  C   UNL     1      10.197   1.520   0.529  1.00  0.00     0.074 A 
ATOM     60  C   UNL     1      10.608   2.567   1.438  1.00  0.00     0.031 C 
ATOM     61  C   UNL     1       8.287   4.622  -4.282  1.00  0.00     0.029 A 
ATOM     62  C   UNL     1       9.613   5.184  -4.027  1.00  0.00     0.049 A 
ATOM     63  H   UNL     1      10.440   5.642  -2.146  1.00  0.00     0.167 HD
ATOM     64  C   UNL     1      10.473   0.186   0.512  1.00  0.00     0.034 A 
ATOM     65  C   UNL     1      10.696   5.030  -4.843  1.00  0.00     0.034 A 
ATOM     66  C   UNL     1       9.936  -0.531  -0.611  1.00  0.00     0.049 A 
ATOM     67  C   UNL     1      11.047   3.589  -4.570  1.00  0.00     0.074 A 
ATOM     68  C   UNL     1       8.864  -1.353  -0.882  1.00  0.00     0.029 A 
ATOM     69  N   UNL     1      10.568  -0.387  -1.824  1.00  0.00    -0.354 N 
ATOM     70  N   UNL     1      10.411   2.549  -5.043  1.00  0.00    -0.248 NA
ATOM     71  C   UNL     1      11.879   3.314  -3.399  1.00  0.00     0.031 C 
ATOM     72  C   UNL     1       8.661  -1.265  -2.298  1.00  0.00     0.029 A 
ATOM     73  C   UNL     1       9.605  -0.371  -2.801  1.00  0.00     0.049 A 
ATOM     74  H   UNL     1      11.539  -0.310  -1.966  1.00  0.00     0.167 HD
ATOM     75  C   UNL     1      10.506   1.573  -4.046  1.00  0.00     0.074 A 
ATOM     76  C   UNL     1      11.434   2.110  -3.069  1.00  0.00     0.031 C 
ATOM     77  C   UNL     1       9.706   0.465  -3.980  1.00  0.00     0.034 A 
BRANCH  64  78
ATOM     78  C   UNL     1      11.434  -0.495   1.416  1.00  0.00     0.023 A 
ATOM     79  C   UNL     1      12.710  -0.760   0.876  1.00  0.00     0.012 A 
ATOM     80  C   UNL     1      11.087  -1.044   2.662  1.00  0.00     0.148 A 
ATOM     81  C   UNL     1      13.609  -1.598   1.529  1.00  0.00     0.002 A 
ATOM     82  C   UNL     1      11.997  -1.875   3.318  1.00  0.00     0.091 A 
ATOM     83  F   UNL     1       9.870  -0.786   3.162  1.00  0.00    -0.205 F 
ATOM     84  C   UNL     1      13.249  -2.163   2.745  1.00  0.00     0.022 A 
BRANCH  82  85
ATOM     85  S   UNL     1      11.654  -2.663   4.898  1.00  0.00     0.127 S 
ATOM     86  O   UNL     1      11.652  -4.083   4.534  1.00  0.00    -0.237 OA
ATOM     87  O   UNL     1      12.810  -2.245   5.698  1.00  0.00    -0.237 OA
ATOM     88  O   UNL     1      10.382  -2.131   5.345  1.00  0.00    -0.744 OA
ENDBRANCH  82  85
ENDBRANCH  64  78
BRANCH  65  89
ATOM     89  C   UNL     1      11.690   6.158  -4.825  1.00  0.00     0.023 A 
ATOM     90  C   UNL     1      11.169   7.461  -5.022  1.00  0.00     0.012 A 
ATOM     91  C   UNL     1      13.079   6.045  -4.624  1.00  0.00     0.148 A 
ATOM     92  C   UNL     1      11.964   8.603  -4.901  1.00  0.00     0.002 A 
ATOM     93  C   UNL     1      13.858   7.188  -4.432  1.00  0.00     0.091 A 
ATOM     94  F   UNL     1      13.642   4.832  -4.620  1.00  0.00    -0.205 F 
ATOM     95  C   UNL     1      13.303   8.467  -4.567  1.00  0.00     0.022 A 
BRANCH  93  96
ATOM     96  S   UNL     1      15.575   7.111  -3.900  1.00  0.00     0.127 S 
ATOM     97  O   UNL     1      16.236   7.985  -4.867  1.00  0.00    -0.237 OA
ATOM     98  O   UNL     1      15.479   7.651  -2.544  1.00  0.00    -0.237 OA
ATOM     99  O   UNL     1      15.951   5.706  -3.980  1.00  0.00    -0.744 OA
ENDBRANCH  93  96
ENDBRANCH  65  89
BRANCH  77 100
ATOM    100  C   UNL     1       8.782   0.239  -5.144  1.00  0.00     0.023 A 
ATOM    101  C   UNL     1       9.345  -0.000  -6.413  1.00  0.00     0.012 A 
ATOM    102  C   UNL     1       7.378   0.196  -5.004  1.00  0.00     0.148 A 
ATOM    103  C   UNL     1       8.540  -0.291  -7.514  1.00  0.00     0.002 A 
ATOM    104  C   UNL     1       6.582  -0.144  -6.095  1.00  0.00     0.091 A 
ATOM    105  F   UNL     1       6.836   0.483  -3.812  1.00  0.00    -0.205 F 
ATOM    106  C   UNL     1       7.162  -0.380  -7.351  1.00  0.00     0.022 A 
BRANCH 104 107
ATOM    107  S   UNL     1       4.803  -0.370  -5.978  1.00  0.00     0.127 S 
ATOM    108  O   UNL     1       4.305   0.607  -6.946  1.00  0.00    -0.237 OA
ATOM    109  O   UNL     1       4.650  -1.766  -6.392  1.00  0.00    -0.237 OA
ATOM    110  O   UNL     1       4.443  -0.102  -4.592  1.00  0.00    -0.744 OA
ENDBRANCH 104 107
ENDBRANCH  77 100
ENDBRANCH  51  52
ENDBRANCH  43  46
ENDBRANCH  41  42
ENDBRANCH  40  41
ENDBRANCH   1  40
TORSDOF 20
