REMARK SMILES [NH3+][C@@](Cc1ccc(F)cc1)(C(=O)NCCCCNC(=O)c1ccc(-c2c3nc(c(-c4cccc(S(=O)(=O)[O-])c4F)c4ccc([nH]4)c(-c4cccc(S(=O)(=O)[O-])c4F)c4nc(c(-c5cccc(S(=O)(=O)[O-])c5F)c5ccc2[nH]5)C=C4)C=C3)cc1)c1ccccc1
REMARK SMILES IDX 16 1 15 2 14 3 13 4 11 5 12 6 2 8 1 9 3 13 4 14 5 15 10 16
REMARK SMILES IDX 6 17 9 18 7 19 8 20 84 21 85 22 89 23 86 24 88 25 87 26
REMARK SMILES IDX 17 27 18 28 19 29 20 31 21 32 22 33 83 34 23 35 82 36 24 37
REMARK SMILES IDX 25 38 26 39 76 40 27 41 81 42 75 43 77 44 28 45 80 46 74 47
REMARK SMILES IDX 73 48 29 50 61 51 41 52 60 53 42 54 45 55 59 56 78 57 43 58
REMARK SMILES IDX 44 59 58 61 79 62 46 63 30 64 31 65 39 66 32 67 34 68 40 69
REMARK SMILES IDX 33 70 35 71 36 72 37 73 38 74 62 75 63 76 71 77 64 78 66 79
REMARK SMILES IDX 72 80 65 81 67 82 68 83 69 84 70 85 47 86 48 87 56 88 49 89
REMARK SMILES IDX 51 90 57 91 50 92 52 93 53 94 54 95 55 96
REMARK H PARENT 13 7 1 10 1 11 1 12 18 30 77 49 45 60
REMARK Flexibility Score: inf
ROOT
ATOM      1  C   UNL     1      -3.566  -1.675   2.216  1.00  0.00     0.023 C 
ENDROOT
BRANCH   1   2
ATOM      2  C   UNL     1      -2.121  -1.303   1.909  1.00  0.00     0.023 C 
BRANCH   2   3
ATOM      3  C   UNL     1      -1.592  -1.787   0.570  1.00  0.00     0.116 C 
BRANCH   3   4
ATOM      4  N   UNL     1      -1.868  -0.931  -0.557  1.00  0.00    -0.350 N 
ATOM      5  C   UNL     1      -1.027  -0.504  -1.554  1.00  0.00     0.286 C 
ATOM      6  O   UNL     1      -1.582  -0.252  -2.632  1.00  0.00    -0.267 OA
ATOM      7  H   UNL     1      -2.795  -0.605  -0.620  1.00  0.00     0.163 HD
BRANCH   5   8
ATOM      8  C   UNL     1       0.553  -0.339  -1.374  1.00  0.00     0.203 C 
BRANCH   8   9
ATOM      9  N   UNL     1       0.874   0.243  -0.041  1.00  0.00    -0.341 N 
ATOM     10  H   UNL     1       0.590  -0.408   0.691  1.00  0.00     0.345 HD
ATOM     11  H   UNL     1       0.373   1.124   0.075  1.00  0.00     0.345 HD
ATOM     12  H   UNL     1       1.877   0.411   0.024  1.00  0.00     0.345 HD
ENDBRANCH   8   9
BRANCH   8  13
ATOM     13  C   UNL     1       1.304  -1.700  -1.636  1.00  0.00     0.120 C 
BRANCH  13  14
ATOM     14  C   UNL     1       1.162  -2.917  -0.740  1.00  0.00    -0.041 A 
ATOM     15  C   UNL     1       0.601  -4.098  -1.261  1.00  0.00     0.007 A 
ATOM     16  C   UNL     1       1.615  -2.921   0.591  1.00  0.00     0.007 A 
ATOM     17  C   UNL     1       0.435  -5.226  -0.455  1.00  0.00     0.039 A 
ATOM     18  C   UNL     1       1.404  -4.035   1.409  1.00  0.00     0.039 A 
ATOM     19  C   UNL     1       0.817  -5.176   0.878  1.00  0.00     0.123 A 
ATOM     20  F   UNL     1       0.624  -6.245   1.661  1.00  0.00    -0.207 F 
ENDBRANCH  13  14
ENDBRANCH   8  13
BRANCH   8  21
ATOM     21  C   UNL     1       1.032   0.746  -2.407  1.00  0.00     0.022 A 
ATOM     22  C   UNL     1       1.875   0.471  -3.501  1.00  0.00     0.011 A 
ATOM     23  C   UNL     1       0.588   2.079  -2.259  1.00  0.00     0.011 A 
ATOM     24  C   UNL     1       2.265   1.478  -4.391  1.00  0.00     0.001 A 
ATOM     25  C   UNL     1       0.976   3.083  -3.150  1.00  0.00     0.001 A 
ATOM     26  C   UNL     1       1.818   2.783  -4.215  1.00  0.00     0.000 A 
ENDBRANCH   8  21
ENDBRANCH   5   8
ENDBRANCH   3   4
ENDBRANCH   2   3
ENDBRANCH   1   2
BRANCH   1  27
ATOM     27  C   UNL     1      -3.938  -3.140   2.015  1.00  0.00     0.116 C 
BRANCH  27  28
ATOM     28  N   UNL     1      -3.087  -4.091   2.726  1.00  0.00    -0.352 N 
ATOM     29  C   UNL     1      -3.467  -5.234   3.397  1.00  0.00     0.251 C 
ATOM     30  H   UNL     1      -2.123  -3.891   2.725  1.00  0.00     0.163 HD
ATOM     31  O   UNL     1      -2.642  -5.907   4.008  1.00  0.00    -0.269 OA
BRANCH  29  32
ATOM     32  C   UNL     1      -4.897  -5.606   3.415  1.00  0.00     0.039 A 
ATOM     33  C   UNL     1      -5.532  -5.801   4.644  1.00  0.00     0.014 A 
ATOM     34  C   UNL     1      -5.629  -5.640   2.225  1.00  0.00     0.014 A 
ATOM     35  C   UNL     1      -6.923  -5.920   4.686  1.00  0.00     0.010 A 
ATOM     36  C   UNL     1      -7.017  -5.669   2.279  1.00  0.00     0.010 A 
ATOM     37  C   UNL     1      -7.681  -5.793   3.509  1.00  0.00    -0.014 A 
BRANCH  37  38
ATOM     38  C   UNL     1      -9.165  -5.738   3.543  1.00  0.00     0.031 A 
ATOM     39  C   UNL     1      -9.979  -6.764   2.806  1.00  0.00     0.074 A 
ATOM     40  C   UNL     1      -9.780  -4.698   4.145  1.00  0.00     0.049 A 
ATOM     41  N   UNL     1     -11.276  -6.831   2.653  1.00  0.00    -0.248 NA
ATOM     42  C   UNL     1      -9.239  -7.839   2.122  1.00  0.00     0.031 C 
ATOM     43  C   UNL     1      -9.101  -3.585   4.813  1.00  0.00     0.029 A 
ATOM     44  N   UNL     1     -11.113  -4.394   4.272  1.00  0.00    -0.354 N 
ATOM     45  C   UNL     1     -11.504  -7.925   1.828  1.00  0.00     0.074 A 
ATOM     46  C   UNL     1     -10.211  -8.470   1.480  1.00  0.00     0.031 C 
ATOM     47  C   UNL     1     -10.020  -2.731   5.292  1.00  0.00     0.029 A 
ATOM     48  C   UNL     1     -11.352  -3.216   4.942  1.00  0.00     0.049 A 
ATOM     49  H   UNL     1     -11.832  -4.966   3.917  1.00  0.00     0.167 HD
ATOM     50  C   UNL     1     -12.684  -8.452   1.427  1.00  0.00     0.034 A 
ATOM     51  C   UNL     1     -12.510  -2.595   5.245  1.00  0.00     0.034 A 
ATOM     52  C   UNL     1     -13.968  -7.947   1.829  1.00  0.00     0.049 A 
ATOM     53  C   UNL     1     -13.811  -3.237   4.846  1.00  0.00     0.074 A 
ATOM     54  C   UNL     1     -15.219  -8.472   1.555  1.00  0.00     0.029 A 
ATOM     55  N   UNL     1     -14.169  -6.808   2.592  1.00  0.00    -0.354 N 
ATOM     56  N   UNL     1     -14.008  -4.359   4.197  1.00  0.00    -0.248 NA
ATOM     57  C   UNL     1     -15.048  -2.551   5.247  1.00  0.00     0.031 C 
ATOM     58  C   UNL     1     -16.177  -7.643   2.145  1.00  0.00     0.029 A 
ATOM     59  C   UNL     1     -15.523  -6.612   2.800  1.00  0.00     0.049 A 
ATOM     60  H   UNL     1     -13.454  -6.226   2.936  1.00  0.00     0.167 HD
ATOM     61  C   UNL     1     -15.386  -4.529   4.137  1.00  0.00     0.074 A 
ATOM     62  C   UNL     1     -15.977  -3.404   4.833  1.00  0.00     0.031 C 
ATOM     63  C   UNL     1     -16.097  -5.519   3.543  1.00  0.00     0.034 A 
BRANCH  50  64
ATOM     64  C   UNL     1     -12.645  -9.691   0.573  1.00  0.00     0.023 A 
ATOM     65  C   UNL     1     -12.272 -10.918   1.159  1.00  0.00     0.012 A 
ATOM     66  C   UNL     1     -13.047  -9.662  -0.776  1.00  0.00     0.148 A 
ATOM     67  C   UNL     1     -12.271 -12.092   0.408  1.00  0.00     0.002 A 
ATOM     68  C   UNL     1     -13.086 -10.844  -1.506  1.00  0.00     0.091 A 
ATOM     69  F   UNL     1     -13.377  -8.482  -1.321  1.00  0.00    -0.205 F 
ATOM     70  C   UNL     1     -12.689 -12.057  -0.919  1.00  0.00     0.022 A 
BRANCH  68  71
ATOM     71  S   UNL     1     -13.685 -10.920  -3.198  1.00  0.00     0.127 S 
ATOM     72  O   UNL     1     -12.448 -11.164  -3.938  1.00  0.00    -0.237 OA
ATOM     73  O   UNL     1     -14.601 -12.060  -3.150  1.00  0.00    -0.237 OA
ATOM     74  O   UNL     1     -14.325  -9.638  -3.455  1.00  0.00    -0.744 OA
ENDBRANCH  68  71
ENDBRANCH  50  64
BRANCH  51  75
ATOM     75  C   UNL     1     -12.482  -1.341   6.051  1.00  0.00     0.023 A 
ATOM     76  C   UNL     1     -12.899  -1.383   7.396  1.00  0.00     0.012 A 
ATOM     77  C   UNL     1     -11.981  -0.134   5.525  1.00  0.00     0.148 A 
ATOM     78  C   UNL     1     -12.833  -0.244   8.199  1.00  0.00     0.002 A 
ATOM     79  C   UNL     1     -11.868   0.984   6.345  1.00  0.00     0.091 A 
ATOM     80  F   UNL     1     -11.600  -0.112   4.240  1.00  0.00    -0.205 F 
ATOM     81  C   UNL     1     -12.306   0.935   7.678  1.00  0.00     0.022 A 
BRANCH  79  82
ATOM     82  S   UNL     1     -11.072   2.502   5.805  1.00  0.00     0.127 S 
ATOM     83  O   UNL     1     -12.201   3.427   5.746  1.00  0.00    -0.237 OA
ATOM     84  O   UNL     1     -10.128   2.751   6.895  1.00  0.00    -0.237 OA
ATOM     85  O   UNL     1     -10.445   2.185   4.529  1.00  0.00    -0.744 OA
ENDBRANCH  79  82
ENDBRANCH  51  75
BRANCH  63  86
ATOM     86  C   UNL     1     -17.599  -5.461   3.621  1.00  0.00     0.023 A 
ATOM     87  C   UNL     1     -18.300  -4.547   2.811  1.00  0.00     0.012 A 
ATOM     88  C   UNL     1     -18.317  -6.397   4.392  1.00  0.00     0.148 A 
ATOM     89  C   UNL     1     -19.694  -4.556   2.777  1.00  0.00     0.002 A 
ATOM     90  C   UNL     1     -19.704  -6.430   4.318  1.00  0.00     0.091 A 
ATOM     91  F   UNL     1     -17.629  -7.247   5.169  1.00  0.00    -0.205 F 
ATOM     92  C   UNL     1     -20.394  -5.506   3.517  1.00  0.00     0.022 A 
BRANCH  90  93
ATOM     93  S   UNL     1     -20.684  -7.683   5.155  1.00  0.00     0.127 S 
ATOM     94  O   UNL     1     -21.307  -6.906   6.226  1.00  0.00    -0.237 OA
ATOM     95  O   UNL     1     -21.603  -8.115   4.101  1.00  0.00    -0.237 OA
ATOM     96  O   UNL     1     -19.742  -8.704   5.591  1.00  0.00    -0.744 OA
ENDBRANCH  90  93
ENDBRANCH  63  86
ENDBRANCH  37  38
ENDBRANCH  29  32
ENDBRANCH  27  28
ENDBRANCH   1  27
TORSDOF 18
