REMARK SMILES Cn1cc(-c2ccn(Cc3ccc(C(=O)NCCCCNC(=O)c4ccc(-c5c6nc(c(-c7cccc(S(=O)(=O)[O-])c7F)c7ccc([nH]7)c(-c7cccc(S(=O)(=O)[O-])c7F)c7nc(c(-c8cccc(S(=O)(=O)[O-])c8F)c8ccc5[nH]8)C=C7)C=C6)cc4)cc3)n2)cn1
REMARK SMILES IDX 18 1 17 2 16 3 14 4 15 5 13 7 10 8 11 9 88 10 12 11 87 12
REMARK SMILES IDX 9 13 8 14 5 15 6 16 89 17 7 18 4 19 1 20 2 21 3 22 91 23
REMARK SMILES IDX 90 24 19 25 20 26 21 27 22 28 23 30 24 31 25 32 86 33 26 34
REMARK SMILES IDX 85 35 27 36 28 37 29 38 79 39 30 40 84 41 78 42 80 43 31 44
REMARK SMILES IDX 83 45 77 46 76 47 32 49 64 50 44 51 63 52 45 53 48 54 62 55
REMARK SMILES IDX 81 56 46 57 47 58 61 60 82 61 49 62 33 63 34 64 42 65 35 66
REMARK SMILES IDX 37 67 43 68 36 69 38 70 39 71 40 72 41 73 65 74 66 75 74 76
REMARK SMILES IDX 67 77 69 78 75 79 68 80 70 81 71 82 72 83 73 84 50 85 51 86
REMARK SMILES IDX 59 87 52 88 54 89 60 90 53 91 55 92 56 93 57 94 58 95
REMARK H PARENT 16 6 21 29 80 48 48 59
REMARK Flexibility Score: inf
ROOT
ATOM      1  C   UNL     1       6.458   3.196   4.980  1.00  0.00     0.023 C 
ENDROOT
BRANCH   1   2
ATOM      2  C   UNL     1       6.854   3.330   3.502  1.00  0.00     0.116 C 
BRANCH   2   3
ATOM      3  N   UNL     1       8.227   2.911   3.289  1.00  0.00    -0.352 N 
ATOM      4  C   UNL     1       8.777   1.721   2.881  1.00  0.00     0.251 C 
ATOM      5  O   UNL     1      10.004   1.630   2.837  1.00  0.00    -0.269 OA
ATOM      6  H   UNL     1       8.891   3.614   3.472  1.00  0.00     0.163 HD
BRANCH   4   7
ATOM      7  C   UNL     1       7.965   0.542   2.470  1.00  0.00     0.039 A 
ATOM      8  C   UNL     1       6.521  -1.707   1.542  1.00  0.00    -0.026 A 
ATOM      9  C   UNL     1       7.790  -1.416   1.025  1.00  0.00     0.006 A 
ATOM     10  C   UNL     1       6.015  -0.894   2.563  1.00  0.00     0.006 A 
ATOM     11  C   UNL     1       8.502  -0.302   1.485  1.00  0.00     0.014 A 
ATOM     12  C   UNL     1       6.736   0.205   3.033  1.00  0.00     0.014 A 
BRANCH   8  13
ATOM     13  C   UNL     1       5.716  -2.880   1.042  1.00  0.00     0.179 C 
BRANCH  13  14
ATOM     14  N   UNL     1       4.542  -2.499   0.257  1.00  0.00    -0.268 N 
ATOM     15  C   UNL     1       2.645  -1.660  -0.173  1.00  0.00     0.095 A 
ATOM     16  C   UNL     1       2.973  -2.467  -1.281  1.00  0.00     0.050 A 
ATOM     17  N   UNL     1       3.567  -1.724   0.790  1.00  0.00    -0.172 NA
ATOM     18  C   UNL     1       4.204  -2.998  -0.975  1.00  0.00     0.110 A 
BRANCH  15  19
ATOM     19  C   UNL     1       1.434  -0.868  -0.074  1.00  0.00     0.040 A 
ATOM     20  C   UNL     1      -2.059  -0.034  -0.033  1.00  0.00     0.173 C 
ATOM     21  N   UNL     1      -0.620  -0.137  -0.017  1.00  0.00    -0.275 N 
ATOM     22  C   UNL     1       0.122  -1.276  -0.128  1.00  0.00     0.118 A 
ATOM     23  N   UNL     1       0.119   0.982   0.096  1.00  0.00    -0.181 NA
ATOM     24  C   UNL     1       1.379   0.530   0.073  1.00  0.00     0.145 A 
ENDBRANCH  15  19
ENDBRANCH  13  14
ENDBRANCH   8  13
ENDBRANCH   4   7
ENDBRANCH   2   3
ENDBRANCH   1   2
BRANCH   1  25
ATOM     25  C   UNL     1       7.048   4.256   5.921  1.00  0.00     0.023 C 
BRANCH  25  26
ATOM     26  C   UNL     1       6.497   5.663   5.725  1.00  0.00     0.116 C 
BRANCH  26  27
ATOM     27  N   UNL     1       5.057   5.751   5.984  1.00  0.00    -0.352 N 
ATOM     28  C   UNL     1       4.191   6.777   5.644  1.00  0.00     0.251 C 
ATOM     29  H   UNL     1       4.656   4.986   6.458  1.00  0.00     0.163 HD
ATOM     30  O   UNL     1       3.140   6.942   6.239  1.00  0.00    -0.269 OA
BRANCH  28  31
ATOM     31  C   UNL     1       4.570   7.655   4.524  1.00  0.00     0.039 A 
ATOM     32  C   UNL     1       4.425   9.043   4.592  1.00  0.00     0.014 A 
ATOM     33  C   UNL     1       5.142   7.045   3.412  1.00  0.00     0.014 A 
ATOM     34  C   UNL     1       4.944   9.816   3.558  1.00  0.00     0.010 A 
ATOM     35  C   UNL     1       5.803   7.810   2.490  1.00  0.00     0.010 A 
ATOM     36  C   UNL     1       5.653   9.191   2.519  1.00  0.00    -0.014 A 
BRANCH  36  37
ATOM     37  C   UNL     1       6.346   9.974   1.505  1.00  0.00     0.031 A 
ATOM     38  C   UNL     1       7.312  10.968   2.047  1.00  0.00     0.074 A 
ATOM     39  C   UNL     1       6.290   9.670   0.190  1.00  0.00     0.049 A 
ATOM     40  N   UNL     1       7.207  12.256   2.019  1.00  0.00    -0.248 NA
ATOM     41  C   UNL     1       8.446  10.483   2.849  1.00  0.00     0.031 C 
ATOM     42  C   UNL     1       5.653   8.509  -0.449  1.00  0.00     0.029 A 
ATOM     43  N   UNL     1       6.941  10.256  -0.850  1.00  0.00    -0.354 N 
ATOM     44  C   UNL     1       8.391  12.742   2.570  1.00  0.00     0.074 A 
ATOM     45  C   UNL     1       8.993  11.631   3.258  1.00  0.00     0.031 C 
ATOM     46  C   UNL     1       6.182   8.327  -1.678  1.00  0.00     0.029 A 
ATOM     47  C   UNL     1       7.048   9.450  -1.979  1.00  0.00     0.049 A 
ATOM     48  H   UNL     1       7.303  11.170  -0.808  1.00  0.00     0.167 HD
ATOM     49  C   UNL     1       8.905  13.943   2.181  1.00  0.00     0.034 A 
ATOM     50  C   UNL     1       7.848   9.662  -3.053  1.00  0.00     0.034 A 
ATOM     51  C   UNL     1       7.927  14.714   1.450  1.00  0.00     0.049 A 
ATOM     52  C   UNL     1       8.184  11.105  -3.062  1.00  0.00     0.074 A 
ATOM     53  C   UNL     1       6.644  15.159   1.708  1.00  0.00     0.029 A 
ATOM     54  N   UNL     1       8.075  14.777   0.084  1.00  0.00    -0.354 N 
ATOM     55  N   UNL     1       7.297  12.045  -3.242  1.00  0.00    -0.248 NA
ATOM     56  C   UNL     1       9.409  11.516  -2.396  1.00  0.00     0.031 C 
ATOM     57  C   UNL     1       5.942  14.961   0.481  1.00  0.00     0.029 A 
ATOM     58  C   UNL     1       6.854  14.498  -0.469  1.00  0.00     0.049 A 
ATOM     59  H   UNL     1       8.904  14.985  -0.405  1.00  0.00     0.167 HD
ATOM     60  C   UNL     1       7.635  13.016  -2.307  1.00  0.00     0.074 A 
ATOM     61  C   UNL     1       8.998  12.682  -1.890  1.00  0.00     0.031 C 
ATOM     62  C   UNL     1       6.685  13.811  -1.731  1.00  0.00     0.034 A 
BRANCH  49  63
ATOM     63  C   UNL     1      10.379  14.282   2.098  1.00  0.00     0.023 A 
ATOM     64  C   UNL     1      10.711  15.617   1.768  1.00  0.00     0.012 A 
ATOM     65  C   UNL     1      11.426  13.334   2.039  1.00  0.00     0.148 A 
ATOM     66  C   UNL     1      11.990  15.972   1.325  1.00  0.00     0.002 A 
ATOM     67  C   UNL     1      12.716  13.706   1.674  1.00  0.00     0.091 A 
ATOM     68  F   UNL     1      11.169  12.035   2.203  1.00  0.00    -0.205 F 
ATOM     69  C   UNL     1      12.995  15.016   1.280  1.00  0.00     0.022 A 
BRANCH  67  70
ATOM     70  S   UNL     1      14.066  12.520   1.645  1.00  0.00     0.127 S 
ATOM     71  O   UNL     1      14.268  12.345   0.210  1.00  0.00    -0.237 OA
ATOM     72  O   UNL     1      15.124  13.258   2.336  1.00  0.00    -0.237 OA
ATOM     73  O   UNL     1      13.580  11.355   2.372  1.00  0.00    -0.744 OA
ENDBRANCH  67  70
ENDBRANCH  49  63
BRANCH  50  74
ATOM     74  C   UNL     1       8.566   8.670  -3.889  1.00  0.00     0.023 A 
ATOM     75  C   UNL     1       9.057   9.041  -5.156  1.00  0.00     0.012 A 
ATOM     76  C   UNL     1       9.006   7.443  -3.341  1.00  0.00     0.148 A 
ATOM     77  C   UNL     1       9.975   8.232  -5.841  1.00  0.00     0.002 A 
ATOM     78  C   UNL     1       9.907   6.636  -4.030  1.00  0.00     0.091 A 
ATOM     79  F   UNL     1       8.619   7.112  -2.102  1.00  0.00    -0.205 F 
ATOM     80  C   UNL     1      10.404   7.034  -5.276  1.00  0.00     0.022 A 
BRANCH  78  81
ATOM     81  S   UNL     1      10.509   5.083  -3.352  1.00  0.00     0.127 S 
ATOM     82  O   UNL     1      10.356   4.176  -4.490  1.00  0.00    -0.237 OA
ATOM     83  O   UNL     1      11.889   5.415  -3.014  1.00  0.00    -0.237 OA
ATOM     84  O   UNL     1       9.634   4.779  -2.226  1.00  0.00    -0.744 OA
ENDBRANCH  78  81
ENDBRANCH  50  74
BRANCH  62  85
ATOM     85  C   UNL     1       5.282  13.788  -2.287  1.00  0.00     0.023 A 
ATOM     86  C   UNL     1       4.477  12.629  -2.276  1.00  0.00     0.012 A 
ATOM     87  C   UNL     1       4.695  15.014  -2.643  1.00  0.00     0.148 A 
ATOM     88  C   UNL     1       3.125  12.690  -2.627  1.00  0.00     0.002 A 
ATOM     89  C   UNL     1       3.341  15.080  -2.945  1.00  0.00     0.091 A 
ATOM     90  F   UNL     1       5.470  16.109  -2.644  1.00  0.00    -0.205 F 
ATOM     91  C   UNL     1       2.553  13.918  -2.948  1.00  0.00     0.022 A 
BRANCH  89  92
ATOM     92  S   UNL     1       2.523  16.649  -3.240  1.00  0.00     0.127 S 
ATOM     93  O   UNL     1       2.317  16.618  -4.687  1.00  0.00    -0.237 OA
ATOM     94  O   UNL     1       1.300  16.522  -2.445  1.00  0.00    -0.237 OA
ATOM     95  O   UNL     1       3.439  17.677  -2.760  1.00  0.00    -0.744 OA
ENDBRANCH  89  92
ENDBRANCH  62  85
ENDBRANCH  36  37
ENDBRANCH  28  31
ENDBRANCH  26  27
ENDBRANCH  25  26
ENDBRANCH   1  25
TORSDOF 17
