REMARK SMILES CCCc1cc(-n2ccc(C(=O)NCCCCNC(=O)c3ccc(-c4c5nc(c(-c6cccc(S(=O)(=O)[O-])c6F)c6ccc([nH]6)c(-c6cccc(S(=O)(=O)[O-])c6F)c6nc(c(-c7cccc(S(=O)(=O)[O-])c7F)c7ccc4[nH]7)C=C6)C=C5)cc3)n2)nc(C(C)C)n1
REMARK SMILES IDX 15 1 14 2 13 3 11 4 12 5 10 7 7 8 8 9 84 10 9 11 6 12 4 13
REMARK SMILES IDX 5 14 90 15 86 16 85 17 3 18 2 19 1 20 87 21 88 22 89 23
REMARK SMILES IDX 16 24 17 25 18 26 19 27 20 29 21 30 22 31 83 32 23 33 82 34
REMARK SMILES IDX 24 35 25 36 26 37 76 38 27 39 81 40 75 41 77 42 28 43 80 44
REMARK SMILES IDX 74 45 73 46 29 48 61 49 41 50 60 51 42 52 45 53 59 54 78 55
REMARK SMILES IDX 43 56 44 57 58 59 79 60 46 61 30 62 31 63 39 64 32 65 34 66
REMARK SMILES IDX 40 67 33 68 35 69 36 70 37 71 38 72 62 73 63 74 71 75 64 76
REMARK SMILES IDX 66 77 72 78 65 79 67 80 68 81 69 82 70 83 47 84 48 85 56 86
REMARK SMILES IDX 49 87 51 88 57 89 50 90 52 91 53 92 54 93 55 94
REMARK H PARENT 13 6 18 28 77 47 45 58
REMARK Flexibility Score: inf
ROOT
ATOM      1  C   UNL     1      -0.099   4.700  -4.413  1.00  0.00     0.023 C 
ENDROOT
BRANCH   1   2
ATOM      2  C   UNL     1      -0.939   5.563  -3.466  1.00  0.00     0.116 C 
BRANCH   2   3
ATOM      3  N   UNL     1      -2.364   5.441  -3.727  1.00  0.00    -0.351 N 
ATOM      4  C   UNL     1      -3.385   4.895  -2.980  1.00  0.00     0.271 C 
ATOM      5  O   UNL     1      -4.490   4.800  -3.519  1.00  0.00    -0.267 OA
ATOM      6  H   UNL     1      -2.650   5.815  -4.591  1.00  0.00     0.163 HD
BRANCH   4   7
ATOM      7  C   UNL     1      -3.167   4.360  -1.623  1.00  0.00     0.150 A 
ATOM      8  N   UNL     1      -2.213   3.800   0.215  1.00  0.00    -0.222 N 
ATOM      9  C   UNL     1      -3.409   3.118   0.210  1.00  0.00     0.118 A 
ATOM     10  N   UNL     1      -2.111   4.637  -0.841  1.00  0.00    -0.161 NA
ATOM     11  C   UNL     1      -4.060   3.486  -0.941  1.00  0.00     0.056 A 
BRANCH   8  12
ATOM     12  C   UNL     1      -1.098   3.590   1.077  1.00  0.00     0.157 A 
ATOM     13  C   UNL     1       0.371   2.103   2.138  1.00  0.00     0.046 A 
ATOM     14  C   UNL     1      -0.840   2.301   1.507  1.00  0.00     0.073 A 
ATOM     15  N   UNL     1       1.173   3.134   2.479  1.00  0.00    -0.238 NA
ATOM     16  C   UNL     1       0.801   4.371   2.093  1.00  0.00     0.133 A 
ATOM     17  N   UNL     1      -0.279   4.630   1.345  1.00  0.00    -0.213 NA
BRANCH  13  18
ATOM     18  C   UNL     1       0.885   0.725   2.477  1.00  0.00     0.056 C 
BRANCH  18  19
ATOM     19  C   UNL     1       0.580  -0.391   1.466  1.00  0.00     0.003 C 
ATOM     20  C   UNL     1       1.161  -0.146   0.079  1.00  0.00     0.004 C 
ENDBRANCH  18  19
ENDBRANCH  13  18
BRANCH  16  21
ATOM     21  C   UNL     1       1.596   5.556   2.594  1.00  0.00     0.051 C 
ATOM     22  C   UNL     1       1.509   5.646   4.119  1.00  0.00     0.016 C 
ATOM     23  C   UNL     1       3.049   5.494   2.128  1.00  0.00     0.016 C 
ENDBRANCH  16  21
ENDBRANCH   8  12
ENDBRANCH   4   7
ENDBRANCH   2   3
ENDBRANCH   1   2
BRANCH   1  24
ATOM     24  C   UNL     1      -0.130   5.104  -5.894  1.00  0.00     0.023 C 
BRANCH  24  25
ATOM     25  C   UNL     1       0.342   6.528  -6.176  1.00  0.00     0.116 C 
BRANCH  25  26
ATOM     26  N   UNL     1       1.743   6.733  -5.826  1.00  0.00    -0.352 N 
ATOM     27  C   UNL     1       2.491   7.886  -5.960  1.00  0.00     0.251 C 
ATOM     28  H   UNL     1       2.212   5.955  -5.447  1.00  0.00     0.163 HD
ATOM     29  O   UNL     1       3.712   7.831  -5.981  1.00  0.00    -0.269 OA
BRANCH  27  30
ATOM     30  C   UNL     1       1.800   9.184  -6.091  1.00  0.00     0.039 A 
ATOM     31  C   UNL     1       2.242  10.116  -7.035  1.00  0.00     0.014 A 
ATOM     32  C   UNL     1       0.711   9.469  -5.265  1.00  0.00     0.014 A 
ATOM     33  C   UNL     1       1.527  11.299  -7.204  1.00  0.00     0.010 A 
ATOM     34  C   UNL     1      -0.043  10.604  -5.485  1.00  0.00     0.010 A 
ATOM     35  C   UNL     1       0.367  11.527  -6.446  1.00  0.00    -0.014 A 
BRANCH  35  36
ATOM     36  C   UNL     1      -0.525  12.629  -6.814  1.00  0.00     0.031 A 
ATOM     37  C   UNL     1      -1.020  12.554  -8.221  1.00  0.00     0.074 A 
ATOM     38  C   UNL     1      -1.051  13.501  -5.927  1.00  0.00     0.049 A 
ATOM     39  N   UNL     1      -0.792  13.381  -9.188  1.00  0.00    -0.248 NA
ATOM     40  C   UNL     1      -1.722  11.330  -8.641  1.00  0.00     0.031 C 
ATOM     41  C   UNL     1      -0.907  13.473  -4.468  1.00  0.00     0.029 A 
ATOM     42  N   UNL     1      -1.951  14.510  -6.125  1.00  0.00    -0.354 N 
ATOM     43  C   UNL     1      -1.529  12.903 -10.275  1.00  0.00     0.074 A 
ATOM     44  C   UNL     1      -1.886  11.551  -9.946  1.00  0.00     0.031 C 
ATOM     45  C   UNL     1      -1.872  14.236  -3.908  1.00  0.00     0.029 A 
ATOM     46  C   UNL     1      -2.599  14.921  -4.960  1.00  0.00     0.049 A 
ATOM     47  H   UNL     1      -2.125  14.909  -7.007  1.00  0.00     0.167 HD
ATOM     48  C   UNL     1      -2.008  13.752 -11.227  1.00  0.00     0.034 A 
ATOM     49  C   UNL     1      -3.690  15.722  -4.866  1.00  0.00     0.034 A 
ATOM     50  C   UNL     1      -1.351  15.034 -11.142  1.00  0.00     0.049 A 
ATOM     51  C   UNL     1      -3.801  16.462  -6.139  1.00  0.00     0.074 A 
ATOM     52  C   UNL     1      -0.054  15.492 -11.241  1.00  0.00     0.029 A 
ATOM     53  N   UNL     1      -2.071  16.035 -10.537  1.00  0.00    -0.354 N 
ATOM     54  N   UNL     1      -2.956  17.377  -6.520  1.00  0.00    -0.248 NA
ATOM     55  C   UNL     1      -4.660  15.925  -7.180  1.00  0.00     0.031 C 
ATOM     56  C   UNL     1       0.030  16.568 -10.309  1.00  0.00     0.029 A 
ATOM     57  C   UNL     1      -1.232  16.755  -9.739  1.00  0.00     0.049 A 
ATOM     58  H   UNL     1      -3.033  16.204 -10.659  1.00  0.00     0.167 HD
ATOM     59  C   UNL     1      -2.844  17.181  -7.888  1.00  0.00     0.074 A 
ATOM     60  C   UNL     1      -4.016  16.390  -8.254  1.00  0.00     0.031 C 
ATOM     61  C   UNL     1      -1.662  17.418  -8.528  1.00  0.00     0.034 A 
BRANCH  48  62
ATOM     62  C   UNL     1      -3.348  13.621 -11.944  1.00  0.00     0.023 A 
ATOM     63  C   UNL     1      -3.677  14.650 -12.862  1.00  0.00     0.012 A 
ATOM     64  C   UNL     1      -4.402  12.758 -11.568  1.00  0.00     0.148 A 
ATOM     65  C   UNL     1      -4.992  14.880 -13.283  1.00  0.00     0.002 A 
ATOM     66  C   UNL     1      -5.697  12.947 -12.044  1.00  0.00     0.091 A 
ATOM     67  F   UNL     1      -4.204  11.804 -10.660  1.00  0.00    -0.205 F 
ATOM     68  C   UNL     1      -6.005  14.030 -12.868  1.00  0.00     0.022 A 
BRANCH  66  69
ATOM     69  S   UNL     1      -7.046  11.849 -11.583  1.00  0.00     0.127 S 
ATOM     70  O   UNL     1      -7.850  12.718 -10.729  1.00  0.00    -0.237 OA
ATOM     71  O   UNL     1      -7.635  11.541 -12.886  1.00  0.00    -0.237 OA
ATOM     72  O   UNL     1      -6.423  10.707 -10.924  1.00  0.00    -0.744 OA
ENDBRANCH  66  69
ENDBRANCH  48  62
BRANCH  49  73
ATOM     73  C   UNL     1      -4.770  15.781  -3.852  1.00  0.00     0.023 A 
ATOM     74  C   UNL     1      -5.566  16.941  -3.751  1.00  0.00     0.012 A 
ATOM     75  C   UNL     1      -5.210  14.614  -3.192  1.00  0.00     0.148 A 
ATOM     76  C   UNL     1      -6.781  16.928  -3.055  1.00  0.00     0.002 A 
ATOM     77  C   UNL     1      -6.416  14.607  -2.495  1.00  0.00     0.091 A 
ATOM     78  F   UNL     1      -4.497  13.488  -3.328  1.00  0.00    -0.205 F 
ATOM     79  C   UNL     1      -7.211  15.759  -2.437  1.00  0.00     0.022 A 
BRANCH  77  80
ATOM     80  S   UNL     1      -7.053  13.127  -1.698  1.00  0.00     0.127 S 
ATOM     81  O   UNL     1      -7.430  13.633  -0.377  1.00  0.00    -0.237 OA
ATOM     82  O   UNL     1      -8.177  12.779  -2.563  1.00  0.00    -0.237 OA
ATOM     83  O   UNL     1      -5.947  12.179  -1.683  1.00  0.00    -0.744 OA
ENDBRANCH  77  80
ENDBRANCH  49  73
BRANCH  61  84
ATOM     84  C   UNL     1      -0.619  18.236  -7.815  1.00  0.00     0.023 A 
ATOM     85  C   UNL     1      -0.005  17.822  -6.615  1.00  0.00     0.012 A 
ATOM     86  C   UNL     1      -0.127  19.374  -8.475  1.00  0.00     0.148 A 
ATOM     87  C   UNL     1       1.067  18.541  -6.079  1.00  0.00     0.002 A 
ATOM     88  C   UNL     1       0.973  20.052  -7.970  1.00  0.00     0.091 A 
ATOM     89  F   UNL     1      -0.730  19.758  -9.611  1.00  0.00    -0.205 F 
ATOM     90  C   UNL     1       1.567  19.646  -6.766  1.00  0.00     0.022 A 
BRANCH  88  91
ATOM     91  S   UNL     1       1.740  21.388  -8.889  1.00  0.00     0.127 S 
ATOM     92  O   UNL     1       1.264  22.567  -8.170  1.00  0.00    -0.237 OA
ATOM     93  O   UNL     1       3.167  21.105  -8.726  1.00  0.00    -0.237 OA
ATOM     94  O   UNL     1       1.264  21.252 -10.261  1.00  0.00    -0.744 OA
ENDBRANCH  88  91
ENDBRANCH  61  84
ENDBRANCH  35  36
ENDBRANCH  27  30
ENDBRANCH  25  26
ENDBRANCH  24  25
ENDBRANCH   1  24
TORSDOF 18
