REMARK SMILES C[C@H](Cc1ccco1)[NH2+]Cc1cc(C(=O)NCCCCNC(=O)c2ccc(-c3c4nc(c(-c5cccc(S(=O)(=O)[O-])c5F)c5ccc([nH]5)c(-c5cccc(S(=O)(=O)[O-])c5F)c5nc(c(-c6cccc(S(=O)(=O)[O-])c6F)c6ccc3[nH]6)C=C5)C=C4)cc2)cs1
REMARK SMILES IDX 17 1 16 2 14 3 15 4 13 6 11 7 12 8 88 9 87 10 10 11 9 12
REMARK SMILES IDX 2 15 1 16 3 17 4 18 5 19 8 20 6 21 7 22 18 23 19 24 20 25
REMARK SMILES IDX 21 26 22 27 23 29 24 30 25 31 86 32 26 33 85 34 27 35 28 36
REMARK SMILES IDX 29 37 79 38 30 39 84 40 78 41 80 42 31 43 83 44 77 45 76 46
REMARK SMILES IDX 32 48 64 49 44 50 63 51 45 52 48 53 62 54 81 55 46 56 47 57
REMARK SMILES IDX 61 59 82 60 49 61 33 62 34 63 42 64 35 65 37 66 43 67 36 68
REMARK SMILES IDX 38 69 39 70 40 71 41 72 65 73 66 74 74 75 67 76 69 77 75 78
REMARK SMILES IDX 68 79 70 80 71 81 72 82 73 83 50 84 51 85 59 86 52 87 54 88
REMARK SMILES IDX 60 89 53 90 55 91 56 92 57 93 58 94
REMARK H PARENT 16 5 9 13 9 14 21 28 80 47 48 58
REMARK Flexibility Score: inf
ROOT
ATOM      1  C   UNL     1      -2.454   4.639   1.928  1.00  0.00     0.116 C 
ENDROOT
BRANCH   1   2
ATOM      2  N   UNL     1      -1.984   5.192   3.175  1.00  0.00    -0.352 N 
ATOM      3  C   UNL     1      -1.439   4.610   4.292  1.00  0.00     0.252 C 
ATOM      4  O   UNL     1      -1.068   5.371   5.183  1.00  0.00    -0.269 OA
ATOM      5  H   UNL     1      -2.069   6.171   3.236  1.00  0.00     0.163 HD
BRANCH   3   6
ATOM      6  C   UNL     1      -1.238   3.157   4.409  1.00  0.00     0.051 A 
ATOM      7  C   UNL     1      -1.125   0.853   3.928  1.00  0.00     0.059 A 
ATOM      8  C   UNL     1      -1.767   2.051   3.659  1.00  0.00     0.035 A 
ATOM      9  S   UNL     1      -0.213   0.971   5.370  1.00  0.00    -0.142 S 
ATOM     10  C   UNL     1      -0.412   2.663   5.410  1.00  0.00     0.079 A 
BRANCH   7  11
ATOM     11  C   UNL     1      -1.163  -0.434   3.155  1.00  0.00     0.308 C 
BRANCH  11  12
ATOM     12  N   UNL     1      -0.850  -0.262   1.734  1.00  0.00    -0.339 N 
ATOM     13  H   UNL     1      -1.205  -1.082   1.242  1.00  0.00     0.346 HD
ATOM     14  H   UNL     1      -1.285   0.625   1.480  1.00  0.00     0.346 HD
BRANCH  12  15
ATOM     15  C   UNL     1       0.567  -0.102   1.358  1.00  0.00     0.187 C 
ATOM     16  C   UNL     1       1.326   1.060   2.011  1.00  0.00     0.075 C 
BRANCH  15  17
ATOM     17  C   UNL     1       0.737  -0.048  -0.187  1.00  0.00     0.140 C 
BRANCH  17  18
ATOM     18  C   UNL     1       0.045   1.060  -0.911  1.00  0.00     0.109 A 
ATOM     19  C   UNL     1      -0.690   2.169  -0.547  1.00  0.00     0.046 A 
ATOM     20  O   UNL     1       0.125   1.007  -2.275  1.00  0.00    -0.469 OA
ATOM     21  C   UNL     1      -1.114   2.800  -1.738  1.00  0.00     0.042 A 
ATOM     22  C   UNL     1      -0.578   2.061  -2.763  1.00  0.00     0.195 A 
ENDBRANCH  17  18
ENDBRANCH  15  17
ENDBRANCH  12  15
ENDBRANCH  11  12
ENDBRANCH   7  11
ENDBRANCH   3   6
ENDBRANCH   1   2
BRANCH   1  23
ATOM     23  C   UNL     1      -3.968   4.444   1.935  1.00  0.00     0.023 C 
BRANCH  23  24
ATOM     24  C   UNL     1      -4.752   5.731   1.667  1.00  0.00     0.023 C 
BRANCH  24  25
ATOM     25  C   UNL     1      -4.482   6.381   0.313  1.00  0.00     0.116 C 
BRANCH  25  26
ATOM     26  N   UNL     1      -4.752   5.501  -0.816  1.00  0.00    -0.352 N 
ATOM     27  C   UNL     1      -5.276   5.833  -2.044  1.00  0.00     0.251 C 
ATOM     28  H   UNL     1      -4.533   4.550  -0.684  1.00  0.00     0.163 HD
ATOM     29  O   UNL     1      -5.545   4.959  -2.861  1.00  0.00    -0.269 OA
BRANCH  27  30
ATOM     30  C   UNL     1      -5.543   7.254  -2.347  1.00  0.00     0.039 A 
ATOM     31  C   UNL     1      -6.810   7.623  -2.803  1.00  0.00     0.014 A 
ATOM     32  C   UNL     1      -4.563   8.223  -2.114  1.00  0.00     0.014 A 
ATOM     33  C   UNL     1      -7.117   8.976  -2.960  1.00  0.00     0.010 A 
ATOM     34  C   UNL     1      -4.897   9.570  -2.195  1.00  0.00     0.010 A 
ATOM     35  C   UNL     1      -6.176   9.962  -2.618  1.00  0.00    -0.014 A 
BRANCH  35  36
ATOM     36  C   UNL     1      -6.518  11.407  -2.678  1.00  0.00     0.031 A 
ATOM     37  C   UNL     1      -5.758  12.328  -3.595  1.00  0.00     0.074 A 
ATOM     38  C   UNL     1      -7.451  11.907  -1.843  1.00  0.00     0.049 A 
ATOM     39  N   UNL     1      -5.875  13.622  -3.743  1.00  0.00    -0.248 NA
ATOM     40  C   UNL     1      -4.712  11.722  -4.434  1.00  0.00     0.031 C 
ATOM     41  C   UNL     1      -8.200  11.133  -0.850  1.00  0.00     0.029 A 
ATOM     42  N   UNL     1      -7.911  13.190  -1.676  1.00  0.00    -0.354 N 
ATOM     43  C   UNL     1      -4.899  13.989  -4.662  1.00  0.00     0.074 A 
ATOM     44  C   UNL     1      -4.173  12.787  -5.009  1.00  0.00     0.031 C 
ATOM     45  C   UNL     1      -9.029  11.953  -0.185  1.00  0.00     0.029 A 
ATOM     46  C   UNL     1      -8.847  13.315  -0.675  1.00  0.00     0.049 A 
ATOM     47  H   UNL     1      -7.599  13.948  -2.220  1.00  0.00     0.167 HD
ATOM     48  C   UNL     1      -4.646  15.209  -5.191  1.00  0.00     0.034 A 
ATOM     49  C   UNL     1      -9.480  14.405  -0.199  1.00  0.00     0.034 A 
ATOM     50  C   UNL     1      -5.393  16.395  -4.869  1.00  0.00     0.049 A 
ATOM     51  C   UNL     1      -9.202  15.745  -0.825  1.00  0.00     0.074 A 
ATOM     52  C   UNL     1      -5.271  17.661  -5.416  1.00  0.00     0.029 A 
ATOM     53  N   UNL     1      -6.389  16.468  -3.909  1.00  0.00    -0.354 N 
ATOM     54  N   UNL     1      -8.384  16.044  -1.805  1.00  0.00    -0.248 NA
ATOM     55  C   UNL     1      -9.960  16.893  -0.306  1.00  0.00     0.031 C 
ATOM     56  C   UNL     1      -6.171  18.507  -4.760  1.00  0.00     0.029 A 
ATOM     57  C   UNL     1      -6.883  17.759  -3.837  1.00  0.00     0.049 A 
ATOM     58  H   UNL     1      -6.700  15.713  -3.359  1.00  0.00     0.167 HD
ATOM     59  C   UNL     1      -8.559  17.401  -2.048  1.00  0.00     0.074 A 
ATOM     60  C   UNL     1      -9.574  17.863  -1.124  1.00  0.00     0.031 C 
ATOM     61  C   UNL     1      -7.930  18.195  -2.949  1.00  0.00     0.034 A 
BRANCH  48  62
ATOM     62  C   UNL     1      -3.541  15.318  -6.209  1.00  0.00     0.023 A 
ATOM     63  C   UNL     1      -3.707  14.743  -7.486  1.00  0.00     0.012 A 
ATOM     64  C   UNL     1      -2.365  16.039  -5.925  1.00  0.00     0.148 A 
ATOM     65  C   UNL     1      -2.707  14.852  -8.451  1.00  0.00     0.002 A 
ATOM     66  C   UNL     1      -1.393  16.186  -6.908  1.00  0.00     0.091 A 
ATOM     67  F   UNL     1      -2.215  16.562  -4.700  1.00  0.00    -0.205 F 
ATOM     68  C   UNL     1      -1.557  15.582  -8.166  1.00  0.00     0.022 A 
BRANCH  66  69
ATOM     69  S   UNL     1       0.086  17.177  -6.671  1.00  0.00     0.127 S 
ATOM     70  O   UNL     1       1.127  16.150  -6.650  1.00  0.00    -0.237 OA
ATOM     71  O   UNL     1       0.085  18.020  -7.866  1.00  0.00    -0.237 OA
ATOM     72  O   UNL     1      -0.107  17.895  -5.419  1.00  0.00    -0.744 OA
ENDBRANCH  66  69
ENDBRANCH  48  62
BRANCH  49  73
ATOM     73  C   UNL     1     -10.482  14.269   0.898  1.00  0.00     0.023 A 
ATOM     74  C   UNL     1     -11.846  14.487   0.623  1.00  0.00     0.012 A 
ATOM     75  C   UNL     1     -10.093  13.911   2.203  1.00  0.00     0.148 A 
ATOM     76  C   UNL     1     -12.801  14.388   1.637  1.00  0.00     0.002 A 
ATOM     77  C   UNL     1     -11.055  13.757   3.194  1.00  0.00     0.091 A 
ATOM     78  F   UNL     1      -8.789  13.717   2.446  1.00  0.00    -0.205 F 
ATOM     79  C   UNL     1     -12.407  14.014   2.918  1.00  0.00     0.022 A 
BRANCH  77  80
ATOM     80  S   UNL     1     -10.657  13.151   4.837  1.00  0.00     0.127 S 
ATOM     81  O   UNL     1     -10.883  14.339   5.656  1.00  0.00    -0.237 OA
ATOM     82  O   UNL     1     -11.642  12.084   5.011  1.00  0.00    -0.237 OA
ATOM     83  O   UNL     1      -9.278  12.688   4.762  1.00  0.00    -0.744 OA
ENDBRANCH  77  80
ENDBRANCH  49  73
BRANCH  61  84
ATOM     84  C   UNL     1      -8.351  19.640  -3.026  1.00  0.00     0.023 A 
ATOM     85  C   UNL     1      -8.010  20.534  -1.992  1.00  0.00     0.012 A 
ATOM     86  C   UNL     1      -9.020  20.125  -4.168  1.00  0.00     0.148 A 
ATOM     87  C   UNL     1      -8.358  21.881  -2.078  1.00  0.00     0.002 A 
ATOM     88  C   UNL     1      -9.316  21.479  -4.270  1.00  0.00     0.091 A 
ATOM     89  F   UNL     1      -9.351  19.255  -5.133  1.00  0.00    -0.205 F 
ATOM     90  C   UNL     1      -8.999  22.356  -3.221  1.00  0.00     0.022 A 
BRANCH  88  91
ATOM     91  S   UNL     1     -10.047  22.196  -5.746  1.00  0.00     0.127 S 
ATOM     92  O   UNL     1     -11.389  22.537  -5.277  1.00  0.00    -0.237 OA
ATOM     93  O   UNL     1      -9.177  23.346  -5.993  1.00  0.00    -0.237 OA
ATOM     94  O   UNL     1      -9.988  21.161  -6.769  1.00  0.00    -0.744 OA
ENDBRANCH  88  91
ENDBRANCH  61  84
ENDBRANCH  35  36
ENDBRANCH  27  30
ENDBRANCH  25  26
ENDBRANCH  24  25
ENDBRANCH  23  24
ENDBRANCH   1  23
TORSDOF 19
