REMARK SMILES O=C(NCCCCNC(=O)[C@@H]1[C@H](C(=O)Nc2ccccc2Cc2ccccc2)[C@H]2C=C[C@@H]1O2)c1ccc(-c2c3nc(c(-c4cccc(S(=O)(=O)[O-])c4F)c4ccc([nH]4)c(-c4cccc(S(=O)(=O)[O-])c4F)c4nc(c(-c5cccc(S(=O)(=O)[O-])c5F)c5ccc2[nH]5)C=C4)C=C3)cc1
REMARK SMILES IDX 6 1 5 2 4 3 3 4 1 5 2 6 34 8 35 9 96 10 36 11 95 12 37 13
REMARK SMILES IDX 38 14 39 15 89 16 40 17 94 18 88 19 90 20 41 21 93 22 87 23
REMARK SMILES IDX 86 24 42 26 74 27 54 28 73 29 55 30 58 31 72 32 91 33 56 34
REMARK SMILES IDX 57 35 71 37 92 38 59 39 43 40 44 41 52 42 45 43 47 44 53 45
REMARK SMILES IDX 46 46 48 47 49 48 50 49 51 50 75 51 76 52 84 53 77 54 79 55
REMARK SMILES IDX 85 56 78 57 80 58 81 59 82 60 83 61 60 62 61 63 69 64 62 65
REMARK SMILES IDX 64 66 70 67 63 68 65 69 66 70 67 71 68 72 7 73 8 74 9 75
REMARK SMILES IDX 10 77 11 78 12 79 32 80 29 81 31 82 33 83 30 84 13 85 14 86
REMARK SMILES IDX 15 87 16 89 17 90 21 91 18 92 20 93 19 94 22 95 23 96 24 97
REMARK SMILES IDX 28 98 25 99 27 100 26 101
REMARK H PARENT 3 7 90 25 58 36 8 76 15 88
REMARK Flexibility Score: inf
ROOT
ATOM      1  C   UNL     1       5.481  -1.914  -2.030  1.00  0.00     0.023 C 
ENDROOT
BRANCH   1   2
ATOM      2  C   UNL     1       5.680  -1.123  -0.764  1.00  0.00     0.023 C 
BRANCH   2   3
ATOM      3  C   UNL     1       4.782   0.080  -0.624  1.00  0.00     0.116 C 
BRANCH   3   4
ATOM      4  N   UNL     1       3.346  -0.193  -0.641  1.00  0.00    -0.352 N 
ATOM      5  O   UNL     1       1.191  -0.010   0.064  1.00  0.00    -0.269 OA
ATOM      6  C   UNL     1       2.365   0.331   0.186  1.00  0.00     0.251 C 
ATOM      7  H   UNL     1       3.037  -0.828  -1.326  1.00  0.00     0.163 HD
BRANCH   6   8
ATOM      8  C   UNL     1       2.779   1.251   1.270  1.00  0.00     0.039 A 
ATOM      9  C   UNL     1       3.720   2.234   0.995  1.00  0.00     0.014 A 
ATOM     10  C   UNL     1       2.400   0.991   2.589  1.00  0.00     0.014 A 
ATOM     11  C   UNL     1       4.528   2.680   2.027  1.00  0.00     0.010 A 
ATOM     12  C   UNL     1       3.093   1.610   3.638  1.00  0.00     0.010 A 
ATOM     13  C   UNL     1       4.230   2.387   3.370  1.00  0.00    -0.014 A 
BRANCH  13  14
ATOM     14  C   UNL     1       5.138   2.909   4.438  1.00  0.00     0.031 A 
ATOM     15  C   UNL     1       5.751   2.008   5.485  1.00  0.00     0.074 A 
ATOM     16  C   UNL     1       5.472   4.218   4.414  1.00  0.00     0.049 A 
ATOM     17  N   UNL     1       6.555   2.327   6.470  1.00  0.00    -0.248 NA
ATOM     18  C   UNL     1       5.411   0.576   5.447  1.00  0.00     0.031 C 
ATOM     19  C   UNL     1       4.928   5.205   3.477  1.00  0.00     0.029 A 
ATOM     20  N   UNL     1       6.372   4.938   5.157  1.00  0.00    -0.354 N 
ATOM     21  C   UNL     1       6.738   1.167   7.216  1.00  0.00     0.074 A 
ATOM     22  C   UNL     1       5.981   0.124   6.558  1.00  0.00     0.031 C 
ATOM     23  C   UNL     1       5.582   6.362   3.620  1.00  0.00     0.029 A 
ATOM     24  C   UNL     1       6.503   6.244   4.742  1.00  0.00     0.049 A 
ATOM     25  H   UNL     1       6.876   4.558   5.913  1.00  0.00     0.167 HD
ATOM     26  C   UNL     1       7.471   0.986   8.343  1.00  0.00     0.034 A 
ATOM     27  C   UNL     1       7.255   7.253   5.218  1.00  0.00     0.034 A 
ATOM     28  C   UNL     1       8.303   2.002   8.937  1.00  0.00     0.049 A 
ATOM     29  C   UNL     1       8.121   7.000   6.413  1.00  0.00     0.074 A 
ATOM     30  C   UNL     1       9.131   1.897  10.042  1.00  0.00     0.029 A 
ATOM     31  N   UNL     1       8.428   3.300   8.469  1.00  0.00    -0.354 N 
ATOM     32  N   UNL     1       8.315   5.881   7.066  1.00  0.00    -0.248 NA
ATOM     33  C   UNL     1       8.871   8.147   6.939  1.00  0.00     0.031 C 
ATOM     34  C   UNL     1       9.751   3.135  10.245  1.00  0.00     0.029 A 
ATOM     35  C   UNL     1       9.320   4.007   9.259  1.00  0.00     0.049 A 
ATOM     36  H   UNL     1       7.953   3.667   7.688  1.00  0.00     0.167 HD
ATOM     37  C   UNL     1       9.213   6.185   8.078  1.00  0.00     0.074 A 
ATOM     38  C   UNL     1       9.557   7.585   7.925  1.00  0.00     0.031 C 
ATOM     39  C   UNL     1       9.687   5.385   9.064  1.00  0.00     0.034 A 
BRANCH  26  40
ATOM     40  C   UNL     1       7.438  -0.368   9.008  1.00  0.00     0.023 A 
ATOM     41  C   UNL     1       8.152  -1.446   8.450  1.00  0.00     0.012 A 
ATOM     42  C   UNL     1       6.770  -0.548  10.238  1.00  0.00     0.148 A 
ATOM     43  C   UNL     1       8.181  -2.687   9.089  1.00  0.00     0.002 A 
ATOM     44  C   UNL     1       6.836  -1.776  10.889  1.00  0.00     0.091 A 
ATOM     45  F   UNL     1       6.077   0.481  10.747  1.00  0.00    -0.205 F 
ATOM     46  C   UNL     1       7.534  -2.849  10.312  1.00  0.00     0.022 A 
BRANCH  44  47
ATOM     47  S   UNL     1       6.101  -2.051  12.506  1.00  0.00     0.127 S 
ATOM     48  O   UNL     1       4.902  -2.811  12.161  1.00  0.00    -0.237 OA
ATOM     49  O   UNL     1       7.136  -2.826  13.193  1.00  0.00    -0.237 OA
ATOM     50  O   UNL     1       5.870  -0.727  13.066  1.00  0.00    -0.744 OA
ENDBRANCH  44  47
ENDBRANCH  26  40
BRANCH  27  51
ATOM     51  C   UNL     1       7.230   8.576   4.533  1.00  0.00     0.023 A 
ATOM     52  C   UNL     1       8.373   9.020   3.842  1.00  0.00     0.012 A 
ATOM     53  C   UNL     1       6.056   9.352   4.484  1.00  0.00     0.148 A 
ATOM     54  C   UNL     1       8.347  10.214   3.120  1.00  0.00     0.002 A 
ATOM     55  C   UNL     1       6.014  10.500   3.703  1.00  0.00     0.091 A 
ATOM     56  F   UNL     1       4.984   8.932   5.172  1.00  0.00    -0.205 F 
ATOM     57  C   UNL     1       7.163  10.943   3.034  1.00  0.00     0.022 A 
BRANCH  55  58
ATOM     58  S   UNL     1       4.473  11.372   3.396  1.00  0.00     0.127 S 
ATOM     59  O   UNL     1       4.572  12.493   4.326  1.00  0.00    -0.237 OA
ATOM     60  O   UNL     1       4.596  11.730   1.982  1.00  0.00    -0.237 OA
ATOM     61  O   UNL     1       3.424  10.399   3.671  1.00  0.00    -0.744 OA
ENDBRANCH  55  58
ENDBRANCH  27  51
BRANCH  39  62
ATOM     62  C   UNL     1      10.643   6.006  10.044  1.00  0.00     0.023 A 
ATOM     63  C   UNL     1      10.153   6.892  11.025  1.00  0.00     0.012 A 
ATOM     64  C   UNL     1      12.013   5.687  10.019  1.00  0.00     0.148 A 
ATOM     65  C   UNL     1      11.021   7.478  11.944  1.00  0.00     0.002 A 
ATOM     66  C   UNL     1      12.865   6.242  10.966  1.00  0.00     0.091 A 
ATOM     67  F   UNL     1      12.462   4.862   9.061  1.00  0.00    -0.205 F 
ATOM     68  C   UNL     1      12.374   7.146  11.922  1.00  0.00     0.022 A 
BRANCH  66  69
ATOM     69  S   UNL     1      14.603   5.798  11.052  1.00  0.00     0.127 S 
ATOM     70  O   UNL     1      15.234   6.927  10.372  1.00  0.00    -0.237 OA
ATOM     71  O   UNL     1      14.844   5.743  12.495  1.00  0.00    -0.237 OA
ATOM     72  O   UNL     1      14.713   4.511  10.378  1.00  0.00    -0.744 OA
ENDBRANCH  66  69
ENDBRANCH  39  62
ENDBRANCH  13  14
ENDBRANCH   6   8
ENDBRANCH   3   4
ENDBRANCH   2   3
ENDBRANCH   1   2
BRANCH   1  73
ATOM     73  C   UNL     1       5.677  -1.213  -3.374  1.00  0.00     0.116 C 
BRANCH  73  74
ATOM     74  N   UNL     1       6.205  -2.200  -4.316  1.00  0.00    -0.356 N 
ATOM     75  C   UNL     1       6.114  -2.126  -5.672  1.00  0.00     0.227 C 
ATOM     76  H   UNL     1       6.665  -2.984  -3.938  1.00  0.00     0.163 HD
ATOM     77  O   UNL     1       6.729  -1.246  -6.277  1.00  0.00    -0.275 OA
BRANCH  75  78
ATOM     78  C   UNL     1       5.425  -3.256  -6.445  1.00  0.00     0.127 C 
ATOM     79  C   UNL     1       4.183  -3.961  -5.883  1.00  0.00     0.127 C 
ATOM     80  C   UNL     1       6.254  -4.486  -6.881  1.00  0.00     0.155 C 
ATOM     81  C   UNL     1       4.408  -5.430  -6.205  1.00  0.00     0.155 C 
ATOM     82  C   UNL     1       5.624  -5.097  -8.104  1.00  0.00     0.004 C 
ATOM     83  O   UNL     1       5.821  -5.518  -5.950  1.00  0.00    -0.365 OA
ATOM     84  C   UNL     1       4.469  -5.646  -7.694  1.00  0.00     0.004 C 
BRANCH  79  85
ATOM     85  C   UNL     1       3.724  -3.683  -4.488  1.00  0.00     0.231 C 
ATOM     86  O   UNL     1       2.871  -2.776  -4.384  1.00  0.00    -0.274 OA
ATOM     87  N   UNL     1       3.968  -4.281  -3.316  1.00  0.00    -0.325 N 
ATOM     88  H   UNL     1       3.171  -4.088  -2.771  1.00  0.00     0.169 HD
BRANCH  87  89
ATOM     89  C   UNL     1       4.801  -5.055  -2.463  1.00  0.00     0.044 A 
ATOM     90  C   UNL     1       4.063  -5.354  -1.276  1.00  0.00     0.026 A 
ATOM     91  C   UNL     1       6.180  -5.416  -2.478  1.00  0.00    -0.020 A 
ATOM     92  C   UNL     1       4.612  -5.951  -0.149  1.00  0.00     0.002 A 
ATOM     93  C   UNL     1       6.671  -6.118  -1.346  1.00  0.00     0.006 A 
ATOM     94  C   UNL     1       5.929  -6.338  -0.186  1.00  0.00     0.000 A 
BRANCH  91  95
ATOM     95  C   UNL     1       7.186  -5.194  -3.598  1.00  0.00     0.073 C 
BRANCH  95  96
ATOM     96  C   UNL     1       8.599  -4.584  -3.451  1.00  0.00    -0.044 A 
ATOM     97  C   UNL     1       9.082  -3.774  -4.508  1.00  0.00     0.004 A 
ATOM     98  C   UNL     1       9.534  -4.883  -2.455  1.00  0.00     0.004 A 
ATOM     99  C   UNL     1      10.372  -3.234  -4.537  1.00  0.00     0.000 A 
ATOM    100  C   UNL     1      10.845  -4.369  -2.490  1.00  0.00     0.000 A 
ATOM    101  C   UNL     1      11.261  -3.537  -3.522  1.00  0.00     0.000 A 
ENDBRANCH  95  96
ENDBRANCH  91  95
ENDBRANCH  87  89
ENDBRANCH  79  85
ENDBRANCH  75  78
ENDBRANCH  73  74
ENDBRANCH   1  73
TORSDOF 18
