REMARK SMILES C[C@@H](NC(=O)N[C@H]1CCCCC[C@@H]1C(=O)NCCCCNC(=O)c1ccc(-c2c3nc(c(-c4cccc(S(=O)(=O)[O-])c4F)c4ccc([nH]4)c(-c4cccc(S(=O)(=O)[O-])c4F)c4nc(c(-c5cccc(S(=O)(=O)[O-])c5F)c5ccc2[nH]5)C=C4)C=C3)cc1)c1nccs1
REMARK SMILES IDX 18 1 17 2 16 3 14 4 15 5 13 7 7 8 6 9 3 10 4 11 5 13 2 15
REMARK SMILES IDX 1 16 87 17 88 18 91 19 89 20 90 21 8 22 12 24 11 25 10 26
REMARK SMILES IDX 9 27 19 29 20 30 21 31 22 32 23 34 24 35 25 36 86 37 26 38
REMARK SMILES IDX 85 39 27 40 28 41 29 42 79 43 30 44 84 45 78 46 80 47 31 48
REMARK SMILES IDX 83 49 77 50 76 51 32 53 64 54 44 55 63 56 45 57 48 58 62 59
REMARK SMILES IDX 81 60 46 61 47 62 61 64 82 65 49 66 33 67 34 68 42 69 35 70
REMARK SMILES IDX 37 71 43 72 36 73 38 74 39 75 40 76 41 77 65 78 66 79 74 80
REMARK SMILES IDX 67 81 69 82 75 83 68 84 70 85 71 86 72 87 73 88 50 89 51 90
REMARK SMILES IDX 59 91 52 92 54 93 60 94 53 95 55 96 56 97 57 98 58 99
REMARK H PARENT 16 6 3 12 6 14 21 33 80 52 48 63
REMARK Flexibility Score: 100.00
ROOT
ATOM      1  C   UNL     1       1.460  -2.231  -3.054  1.00  0.00     0.023 C 
ENDROOT
BRANCH   1   2
ATOM      2  C   UNL     1       0.183  -1.526  -3.503  1.00  0.00     0.116 C 
BRANCH   2   3
ATOM      3  N   UNL     1      -1.014  -2.213  -3.111  1.00  0.00    -0.356 N 
ATOM      4  C   UNL     1      -2.022  -1.775  -2.323  1.00  0.00     0.225 C 
ATOM      5  O   UNL     1      -3.114  -2.333  -2.489  1.00  0.00    -0.275 OA
ATOM      6  H   UNL     1      -1.115  -3.127  -3.464  1.00  0.00     0.163 HD
BRANCH   4   7
ATOM      7  C   UNL     1      -1.875  -0.696  -1.229  1.00  0.00     0.101 C 
BRANCH   7   8
ATOM      8  C   UNL     1      -2.778   0.879  -1.719  1.00  0.00     0.096 C 
BRANCH   8   9
ATOM      9  N   UNL     1      -4.156   0.543  -1.653  1.00  0.00    -0.335 N 
ATOM     10  N   UNL     1      -3.643   0.667   0.538  1.00  0.00    -0.329 N 
ATOM     11  C   UNL     1      -4.590   0.431  -0.397  1.00  0.00     0.315 C 
ATOM     12  H   UNL     1      -4.056   0.747   1.427  1.00  0.00     0.166 HD
ATOM     13  O   UNL     1      -5.747   0.181  -0.087  1.00  0.00    -0.249 OA
ATOM     14  H   UNL     1      -4.726   0.408  -2.444  1.00  0.00     0.165 HD
BRANCH  10  15
ATOM     15  C   UNL     1      -2.024   0.862   0.651  1.00  0.00     0.140 C 
ATOM     16  C   UNL     1      -2.129   1.410   2.188  1.00  0.00     0.039 C 
BRANCH  15  17
ATOM     17  C   UNL     1      -0.715   1.318  -0.823  1.00  0.00     0.115 A 
ATOM     18  N   UNL     1      -0.874   2.143  -1.891  1.00  0.00    -0.247 NA
ATOM     19  S   UNL     1       1.247   0.928  -1.163  1.00  0.00    -0.125 S 
ATOM     20  C   UNL     1       0.109   2.429  -2.811  1.00  0.00     0.123 A 
ATOM     21  C   UNL     1       1.295   1.815  -2.598  1.00  0.00     0.087 A 
ENDBRANCH  15  17
ENDBRANCH  10  15
ENDBRANCH   8   9
BRANCH   8  22
ATOM     22  C   UNL     1      -2.713   2.581  -0.821  1.00  0.00     0.026 CG0
ATOM     23  G   UNL     1      -1.382   3.178   0.347  1.00  0.00     0.000 G0
ENDBRANCH   8  22
ENDBRANCH   7   8
BRANCH   7  24
ATOM     24  C   UNL     1      -0.457  -0.931  -0.066  1.00  0.00     0.015 C 
BRANCH  24  25
ATOM     25  C   UNL     1       0.197   0.323   1.190  1.00  0.00     0.001 C 
BRANCH  25  26
ATOM     26  C   UNL     1       0.003   2.205   1.133  1.00  0.00     0.000 C 
BRANCH  26  27
ATOM     27  C   UNL     1      -1.382   3.178   0.347  1.00  0.00     0.002 CG0
ATOM     28  G   UNL     1      -2.713   2.581  -0.821  1.00  0.00     0.000 G0
ENDBRANCH  26  27
ENDBRANCH  25  26
ENDBRANCH  24  25
ENDBRANCH   7  24
ENDBRANCH   4   7
ENDBRANCH   2   3
ENDBRANCH   1   2
BRANCH   1  29
ATOM     29  C   UNL     1       1.898  -3.409  -3.923  1.00  0.00     0.023 C 
BRANCH  29  30
ATOM     30  C   UNL     1       2.024  -3.113  -5.410  1.00  0.00     0.116 C 
BRANCH  30  31
ATOM     31  N   UNL     1       2.852  -1.953  -5.721  1.00  0.00    -0.352 N 
ATOM     32  C   UNL     1       3.568  -1.727  -6.875  1.00  0.00     0.251 C 
ATOM     33  H   UNL     1       2.905  -1.255  -5.029  1.00  0.00     0.163 HD
ATOM     34  O   UNL     1       4.272  -0.732  -7.000  1.00  0.00    -0.269 OA
BRANCH  32  35
ATOM     35  C   UNL     1       3.501  -2.750  -7.936  1.00  0.00     0.039 A 
ATOM     36  C   UNL     1       4.674  -3.400  -8.325  1.00  0.00     0.014 A 
ATOM     37  C   UNL     1       2.257  -3.163  -8.419  1.00  0.00     0.014 A 
ATOM     38  C   UNL     1       4.588  -4.529  -9.141  1.00  0.00     0.010 A 
ATOM     39  C   UNL     1       2.171  -4.335  -9.160  1.00  0.00     0.010 A 
ATOM     40  C   UNL     1       3.333  -5.033  -9.524  1.00  0.00    -0.014 A 
BRANCH  40  41
ATOM     41  C   UNL     1       3.207  -6.301 -10.286  1.00  0.00     0.031 A 
ATOM     42  C   UNL     1       2.579  -6.295 -11.652  1.00  0.00     0.074 A 
ATOM     43  C   UNL     1       3.558  -7.467  -9.708  1.00  0.00     0.049 A 
ATOM     44  N   UNL     1       2.319  -7.302 -12.443  1.00  0.00    -0.248 NA
ATOM     45  C   UNL     1       2.152  -4.989 -12.183  1.00  0.00     0.031 C 
ATOM     46  C   UNL     1       4.088  -7.616  -8.350  1.00  0.00     0.029 A 
ATOM     47  N   UNL     1       3.497  -8.755 -10.180  1.00  0.00    -0.354 N 
ATOM     48  C   UNL     1       1.664  -6.760 -13.542  1.00  0.00     0.074 A 
ATOM     49  C   UNL     1       1.527  -5.341 -13.296  1.00  0.00     0.031 C 
ATOM     50  C   UNL     1       4.313  -8.917  -8.104  1.00  0.00     0.029 A 
ATOM     51  C   UNL     1       3.924  -9.698  -9.274  1.00  0.00     0.049 A 
ATOM     52  H   UNL     1       3.177  -8.982 -11.083  1.00  0.00     0.167 HD
ATOM     53  C   UNL     1       1.248  -7.377 -14.672  1.00  0.00     0.034 A 
ATOM     54  C   UNL     1       3.996 -11.040  -9.377  1.00  0.00     0.034 A 
ATOM     55  C   UNL     1       1.440  -8.776 -14.939  1.00  0.00     0.049 A 
ATOM     56  C   UNL     1       3.590 -11.695 -10.670  1.00  0.00     0.074 A 
ATOM     57  C   UNL     1       1.149  -9.480 -16.093  1.00  0.00     0.029 A 
ATOM     58  N   UNL     1       1.974  -9.684 -14.039  1.00  0.00    -0.354 N 
ATOM     59  N   UNL     1       3.133 -11.141 -11.767  1.00  0.00    -0.248 NA
ATOM     60  C   UNL     1       3.745 -13.155 -10.755  1.00  0.00     0.031 C 
ATOM     61  C   UNL     1       1.497 -10.819 -15.886  1.00  0.00     0.029 A 
ATOM     62  C   UNL     1       2.020 -10.944 -14.609  1.00  0.00     0.049 A 
ATOM     63  H   UNL     1       2.277  -9.466 -13.128  1.00  0.00     0.167 HD
ATOM     64  C   UNL     1       2.980 -12.176 -12.683  1.00  0.00     0.074 A 
ATOM     65  C   UNL     1       3.413 -13.388 -12.018  1.00  0.00     0.031 C 
ATOM     66  C   UNL     1       2.509 -12.130 -13.954  1.00  0.00     0.034 A 
BRANCH  53  67
ATOM     67  C   UNL     1       0.608  -6.522 -15.734  1.00  0.00     0.023 A 
ATOM     68  C   UNL     1       1.403  -5.615 -16.464  1.00  0.00     0.012 A 
ATOM     69  C   UNL     1      -0.763  -6.635 -16.033  1.00  0.00     0.148 A 
ATOM     70  C   UNL     1       0.838  -4.804 -17.446  1.00  0.00     0.002 A 
ATOM     71  C   UNL     1      -1.311  -5.854 -17.046  1.00  0.00     0.091 A 
ATOM     72  F   UNL     1      -1.510  -7.483 -15.312  1.00  0.00    -0.205 F 
ATOM     73  C   UNL     1      -0.515  -4.930 -17.744  1.00  0.00     0.022 A 
BRANCH  71  74
ATOM     74  S   UNL     1      -3.027  -6.000 -17.556  1.00  0.00     0.127 S 
ATOM     75  O   UNL     1      -3.607  -4.783 -16.990  1.00  0.00    -0.237 OA
ATOM     76  O   UNL     1      -2.917  -6.002 -19.015  1.00  0.00    -0.237 OA
ATOM     77  O   UNL     1      -3.507  -7.250 -16.985  1.00  0.00    -0.744 OA
ENDBRANCH  71  74
ENDBRANCH  53  67
BRANCH  54  78
ATOM     78  C   UNL     1       4.562 -11.844  -8.256  1.00  0.00     0.023 A 
ATOM     79  C   UNL     1       5.832 -12.434  -8.409  1.00  0.00     0.012 A 
ATOM     80  C   UNL     1       3.876 -12.000  -7.037  1.00  0.00     0.148 A 
ATOM     81  C   UNL     1       6.396 -13.189  -7.380  1.00  0.00     0.002 A 
ATOM     82  C   UNL     1       4.466 -12.710  -5.997  1.00  0.00     0.091 A 
ATOM     83  F   UNL     1       2.664 -11.440  -6.914  1.00  0.00    -0.205 F 
ATOM     84  C   UNL     1       5.718 -13.319  -6.172  1.00  0.00     0.022 A 
BRANCH  82  85
ATOM     85  S   UNL     1       3.727 -12.819  -4.362  1.00  0.00     0.127 S 
ATOM     86  O   UNL     1       3.301 -14.216  -4.319  1.00  0.00    -0.237 OA
ATOM     87  O   UNL     1       4.860 -12.493  -3.495  1.00  0.00    -0.237 OA
ATOM     88  O   UNL     1       2.659 -11.829  -4.349  1.00  0.00    -0.744 OA
ENDBRANCH  82  85
ENDBRANCH  54  78
BRANCH  66  89
ATOM     89  C   UNL     1       2.464 -13.419 -14.730  1.00  0.00     0.023 A 
ATOM     90  C   UNL     1       1.482 -14.383 -14.426  1.00  0.00     0.012 A 
ATOM     91  C   UNL     1       3.337 -13.637 -15.814  1.00  0.00     0.148 A 
ATOM     92  C   UNL     1       1.387 -15.557 -15.172  1.00  0.00     0.002 A 
ATOM     93  C   UNL     1       3.206 -14.788 -16.582  1.00  0.00     0.091 A 
ATOM     94  F   UNL     1       4.277 -12.717 -16.074  1.00  0.00    -0.205 F 
ATOM     95  C   UNL     1       2.239 -15.753 -16.257  1.00  0.00     0.022 A 
BRANCH  93  96
ATOM     96  S   UNL     1       4.196 -15.076 -18.053  1.00  0.00     0.127 S 
ATOM     97  O   UNL     1       5.140 -16.089 -17.584  1.00  0.00    -0.237 OA
ATOM     98  O   UNL     1       3.201 -15.566 -19.009  1.00  0.00    -0.237 OA
ATOM     99  O   UNL     1       4.779 -13.787 -18.400  1.00  0.00    -0.744 OA
ENDBRANCH  93  96
ENDBRANCH  66  89
ENDBRANCH  40  41
ENDBRANCH  32  35
ENDBRANCH  30  31
ENDBRANCH  29  30
ENDBRANCH   1  29
TORSDOF 17
