REMARK SMILES Cc1n[nH]c(C(=O)N[C@H](C(=O)NCCCCNC(=O)c2ccc(-c3c4nc(c(-c5cccc(S(=O)(=O)[O-])c5F)c5ccc([nH]5)c(-c5cccc(S(=O)(=O)[O-])c5F)c5nc(c(-c6cccc(S(=O)(=O)[O-])c6F)c6ccc3[nH]6)C=C5)C=C4)cc2)C(C)C)n1
REMARK SMILES IDX 15 1 14 2 13 3 12 4 10 5 11 6 9 8 8 9 6 10 7 11 5 13 1 14
REMARK SMILES IDX 2 15 3 16 86 17 4 18 83 20 84 21 85 22 16 23 17 24 18 25
REMARK SMILES IDX 19 27 20 28 21 29 82 30 22 31 81 32 23 33 24 34 25 35 75 36
REMARK SMILES IDX 26 37 80 38 74 39 76 40 27 41 79 42 73 43 72 44 28 46 60 47
REMARK SMILES IDX 40 48 59 49 41 50 44 51 58 52 77 53 42 54 43 55 57 57 78 58
REMARK SMILES IDX 45 59 29 60 30 61 38 62 31 63 33 64 39 65 32 66 34 67 35 68
REMARK SMILES IDX 36 69 37 70 61 71 62 72 70 73 63 74 65 75 71 76 64 77 66 78
REMARK SMILES IDX 67 79 68 80 69 81 46 82 47 83 55 84 48 85 50 86 56 87 49 88
REMARK SMILES IDX 51 89 52 90 53 91 54 92
REMARK H PARENT 12 7 8 12 4 19 17 26 76 45 44 56
REMARK Flexibility Score: inf
ROOT
ATOM      1  C   UNL     1      -2.829   0.353   2.156  1.00  0.00     0.023 C 
ENDROOT
BRANCH   1   2
ATOM      2  C   UNL     1      -1.532  -0.377   2.533  1.00  0.00     0.023 C 
BRANCH   2   3
ATOM      3  C   UNL     1      -0.584   0.346   3.504  1.00  0.00     0.116 C 
BRANCH   3   4
ATOM      4  N   UNL     1      -1.145   0.642   4.811  1.00  0.00    -0.354 N 
ATOM      5  C   UNL     1      -1.271  -0.167   5.908  1.00  0.00     0.242 C 
ATOM      6  O   UNL     1      -1.591   0.313   6.994  1.00  0.00    -0.273 OA
ATOM      7  H   UNL     1      -1.484   1.560   4.925  1.00  0.00     0.163 HD
BRANCH   5   8
ATOM      8  C   UNL     1      -1.006  -1.674   5.759  1.00  0.00     0.174 C 
BRANCH   8   9
ATOM      9  N   UNL     1       0.178  -2.026   6.539  1.00  0.00    -0.337 N 
ATOM     10  C   UNL     1       1.349  -2.697   6.266  1.00  0.00     0.289 C 
ATOM     11  O   UNL     1       2.080  -2.879   7.244  1.00  0.00    -0.266 OA
ATOM     12  H   UNL     1       0.128  -1.711   7.471  1.00  0.00     0.164 HD
BRANCH  10  13
ATOM     13  C   UNL     1       1.711  -3.179   4.938  1.00  0.00     0.214 A 
ATOM     14  C   UNL     1       3.962  -4.628   2.598  1.00  0.00     0.092 C 
ATOM     15  C   UNL     1       2.844  -4.010   3.333  1.00  0.00     0.148 A 
ATOM     16  N   UNL     1       1.691  -3.695   2.742  1.00  0.00    -0.159 NA
ATOM     17  N   UNL     1       2.887  -3.737   4.671  1.00  0.00    -0.207 NA
ATOM     18  N   UNL     1       1.003  -3.186   3.773  1.00  0.00    -0.255 N 
ATOM     19  H   UNL     1       0.080  -2.851   3.697  1.00  0.00     0.192 HD
ENDBRANCH  10  13
ENDBRANCH   8   9
BRANCH   8  20
ATOM     20  C   UNL     1      -2.248  -2.478   6.214  1.00  0.00     0.015 C 
ATOM     21  C   UNL     1      -3.452  -2.182   5.310  1.00  0.00     0.010 C 
ATOM     22  C   UNL     1      -1.983  -3.987   6.203  1.00  0.00     0.010 C 
ENDBRANCH   8  20
ENDBRANCH   5   8
ENDBRANCH   3   4
ENDBRANCH   2   3
ENDBRANCH   1   2
BRANCH   1  23
ATOM     23  C   UNL     1      -2.620   1.632   1.362  1.00  0.00     0.116 C 
BRANCH  23  24
ATOM     24  N   UNL     1      -2.033   1.399   0.034  1.00  0.00    -0.352 N 
ATOM     25  C   UNL     1      -1.615   2.344  -0.896  1.00  0.00     0.251 C 
ATOM     26  H   UNL     1      -1.921   0.456  -0.228  1.00  0.00     0.163 HD
ATOM     27  O   UNL     1      -1.508   2.066  -2.077  1.00  0.00    -0.269 OA
BRANCH  25  28
ATOM     28  C   UNL     1      -1.281   3.692  -0.404  1.00  0.00     0.039 A 
ATOM     29  C   UNL     1      -1.623   4.864  -1.088  1.00  0.00     0.014 A 
ATOM     30  C   UNL     1      -0.647   3.746   0.829  1.00  0.00     0.014 A 
ATOM     31  C   UNL     1      -1.381   6.090  -0.468  1.00  0.00     0.010 A 
ATOM     32  C   UNL     1      -0.649   4.915   1.527  1.00  0.00     0.010 A 
ATOM     33  C   UNL     1      -0.902   6.098   0.848  1.00  0.00    -0.014 A 
BRANCH  33  34
ATOM     34  C   UNL     1      -0.704   7.317   1.616  1.00  0.00     0.031 A 
ATOM     35  C   UNL     1      -1.948   8.088   1.867  1.00  0.00     0.074 A 
ATOM     36  C   UNL     1       0.451   7.522   2.291  1.00  0.00     0.049 A 
ATOM     37  N   UNL     1      -2.262   9.251   1.401  1.00  0.00    -0.248 NA
ATOM     38  C   UNL     1      -3.050   7.421   2.582  1.00  0.00     0.031 C 
ATOM     39  C   UNL     1       1.609   6.615   2.394  1.00  0.00     0.029 A 
ATOM     40  N   UNL     1       0.767   8.495   3.184  1.00  0.00    -0.354 N 
ATOM     41  C   UNL     1      -3.485   9.568   1.992  1.00  0.00     0.074 A 
ATOM     42  C   UNL     1      -4.024   8.325   2.471  1.00  0.00     0.031 C 
ATOM     43  C   UNL     1       2.339   6.936   3.484  1.00  0.00     0.029 A 
ATOM     44  C   UNL     1       1.813   8.163   4.044  1.00  0.00     0.049 A 
ATOM     45  H   UNL     1       0.297   9.360   3.221  1.00  0.00     0.167 HD
ATOM     46  C   UNL     1      -3.800  10.856   2.307  1.00  0.00     0.034 A 
ATOM     47  C   UNL     1       2.175   8.821   5.174  1.00  0.00     0.034 A 
ATOM     48  C   UNL     1      -2.872  11.775   1.690  1.00  0.00     0.049 A 
ATOM     49  C   UNL     1       1.589  10.177   5.090  1.00  0.00     0.074 A 
ATOM     50  C   UNL     1      -2.473  12.051   0.398  1.00  0.00     0.029 A 
ATOM     51  N   UNL     1      -1.898  12.298   2.508  1.00  0.00    -0.354 N 
ATOM     52  N   UNL     1       1.940  11.052   4.190  1.00  0.00    -0.248 NA
ATOM     53  C   UNL     1       0.288  10.391   5.700  1.00  0.00     0.031 C 
ATOM     54  C   UNL     1      -1.070  12.290   0.493  1.00  0.00     0.029 A 
ATOM     55  C   UNL     1      -0.706  12.229   1.841  1.00  0.00     0.049 A 
ATOM     56  H   UNL     1      -2.034  12.658   3.414  1.00  0.00     0.167 HD
ATOM     57  C   UNL     1       0.740  11.620   3.781  1.00  0.00     0.074 A 
ATOM     58  C   UNL     1      -0.223  11.260   4.823  1.00  0.00     0.031 C 
ATOM     59  C   UNL     1       0.571  12.055   2.497  1.00  0.00     0.034 A 
BRANCH  46  60
ATOM     60  C   UNL     1      -4.654  11.304   3.481  1.00  0.00     0.023 A 
ATOM     61  C   UNL     1      -4.910  12.693   3.581  1.00  0.00     0.012 A 
ATOM     62  C   UNL     1      -4.965  10.521   4.616  1.00  0.00     0.148 A 
ATOM     63  C   UNL     1      -5.356  13.280   4.769  1.00  0.00     0.002 A 
ATOM     64  C   UNL     1      -5.478  11.100   5.773  1.00  0.00     0.091 A 
ATOM     65  F   UNL     1      -4.656   9.225   4.650  1.00  0.00    -0.205 F 
ATOM     66  C   UNL     1      -5.639  12.482   5.869  1.00  0.00     0.022 A 
BRANCH  64  67
ATOM     67  S   UNL     1      -5.901  10.111   7.215  1.00  0.00     0.127 S 
ATOM     68  O   UNL     1      -4.825  10.466   8.136  1.00  0.00    -0.237 OA
ATOM     69  O   UNL     1      -7.219  10.642   7.563  1.00  0.00    -0.237 OA
ATOM     70  O   UNL     1      -5.917   8.729   6.753  1.00  0.00    -0.744 OA
ENDBRANCH  64  67
ENDBRANCH  46  60
BRANCH  47  71
ATOM     71  C   UNL     1       2.743   8.287   6.435  1.00  0.00     0.023 A 
ATOM     72  C   UNL     1       3.427   9.144   7.319  1.00  0.00     0.012 A 
ATOM     73  C   UNL     1       2.372   7.007   6.903  1.00  0.00     0.148 A 
ATOM     74  C   UNL     1       3.707   8.750   8.635  1.00  0.00     0.002 A 
ATOM     75  C   UNL     1       2.658   6.617   8.208  1.00  0.00     0.091 A 
ATOM     76  F   UNL     1       1.656   6.210   6.098  1.00  0.00    -0.205 F 
ATOM     77  C   UNL     1       3.316   7.491   9.082  1.00  0.00     0.022 A 
BRANCH  75  78
ATOM     78  S   UNL     1       2.156   5.017   8.857  1.00  0.00     0.127 S 
ATOM     79  O   UNL     1       3.399   4.533   9.457  1.00  0.00    -0.237 OA
ATOM     80  O   UNL     1       1.118   5.394   9.812  1.00  0.00    -0.237 OA
ATOM     81  O   UNL     1       1.706   4.247   7.703  1.00  0.00    -0.744 OA
ENDBRANCH  75  78
ENDBRANCH  47  71
BRANCH  59  82
ATOM     82  C   UNL     1       1.788  12.136   1.609  1.00  0.00     0.023 A 
ATOM     83  C   UNL     1       2.518  10.996   1.208  1.00  0.00     0.012 A 
ATOM     84  C   UNL     1       2.085  13.373   1.017  1.00  0.00     0.148 A 
ATOM     85  C   UNL     1       3.534  11.095   0.252  1.00  0.00     0.002 A 
ATOM     86  C   UNL     1       3.062  13.459   0.034  1.00  0.00     0.091 A 
ATOM     87  F   UNL     1       1.377  14.444   1.405  1.00  0.00    -0.205 F 
ATOM     88  C   UNL     1       3.796  12.324  -0.345  1.00  0.00     0.022 A 
BRANCH  86  89
ATOM     89  S   UNL     1       3.353  14.986  -0.860  1.00  0.00     0.127 S 
ATOM     90  O   UNL     1       4.614  15.442  -0.281  1.00  0.00    -0.237 OA
ATOM     91  O   UNL     1       3.446  14.525  -2.246  1.00  0.00    -0.237 OA
ATOM     92  O   UNL     1       2.196  15.833  -0.593  1.00  0.00    -0.744 OA
ENDBRANCH  86  89
ENDBRANCH  59  82
ENDBRANCH  33  34
ENDBRANCH  25  28
ENDBRANCH  23  24
ENDBRANCH   1  23
TORSDOF 17
