REMARK SMILES CC(C)N1C[C@@]2(CCCN(c3ccc(C(=O)NCCCCNC(=O)c4ccc(-c5c6nc(c(-c7cccc(S(=O)(=O)[O-])c7F)c7ccc([nH]7)c(-c7cccc(S(=O)(=O)[O-])c7F)c7nc(c(-c8cccc(S(=O)(=O)[O-])c8F)c8ccc5[nH]8)C=C7)C=C6)cc4)cn3)C2)CCC1=O
REMARK SMILES IDX 20 1 19 2 18 3 17 4 15 5 16 6 14 8 11 9 12 10 89 11 13 12
REMARK SMILES IDX 88 13 10 14 4 15 5 16 93 17 6 18 92 19 94 20 7 21 90 22
REMARK SMILES IDX 91 23 8 24 9 25 2 26 1 27 3 28 21 29 22 30 23 31 24 33 25 34
REMARK SMILES IDX 26 35 87 36 27 37 86 38 28 39 29 40 30 41 80 42 31 43 85 44
REMARK SMILES IDX 79 45 81 46 32 47 84 48 78 49 77 50 33 52 65 53 45 54 64 55
REMARK SMILES IDX 46 56 49 57 63 58 82 59 47 60 48 61 62 63 83 64 50 65 34 66
REMARK SMILES IDX 35 67 43 68 36 69 38 70 44 71 37 72 39 73 40 74 41 75 42 76
REMARK SMILES IDX 66 77 67 78 75 79 68 80 70 81 76 82 69 83 71 84 72 85 73 86
REMARK SMILES IDX 74 87 51 88 52 89 60 90 53 91 55 92 61 93 54 94 56 95 57 96
REMARK SMILES IDX 58 97 59 98
REMARK H PARENT 17 7 22 32 81 51 49 62
REMARK Flexibility Score: inf
ROOT
ATOM      1  C   UNL     1      -7.578   4.009   0.802  1.00  0.00     0.023 C 
ENDROOT
BRANCH   1   2
ATOM      2  C   UNL     1      -6.545   2.892   0.660  1.00  0.00     0.023 C 
BRANCH   2   3
ATOM      3  C   UNL     1      -6.888   1.791  -0.342  1.00  0.00     0.116 C 
BRANCH   3   4
ATOM      4  N   UNL     1      -6.915   2.248  -1.725  1.00  0.00    -0.352 N 
ATOM      5  C   UNL     1      -6.358   1.655  -2.839  1.00  0.00     0.252 C 
ATOM      6  O   UNL     1      -6.402   2.185  -3.938  1.00  0.00    -0.269 OA
ATOM      7  H   UNL     1      -7.396   3.092  -1.886  1.00  0.00     0.163 HD
BRANCH   5   8
ATOM      8  C   UNL     1      -5.644   0.383  -2.676  1.00  0.00     0.058 A 
ATOM      9  C   UNL     1      -4.066  -1.705  -1.809  1.00  0.00     0.128 A 
ATOM     10  C   UNL     1      -5.458  -1.828  -1.780  1.00  0.00     0.048 A 
ATOM     11  N   UNL     1      -3.496  -0.658  -2.449  1.00  0.00    -0.239 NA
ATOM     12  C   UNL     1      -6.259  -0.762  -2.193  1.00  0.00     0.019 A 
ATOM     13  C   UNL     1      -4.282   0.359  -2.878  1.00  0.00     0.127 A 
BRANCH   9  14
ATOM     14  N   UNL     1      -3.233  -2.529  -1.067  1.00  0.00    -0.356 N 
ATOM     15  N   UNL     1      -0.723   0.319   1.357  1.00  0.00    -0.340 N 
ATOM     16  C   UNL     1      -1.296  -0.937   1.835  1.00  0.00     0.128 C 
ATOM     17  C   UNL     1      -1.511   1.353   0.869  1.00  0.00     0.222 C 
ATOM     18  C   UNL     1      -2.531  -1.420   1.054  1.00  0.00     0.006 C 
ATOM     19  C   UNL     1      -2.945   1.032   0.512  1.00  0.00     0.101 C 
ATOM     20  O   UNL     1      -1.078   2.475   0.613  1.00  0.00    -0.275 OA
ATOM     21  C   UNL     1      -3.131  -2.651   1.797  1.00  0.00     0.012 C 
ATOM     22  C   UNL     1      -2.112  -1.857  -0.385  1.00  0.00     0.127 C 
ATOM     23  C   UNL     1      -3.522  -0.242   1.102  1.00  0.00     0.020 C 
ATOM     24  C   UNL     1      -4.190  -3.413   0.991  1.00  0.00     0.022 C 
ATOM     25  C   UNL     1      -3.691  -3.747  -0.415  1.00  0.00     0.118 C 
BRANCH  15  26
ATOM     26  C   UNL     1       0.746   0.441   1.413  1.00  0.00     0.078 C 
ATOM     27  C   UNL     1       1.338   0.116   0.042  1.00  0.00     0.031 C 
ATOM     28  C   UNL     1       1.283   1.773   1.944  1.00  0.00     0.031 C 
ENDBRANCH  15  26
ENDBRANCH   9  14
ENDBRANCH   5   8
ENDBRANCH   3   4
ENDBRANCH   2   3
ENDBRANCH   1   2
BRANCH   1  29
ATOM     29  C   UNL     1      -8.993   3.570   1.169  1.00  0.00     0.116 C 
BRANCH  29  30
ATOM     30  N   UNL     1      -9.073   2.882   2.449  1.00  0.00    -0.352 N 
ATOM     31  C   UNL     1      -9.938   3.082   3.501  1.00  0.00     0.251 C 
ATOM     32  H   UNL     1      -8.410   2.166   2.583  1.00  0.00     0.163 HD
ATOM     33  O   UNL     1      -9.775   2.452   4.543  1.00  0.00    -0.269 OA
BRANCH  31  34
ATOM     34  C   UNL     1     -11.039   4.070   3.399  1.00  0.00     0.039 A 
ATOM     35  C   UNL     1     -11.280   4.923   4.480  1.00  0.00     0.014 A 
ATOM     36  C   UNL     1     -11.833   4.162   2.253  1.00  0.00     0.014 A 
ATOM     37  C   UNL     1     -12.263   5.913   4.383  1.00  0.00     0.010 A 
ATOM     38  C   UNL     1     -12.761   5.196   2.129  1.00  0.00     0.010 A 
ATOM     39  C   UNL     1     -12.988   6.083   3.192  1.00  0.00    -0.014 A 
BRANCH  39  40
ATOM     40  C   UNL     1     -13.966   7.194   3.036  1.00  0.00     0.031 A 
ATOM     41  C   UNL     1     -15.426   6.905   2.803  1.00  0.00     0.074 A 
ATOM     42  C   UNL     1     -13.528   8.469   3.018  1.00  0.00     0.049 A 
ATOM     43  N   UNL     1     -16.413   7.743   2.616  1.00  0.00    -0.248 NA
ATOM     44  C   UNL     1     -15.826   5.489   2.743  1.00  0.00     0.031 C 
ATOM     45  C   UNL     1     -12.129   8.885   3.135  1.00  0.00     0.029 A 
ATOM     46  N   UNL     1     -14.212   9.650   2.867  1.00  0.00    -0.354 N 
ATOM     47  C   UNL     1     -17.539   6.963   2.383  1.00  0.00     0.074 A 
ATOM     48  C   UNL     1     -17.107   5.582   2.416  1.00  0.00     0.031 C 
ATOM     49  C   UNL     1     -12.059  10.224   3.060  1.00  0.00     0.029 A 
ATOM     50  C   UNL     1     -13.402  10.762   2.870  1.00  0.00     0.049 A 
ATOM     51  H   UNL     1     -15.191   9.697   2.767  1.00  0.00     0.167 HD
ATOM     52  C   UNL     1     -18.822   7.354   2.192  1.00  0.00     0.034 A 
ATOM     53  C   UNL     1     -13.706  12.069   2.740  1.00  0.00     0.034 A 
ATOM     54  C   UNL     1     -19.262   8.723   2.214  1.00  0.00     0.049 A 
ATOM     55  C   UNL     1     -15.147  12.478   2.598  1.00  0.00     0.074 A 
ATOM     56  C   UNL     1     -20.554   9.213   2.132  1.00  0.00     0.029 A 
ATOM     57  N   UNL     1     -18.425   9.822   2.323  1.00  0.00    -0.354 N 
ATOM     58  N   UNL     1     -16.219  11.725   2.562  1.00  0.00    -0.248 NA
ATOM     59  C   UNL     1     -15.424  13.920   2.521  1.00  0.00     0.031 C 
ATOM     60  C   UNL     1     -20.497  10.611   2.181  1.00  0.00     0.029 A 
ATOM     61  C   UNL     1     -19.170  10.990   2.306  1.00  0.00     0.049 A 
ATOM     62  H   UNL     1     -17.445   9.779   2.401  1.00  0.00     0.167 HD
ATOM     63  C   UNL     1     -17.297  12.600   2.487  1.00  0.00     0.074 A 
ATOM     64  C   UNL     1     -16.750  13.940   2.514  1.00  0.00     0.031 C 
ATOM     65  C   UNL     1     -18.620  12.318   2.386  1.00  0.00     0.034 A 
BRANCH  52  66
ATOM     66  C   UNL     1     -19.860   6.276   2.016  1.00  0.00     0.023 A 
ATOM     67  C   UNL     1     -20.239   5.495   3.128  1.00  0.00     0.012 A 
ATOM     68  C   UNL     1     -20.497   6.068   0.777  1.00  0.00     0.148 A 
ATOM     69  C   UNL     1     -21.209   4.503   3.003  1.00  0.00     0.002 A 
ATOM     70  C   UNL     1     -21.493   5.103   0.670  1.00  0.00     0.091 A 
ATOM     71  F   UNL     1     -20.108   6.803  -0.275  1.00  0.00    -0.205 F 
ATOM     72  C   UNL     1     -21.842   4.313   1.778  1.00  0.00     0.022 A 
BRANCH  70  73
ATOM     73  S   UNL     1     -22.420   4.832  -0.845  1.00  0.00     0.127 S 
ATOM     74  O   UNL     1     -21.856   3.567  -1.314  1.00  0.00    -0.237 OA
ATOM     75  O   UNL     1     -23.796   4.741  -0.355  1.00  0.00    -0.237 OA
ATOM     76  O   UNL     1     -22.153   5.989  -1.688  1.00  0.00    -0.744 OA
ENDBRANCH  70  73
ENDBRANCH  52  66
BRANCH  53  77
ATOM     77  C   UNL     1     -12.628  13.095   2.826  1.00  0.00     0.023 A 
ATOM     78  C   UNL     1     -12.552  13.917   3.968  1.00  0.00     0.012 A 
ATOM     79  C   UNL     1     -11.667  13.243   1.808  1.00  0.00     0.148 A 
ATOM     80  C   UNL     1     -11.558  14.888   4.081  1.00  0.00     0.002 A 
ATOM     81  C   UNL     1     -10.647  14.178   1.951  1.00  0.00     0.091 A 
ATOM     82  F   UNL     1     -11.764  12.462   0.723  1.00  0.00    -0.205 F 
ATOM     83  C   UNL     1     -10.600  15.012   3.079  1.00  0.00     0.022 A 
BRANCH  81  84
ATOM     84  S   UNL     1      -9.299  14.314   0.772  1.00  0.00     0.127 S 
ATOM     85  O   UNL     1      -9.637  15.552   0.074  1.00  0.00    -0.237 OA
ATOM     86  O   UNL     1      -8.133  14.401   1.651  1.00  0.00    -0.237 OA
ATOM     87  O   UNL     1      -9.356  13.097  -0.026  1.00  0.00    -0.744 OA
ENDBRANCH  81  84
ENDBRANCH  53  77
BRANCH  65  88
ATOM     88  C   UNL     1     -19.576  13.481   2.314  1.00  0.00     0.023 A 
ATOM     89  C   UNL     1     -19.648  14.250   1.135  1.00  0.00     0.012 A 
ATOM     90  C   UNL     1     -20.442  13.775   3.385  1.00  0.00     0.148 A 
ATOM     91  C   UNL     1     -20.542  15.315   1.036  1.00  0.00     0.002 A 
ATOM     92  C   UNL     1     -21.363  14.810   3.262  1.00  0.00     0.091 A 
ATOM     93  F   UNL     1     -20.345  13.048   4.508  1.00  0.00    -0.205 F 
ATOM     94  C   UNL     1     -21.406  15.588   2.094  1.00  0.00     0.022 A 
BRANCH  92  95
ATOM     95  S   UNL     1     -22.573  15.167   4.541  1.00  0.00     0.127 S 
ATOM     96  O   UNL     1     -21.978  16.327   5.201  1.00  0.00    -0.237 OA
ATOM     97  O   UNL     1     -23.778  15.461   3.762  1.00  0.00    -0.237 OA
ATOM     98  O   UNL     1     -22.663  13.957   5.348  1.00  0.00    -0.744 OA
ENDBRANCH  92  95
ENDBRANCH  65  88
ENDBRANCH  39  40
ENDBRANCH  31  34
ENDBRANCH  29  30
ENDBRANCH   1  29
TORSDOF 16
