REMARK SMILES COc1ccc2cc([C@H](C)C(=O)NCCCCNC(=O)c3ccc(-c4c5nc(c(-c6cccc(S(=O)(=O)[O-])c6F)c6ccc([nH]6)c(-c6cccc(S(=O)(=O)[O-])c6F)c6nc(c(-c7cccc(S(=O)(=O)[O-])c7F)c7ccc4[nH]7)C=C6)C=C5)cc3)ccc2c1
REMARK SMILES IDX 16 1 15 2 14 3 13 4 11 5 12 6 9 8 10 9 8 10 3 11 4 12 87 13
REMARK SMILES IDX 5 14 86 15 6 16 85 17 7 18 84 19 2 20 1 21 17 22 18 23 19 24
REMARK SMILES IDX 20 26 21 27 22 28 83 29 23 30 82 31 24 32 25 33 26 34 76 35
REMARK SMILES IDX 27 36 81 37 75 38 77 39 28 40 80 41 74 42 73 43 29 45 61 46
REMARK SMILES IDX 41 47 60 48 42 49 45 50 59 51 78 52 43 53 44 54 58 56 79 57
REMARK SMILES IDX 46 58 30 59 31 60 39 61 32 62 34 63 40 64 33 65 35 66 36 67
REMARK SMILES IDX 37 68 38 69 62 70 63 71 71 72 64 73 66 74 72 75 65 76 67 77
REMARK SMILES IDX 68 78 69 79 70 80 47 81 48 82 56 83 49 84 51 85 57 86 50 87
REMARK SMILES IDX 52 88 53 89 54 90 55 91
REMARK H PARENT 13 7 18 25 77 44 45 55
REMARK Flexibility Score: inf
ROOT
ATOM      1  C   UNL     1       5.530  -3.023   5.463  1.00  0.00     0.023 C 
ENDROOT
BRANCH   1   2
ATOM      2  C   UNL     1       4.338  -3.585   4.684  1.00  0.00     0.023 C 
BRANCH   2   3
ATOM      3  C   UNL     1       4.124  -5.085   4.844  1.00  0.00     0.116 C 
BRANCH   3   4
ATOM      4  N   UNL     1       3.741  -5.444   6.197  1.00  0.00    -0.356 N 
ATOM      5  C   UNL     1       2.778  -6.303   6.636  1.00  0.00     0.227 C 
ATOM      6  O   UNL     1       2.748  -6.552   7.846  1.00  0.00    -0.274 OA
ATOM      7  H   UNL     1       4.257  -4.998   6.907  1.00  0.00     0.163 HD
BRANCH   5   8
ATOM      8  C   UNL     1       1.747  -6.925   5.692  1.00  0.00     0.105 C 
ATOM      9  C   UNL     1       0.884  -5.837   5.036  1.00  0.00     0.023 C 
BRANCH   8  10
ATOM     10  C   UNL     1       2.264  -7.978   4.715  1.00  0.00    -0.035 A 
ATOM     11  C   UNL     1       2.654 -11.489   1.046  1.00  0.00     0.119 A 
ATOM     12  C   UNL     1       1.290 -11.263   1.218  1.00  0.00     0.047 A 
ATOM     13  C   UNL     1       3.574 -10.829   1.860  1.00  0.00     0.055 A 
ATOM     14  C   UNL     1       0.851 -10.333   2.165  1.00  0.00     0.012 A 
ATOM     15  C   UNL     1       3.145  -9.901   2.821  1.00  0.00    -0.015 A 
ATOM     16  C   UNL     1       1.768  -9.630   2.962  1.00  0.00    -0.018 A 
ATOM     17  C   UNL     1       4.056  -9.248   3.657  1.00  0.00     0.009 A 
ATOM     18  C   UNL     1       1.348  -8.669   3.900  1.00  0.00     0.013 A 
ATOM     19  C   UNL     1       3.617  -8.324   4.609  1.00  0.00     0.005 A 
BRANCH  11  20
ATOM     20  O   UNL     1       3.179 -12.379   0.149  1.00  0.00    -0.497 OA
ATOM     21  C   UNL     1       2.533 -12.373  -1.120  1.00  0.00     0.278 C 
ENDBRANCH  11  20
ENDBRANCH   8  10
ENDBRANCH   5   8
ENDBRANCH   3   4
ENDBRANCH   2   3
ENDBRANCH   1   2
BRANCH   1  22
ATOM     22  C   UNL     1       6.866  -3.717   5.213  1.00  0.00     0.116 C 
BRANCH  22  23
ATOM     23  N   UNL     1       7.255  -3.720   3.809  1.00  0.00    -0.352 N 
ATOM     24  C   UNL     1       8.470  -3.402   3.252  1.00  0.00     0.251 C 
ATOM     25  H   UNL     1       6.551  -3.985   3.173  1.00  0.00     0.163 HD
ATOM     26  O   UNL     1       8.590  -3.336   2.031  1.00  0.00    -0.269 OA
BRANCH  24  27
ATOM     27  C   UNL     1       9.622  -3.113   4.130  1.00  0.00     0.039 A 
ATOM     28  C   UNL     1      10.373  -1.957   3.904  1.00  0.00     0.014 A 
ATOM     29  C   UNL     1       9.938  -3.964   5.194  1.00  0.00     0.014 A 
ATOM     30  C   UNL     1      11.401  -1.619   4.787  1.00  0.00     0.010 A 
ATOM     31  C   UNL     1      10.914  -3.587   6.112  1.00  0.00     0.010 A 
ATOM     32  C   UNL     1      11.657  -2.412   5.918  1.00  0.00    -0.014 A 
BRANCH  32  33
ATOM     33  C   UNL     1      12.689  -2.026   6.915  1.00  0.00     0.031 A 
ATOM     34  C   UNL     1      13.884  -2.909   7.148  1.00  0.00     0.074 A 
ATOM     35  C   UNL     1      12.507  -0.924   7.670  1.00  0.00     0.049 A 
ATOM     36  N   UNL     1      14.858  -2.768   8.010  1.00  0.00    -0.248 NA
ATOM     37  C   UNL     1      13.986  -4.126   6.325  1.00  0.00     0.031 C 
ATOM     38  C   UNL     1      11.350  -0.028   7.597  1.00  0.00     0.029 A 
ATOM     39  N   UNL     1      13.280  -0.383   8.667  1.00  0.00    -0.354 N 
ATOM     40  C   UNL     1      15.667  -3.888   7.857  1.00  0.00     0.074 A 
ATOM     41  C   UNL     1      15.049  -4.720   6.847  1.00  0.00     0.031 C 
ATOM     42  C   UNL     1      11.494   0.953   8.503  1.00  0.00     0.029 A 
ATOM     43  C   UNL     1      12.737   0.744   9.239  1.00  0.00     0.049 A 
ATOM     44  H   UNL     1      14.143  -0.765   8.946  1.00  0.00     0.167 HD
ATOM     45  C   UNL     1      16.837  -4.182   8.473  1.00  0.00     0.034 A 
ATOM     46  C   UNL     1      13.189   1.521  10.243  1.00  0.00     0.034 A 
ATOM     47  C   UNL     1      17.472  -3.332   9.442  1.00  0.00     0.049 A 
ATOM     48  C   UNL     1      14.512   1.194  10.881  1.00  0.00     0.074 A 
ATOM     49  C   UNL     1      18.695  -3.503  10.067  1.00  0.00     0.029 A 
ATOM     50  N   UNL     1      16.936  -2.150   9.929  1.00  0.00    -0.354 N 
ATOM     51  N   UNL     1      15.339   0.213  10.610  1.00  0.00    -0.248 NA
ATOM     52  C   UNL     1      14.984   2.103  11.936  1.00  0.00     0.031 C 
ATOM     53  C   UNL     1      18.892  -2.430  10.942  1.00  0.00     0.029 A 
ATOM     54  C   UNL     1      17.802  -1.580  10.847  1.00  0.00     0.049 A 
ATOM     55  H   UNL     1      16.068  -1.771   9.662  1.00  0.00     0.167 HD
ATOM     56  C   UNL     1      16.445   0.409  11.430  1.00  0.00     0.074 A 
ATOM     57  C   UNL     1      16.191   1.614  12.192  1.00  0.00     0.031 C 
ATOM     58  C   UNL     1      17.563  -0.347  11.552  1.00  0.00     0.034 A 
BRANCH  45  59
ATOM     59  C   UNL     1      17.540  -5.451   8.064  1.00  0.00     0.023 A 
ATOM     60  C   UNL     1      18.147  -5.525   6.793  1.00  0.00     0.012 A 
ATOM     61  C   UNL     1      17.651  -6.543   8.946  1.00  0.00     0.148 A 
ATOM     62  C   UNL     1      18.820  -6.677   6.392  1.00  0.00     0.002 A 
ATOM     63  C   UNL     1      18.363  -7.672   8.556  1.00  0.00     0.091 A 
ATOM     64  F   UNL     1      17.050  -6.463  10.142  1.00  0.00    -0.205 F 
ATOM     65  C   UNL     1      18.937  -7.745   7.276  1.00  0.00     0.022 A 
BRANCH  63  66
ATOM     66  S   UNL     1      18.638  -9.070   9.650  1.00  0.00     0.127 S 
ATOM     67  O   UNL     1      17.775 -10.088   9.050  1.00  0.00    -0.237 OA
ATOM     68  O   UNL     1      20.072  -9.313   9.485  1.00  0.00    -0.237 OA
ATOM     69  O   UNL     1      18.248  -8.623  10.979  1.00  0.00    -0.744 OA
ENDBRANCH  63  66
ENDBRANCH  45  59
BRANCH  46  70
ATOM     70  C   UNL     1      12.424   2.733  10.654  1.00  0.00     0.023 A 
ATOM     71  C   UNL     1      12.948   4.008  10.363  1.00  0.00     0.012 A 
ATOM     72  C   UNL     1      11.181   2.635  11.309  1.00  0.00     0.148 A 
ATOM     73  C   UNL     1      12.268   5.163  10.749  1.00  0.00     0.002 A 
ATOM     74  C   UNL     1      10.483   3.791  11.643  1.00  0.00     0.091 A 
ATOM     75  F   UNL     1      10.704   1.415  11.589  1.00  0.00    -0.205 F 
ATOM     76  C   UNL     1      11.032   5.055  11.380  1.00  0.00     0.022 A 
BRANCH  74  77
ATOM     77  S   UNL     1       8.827   3.744  12.339  1.00  0.00     0.127 S 
ATOM     78  O   UNL     1       9.074   4.130  13.725  1.00  0.00    -0.237 OA
ATOM     79  O   UNL     1       8.131   4.749  11.534  1.00  0.00    -0.237 OA
ATOM     80  O   UNL     1       8.355   2.382  12.132  1.00  0.00    -0.744 OA
ENDBRANCH  74  77
ENDBRANCH  46  70
BRANCH  58  81
ATOM     81  C   UNL     1      18.623   0.121  12.514  1.00  0.00     0.023 A 
ATOM     82  C   UNL     1      18.407   0.013  13.902  1.00  0.00     0.012 A 
ATOM     83  C   UNL     1      19.861   0.602  12.042  1.00  0.00     0.148 A 
ATOM     84  C   UNL     1      19.394   0.405  14.806  1.00  0.00     0.002 A 
ATOM     85  C   UNL     1      20.857   0.945  12.948  1.00  0.00     0.091 A 
ATOM     86  F   UNL     1      20.040   0.717  10.718  1.00  0.00    -0.205 F 
ATOM     87  C   UNL     1      20.622   0.860  14.329  1.00  0.00     0.022 A 
BRANCH  85  88
ATOM     88  S   UNL     1      22.500   1.448  12.422  1.00  0.00     0.127 S 
ATOM     89  O   UNL     1      22.468   2.887  12.677  1.00  0.00    -0.237 OA
ATOM     90  O   UNL     1      23.363   0.687  13.327  1.00  0.00    -0.237 OA
ATOM     91  O   UNL     1      22.607   1.061  11.022  1.00  0.00    -0.744 OA
ENDBRANCH  85  88
ENDBRANCH  58  81
ENDBRANCH  32  33
ENDBRANCH  24  27
ENDBRANCH  22  23
ENDBRANCH   1  22
TORSDOF 16
