REMARK SMILES O=C(CNC(=O)N1CC(NCCCCNC(=O)c2ccc(-c3c4nc(c(-c5cccc(S(=O)(=O)[O-])c5F)c5ccc([nH]5)c(-c5cccc(S(=O)(=O)[O-])c5F)c5nc(c(-c6cccc(S(=O)(=O)[O-])c6F)c6ccc3[nH]6)C=C5)C=C4)cc2)=[NH+]c2ccccc21)N[C@H](C(=O)[O-])c1ccccc1
REMARK SMILES IDX 12 1 11 2 10 3 7 4 8 5 87 6 9 7 82 8 86 9 81 10 83 11 85 12
REMARK SMILES IDX 84 15 5 16 4 17 6 19 3 20 2 21 1 22 88 23 89 25 93 26 94 27
REMARK SMILES IDX 98 28 95 29 97 30 96 31 90 32 91 33 92 34 13 35 14 36 15 37
REMARK SMILES IDX 16 38 17 40 18 41 19 42 80 43 20 44 79 45 21 46 22 47 23 48
REMARK SMILES IDX 73 49 24 50 78 51 72 52 74 53 25 54 77 55 71 56 70 57 26 59
REMARK SMILES IDX 58 60 38 61 57 62 39 63 42 64 56 65 75 66 40 67 41 68 55 70
REMARK SMILES IDX 76 71 43 72 27 73 28 74 36 75 29 76 31 77 37 78 30 79 32 80
REMARK SMILES IDX 33 81 34 82 35 83 59 84 60 85 68 86 61 87 63 88 69 89 62 90
REMARK SMILES IDX 64 91 65 92 66 93 67 94 44 95 45 96 53 97 46 98 48 99 54 100
REMARK SMILES IDX 47 101 49 102 50 103 51 104 52 105
REMARK H PARENT 10 13 81 14 4 18 88 24 15 39 74 58 42 69
REMARK Flexibility Score: inf
ROOT
ATOM      1  C   UNL     1       2.682   4.746   1.477  1.00  0.00     0.048 C 
ENDROOT
BRANCH   1   2
ATOM      2  C   UNL     1       3.746   5.805   1.199  1.00  0.00     0.233 C 
BRANCH   2   3
ATOM      3  N   UNL     1       4.905   5.240   0.554  1.00  0.00    -0.277 N 
ATOM      4  N   UNL     1       4.609   5.716  -3.111  1.00  0.00    -0.278 N 
ATOM      5  C   UNL     1       4.504   6.214  -1.750  1.00  0.00     0.255 C 
ATOM      6  C   UNL     1       5.900   5.249  -3.487  1.00  0.00     0.093 A 
ATOM      7  C   UNL     1       5.290   5.350  -0.759  1.00  0.00     0.268 C 
ATOM      8  C   UNL     1       6.757   4.780  -2.472  1.00  0.00     0.148 A 
ATOM      9  C   UNL     1       6.330   5.233  -4.822  1.00  0.00     0.031 A 
ATOM     10  N   UNL     1       6.381   4.731  -1.117  1.00  0.00    -0.241 N 
ATOM     11  C   UNL     1       8.001   4.247  -2.823  1.00  0.00     0.054 A 
ATOM     12  C   UNL     1       7.579   4.704  -5.155  1.00  0.00     0.002 A 
ATOM     13  H   UNL     1       5.498   4.707   1.131  1.00  0.00     0.304 HD
ATOM     14  H   UNL     1       6.927   4.245  -0.458  1.00  0.00     0.312 HD
ATOM     15  C   UNL     1       8.410   4.202  -4.157  1.00  0.00     0.005 A 
BRANCH   4  16
ATOM     16  C   UNL     1       3.512   5.866  -3.920  1.00  0.00     0.323 C 
ATOM     17  N   UNL     1       3.217   4.905  -4.834  1.00  0.00    -0.329 N 
ATOM     18  H   UNL     1       2.643   5.180  -5.585  1.00  0.00     0.165 HD
ATOM     19  O   UNL     1       2.722   6.806  -3.799  1.00  0.00    -0.248 OA
BRANCH  17  20
ATOM     20  C   UNL     1       3.650   3.518  -4.833  1.00  0.00     0.218 C 
BRANCH  20  21
ATOM     21  C   UNL     1       2.545   2.598  -4.329  1.00  0.00     0.240 C 
ATOM     22  O   UNL     1       1.474   2.483  -4.921  1.00  0.00    -0.273 OA
ATOM     23  N   UNL     1       2.913   1.922  -3.201  1.00  0.00    -0.342 N 
ATOM     24  H   UNL     1       3.665   2.292  -2.684  1.00  0.00     0.164 HD
BRANCH  23  25
ATOM     25  C   UNL     1       2.291   0.691  -2.688  1.00  0.00     0.158 C 
BRANCH  25  26
ATOM     26  C   UNL     1       2.635  -0.498  -3.588  1.00  0.00    -0.020 A 
ATOM     27  C   UNL     1       1.861  -1.665  -3.534  1.00  0.00     0.006 A 
ATOM     28  C   UNL     1       3.695  -0.455  -4.516  1.00  0.00     0.006 A 
ATOM     29  C   UNL     1       2.098  -2.721  -4.421  1.00  0.00     0.000 A 
ATOM     30  C   UNL     1       3.915  -1.495  -5.418  1.00  0.00     0.000 A 
ATOM     31  C   UNL     1       3.108  -2.626  -5.378  1.00  0.00     0.000 A 
ENDBRANCH  25  26
BRANCH  25  32
ATOM     32  C   UNL     1       2.772   0.454  -1.213  1.00  0.00     0.068 C 
ATOM     33  O   UNL     1       4.033   0.513  -1.062  1.00  0.00    -0.548 OA
ATOM     34  O   UNL     1       1.855   0.420  -0.342  1.00  0.00    -0.548 OA
ENDBRANCH  25  32
ENDBRANCH  23  25
ENDBRANCH  20  21
ENDBRANCH  17  20
ENDBRANCH   4  16
ENDBRANCH   2   3
ENDBRANCH   1   2
BRANCH   1  35
ATOM     35  C   UNL     1       3.055   3.713   2.545  1.00  0.00     0.025 C 
BRANCH  35  36
ATOM     36  C   UNL     1       3.507   4.278   3.889  1.00  0.00     0.116 C 
BRANCH  36  37
ATOM     37  N   UNL     1       2.516   5.142   4.522  1.00  0.00    -0.352 N 
ATOM     38  C   UNL     1       2.100   5.176   5.834  1.00  0.00     0.251 C 
ATOM     39  H   UNL     1       2.083   5.794   3.925  1.00  0.00     0.163 HD
ATOM     40  O   UNL     1       1.180   5.909   6.171  1.00  0.00    -0.269 OA
BRANCH  38  41
ATOM     41  C   UNL     1       2.752   4.302   6.837  1.00  0.00     0.039 A 
ATOM     42  C   UNL     1       1.947   3.548   7.695  1.00  0.00     0.014 A 
ATOM     43  C   UNL     1       4.144   4.211   6.920  1.00  0.00     0.014 A 
ATOM     44  C   UNL     1       2.537   2.645   8.585  1.00  0.00     0.010 A 
ATOM     45  C   UNL     1       4.726   3.261   7.758  1.00  0.00     0.010 A 
ATOM     46  C   UNL     1       3.929   2.463   8.594  1.00  0.00    -0.014 A 
BRANCH  46  47
ATOM     47  C   UNL     1       4.566   1.410   9.430  1.00  0.00     0.031 A 
ATOM     48  C   UNL     1       5.549   1.778  10.509  1.00  0.00     0.074 A 
ATOM     49  C   UNL     1       4.333   0.111   9.150  1.00  0.00     0.049 A 
ATOM     50  N   UNL     1       6.253   0.996  11.287  1.00  0.00    -0.248 NA
ATOM     51  C   UNL     1       5.790   3.213  10.729  1.00  0.00     0.031 C 
ATOM     52  C   UNL     1       3.464  -0.381   8.079  1.00  0.00     0.029 A 
ATOM     53  N   UNL     1       4.833  -1.033   9.721  1.00  0.00    -0.354 N 
ATOM     54  C   UNL     1       7.046   1.836  12.058  1.00  0.00     0.074 A 
ATOM     55  C   UNL     1       6.753   3.190  11.639  1.00  0.00     0.031 C 
ATOM     56  C   UNL     1       3.492  -1.723   8.069  1.00  0.00     0.029 A 
ATOM     57  C   UNL     1       4.407  -2.187   9.105  1.00  0.00     0.049 A 
ATOM     58  H   UNL     1       5.439  -1.028  10.497  1.00  0.00     0.167 HD
ATOM     59  C   UNL     1       7.922   1.514  13.041  1.00  0.00     0.034 A 
ATOM     60  C   UNL     1       4.731  -3.475   9.335  1.00  0.00     0.034 A 
ATOM     61  C   UNL     1       8.189   0.168  13.475  1.00  0.00     0.049 A 
ATOM     62  C   UNL     1       5.695  -3.804  10.442  1.00  0.00     0.074 A 
ATOM     63  C   UNL     1       8.987  -0.255  14.525  1.00  0.00     0.029 A 
ATOM     64  N   UNL     1       7.683  -0.976  12.875  1.00  0.00    -0.354 N 
ATOM     65  N   UNL     1       6.304  -2.997  11.277  1.00  0.00    -0.248 NA
ATOM     66  C   UNL     1       5.994  -5.227  10.658  1.00  0.00     0.031 C 
ATOM     67  C   UNL     1       8.992  -1.653  14.537  1.00  0.00     0.029 A 
ATOM     68  C   UNL     1       8.167  -2.103  13.519  1.00  0.00     0.049 A 
ATOM     69  H   UNL     1       7.071  -0.985  12.105  1.00  0.00     0.167 HD
ATOM     70  C   UNL     1       7.032  -3.814  12.134  1.00  0.00     0.074 A 
ATOM     71  C   UNL     1       6.766  -5.181  11.735  1.00  0.00     0.031 C 
ATOM     72  C   UNL     1       7.860  -3.462  13.149  1.00  0.00     0.034 A 
BRANCH  59  73
ATOM     73  C   UNL     1       8.626   2.642  13.753  1.00  0.00     0.023 A 
ATOM     74  C   UNL     1       7.894   3.486  14.614  1.00  0.00     0.012 A 
ATOM     75  C   UNL     1      10.018   2.828  13.626  1.00  0.00     0.148 A 
ATOM     76  C   UNL     1       8.525   4.519  15.306  1.00  0.00     0.002 A 
ATOM     77  C   UNL     1      10.648   3.830  14.356  1.00  0.00     0.091 A 
ATOM     78  F   UNL     1      10.698   2.027  12.794  1.00  0.00    -0.205 F 
ATOM     79  C   UNL     1       9.901   4.684  15.184  1.00  0.00     0.022 A 
BRANCH  77  80
ATOM     80  S   UNL     1      12.428   4.073  14.342  1.00  0.00     0.127 S 
ATOM     81  O   UNL     1      12.549   5.347  13.635  1.00  0.00    -0.237 OA
ATOM     82  O   UNL     1      12.740   4.140  15.770  1.00  0.00    -0.237 OA
ATOM     83  O   UNL     1      12.989   2.920  13.652  1.00  0.00    -0.744 OA
ENDBRANCH  77  80
ENDBRANCH  59  73
BRANCH  60  84
ATOM     84  C   UNL     1       4.101  -4.560   8.531  1.00  0.00     0.023 A 
ATOM     85  C   UNL     1       3.166  -5.418   9.144  1.00  0.00     0.012 A 
ATOM     86  C   UNL     1       4.417  -4.746   7.172  1.00  0.00     0.148 A 
ATOM     87  C   UNL     1       2.578  -6.460   8.426  1.00  0.00     0.002 A 
ATOM     88  C   UNL     1       3.794  -5.758   6.452  1.00  0.00     0.091 A 
ATOM     89  F   UNL     1       5.320  -3.928   6.614  1.00  0.00    -0.205 F 
ATOM     90  C   UNL     1       2.885  -6.624   7.080  1.00  0.00     0.022 A 
BRANCH  88  91
ATOM     91  S   UNL     1       4.056  -6.005   4.693  1.00  0.00     0.127 S 
ATOM     92  O   UNL     1       4.746  -7.294   4.678  1.00  0.00    -0.237 OA
ATOM     93  O   UNL     1       2.682  -6.040   4.193  1.00  0.00    -0.237 OA
ATOM     94  O   UNL     1       4.846  -4.865   4.255  1.00  0.00    -0.744 OA
ENDBRANCH  88  91
ENDBRANCH  60  84
BRANCH  72  95
ATOM     95  C   UNL     1       8.519  -4.571  13.930  1.00  0.00     0.023 A 
ATOM     96  C   UNL     1       9.538  -5.340  13.334  1.00  0.00     0.012 A 
ATOM     97  C   UNL     1       8.174  -4.808  15.276  1.00  0.00     0.148 A 
ATOM     98  C   UNL     1      10.176  -6.351  14.051  1.00  0.00     0.002 A 
ATOM     99  C   UNL     1       8.851  -5.782  16.001  1.00  0.00     0.091 A 
ATOM    100  F   UNL     1       7.192  -4.077  15.824  1.00  0.00    -0.205 F 
ATOM    101  C   UNL     1       9.842  -6.564  15.386  1.00  0.00     0.022 A 
BRANCH  99 102
ATOM    102  S   UNL     1       8.559  -6.064  17.751  1.00  0.00     0.127 S 
ATOM    103  O   UNL     1       7.901  -7.370  17.740  1.00  0.00    -0.237 OA
ATOM    104  O   UNL     1       9.917  -6.073  18.295  1.00  0.00    -0.237 OA
ATOM    105  O   UNL     1       7.732  -4.955  18.208  1.00  0.00    -0.744 OA
ENDBRANCH  99 102
ENDBRANCH  72  95
ENDBRANCH  46  47
ENDBRANCH  38  41
ENDBRANCH  36  37
ENDBRANCH  35  36
ENDBRANCH   1  35
TORSDOF 19
