REMARK SMILES CC(C)(C)c1ccc(OCC(=O)N/N=C/c2ccc(C(=O)NCCCCNC(=O)c3ccc(-c4c5nc(c(-c6cccc(S(=O)(=O)[O-])c6F)c6ccc([nH]6)c(-c6cccc(S(=O)(=O)[O-])c6F)c6nc(c(-c7cccc(S(=O)(=O)[O-])c7F)c7ccc4[nH]7)C=C6)C=C5)cc3)cc2)cc1
REMARK SMILES IDX 23 1 22 2 20 3 21 4 19 6 16 7 17 8 94 9 18 10 93 11 15 12
REMARK SMILES IDX 14 13 13 14 11 15 12 16 10 18 9 19 8 20 5 21 6 22 96 23 7 24
REMARK SMILES IDX 95 25 2 26 1 27 3 28 4 29 24 30 25 31 26 32 27 33 28 34
REMARK SMILES IDX 29 36 30 37 31 38 92 39 32 40 91 41 33 42 34 43 35 44 85 45
REMARK SMILES IDX 36 46 90 47 84 48 86 49 37 50 89 51 83 52 82 53 38 55 70 56
REMARK SMILES IDX 50 57 69 58 51 59 54 60 68 61 87 62 52 63 53 64 67 66 88 67
REMARK SMILES IDX 55 68 39 69 40 70 48 71 41 72 43 73 49 74 42 75 44 76 45 77
REMARK SMILES IDX 46 78 47 79 71 80 72 81 80 82 73 83 75 84 81 85 74 86 76 87
REMARK SMILES IDX 77 88 78 89 79 90 56 91 57 92 65 93 58 94 60 95 66 96 59 97
REMARK SMILES IDX 61 98 62 99 63 100 64 101
REMARK H PARENT 22 5 13 17 27 35 86 54 54 65
REMARK Flexibility Score: inf
ROOT
ATOM      1  C   UNL     1       7.769   1.392  11.000  1.00  0.00     0.116 C 
ENDROOT
BRANCH   1   2
ATOM      2  N   UNL     1       6.585   0.583  11.201  1.00  0.00    -0.352 N 
ATOM      3  C   UNL     1       5.373   0.580  10.562  1.00  0.00     0.251 C 
ATOM      4  O   UNL     1       4.536  -0.257  10.902  1.00  0.00    -0.269 OA
ATOM      5  H   UNL     1       6.664  -0.081  11.923  1.00  0.00     0.163 HD
BRANCH   3   6
ATOM      6  C   UNL     1       5.034   1.517   9.453  1.00  0.00     0.039 A 
ATOM      7  C   UNL     1       4.222   3.183   7.370  1.00  0.00    -0.005 A 
ATOM      8  C   UNL     1       3.643   1.923   7.498  1.00  0.00     0.010 A 
ATOM      9  C   UNL     1       5.186   3.632   8.262  1.00  0.00     0.010 A 
ATOM     10  C   UNL     1       4.066   1.085   8.530  1.00  0.00     0.014 A 
ATOM     11  C   UNL     1       5.559   2.809   9.320  1.00  0.00     0.014 A 
BRANCH   7  12
ATOM     12  C   UNL     1       3.683   4.131   6.397  1.00  0.00     0.141 C 
ATOM     13  N   UNL     1       4.436   4.683   5.514  1.00  0.00    -0.181 NA
BRANCH  13  14
ATOM     14  N   UNL     1       3.975   5.578   4.599  1.00  0.00    -0.244 N 
ATOM     15  C   UNL     1       2.744   6.066   4.250  1.00  0.00     0.277 C 
ATOM     16  O   UNL     1       2.698   6.954   3.386  1.00  0.00    -0.269 OA
ATOM     17  H   UNL     1       4.699   5.968   4.058  1.00  0.00     0.193 HD
BRANCH  15  18
ATOM     18  C   UNL     1       1.445   5.594   4.900  1.00  0.00     0.331 C 
BRANCH  18  19
ATOM     19  O   UNL     1       1.173   4.201   4.886  1.00  0.00    -0.484 OA
BRANCH  19  20
ATOM     20  C   UNL     1       1.071   3.591   3.672  1.00  0.00     0.120 A 
ATOM     21  C   UNL     1       0.783   2.085   1.290  1.00  0.00    -0.042 A 
ATOM     22  C   UNL     1       1.118   1.465   2.504  1.00  0.00     0.008 A 
ATOM     23  C   UNL     1       0.614   3.482   1.307  1.00  0.00     0.008 A 
ATOM     24  C   UNL     1       1.254   2.210   3.680  1.00  0.00     0.047 A 
ATOM     25  C   UNL     1       0.759   4.227   2.479  1.00  0.00     0.047 A 
BRANCH  21  26
ATOM     26  C   UNL     1       0.503   1.287   0.007  1.00  0.00    -0.013 C 
ATOM     27  C   UNL     1       1.079  -0.146   0.030  1.00  0.00     0.016 C 
ATOM     28  C   UNL     1       1.096   1.984  -1.238  1.00  0.00     0.016 C 
ATOM     29  C   UNL     1      -1.028   1.188  -0.149  1.00  0.00     0.016 C 
ENDBRANCH  21  26
ENDBRANCH  19  20
ENDBRANCH  18  19
ENDBRANCH  15  18
ENDBRANCH  13  14
ENDBRANCH   7  12
ENDBRANCH   3   6
ENDBRANCH   1   2
BRANCH   1  30
ATOM     30  C   UNL     1       7.780   2.582  11.963  1.00  0.00     0.023 C 
BRANCH  30  31
ATOM     31  C   UNL     1       8.288   2.252  13.366  1.00  0.00     0.023 C 
BRANCH  31  32
ATOM     32  C   UNL     1       9.739   1.797  13.419  1.00  0.00     0.116 C 
BRANCH  32  33
ATOM     33  N   UNL     1      10.666   2.764  12.850  1.00  0.00    -0.352 N 
ATOM     34  C   UNL     1      11.992   2.950  13.170  1.00  0.00     0.251 C 
ATOM     35  H   UNL     1      10.302   3.356  12.153  1.00  0.00     0.163 HD
ATOM     36  O   UNL     1      12.627   3.873  12.685  1.00  0.00    -0.269 OA
BRANCH  34  37
ATOM     37  C   UNL     1      12.612   2.034  14.149  1.00  0.00     0.039 A 
ATOM     38  C   UNL     1      13.252   2.577  15.265  1.00  0.00     0.014 A 
ATOM     39  C   UNL     1      12.496   0.651  13.996  1.00  0.00     0.014 A 
ATOM     40  C   UNL     1      13.725   1.726  16.264  1.00  0.00     0.010 A 
ATOM     41  C   UNL     1      12.902  -0.190  15.025  1.00  0.00     0.010 A 
ATOM     42  C   UNL     1      13.523   0.339  16.167  1.00  0.00    -0.014 A 
BRANCH  42  43
ATOM     43  C   UNL     1      13.942  -0.579  17.254  1.00  0.00     0.031 A 
ATOM     44  C   UNL     1      14.996  -1.620  16.996  1.00  0.00     0.074 A 
ATOM     45  C   UNL     1      13.299  -0.542  18.438  1.00  0.00     0.049 A 
ATOM     46  N   UNL     1      15.451  -2.546  17.798  1.00  0.00    -0.248 NA
ATOM     47  C   UNL     1      15.594  -1.647  15.650  1.00  0.00     0.031 C 
ATOM     48  C   UNL     1      12.192   0.357  18.774  1.00  0.00     0.029 A 
ATOM     49  N   UNL     1      13.460  -1.304  19.568  1.00  0.00    -0.354 N 
ATOM     50  C   UNL     1      16.350  -3.291  17.046  1.00  0.00     0.074 A 
ATOM     51  C   UNL     1      16.359  -2.727  15.714  1.00  0.00     0.031 C 
ATOM     52  C   UNL     1      11.773   0.093  20.022  1.00  0.00     0.029 A 
ATOM     53  C   UNL     1      12.564  -1.005  20.569  1.00  0.00     0.049 A 
ATOM     54  H   UNL     1      14.153  -1.998  19.655  1.00  0.00     0.167 HD
ATOM     55  C   UNL     1      17.121  -4.332  17.437  1.00  0.00     0.034 A 
ATOM     56  C   UNL     1      12.397  -1.557  21.786  1.00  0.00     0.034 A 
ATOM     57  C   UNL     1      17.158  -4.844  18.779  1.00  0.00     0.049 A 
ATOM     58  C   UNL     1      13.325  -2.661  22.220  1.00  0.00     0.074 A 
ATOM     59  C   UNL     1      17.996  -5.809  19.308  1.00  0.00     0.029 A 
ATOM     60  N   UNL     1      16.318  -4.437  19.803  1.00  0.00    -0.354 N 
ATOM     61  N   UNL     1      14.307  -3.220  21.556  1.00  0.00    -0.248 NA
ATOM     62  C   UNL     1      13.148  -3.182  23.583  1.00  0.00     0.031 C 
ATOM     63  C   UNL     1      17.651  -5.998  20.650  1.00  0.00     0.029 A 
ATOM     64  C   UNL     1      16.609  -5.139  20.960  1.00  0.00     0.049 A 
ATOM     65  H   UNL     1      15.618  -3.750  19.721  1.00  0.00     0.167 HD
ATOM     66  C   UNL     1      14.888  -4.131  22.430  1.00  0.00     0.074 A 
ATOM     67  C   UNL     1      14.162  -4.033  23.679  1.00  0.00     0.031 C 
ATOM     68  C   UNL     1      15.919  -4.985  22.214  1.00  0.00     0.034 A 
BRANCH  55  69
ATOM     69  C   UNL     1      18.038  -4.951  16.417  1.00  0.00     0.023 A 
ATOM     70  C   UNL     1      19.190  -4.252  16.004  1.00  0.00     0.012 A 
ATOM     71  C   UNL     1      17.802  -6.250  15.924  1.00  0.00     0.148 A 
ATOM     72  C   UNL     1      20.079  -4.822  15.095  1.00  0.00     0.002 A 
ATOM     73  C   UNL     1      18.715  -6.829  15.051  1.00  0.00     0.091 A 
ATOM     74  F   UNL     1      16.689  -6.888  16.311  1.00  0.00    -0.205 F 
ATOM     75  C   UNL     1      19.848  -6.114  14.628  1.00  0.00     0.022 A 
BRANCH  73  76
ATOM     76  S   UNL     1      18.549  -8.514  14.453  1.00  0.00     0.127 S 
ATOM     77  O   UNL     1      18.195  -8.296  13.051  1.00  0.00    -0.237 OA
ATOM     78  O   UNL     1      19.893  -9.051  14.666  1.00  0.00    -0.237 OA
ATOM     79  O   UNL     1      17.513  -9.130  15.271  1.00  0.00    -0.744 OA
ENDBRANCH  73  76
ENDBRANCH  55  69
BRANCH  56  80
ATOM     80  C   UNL     1      11.358  -1.024  22.712  1.00  0.00     0.023 A 
ATOM     81  C   UNL     1      11.757  -0.303  23.855  1.00  0.00     0.012 A 
ATOM     82  C   UNL     1       9.985  -1.205  22.460  1.00  0.00     0.148 A 
ATOM     83  C   UNL     1      10.809   0.197  24.748  1.00  0.00     0.002 A 
ATOM     84  C   UNL     1       9.044  -0.657  23.325  1.00  0.00     0.091 A 
ATOM     85  F   UNL     1       9.623  -1.906  21.376  1.00  0.00    -0.205 F 
ATOM     86  C   UNL     1       9.453   0.029  24.479  1.00  0.00     0.022 A 
BRANCH  84  87
ATOM     87  S   UNL     1       7.282  -0.713  22.978  1.00  0.00     0.127 S 
ATOM     88  O   UNL     1       6.831  -1.765  23.884  1.00  0.00    -0.237 OA
ATOM     89  O   UNL     1       6.854   0.639  23.341  1.00  0.00    -0.237 OA
ATOM     90  O   UNL     1       7.179  -1.007  21.555  1.00  0.00    -0.744 OA
ENDBRANCH  84  87
ENDBRANCH  56  80
BRANCH  68  91
ATOM     91  C   UNL     1      16.352  -5.863  23.357  1.00  0.00     0.023 A 
ATOM     92  C   UNL     1      15.552  -6.958  23.737  1.00  0.00     0.012 A 
ATOM     93  C   UNL     1      17.590  -5.654  23.995  1.00  0.00     0.148 A 
ATOM     94  C   UNL     1      15.965  -7.816  24.755  1.00  0.00     0.002 A 
ATOM     95  C   UNL     1      18.017  -6.541  24.976  1.00  0.00     0.091 A 
ATOM     96  F   UNL     1      18.327  -4.594  23.632  1.00  0.00    -0.205 F 
ATOM     97  C   UNL     1      17.201  -7.616  25.365  1.00  0.00     0.022 A 
BRANCH  95  98
ATOM     98  S   UNL     1      19.636  -6.413  25.744  1.00  0.00     0.127 S 
ATOM     99  O   UNL     1      19.301  -5.872  27.060  1.00  0.00    -0.237 OA
ATOM    100  O   UNL     1      20.088  -7.805  25.755  1.00  0.00    -0.237 OA
ATOM    101  O   UNL     1      20.417  -5.535  24.884  1.00  0.00    -0.744 OA
ENDBRANCH  95  98
ENDBRANCH  68  91
ENDBRANCH  42  43
ENDBRANCH  34  37
ENDBRANCH  32  33
ENDBRANCH  31  32
ENDBRANCH  30  31
ENDBRANCH   1  30
TORSDOF 20
