REMARK SMILES Cc1ccc(C)c(-c2cc(C(=O)NCCCCNC(=O)c3ccc(-c4c5nc(c(-c6cccc(S(=O)(=O)[O-])c6F)c6ccc([nH]6)c(-c6cccc(S(=O)(=O)[O-])c6F)c6nc(c(-c7cccc(S(=O)(=O)[O-])c7F)c7ccc4[nH]7)C=C6)C=C5)cc3)c3cc(C)ccc3n2)c1
REMARK SMILES IDX 16 1 15 2 14 3 13 4 11 5 12 6 10 8 8 9 9 10 91 11 90 12
REMARK SMILES IDX 84 13 89 14 85 15 88 16 86 17 87 18 7 19 1 20 2 21 3 22
REMARK SMILES IDX 92 23 4 24 5 25 6 26 17 27 18 28 19 29 20 31 21 32 22 33
REMARK SMILES IDX 83 34 23 35 82 36 24 37 25 38 26 39 76 40 27 41 81 42 75 43
REMARK SMILES IDX 77 44 28 45 80 46 74 47 73 48 29 50 61 51 41 52 60 53 42 54
REMARK SMILES IDX 45 55 59 56 78 57 43 58 44 59 58 61 79 62 46 63 30 64 31 65
REMARK SMILES IDX 39 66 32 67 34 68 40 69 33 70 35 71 36 72 37 73 38 74 62 75
REMARK SMILES IDX 63 76 71 77 64 78 66 79 72 80 65 81 67 82 68 83 69 84 70 85
REMARK SMILES IDX 47 86 48 87 56 88 49 89 51 90 57 91 50 92 52 93 53 94 54 95
REMARK SMILES IDX 55 96
REMARK H PARENT 13 7 18 30 77 49 45 60
REMARK Flexibility Score: inf
ROOT
ATOM      1  C   UNL     1      -2.200  10.249  -1.252  1.00  0.00     0.023 C 
ENDROOT
BRANCH   1   2
ATOM      2  C   UNL     1      -2.015   9.036  -0.335  1.00  0.00     0.023 C 
BRANCH   2   3
ATOM      3  C   UNL     1      -2.618   7.686  -0.702  1.00  0.00     0.116 C 
BRANCH   3   4
ATOM      4  N   UNL     1      -2.076   6.939  -1.818  1.00  0.00    -0.352 N 
ATOM      5  C   UNL     1      -1.947   5.569  -2.022  1.00  0.00     0.252 C 
ATOM      6  O   UNL     1      -1.441   5.223  -3.087  1.00  0.00    -0.269 OA
ATOM      7  H   UNL     1      -1.742   7.495  -2.558  1.00  0.00     0.163 HD
BRANCH   5   8
ATOM      8  C   UNL     1      -2.243   4.506  -0.997  1.00  0.00     0.051 A 
ATOM      9  C   UNL     1      -1.438   2.487   0.033  1.00  0.00     0.072 A 
ATOM     10  C   UNL     1      -1.389   3.392  -1.017  1.00  0.00     0.043 A 
ATOM     11  N   UNL     1      -2.186   2.718   1.138  1.00  0.00    -0.248 NA
ATOM     12  C   UNL     1      -3.049   3.742   1.127  1.00  0.00     0.072 A 
ATOM     13  C   UNL     1      -3.224   4.581   0.015  1.00  0.00     0.013 A 
ATOM     14  C   UNL     1      -3.780   4.003   2.277  1.00  0.00     0.029 A 
ATOM     15  C   UNL     1      -4.333   5.451   0.010  1.00  0.00     0.014 A 
ATOM     16  C   UNL     1      -4.697   5.054   2.343  1.00  0.00     0.005 A 
ATOM     17  C   UNL     1      -5.000   5.776   1.193  1.00  0.00    -0.050 A 
ATOM     18  C   UNL     1      -5.868   6.998   1.245  1.00  0.00     0.044 C 
BRANCH   9  19
ATOM     19  C   UNL     1      -0.711   1.206   0.026  1.00  0.00     0.003 A 
ATOM     20  C   UNL     1       2.928  -0.003   0.006  1.00  0.00     0.044 C 
ATOM     21  C   UNL     1       1.429  -0.005   0.024  1.00  0.00    -0.050 A 
ATOM     22  C   UNL     1       0.740  -1.219   0.019  1.00  0.00     0.004 A 
ATOM     23  C   UNL     1       0.700   1.195   0.031  1.00  0.00     0.014 A 
ATOM     24  C   UNL     1      -0.652  -1.235   0.013  1.00  0.00     0.004 A 
ATOM     25  C   UNL     1      -1.389  -0.037   0.007  1.00  0.00    -0.042 A 
ATOM     26  C   UNL     1      -2.892  -0.157  -0.032  1.00  0.00     0.045 C 
ENDBRANCH   9  19
ENDBRANCH   5   8
ENDBRANCH   3   4
ENDBRANCH   2   3
ENDBRANCH   1   2
BRANCH   1  27
ATOM     27  C   UNL     1      -3.584  10.533  -1.834  1.00  0.00     0.116 C 
BRANCH  27  28
ATOM     28  N   UNL     1      -4.666  10.730  -0.850  1.00  0.00    -0.352 N 
ATOM     29  C   UNL     1      -6.047  10.733  -1.041  1.00  0.00     0.251 C 
ATOM     30  H   UNL     1      -4.369  10.881   0.077  1.00  0.00     0.163 HD
ATOM     31  O   UNL     1      -6.773  11.355  -0.257  1.00  0.00    -0.269 OA
BRANCH  29  32
ATOM     32  C   UNL     1      -6.657   9.970  -2.154  1.00  0.00     0.039 A 
ATOM     33  C   UNL     1      -7.916  10.214  -2.713  1.00  0.00     0.014 A 
ATOM     34  C   UNL     1      -5.905   8.938  -2.667  1.00  0.00     0.014 A 
ATOM     35  C   UNL     1      -8.354   9.382  -3.754  1.00  0.00     0.010 A 
ATOM     36  C   UNL     1      -6.132   8.537  -3.940  1.00  0.00     0.010 A 
ATOM     37  C   UNL     1      -7.438   8.502  -4.343  1.00  0.00    -0.014 A 
BRANCH  37  38
ATOM     38  C   UNL     1      -7.696   7.667  -5.504  1.00  0.00     0.031 A 
ATOM     39  C   UNL     1      -7.943   8.487  -6.702  1.00  0.00     0.074 A 
ATOM     40  C   UNL     1      -7.449   6.336  -5.567  1.00  0.00     0.049 A 
ATOM     41  N   UNL     1      -9.097   8.863  -7.140  1.00  0.00    -0.248 NA
ATOM     42  C   UNL     1      -6.808   9.207  -7.301  1.00  0.00     0.031 C 
ATOM     43  C   UNL     1      -6.803   5.471  -4.568  1.00  0.00     0.029 A 
ATOM     44  N   UNL     1      -7.634   5.480  -6.612  1.00  0.00    -0.354 N 
ATOM     45  C   UNL     1      -8.806   9.597  -8.280  1.00  0.00     0.074 A 
ATOM     46  C   UNL     1      -7.455  10.050  -8.109  1.00  0.00     0.031 C 
ATOM     47  C   UNL     1      -6.470   4.286  -5.136  1.00  0.00     0.029 A 
ATOM     48  C   UNL     1      -6.997   4.243  -6.488  1.00  0.00     0.049 A 
ATOM     49  H   UNL     1      -8.177   5.716  -7.398  1.00  0.00     0.167 HD
ATOM     50  C   UNL     1      -9.550   9.430  -9.409  1.00  0.00     0.034 A 
ATOM     51  C   UNL     1      -6.885   3.287  -7.450  1.00  0.00     0.034 A 
ATOM     52  C   UNL     1     -10.739   8.654  -9.114  1.00  0.00     0.049 A 
ATOM     53  C   UNL     1      -7.930   3.572  -8.461  1.00  0.00     0.074 A 
ATOM     54  C   UNL     1     -11.784   8.761  -8.216  1.00  0.00     0.029 A 
ATOM     55  N   UNL     1     -10.718   7.340  -9.520  1.00  0.00    -0.354 N 
ATOM     56  N   UNL     1      -9.207   3.454  -8.233  1.00  0.00    -0.248 NA
ATOM     57  C   UNL     1      -7.568   4.413  -9.590  1.00  0.00     0.031 C 
ATOM     58  C   UNL     1     -12.050   7.424  -7.795  1.00  0.00     0.029 A 
ATOM     59  C   UNL     1     -11.230   6.559  -8.521  1.00  0.00     0.049 A 
ATOM     60  H   UNL     1     -10.387   7.014 -10.388  1.00  0.00     0.167 HD
ATOM     61  C   UNL     1      -9.761   4.569  -8.847  1.00  0.00     0.074 A 
ATOM     62  C   UNL     1      -8.729   5.049  -9.765  1.00  0.00     0.031 C 
ATOM     63  C   UNL     1     -10.869   5.171  -8.324  1.00  0.00     0.034 A 
BRANCH  50  64
ATOM     64  C   UNL     1      -9.036   9.547 -10.835  1.00  0.00     0.023 A 
ATOM     65  C   UNL     1      -9.995   9.358 -11.857  1.00  0.00     0.012 A 
ATOM     66  C   UNL     1      -7.681   9.569 -11.241  1.00  0.00     0.148 A 
ATOM     67  C   UNL     1      -9.626   9.108 -13.182  1.00  0.00     0.002 A 
ATOM     68  C   UNL     1      -7.320   9.393 -12.572  1.00  0.00     0.091 A 
ATOM     69  F   UNL     1      -6.700   9.650 -10.345  1.00  0.00    -0.205 F 
ATOM     70  C   UNL     1      -8.286   9.124 -13.540  1.00  0.00     0.022 A 
BRANCH  68  71
ATOM     71  S   UNL     1      -5.601   9.454 -13.104  1.00  0.00     0.127 S 
ATOM     72  O   UNL     1      -5.373   8.069 -13.509  1.00  0.00    -0.237 OA
ATOM     73  O   UNL     1      -5.668  10.420 -14.200  1.00  0.00    -0.237 OA
ATOM     74  O   UNL     1      -4.838   9.910 -11.950  1.00  0.00    -0.744 OA
ENDBRANCH  68  71
ENDBRANCH  50  64
BRANCH  51  75
ATOM     75  C   UNL     1      -5.838   2.267  -7.725  1.00  0.00     0.023 A 
ATOM     76  C   UNL     1      -6.125   1.190  -8.596  1.00  0.00     0.012 A 
ATOM     77  C   UNL     1      -4.486   2.515  -7.408  1.00  0.00     0.148 A 
ATOM     78  C   UNL     1      -5.102   0.425  -9.172  1.00  0.00     0.002 A 
ATOM     79  C   UNL     1      -3.472   1.750  -7.986  1.00  0.00     0.091 A 
ATOM     80  F   UNL     1      -4.193   3.558  -6.623  1.00  0.00    -0.205 F 
ATOM     81  C   UNL     1      -3.776   0.714  -8.877  1.00  0.00     0.022 A 
BRANCH  79  82
ATOM     82  S   UNL     1      -1.730   2.096  -7.696  1.00  0.00     0.127 S 
ATOM     83  O   UNL     1      -1.215   0.765  -7.352  1.00  0.00    -0.237 OA
ATOM     84  O   UNL     1      -1.303   2.586  -9.012  1.00  0.00    -0.237 OA
ATOM     85  O   UNL     1      -1.689   3.058  -6.622  1.00  0.00    -0.744 OA
ENDBRANCH  79  82
ENDBRANCH  51  75
BRANCH  63  86
ATOM     86  C   UNL     1     -11.675   4.414  -7.299  1.00  0.00     0.023 A 
ATOM     87  C   UNL     1     -11.167   4.028  -6.041  1.00  0.00     0.012 A 
ATOM     88  C   UNL     1     -13.043   4.238  -7.563  1.00  0.00     0.148 A 
ATOM     89  C   UNL     1     -12.009   3.463  -5.076  1.00  0.00     0.002 A 
ATOM     90  C   UNL     1     -13.885   3.729  -6.584  1.00  0.00     0.091 A 
ATOM     91  F   UNL     1     -13.506   4.599  -8.769  1.00  0.00    -0.205 F 
ATOM     92  C   UNL     1     -13.371   3.330  -5.341  1.00  0.00     0.022 A 
BRANCH  90  93
ATOM     93  S   UNL     1     -15.660   3.667  -6.832  1.00  0.00     0.127 S 
ATOM     94  O   UNL     1     -15.881   2.247  -7.097  1.00  0.00    -0.237 OA
ATOM     95  O   UNL     1     -16.174   4.138  -5.545  1.00  0.00    -0.237 OA
ATOM     96  O   UNL     1     -15.939   4.566  -7.945  1.00  0.00    -0.744 OA
ENDBRANCH  90  93
ENDBRANCH  63  86
ENDBRANCH  37  38
ENDBRANCH  29  32
ENDBRANCH  27  28
ENDBRANCH   1  27
TORSDOF 15
