REMARK SMILES Cc1occc1C(=O)NN1C(=O)/C(=C\c2ccc(O[C@H](C)C(=O)NCCCCNC(=O)c3ccc(-c4c5nc(c(-c6cccc(S(=O)(=O)[O-])c6F)c6ccc([nH]6)c(-c6cccc(S(=O)(=O)[O-])c6F)c6nc(c(-c7cccc(S(=O)(=O)[O-])c7F)c7ccc4[nH]7)C=C6)C=C5)cc3)cc2)SC1=S
REMARK SMILES IDX 25 1 24 2 22 3 23 4 20 6 21 7 19 8 18 9 15 10 16 11 96 12
REMARK SMILES IDX 17 13 95 14 14 15 10 16 11 17 98 18 12 19 13 20 97 21 99 22
REMARK SMILES IDX 9 23 7 24 8 25 6 27 1 28 2 29 3 30 4 31 5 32 26 33 27 34
REMARK SMILES IDX 28 35 29 36 30 37 31 39 32 40 33 41 94 42 34 43 93 44 35 45
REMARK SMILES IDX 36 46 37 47 87 48 38 49 92 50 86 51 88 52 39 53 91 54 85 55
REMARK SMILES IDX 84 56 40 58 72 59 52 60 71 61 53 62 56 63 70 64 89 65 54 66
REMARK SMILES IDX 55 67 69 69 90 70 57 71 41 72 42 73 50 74 43 75 45 76 51 77
REMARK SMILES IDX 44 78 46 79 47 80 48 81 49 82 73 83 74 84 82 85 75 86 77 87
REMARK SMILES IDX 83 88 76 89 78 90 79 91 80 92 81 93 58 94 59 95 67 96 60 97
REMARK SMILES IDX 62 98 68 99 61 100 63 101 64 102 65 103 66 104
REMARK H PARENT 24 5 9 26 29 38 88 57 56 68
REMARK Flexibility Score: inf
ROOT
ATOM      1  C   UNL     1       4.925  -2.322  -5.681  1.00  0.00     0.116 C 
ENDROOT
BRANCH   1   2
ATOM      2  N   UNL     1       5.493  -2.772  -6.929  1.00  0.00    -0.353 N 
ATOM      3  C   UNL     1       5.932  -3.998  -7.322  1.00  0.00     0.260 C 
ATOM      4  O   UNL     1       6.212  -4.117  -8.523  1.00  0.00    -0.271 OA
ATOM      5  H   UNL     1       5.576  -2.071  -7.615  1.00  0.00     0.163 HD
BRANCH   3   6
ATOM      6  C   UNL     1       6.208  -5.183  -6.353  1.00  0.00     0.258 C 
ATOM      7  C   UNL     1       7.636  -5.083  -5.820  1.00  0.00     0.064 C 
BRANCH   6   8
ATOM      8  O   UNL     1       5.198  -5.702  -5.498  1.00  0.00    -0.481 OA
BRANCH   8   9
ATOM      9  C   UNL     1       4.946  -5.301  -4.227  1.00  0.00     0.120 A 
ATOM     10  C   UNL     1       4.104  -4.449  -1.678  1.00  0.00    -0.024 A 
ATOM     11  C   UNL     1       5.445  -4.365  -2.055  1.00  0.00     0.012 A 
ATOM     12  C   UNL     1       3.175  -4.973  -2.577  1.00  0.00     0.012 A 
ATOM     13  C   UNL     1       5.864  -4.802  -3.313  1.00  0.00     0.047 A 
ATOM     14  C   UNL     1       3.604  -5.411  -3.837  1.00  0.00     0.047 A 
BRANCH  10  15
ATOM     15  C   UNL     1       3.780  -4.057  -0.305  1.00  0.00     0.029 C 
ATOM     16  N   UNL     1       3.198  -6.953   1.813  1.00  0.00    -0.198 N 
ATOM     17  C   UNL     1       3.483  -6.416   0.567  1.00  0.00     0.285 C 
ATOM     18  C   UNL     1       3.325  -6.140   2.918  1.00  0.00     0.168 C 
ATOM     19  O   UNL     1       3.634  -7.072  -0.449  1.00  0.00    -0.266 OA
ATOM     20  C   UNL     1       3.600  -4.934   0.691  1.00  0.00     0.082 C 
ATOM     21  S   UNL     1       3.525  -4.476   2.361  1.00  0.00    -0.052 SA
ATOM     22  S   UNL     1       3.322  -6.580   4.525  1.00  0.00    -0.050 S 
BRANCH  16  23
ATOM     23  N   UNL     1       3.039  -8.330   1.869  1.00  0.00    -0.254 N 
ATOM     24  C   UNL     1       1.859  -9.026   1.986  1.00  0.00     0.273 C 
ATOM     25  O   UNL     1       1.909 -10.240   1.771  1.00  0.00    -0.267 OA
ATOM     26  H   UNL     1       3.862  -8.869   1.820  1.00  0.00     0.192 HD
BRANCH  24  27
ATOM     27  C   UNL     1       0.621  -8.425   2.474  1.00  0.00     0.082 A 
ATOM     28  C   UNL     1       0.212  -6.007   1.417  1.00  0.00     0.088 C 
ATOM     29  C   UNL     1      -0.008  -7.207   2.248  1.00  0.00     0.113 A 
ATOM     30  O   UNL     1      -1.174  -7.140   2.960  1.00  0.00    -0.469 OA
ATOM     31  C   UNL     1      -1.346  -8.322   3.589  1.00  0.00     0.196 A 
ATOM     32  C   UNL     1      -0.296  -9.153   3.309  1.00  0.00     0.056 A 
ENDBRANCH  24  27
ENDBRANCH  16  23
ENDBRANCH  10  15
ENDBRANCH   8   9
ENDBRANCH   6   8
ENDBRANCH   3   6
ENDBRANCH   1   2
BRANCH   1  33
ATOM     33  C   UNL     1       5.920  -1.563  -4.807  1.00  0.00     0.023 C 
BRANCH  33  34
ATOM     34  C   UNL     1       5.940  -0.050  -5.046  1.00  0.00     0.023 C 
BRANCH  34  35
ATOM     35  C   UNL     1       4.608   0.668  -4.833  1.00  0.00     0.116 C 
BRANCH  35  36
ATOM     36  N   UNL     1       4.015   0.444  -3.521  1.00  0.00    -0.352 N 
ATOM     37  C   UNL     1       3.183   1.282  -2.813  1.00  0.00     0.251 C 
ATOM     38  H   UNL     1       4.235  -0.412  -3.088  1.00  0.00     0.163 HD
ATOM     39  O   UNL     1       2.831   0.988  -1.675  1.00  0.00    -0.269 OA
BRANCH  37  40
ATOM     40  C   UNL     1       2.760   2.561  -3.426  1.00  0.00     0.039 A 
ATOM     41  C   UNL     1       2.952   3.748  -2.717  1.00  0.00     0.014 A 
ATOM     42  C   UNL     1       2.237   2.590  -4.722  1.00  0.00     0.014 A 
ATOM     43  C   UNL     1       2.697   4.972  -3.341  1.00  0.00     0.010 A 
ATOM     44  C   UNL     1       2.051   3.810  -5.364  1.00  0.00     0.010 A 
ATOM     45  C   UNL     1       2.287   5.015  -4.685  1.00  0.00    -0.014 A 
BRANCH  45  46
ATOM     46  C   UNL     1       2.153   6.307  -5.406  1.00  0.00     0.031 A 
ATOM     47  C   UNL     1       0.821   6.752  -5.946  1.00  0.00     0.074 A 
ATOM     48  C   UNL     1       3.257   7.040  -5.658  1.00  0.00     0.049 A 
ATOM     49  N   UNL     1       0.525   7.839  -6.611  1.00  0.00    -0.248 NA
ATOM     50  C   UNL     1      -0.321   5.846  -5.740  1.00  0.00     0.031 C 
ATOM     51  C   UNL     1       4.623   6.667  -5.283  1.00  0.00     0.029 A 
ATOM     52  N   UNL     1       3.409   8.238  -6.310  1.00  0.00    -0.354 N 
ATOM     53  C   UNL     1      -0.824   7.737  -6.927  1.00  0.00     0.074 A 
ATOM     54  C   UNL     1      -1.281   6.463  -6.415  1.00  0.00     0.031 C 
ATOM     55  C   UNL     1       5.471   7.620  -5.700  1.00  0.00     0.029 A 
ATOM     56  C   UNL     1       4.716   8.662  -6.389  1.00  0.00     0.049 A 
ATOM     57  H   UNL     1       2.655   8.747  -6.686  1.00  0.00     0.167 HD
ATOM     58  C   UNL     1      -1.620   8.635  -7.555  1.00  0.00     0.034 A 
ATOM     59  C   UNL     1       5.247   9.768  -6.947  1.00  0.00     0.034 A 
ATOM     60  C   UNL     1      -1.175   9.921  -8.020  1.00  0.00     0.049 A 
ATOM     61  C   UNL     1       4.331  10.781  -7.579  1.00  0.00     0.074 A 
ATOM     62  C   UNL     1      -1.927  10.944  -8.572  1.00  0.00     0.029 A 
ATOM     63  N   UNL     1       0.139  10.361  -7.994  1.00  0.00    -0.354 N 
ATOM     64  N   UNL     1       3.025  10.751  -7.697  1.00  0.00    -0.248 NA
ATOM     65  C   UNL     1       4.955  11.998  -8.117  1.00  0.00     0.031 C 
ATOM     66  C   UNL     1      -1.063  11.997  -8.893  1.00  0.00     0.029 A 
ATOM     67  C   UNL     1       0.223  11.636  -8.527  1.00  0.00     0.049 A 
ATOM     68  H   UNL     1       0.901   9.843  -7.647  1.00  0.00     0.167 HD
ATOM     69  C   UNL     1       2.669  11.954  -8.296  1.00  0.00     0.074 A 
ATOM     70  C   UNL     1       3.894  12.702  -8.489  1.00  0.00     0.031 C 
ATOM     71  C   UNL     1       1.441  12.392  -8.669  1.00  0.00     0.034 A 
BRANCH  58  72
ATOM     72  C   UNL     1      -3.077   8.286  -7.712  1.00  0.00     0.023 A 
ATOM     73  C   UNL     1      -3.915   8.297  -6.578  1.00  0.00     0.012 A 
ATOM     74  C   UNL     1      -3.630   8.005  -8.976  1.00  0.00     0.148 A 
ATOM     75  C   UNL     1      -5.272   8.003  -6.693  1.00  0.00     0.002 A 
ATOM     76  C   UNL     1      -4.993   7.754  -9.089  1.00  0.00     0.091 A 
ATOM     77  F   UNL     1      -2.815   7.976 -10.040  1.00  0.00    -0.205 F 
ATOM     78  C   UNL     1      -5.813   7.742  -7.948  1.00  0.00     0.022 A 
BRANCH  76  79
ATOM     79  S   UNL     1      -5.799   7.480 -10.672  1.00  0.00     0.127 S 
ATOM     80  O   UNL     1      -6.068   6.044 -10.621  1.00  0.00    -0.237 OA
ATOM     81  O   UNL     1      -6.988   8.327 -10.564  1.00  0.00    -0.237 OA
ATOM     82  O   UNL     1      -4.843   7.905 -11.685  1.00  0.00    -0.744 OA
ENDBRANCH  76  79
ENDBRANCH  58  72
BRANCH  59  83
ATOM     83  C   UNL     1       6.713  10.017  -6.851  1.00  0.00     0.023 A 
ATOM     84  C   UNL     1       7.184  11.037  -6.001  1.00  0.00     0.012 A 
ATOM     85  C   UNL     1       7.642   9.232  -7.560  1.00  0.00     0.148 A 
ATOM     86  C   UNL     1       8.550  11.291  -5.882  1.00  0.00     0.002 A 
ATOM     87  C   UNL     1       9.005   9.455  -7.395  1.00  0.00     0.091 A 
ATOM     88  F   UNL     1       7.175   8.275  -8.375  1.00  0.00    -0.205 F 
ATOM     89  C   UNL     1       9.461  10.494  -6.570  1.00  0.00     0.022 A 
BRANCH  87  90
ATOM     90  S   UNL     1      10.246   8.387  -8.134  1.00  0.00     0.127 S 
ATOM     91  O   UNL     1      10.766   9.230  -9.207  1.00  0.00    -0.237 OA
ATOM     92  O   UNL     1      11.167   8.172  -7.017  1.00  0.00    -0.237 OA
ATOM     93  O   UNL     1       9.530   7.190  -8.555  1.00  0.00    -0.744 OA
ENDBRANCH  87  90
ENDBRANCH  59  83
BRANCH  71  94
ATOM     94  C   UNL     1       1.352  13.751  -9.310  1.00  0.00     0.023 A 
ATOM     95  C   UNL     1       1.812  13.929 -10.630  1.00  0.00     0.012 A 
ATOM     96  C   UNL     1       0.754  14.833  -8.635  1.00  0.00     0.148 A 
ATOM     97  C   UNL     1       1.709  15.170 -11.256  1.00  0.00     0.002 A 
ATOM     98  C   UNL     1       0.612  16.055  -9.282  1.00  0.00     0.091 A 
ATOM     99  F   UNL     1       0.341  14.651  -7.372  1.00  0.00    -0.205 F 
ATOM    100  C   UNL     1       1.099  16.229 -10.588  1.00  0.00     0.022 A 
BRANCH  98 101
ATOM    101  S   UNL     1      -0.243  17.444  -8.528  1.00  0.00     0.127 S 
ATOM    102  O   UNL     1       0.872  18.302  -8.132  1.00  0.00    -0.237 OA
ATOM    103  O   UNL     1      -1.044  17.960  -9.639  1.00  0.00    -0.237 OA
ATOM    104  O   UNL     1      -1.025  16.883  -7.435  1.00  0.00    -0.744 OA
ENDBRANCH  98 101
ENDBRANCH  71  94
ENDBRANCH  45  46
ENDBRANCH  37  40
ENDBRANCH  35  36
ENDBRANCH  34  35
ENDBRANCH  33  34
ENDBRANCH   1  33
TORSDOF 19
