REMARK SMILES C[NH+](C)CC(C)(C)CNc1cccc(F)c1C(=O)NCCCCNC(=O)c1ccc(-c2c3nc(c(-c4cccc(S(=O)(=O)[O-])c4F)c4ccc([nH]4)c(-c4cccc(S(=O)(=O)[O-])c4F)c4nc(c(-c5cccc(S(=O)(=O)[O-])c5F)c5ccc2[nH]5)C=C4)C=C3)cc1
REMARK SMILES IDX 20 1 19 2 17 3 18 4 16 6 10 7 11 8 12 9 14 10 13 11 15 12
REMARK SMILES IDX 9 13 8 15 5 16 6 17 7 18 4 19 2 20 1 21 3 22 21 24 22 25
REMARK SMILES IDX 23 26 24 27 25 28 26 30 27 31 28 32 89 33 29 34 88 35 30 36
REMARK SMILES IDX 31 37 32 38 82 39 33 40 87 41 81 42 83 43 34 44 86 45 80 46
REMARK SMILES IDX 79 47 35 49 67 50 47 51 66 52 48 53 51 54 65 55 84 56 49 57
REMARK SMILES IDX 50 58 64 60 85 61 52 62 36 63 37 64 45 65 38 66 40 67 46 68
REMARK SMILES IDX 39 69 41 70 42 71 43 72 44 73 68 74 69 75 77 76 70 77 72 78
REMARK SMILES IDX 78 79 71 80 73 81 74 82 75 83 76 84 53 85 54 86 62 87 55 88
REMARK SMILES IDX 57 89 63 90 56 91 58 92 59 93 60 94 61 95
REMARK H PARENT 19 5 9 14 2 23 24 29 83 48 51 59
REMARK Flexibility Score: inf
ROOT
ATOM      1  C   UNL     1      -1.649   6.702   2.593  1.00  0.00     0.116 C 
ENDROOT
BRANCH   1   2
ATOM      2  N   UNL     1      -0.899   5.579   3.118  1.00  0.00    -0.352 N 
ATOM      3  C   UNL     1      -1.071   4.219   3.067  1.00  0.00     0.256 C 
ATOM      4  O   UNL     1      -0.279   3.573   3.759  1.00  0.00    -0.269 OA
ATOM      5  H   UNL     1      -0.095   5.849   3.617  1.00  0.00     0.163 HD
BRANCH   3   6
ATOM      6  C   UNL     1      -2.160   3.503   2.321  1.00  0.00     0.098 A 
ATOM      7  C   UNL     1      -2.495   2.166   2.682  1.00  0.00     0.050 A 
ATOM      8  C   UNL     1      -3.617   1.552   2.088  1.00  0.00     0.027 A 
ATOM      9  C   UNL     1      -4.348   2.186   1.090  1.00  0.00     0.005 A 
ATOM     10  C   UNL     1      -2.818   4.046   1.214  1.00  0.00     0.138 A 
ATOM     11  C   UNL     1      -3.918   3.418   0.623  1.00  0.00     0.040 A 
ATOM     12  F   UNL     1      -2.352   5.132   0.580  1.00  0.00    -0.206 F 
BRANCH   7  13
ATOM     13  N   UNL     1      -1.671   1.392   3.512  1.00  0.00    -0.384 N 
ATOM     14  H   UNL     1      -1.435   1.717   4.411  1.00  0.00     0.160 HD
BRANCH  13  15
ATOM     15  C   UNL     1      -1.161   0.100   3.045  1.00  0.00     0.125 C 
BRANCH  15  16
ATOM     16  C   UNL     1       0.379   0.053   2.823  1.00  0.00     0.031 C 
ATOM     17  C   UNL     1       0.755  -1.402   2.472  1.00  0.00     0.019 C 
ATOM     18  C   UNL     1       1.098   0.366   4.162  1.00  0.00     0.019 C 
BRANCH  16  19
ATOM     19  C   UNL     1       0.932   1.052   1.747  1.00  0.00     0.269 C 
BRANCH  19  20
ATOM     20  N   UNL     1       0.707   0.942   0.300  1.00  0.00    -0.339 N 
ATOM     21  C   UNL     1       1.340  -0.168  -0.381  1.00  0.00     0.332 C 
ATOM     22  C   UNL     1      -0.634   1.208  -0.171  1.00  0.00     0.332 C 
ATOM     23  H   UNL     1       1.246   1.754  -0.002  1.00  0.00     0.347 HD
ENDBRANCH  19  20
ENDBRANCH  16  19
ENDBRANCH  15  16
ENDBRANCH  13  15
ENDBRANCH   7  13
ENDBRANCH   3   6
ENDBRANCH   1   2
BRANCH   1  24
ATOM     24  C   UNL     1      -1.983   7.748   3.651  1.00  0.00     0.023 C 
BRANCH  24  25
ATOM     25  C   UNL     1      -0.804   8.449   4.319  1.00  0.00     0.023 C 
BRANCH  25  26
ATOM     26  C   UNL     1       0.224   9.084   3.388  1.00  0.00     0.116 C 
BRANCH  26  27
ATOM     27  N   UNL     1      -0.352   9.985   2.400  1.00  0.00    -0.352 N 
ATOM     28  C   UNL     1       0.038  11.254   2.041  1.00  0.00     0.251 C 
ATOM     29  H   UNL     1      -1.135   9.634   1.917  1.00  0.00     0.163 HD
ATOM     30  O   UNL     1      -0.626  11.892   1.227  1.00  0.00    -0.269 OA
BRANCH  28  31
ATOM     31  C   UNL     1       1.232  11.865   2.664  1.00  0.00     0.039 A 
ATOM     32  C   UNL     1       1.139  13.165   3.169  1.00  0.00     0.014 A 
ATOM     33  C   UNL     1       2.427  11.152   2.778  1.00  0.00     0.014 A 
ATOM     34  C   UNL     1       2.219  13.719   3.860  1.00  0.00     0.010 A 
ATOM     35  C   UNL     1       3.473  11.674   3.533  1.00  0.00     0.010 A 
ATOM     36  C   UNL     1       3.381  12.961   4.084  1.00  0.00    -0.014 A 
BRANCH  36  37
ATOM     37  C   UNL     1       4.502  13.488   4.905  1.00  0.00     0.031 A 
ATOM     38  C   UNL     1       5.862  13.685   4.292  1.00  0.00     0.074 A 
ATOM     39  C   UNL     1       4.321  13.701   6.224  1.00  0.00     0.049 A 
ATOM     40  N   UNL     1       6.973  14.072   4.862  1.00  0.00    -0.248 NA
ATOM     41  C   UNL     1       6.000  13.381   2.857  1.00  0.00     0.031 C 
ATOM     42  C   UNL     1       3.073  13.466   6.954  1.00  0.00     0.029 A 
ATOM     43  N   UNL     1       5.192  14.139   7.191  1.00  0.00    -0.354 N 
ATOM     44  C   UNL     1       7.946  14.021   3.871  1.00  0.00     0.074 A 
ATOM     45  C   UNL     1       7.303  13.533   2.671  1.00  0.00     0.031 C 
ATOM     46  C   UNL     1       3.255  13.774   8.248  1.00  0.00     0.029 A 
ATOM     47  C   UNL     1       4.637  14.202   8.448  1.00  0.00     0.049 A 
ATOM     48  H   UNL     1       6.126  14.386   7.002  1.00  0.00     0.167 HD
ATOM     49  C   UNL     1       9.248  14.384   3.943  1.00  0.00     0.034 A 
ATOM     50  C   UNL     1       5.177  14.563   9.630  1.00  0.00     0.034 A 
ATOM     51  C   UNL     1       9.865  14.932   5.119  1.00  0.00     0.049 A 
ATOM     52  C   UNL     1       6.612  15.015   9.671  1.00  0.00     0.074 A 
ATOM     53  C   UNL     1      11.150  15.425   5.261  1.00  0.00     0.029 A 
ATOM     54  N   UNL     1       9.247  15.062   6.352  1.00  0.00    -0.354 N 
ATOM     55  N   UNL     1       7.473  15.111   8.687  1.00  0.00    -0.248 NA
ATOM     56  C   UNL     1       7.144  15.439  10.976  1.00  0.00     0.031 C 
ATOM     57  C   UNL     1      11.313  15.841   6.585  1.00  0.00     0.029 A 
ATOM     58  C   UNL     1      10.125  15.621   7.263  1.00  0.00     0.049 A 
ATOM     59  H   UNL     1       8.320  14.795   6.551  1.00  0.00     0.167 HD
ATOM     60  C   UNL     1       8.636  15.631   9.244  1.00  0.00     0.074 A 
ATOM     61  C   UNL     1       8.364  15.849  10.650  1.00  0.00     0.031 C 
ATOM     62  C   UNL     1       9.825  15.886   8.647  1.00  0.00     0.034 A 
BRANCH  49  63
ATOM     63  C   UNL     1      10.080  14.279   2.693  1.00  0.00     0.023 A 
ATOM     64  C   UNL     1       9.870  15.199   1.646  1.00  0.00     0.012 A 
ATOM     65  C   UNL     1      11.121  13.336   2.587  1.00  0.00     0.148 A 
ATOM     66  C   UNL     1      10.665  15.168   0.502  1.00  0.00     0.002 A 
ATOM     67  C   UNL     1      11.938  13.340   1.462  1.00  0.00     0.091 A 
ATOM     68  F   UNL     1      11.293  12.458   3.585  1.00  0.00    -0.205 F 
ATOM     69  C   UNL     1      11.705  14.248   0.416  1.00  0.00     0.022 A 
BRANCH  67  70
ATOM     70  S   UNL     1      13.357  12.252   1.288  1.00  0.00     0.127 S 
ATOM     71  O   UNL     1      12.911  11.353   0.224  1.00  0.00    -0.237 OA
ATOM     72  O   UNL     1      14.414  13.185   0.894  1.00  0.00    -0.237 OA
ATOM     73  O   UNL     1      13.550  11.629   2.590  1.00  0.00    -0.744 OA
ENDBRANCH  67  70
ENDBRANCH  49  63
BRANCH  50  74
ATOM     74  C   UNL     1       4.322  14.597  10.851  1.00  0.00     0.023 A 
ATOM     75  C   UNL     1       3.943  15.843  11.387  1.00  0.00     0.012 A 
ATOM     76  C   UNL     1       3.829  13.417  11.441  1.00  0.00     0.148 A 
ATOM     77  C   UNL     1       3.104  15.915  12.499  1.00  0.00     0.002 A 
ATOM     78  C   UNL     1       2.949  13.496  12.516  1.00  0.00     0.091 A 
ATOM     79  F   UNL     1       4.210  12.241  10.924  1.00  0.00    -0.205 F 
ATOM     80  C   UNL     1       2.597  14.743  13.056  1.00  0.00     0.022 A 
BRANCH  78  81
ATOM     81  S   UNL     1       2.138  12.051  13.210  1.00  0.00     0.127 S 
ATOM     82  O   UNL     1       2.773  11.953  14.522  1.00  0.00    -0.237 OA
ATOM     83  O   UNL     1       0.737  12.473  13.233  1.00  0.00    -0.237 OA
ATOM     84  O   UNL     1       2.421  10.960  12.288  1.00  0.00    -0.744 OA
ENDBRANCH  78  81
ENDBRANCH  50  74
BRANCH  62  85
ATOM     85  C   UNL     1      10.940  16.445   9.491  1.00  0.00     0.023 A 
ATOM     86  C   UNL     1      11.628  15.596  10.379  1.00  0.00     0.012 A 
ATOM     87  C   UNL     1      11.392  17.767   9.304  1.00  0.00     0.148 A 
ATOM     88  C   UNL     1      12.743  16.056  11.077  1.00  0.00     0.002 A 
ATOM     89  C   UNL     1      12.532  18.204   9.968  1.00  0.00     0.091 A 
ATOM     90  F   UNL     1      10.713  18.562   8.465  1.00  0.00    -0.205 F 
ATOM     91  C   UNL     1      13.204  17.353  10.861  1.00  0.00     0.022 A 
BRANCH  89  92
ATOM     92  S   UNL     1      13.261  19.821   9.675  1.00  0.00     0.127 S 
ATOM     93  O   UNL     1      12.977  20.507  10.934  1.00  0.00    -0.237 OA
ATOM     94  O   UNL     1      14.670  19.492   9.463  1.00  0.00    -0.237 OA
ATOM     95  O   UNL     1      12.583  20.362   8.505  1.00  0.00    -0.744 OA
ENDBRANCH  89  92
ENDBRANCH  62  85
ENDBRANCH  36  37
ENDBRANCH  28  31
ENDBRANCH  26  27
ENDBRANCH  25  26
ENDBRANCH  24  25
ENDBRANCH   1  24
TORSDOF 19
