REMARK SMILES Cc1cccc(C(=O)NCCCCNC(=O)c2ccc(-c3c4nc(c(-c5cccc(S(=O)(=O)[O-])c5F)c5ccc([nH]5)c(-c5cccc(S(=O)(=O)[O-])c5F)c5nc(c(-c6cccc(S(=O)(=O)[O-])c6F)c6ccc3[nH]6)C=C5)C=C4)cc2)c1OC[C@@H]1C[C@H]2CC[C@@H]1C2
REMARK SMILES IDX 11 1 10 2 9 3 7 4 8 5 6 7 1 8 2 9 3 10 80 11 4 12 5 13 81 14
REMARK SMILES IDX 82 15 83 16 84 17 88 18 85 19 87 20 89 21 86 22 12 23 13 24
REMARK SMILES IDX 14 25 15 26 16 28 17 29 18 30 79 31 19 32 78 33 20 34 21 35
REMARK SMILES IDX 22 36 72 37 23 38 77 39 71 40 73 41 24 42 76 43 70 44 69 45
REMARK SMILES IDX 25 47 57 48 37 49 56 50 38 51 41 52 55 53 74 54 39 55 40 56
REMARK SMILES IDX 54 58 75 59 42 60 26 61 27 62 35 63 28 64 30 65 36 66 29 67
REMARK SMILES IDX 31 68 32 69 33 70 34 71 58 72 59 73 67 74 60 75 62 76 68 77
REMARK SMILES IDX 61 78 63 79 64 80 65 81 66 82 43 83 44 84 52 85 45 86 47 87
REMARK SMILES IDX 53 88 46 89 48 90 49 91 50 92 51 93
REMARK H PARENT 9 6 14 27 73 46 41 57
REMARK Flexibility Score: inf
ROOT
ATOM      1  C   UNL     1       0.683   4.446  -1.379  1.00  0.00     0.023 C 
ENDROOT
BRANCH   1   2
ATOM      2  C   UNL     1       0.116   4.208   0.025  1.00  0.00     0.116 C 
BRANCH   2   3
ATOM      3  N   UNL     1      -1.201   3.638  -0.045  1.00  0.00    -0.352 N 
ATOM      4  C   UNL     1      -1.674   2.363  -0.135  1.00  0.00     0.255 C 
ATOM      5  O   UNL     1      -2.901   2.301  -0.302  1.00  0.00    -0.269 OA
ATOM      6  H   UNL     1      -1.916   4.314  -0.025  1.00  0.00     0.163 HD
BRANCH   4   7
ATOM      7  C   UNL     1      -0.913   1.062  -0.041  1.00  0.00     0.082 A 
ATOM      8  C   UNL     1       1.941  -1.102  -1.389  1.00  0.00     0.048 C 
ATOM      9  C   UNL     1       0.764  -0.625  -0.580  1.00  0.00    -0.008 A 
ATOM     10  C   UNL     1      -0.132  -1.641  -0.194  1.00  0.00     0.007 A 
ATOM     11  C   UNL     1       0.425   0.738  -0.391  1.00  0.00     0.134 A 
ATOM     12  C   UNL     1      -1.393  -1.332   0.276  1.00  0.00     0.001 A 
ATOM     13  C   UNL     1      -1.783  -0.002   0.318  1.00  0.00     0.018 A 
BRANCH  11  14
ATOM     14  O   UNL     1       1.304   1.724  -0.710  1.00  0.00    -0.492 OA
BRANCH  14  15
ATOM     15  C   UNL     1       2.640   1.822  -0.159  1.00  0.00     0.233 C 
BRANCH  15  16
ATOM     16  C   UNL     1       2.927   1.299   1.264  1.00  0.00     0.030 C 
ATOM     17  C   UNL     1       3.875   2.245   2.065  1.00  0.00     0.011 C 
ATOM     18  C   UNL     1       3.774  -0.005   1.270  1.00  0.00    -0.004 C 
ATOM     19  C   UNL     1       5.031   1.330   2.513  1.00  0.00    -0.010 C 
ATOM     20  C   UNL     1       3.670  -0.645   2.662  1.00  0.00     0.004 C 
ATOM     21  C   UNL     1       5.224   0.485   1.264  1.00  0.00     0.007 C 
ATOM     22  C   UNL     1       4.515   0.296   3.527  1.00  0.00     0.004 C 
ENDBRANCH  15  16
ENDBRANCH  14  15
ENDBRANCH  11  14
ENDBRANCH   4   7
ENDBRANCH   2   3
ENDBRANCH   1   2
BRANCH   1  23
ATOM     23  C   UNL     1       0.047   5.578  -2.200  1.00  0.00     0.023 C 
BRANCH  23  24
ATOM     24  C   UNL     1       0.345   6.990  -1.721  1.00  0.00     0.116 C 
BRANCH  24  25
ATOM     25  N   UNL     1       1.781   7.232  -1.632  1.00  0.00    -0.352 N 
ATOM     26  C   UNL     1       2.475   8.231  -0.990  1.00  0.00     0.251 C 
ATOM     27  H   UNL     1       2.341   6.577  -2.107  1.00  0.00     0.163 HD
ATOM     28  O   UNL     1       3.527   8.613  -1.501  1.00  0.00    -0.269 OA
BRANCH  26  29
ATOM     29  C   UNL     1       2.034   8.737   0.326  1.00  0.00     0.039 A 
ATOM     30  C   UNL     1       2.700   9.795   0.961  1.00  0.00     0.014 A 
ATOM     31  C   UNL     1       1.103   7.998   1.039  1.00  0.00     0.014 A 
ATOM     32  C   UNL     1       2.556   9.964   2.339  1.00  0.00     0.010 A 
ATOM     33  C   UNL     1       0.770   8.320   2.313  1.00  0.00     0.010 A 
ATOM     34  C   UNL     1       1.652   9.145   3.000  1.00  0.00    -0.014 A 
BRANCH  34  35
ATOM     35  C   UNL     1       1.604   8.850   4.417  1.00  0.00     0.031 A 
ATOM     36  C   UNL     1       0.762   9.684   5.280  1.00  0.00     0.074 A 
ATOM     37  C   UNL     1       1.887   7.547   4.690  1.00  0.00     0.049 A 
ATOM     38  N   UNL     1       0.571   9.442   6.526  1.00  0.00    -0.248 NA
ATOM     39  C   UNL     1       0.048  10.866   4.800  1.00  0.00     0.031 C 
ATOM     40  C   UNL     1       1.262   6.690   5.689  1.00  0.00     0.029 A 
ATOM     41  N   UNL     1       2.777   6.669   4.048  1.00  0.00    -0.354 N 
ATOM     42  C   UNL     1      -0.512  10.195   6.916  1.00  0.00     0.074 A 
ATOM     43  C   UNL     1      -0.682  11.178   5.877  1.00  0.00     0.031 C 
ATOM     44  C   UNL     1       1.968   5.549   5.783  1.00  0.00     0.029 A 
ATOM     45  C   UNL     1       3.188   5.750   5.019  1.00  0.00     0.049 A 
ATOM     46  H   UNL     1       3.056   6.695   3.103  1.00  0.00     0.167 HD
ATOM     47  C   UNL     1      -1.225   9.779   7.997  1.00  0.00     0.034 A 
ATOM     48  C   UNL     1       4.445   5.773   5.566  1.00  0.00     0.034 A 
ATOM     49  C   UNL     1      -0.534   8.658   8.662  1.00  0.00     0.049 A 
ATOM     50  C   UNL     1       4.433   6.144   7.046  1.00  0.00     0.074 A 
ATOM     51  C   UNL     1      -0.750   7.292   8.690  1.00  0.00     0.029 A 
ATOM     52  N   UNL     1       0.756   8.857   9.153  1.00  0.00    -0.354 N 
ATOM     53  N   UNL     1       3.367   6.513   7.705  1.00  0.00    -0.248 NA
ATOM     54  C   UNL     1       5.616   6.128   7.902  1.00  0.00     0.031 C 
ATOM     55  C   UNL     1       0.477   6.667   9.070  1.00  0.00     0.029 A 
ATOM     56  C   UNL     1       1.420   7.651   9.331  1.00  0.00     0.049 A 
ATOM     57  H   UNL     1       1.145   9.740   9.348  1.00  0.00     0.167 HD
ATOM     58  C   UNL     1       3.704   6.949   8.956  1.00  0.00     0.074 A 
ATOM     59  C   UNL     1       5.109   6.582   9.064  1.00  0.00     0.031 C 
ATOM     60  C   UNL     1       2.825   7.636   9.757  1.00  0.00     0.034 A 
BRANCH  47  61
ATOM     61  C   UNL     1      -2.618  10.244   8.389  1.00  0.00     0.023 A 
ATOM     62  C   UNL     1      -3.122   9.771   9.620  1.00  0.00     0.012 A 
ATOM     63  C   UNL     1      -3.509  11.037   7.619  1.00  0.00     0.148 A 
ATOM     64  C   UNL     1      -4.418  10.062  10.065  1.00  0.00     0.002 A 
ATOM     65  C   UNL     1      -4.778  11.387   8.094  1.00  0.00     0.091 A 
ATOM     66  F   UNL     1      -3.190  11.389   6.371  1.00  0.00    -0.205 F 
ATOM     67  C   UNL     1      -5.242  10.886   9.312  1.00  0.00     0.022 A 
BRANCH  65  68
ATOM     68  S   UNL     1      -5.881  12.498   7.197  1.00  0.00     0.127 S 
ATOM     69  O   UNL     1      -6.958  11.598   6.784  1.00  0.00    -0.237 OA
ATOM     70  O   UNL     1      -6.261  13.465   8.228  1.00  0.00    -0.237 OA
ATOM     71  O   UNL     1      -5.095  13.064   6.107  1.00  0.00    -0.744 OA
ENDBRANCH  65  68
ENDBRANCH  47  61
BRANCH  48  72
ATOM     72  C   UNL     1       5.504   6.148   4.575  1.00  0.00     0.023 A 
ATOM     73  C   UNL     1       5.754   5.213   3.545  1.00  0.00     0.012 A 
ATOM     74  C   UNL     1       5.849   7.495   4.366  1.00  0.00     0.148 A 
ATOM     75  C   UNL     1       6.147   5.636   2.273  1.00  0.00     0.002 A 
ATOM     76  C   UNL     1       6.227   7.914   3.089  1.00  0.00     0.091 A 
ATOM     77  F   UNL     1       5.713   8.355   5.383  1.00  0.00    -0.205 F 
ATOM     78  C   UNL     1       6.327   6.994   2.033  1.00  0.00     0.022 A 
BRANCH  76  79
ATOM     79  S   UNL     1       6.439   9.657   2.697  1.00  0.00     0.127 S 
ATOM     80  O   UNL     1       7.898   9.789   2.741  1.00  0.00    -0.237 OA
ATOM     81  O   UNL     1       5.866   9.748   1.350  1.00  0.00    -0.237 OA
ATOM     82  O   UNL     1       5.698  10.372   3.709  1.00  0.00    -0.744 OA
ENDBRANCH  76  79
ENDBRANCH  48  72
BRANCH  60  83
ATOM     83  C   UNL     1       3.225   8.390  11.019  1.00  0.00     0.023 A 
ATOM     84  C   UNL     1       4.556   8.771  11.282  1.00  0.00     0.012 A 
ATOM     85  C   UNL     1       2.246   8.871  11.928  1.00  0.00     0.148 A 
ATOM     86  C   UNL     1       4.915   9.498  12.423  1.00  0.00     0.002 A 
ATOM     87  C   UNL     1       2.592   9.712  12.984  1.00  0.00     0.091 A 
ATOM     88  F   UNL     1       0.965   8.501  11.795  1.00  0.00    -0.205 F 
ATOM     89  C   UNL     1       3.930   9.990  13.263  1.00  0.00     0.022 A 
BRANCH  87  90
ATOM     90  S   UNL     1       1.334  10.606  13.908  1.00  0.00     0.127 S 
ATOM     91  O   UNL     1       1.133   9.739  15.065  1.00  0.00    -0.237 OA
ATOM     92  O   UNL     1       2.004  11.874  14.204  1.00  0.00    -0.237 OA
ATOM     93  O   UNL     1       0.208  10.730  12.990  1.00  0.00    -0.744 OA
ENDBRANCH  87  90
ENDBRANCH  60  83
ENDBRANCH  34  35
ENDBRANCH  26  29
ENDBRANCH  24  25
ENDBRANCH  23  24
ENDBRANCH   1  23
TORSDOF 17
