REMARK SMILES C[C@H]1CCCC[C@@H]1n1c(SCC(=O)NCCCCNC(=O)c2ccc(-c3c4nc(c(-c5cccc(S(=O)(=O)[O-])c5F)c5ccc([nH]5)c(-c5cccc(S(=O)(=O)[O-])c5F)c5nc(c(-c6cccc(S(=O)(=O)[O-])c6F)c6ccc3[nH]6)C=C5)C=C4)cc2)nc2ccccc2c1=O
REMARK SMILES IDX 16 1 15 2 14 3 12 4 13 5 11 7 10 8 9 9 8 10 92 11 85 12
REMARK SMILES IDX 91 13 93 14 86 15 90 16 87 17 89 18 88 19 7 20 1 21 2 22
REMARK SMILES IDX 3 23 4 24 6 25 5 26 17 27 18 28 19 29 20 30 21 32 22 33
REMARK SMILES IDX 23 34 84 35 24 36 83 37 25 38 26 39 27 40 77 41 28 42 82 43
REMARK SMILES IDX 76 44 78 45 29 46 81 47 75 48 74 49 30 51 62 52 42 53 61 54
REMARK SMILES IDX 43 55 46 56 60 57 79 58 44 59 45 60 59 62 80 63 47 64 31 65
REMARK SMILES IDX 32 66 40 67 33 68 35 69 41 70 34 71 36 72 37 73 38 74 39 75
REMARK SMILES IDX 63 76 64 77 72 78 65 79 67 80 73 81 66 82 68 83 69 84 70 85
REMARK SMILES IDX 71 86 48 87 49 88 57 89 50 90 52 91 58 92 51 93 53 94 54 95
REMARK SMILES IDX 55 96 56 97
REMARK H PARENT 14 6 19 31 78 50 46 61
REMARK Flexibility Score: inf
ROOT
ATOM      1  C   UNL     1      -2.236  -5.476   2.725  1.00  0.00     0.023 C 
ENDROOT
BRANCH   1   2
ATOM      2  C   UNL     1      -3.135  -4.810   1.693  1.00  0.00     0.116 C 
BRANCH   2   3
ATOM      3  N   UNL     1      -3.009  -3.374   1.680  1.00  0.00    -0.355 N 
ATOM      4  C   UNL     1      -3.051  -2.563   0.601  1.00  0.00     0.230 C 
ATOM      5  O   UNL     1      -3.672  -1.502   0.745  1.00  0.00    -0.274 OA
ATOM      6  H   UNL     1      -2.878  -2.937   2.553  1.00  0.00     0.163 HD
BRANCH   4   7
ATOM      7  C   UNL     1      -2.445  -2.885  -0.743  1.00  0.00     0.178 C 
BRANCH   7   8
ATOM      8  S   UNL     1      -0.907  -3.731  -0.983  1.00  0.00    -0.078 SA
BRANCH   8   9
ATOM      9  C   UNL     1       0.507  -3.371  -0.027  1.00  0.00     0.172 A 
ATOM     10  N   UNL     1       1.019  -2.122   0.342  1.00  0.00    -0.284 N 
ATOM     11  C   UNL     1       2.062  -2.120   1.270  1.00  0.00     0.262 A 
ATOM     12  N   UNL     1       1.176  -4.472   0.161  1.00  0.00    -0.224 NA
ATOM     13  C   UNL     1       2.997  -3.244   1.173  1.00  0.00     0.066 A 
ATOM     14  O   UNL     1       2.280  -1.248   2.107  1.00  0.00    -0.269 OA
ATOM     15  C   UNL     1       2.497  -4.402   0.607  1.00  0.00     0.079 A 
ATOM     16  C   UNL     1       4.351  -3.116   1.507  1.00  0.00     0.016 A 
ATOM     17  C   UNL     1       3.368  -5.472   0.385  1.00  0.00     0.029 A 
ATOM     18  C   UNL     1       5.220  -4.178   1.255  1.00  0.00     0.001 A 
ATOM     19  C   UNL     1       4.727  -5.359   0.699  1.00  0.00     0.002 A 
BRANCH  10  20
ATOM     20  C   UNL     1       0.506  -0.805  -0.101  1.00  0.00     0.096 C 
ATOM     21  C   UNL     1       2.802   0.292  -0.737  1.00  0.00     0.010 C 
ATOM     22  C   UNL     1       1.455   0.449  -0.033  1.00  0.00     0.009 C 
ATOM     23  C   UNL     1       0.751   1.718  -0.582  1.00  0.00     0.005 C 
ATOM     24  C   UNL     1      -0.661   1.946  -0.037  1.00  0.00     0.000 C 
ATOM     25  C   UNL     1      -0.714  -0.402   0.714  1.00  0.00     0.026 C 
ATOM     26  C   UNL     1      -1.484   0.669  -0.045  1.00  0.00     0.002 C 
ENDBRANCH  10  20
ENDBRANCH   8   9
ENDBRANCH   7   8
ENDBRANCH   4   7
ENDBRANCH   2   3
ENDBRANCH   1   2
BRANCH   1  27
ATOM     27  C   UNL     1      -2.343  -4.951   4.160  1.00  0.00     0.023 C 
BRANCH  27  28
ATOM     28  C   UNL     1      -3.748  -4.766   4.721  1.00  0.00     0.116 C 
BRANCH  28  29
ATOM     29  N   UNL     1      -4.579  -5.957   4.635  1.00  0.00    -0.352 N 
ATOM     30  C   UNL     1      -5.300  -6.595   5.619  1.00  0.00     0.251 C 
ATOM     31  H   UNL     1      -4.634  -6.367   3.741  1.00  0.00     0.163 HD
ATOM     32  O   UNL     1      -5.883  -7.645   5.370  1.00  0.00    -0.269 OA
BRANCH  30  33
ATOM     33  C   UNL     1      -5.319  -6.029   6.983  1.00  0.00     0.039 A 
ATOM     34  C   UNL     1      -5.571  -4.670   7.180  1.00  0.00     0.014 A 
ATOM     35  C   UNL     1      -5.000  -6.853   8.065  1.00  0.00     0.014 A 
ATOM     36  C   UNL     1      -5.303  -4.100   8.418  1.00  0.00     0.010 A 
ATOM     37  C   UNL     1      -4.828  -6.290   9.332  1.00  0.00     0.010 A 
ATOM     38  C   UNL     1      -4.915  -4.900   9.506  1.00  0.00    -0.014 A 
BRANCH  38  39
ATOM     39  C   UNL     1      -4.597  -4.261  10.810  1.00  0.00     0.031 A 
ATOM     40  C   UNL     1      -3.219  -4.366  11.411  1.00  0.00     0.074 A 
ATOM     41  C   UNL     1      -5.551  -3.549  11.440  1.00  0.00     0.049 A 
ATOM     42  N   UNL     1      -2.776  -3.867  12.537  1.00  0.00    -0.248 NA
ATOM     43  C   UNL     1      -2.206  -5.127  10.659  1.00  0.00     0.031 C 
ATOM     44  C   UNL     1      -6.926  -3.380  10.965  1.00  0.00     0.029 A 
ATOM     45  N   UNL     1      -5.511  -2.827  12.605  1.00  0.00    -0.354 N 
ATOM     46  C   UNL     1      -1.455  -4.285  12.649  1.00  0.00     0.074 A 
ATOM     47  C   UNL     1      -1.165  -5.086  11.480  1.00  0.00     0.031 C 
ATOM     48  C   UNL     1      -7.587  -2.574  11.807  1.00  0.00     0.029 A 
ATOM     49  C   UNL     1      -6.705  -2.220  12.914  1.00  0.00     0.049 A 
ATOM     50  H   UNL     1      -4.706  -2.751  13.166  1.00  0.00     0.167 HD
ATOM     51  C   UNL     1      -0.560  -4.011  13.627  1.00  0.00     0.034 A 
ATOM     52  C   UNL     1      -7.064  -1.476  13.977  1.00  0.00     0.034 A 
ATOM     53  C   UNL     1      -0.834  -3.175  14.764  1.00  0.00     0.049 A 
ATOM     54  C   UNL     1      -6.058  -1.194  15.051  1.00  0.00     0.074 A 
ATOM     55  C   UNL     1       0.029  -2.803  15.780  1.00  0.00     0.029 A 
ATOM     56  N   UNL     1      -2.056  -2.582  15.037  1.00  0.00    -0.354 N 
ATOM     57  N   UNL     1      -4.797  -1.545  15.103  1.00  0.00    -0.248 NA
ATOM     58  C   UNL     1      -6.514  -0.404  16.203  1.00  0.00     0.031 C 
ATOM     59  C   UNL     1      -0.677  -1.999  16.679  1.00  0.00     0.029 A 
ATOM     60  C   UNL     1      -1.973  -1.853  16.211  1.00  0.00     0.049 A 
ATOM     61  H   UNL     1      -2.863  -2.666  14.480  1.00  0.00     0.167 HD
ATOM     62  C   UNL     1      -4.302  -1.010  16.285  1.00  0.00     0.074 A 
ATOM     63  C   UNL     1      -5.396  -0.296  16.912  1.00  0.00     0.031 C 
ATOM     64  C   UNL     1      -3.056  -1.114  16.805  1.00  0.00     0.034 A 
BRANCH  51  65
ATOM     65  C   UNL     1       0.827  -4.582  13.503  1.00  0.00     0.023 A 
ATOM     66  C   UNL     1       1.745  -3.984  12.617  1.00  0.00     0.012 A 
ATOM     67  C   UNL     1       1.252  -5.636  14.336  1.00  0.00     0.148 A 
ATOM     68  C   UNL     1       3.064  -4.433  12.555  1.00  0.00     0.002 A 
ATOM     69  C   UNL     1       2.575  -6.058  14.290  1.00  0.00     0.091 A 
ATOM     70  F   UNL     1       0.357  -6.195  15.164  1.00  0.00    -0.205 F 
ATOM     71  C   UNL     1       3.481  -5.460  13.397  1.00  0.00     0.022 A 
BRANCH  69  72
ATOM     72  S   UNL     1       3.230  -7.338  15.367  1.00  0.00     0.127 S 
ATOM     73  O   UNL     1       3.563  -8.389  14.406  1.00  0.00    -0.237 OA
ATOM     74  O   UNL     1       4.386  -6.672  15.967  1.00  0.00    -0.237 OA
ATOM     75  O   UNL     1       2.161  -7.668  16.299  1.00  0.00    -0.744 OA
ENDBRANCH  69  72
ENDBRANCH  51  65
BRANCH  52  76
ATOM     76  C   UNL     1      -8.443  -0.923  14.032  1.00  0.00     0.023 A 
ATOM     77  C   UNL     1      -8.651   0.438  13.746  1.00  0.00     0.012 A 
ATOM     78  C   UNL     1      -9.552  -1.764  14.257  1.00  0.00     0.148 A 
ATOM     79  C   UNL     1      -9.945   0.956  13.681  1.00  0.00     0.002 A 
ATOM     80  C   UNL     1     -10.837  -1.250  14.151  1.00  0.00     0.091 A 
ATOM     81  F   UNL     1      -9.321  -3.057  14.521  1.00  0.00    -0.205 F 
ATOM     82  C   UNL     1     -11.036   0.111  13.871  1.00  0.00     0.022 A 
BRANCH  80  83
ATOM     83  S   UNL     1     -12.305  -2.278  14.272  1.00  0.00     0.127 S 
ATOM     84  O   UNL     1     -12.980  -1.697  15.431  1.00  0.00    -0.237 OA
ATOM     85  O   UNL     1     -12.955  -2.020  12.987  1.00  0.00    -0.237 OA
ATOM     86  O   UNL     1     -11.825  -3.641  14.450  1.00  0.00    -0.744 OA
ENDBRANCH  80  83
ENDBRANCH  52  76
BRANCH  64  87
ATOM     87  C   UNL     1      -2.779  -0.436  18.117  1.00  0.00     0.023 A 
ATOM     88  C   UNL     1      -3.204  -1.044  19.314  1.00  0.00     0.012 A 
ATOM     89  C   UNL     1      -1.983   0.725  18.169  1.00  0.00     0.148 A 
ATOM     90  C   UNL     1      -2.845  -0.501  20.546  1.00  0.00     0.002 A 
ATOM     91  C   UNL     1      -1.601   1.241  19.401  1.00  0.00     0.091 A 
ATOM     92  F   UNL     1      -1.597   1.285  17.013  1.00  0.00    -0.205 F 
ATOM     93  C   UNL     1      -2.034   0.631  20.590  1.00  0.00     0.022 A 
BRANCH  91  94
ATOM     94  S   UNL     1      -0.503   2.653  19.562  1.00  0.00     0.127 S 
ATOM     95  O   UNL     1      -1.378   3.640  20.194  1.00  0.00    -0.237 OA
ATOM     96  O   UNL     1       0.550   2.126  20.431  1.00  0.00    -0.237 OA
ATOM     97  O   UNL     1      -0.070   2.987  18.212  1.00  0.00    -0.744 OA
ENDBRANCH  91  94
ENDBRANCH  64  87
ENDBRANCH  38  39
ENDBRANCH  30  33
ENDBRANCH  28  29
ENDBRANCH  27  28
ENDBRANCH   1  27
TORSDOF 17
