REMARK SMILES Cc1cccc(CS(=O)(=O)c2ccc(C(=O)NCCCCNC(=O)c3ccc(-c4c5nc(c(-c6cccc(S(=O)(=O)[O-])c6F)c6ccc([nH]6)c(-c6cccc(S(=O)(=O)[O-])c6F)c6nc(c(-c7cccc(S(=O)(=O)[O-])c7F)c7ccc4[nH]7)C=C6)C=C5)cc3)cc2F)n1
REMARK SMILES IDX 19 1 18 2 17 3 15 4 16 5 14 7 11 8 12 9 89 10 13 11 88 12
REMARK SMILES IDX 90 13 8 14 9 15 10 16 7 17 6 18 1 19 2 20 3 21 91 22 4 23
REMARK SMILES IDX 5 24 20 25 21 26 22 27 23 28 24 30 25 31 26 32 87 33 27 34
REMARK SMILES IDX 86 35 28 36 29 37 30 38 80 39 31 40 85 41 79 42 81 43 32 44
REMARK SMILES IDX 84 45 78 46 77 47 33 49 65 50 45 51 64 52 46 53 49 54 63 55
REMARK SMILES IDX 82 56 47 57 48 58 62 60 83 61 50 62 34 63 35 64 43 65 36 66
REMARK SMILES IDX 38 67 44 68 37 69 39 70 40 71 41 72 42 73 66 74 67 75 75 76
REMARK SMILES IDX 68 77 70 78 76 79 69 80 71 81 72 82 73 83 74 84 51 85 52 86
REMARK SMILES IDX 60 87 53 88 55 89 61 90 54 91 56 92 57 93 58 94 59 95
REMARK H PARENT 17 6 22 29 81 48 49 59
REMARK Flexibility Score: inf
ROOT
ATOM      1  C   UNL     1      -4.196   2.796   8.070  1.00  0.00     0.023 C 
ENDROOT
BRANCH   1   2
ATOM      2  C   UNL     1      -2.735   2.356   7.962  1.00  0.00     0.116 C 
BRANCH   2   3
ATOM      3  N   UNL     1      -2.655   0.971   7.541  1.00  0.00    -0.352 N 
ATOM      4  C   UNL     1      -2.414   0.406   6.317  1.00  0.00     0.251 C 
ATOM      5  O   UNL     1      -2.383  -0.821   6.229  1.00  0.00    -0.269 OA
ATOM      6  H   UNL     1      -2.800   0.319   8.265  1.00  0.00     0.163 HD
BRANCH   4   7
ATOM      7  C   UNL     1      -2.130   1.207   5.099  1.00  0.00     0.042 A 
ATOM      8  C   UNL     1      -1.475   2.576   2.728  1.00  0.00     0.103 A 
ATOM      9  C   UNL     1      -0.850   1.365   3.035  1.00  0.00     0.024 A 
ATOM     10  C   UNL     1      -2.413   3.099   3.611  1.00  0.00     0.142 A 
ATOM     11  C   UNL     1      -1.198   0.673   4.197  1.00  0.00     0.015 A 
ATOM     12  C   UNL     1      -2.751   2.416   4.782  1.00  0.00     0.054 A 
ATOM     13  F   UNL     1      -3.024   4.268   3.388  1.00  0.00    -0.206 F 
BRANCH   8  14
ATOM     14  S   UNL     1      -0.989   3.474   1.275  1.00  0.00     0.186 S 
ATOM     15  O   UNL     1       0.461   3.552   1.308  1.00  0.00    -0.223 OA
ATOM     16  O   UNL     1      -1.747   4.714   1.243  1.00  0.00    -0.223 OA
BRANCH  14  17
ATOM     17  C   UNL     1      -1.559   2.540  -0.134  1.00  0.00     0.198 C 
BRANCH  17  18
ATOM     18  C   UNL     1      -0.981   1.160  -0.167  1.00  0.00     0.056 A 
ATOM     19  C   UNL     1       2.427  -0.223  -0.160  1.00  0.00     0.067 C 
ATOM     20  C   UNL     1       0.930  -0.181  -0.208  1.00  0.00     0.038 A 
ATOM     21  C   UNL     1       0.170  -1.340  -0.158  1.00  0.00     0.023 A 
ATOM     22  N   UNL     1       0.365   1.049  -0.237  1.00  0.00    -0.257 NA
ATOM     23  C   UNL     1      -1.216  -1.225  -0.143  1.00  0.00     0.004 A 
ATOM     24  C   UNL     1      -1.803   0.037  -0.147  1.00  0.00     0.025 A 
ENDBRANCH  17  18
ENDBRANCH  14  17
ENDBRANCH   8  14
ENDBRANCH   4   7
ENDBRANCH   2   3
ENDBRANCH   1   2
BRANCH   1  25
ATOM     25  C   UNL     1      -4.910   2.308   9.335  1.00  0.00     0.023 C 
BRANCH  25  26
ATOM     26  C   UNL     1      -4.328   2.825  10.646  1.00  0.00     0.116 C 
BRANCH  26  27
ATOM     27  N   UNL     1      -4.255   4.276  10.704  1.00  0.00    -0.352 N 
ATOM     28  C   UNL     1      -4.370   5.101  11.797  1.00  0.00     0.251 C 
ATOM     29  H   UNL     1      -4.104   4.729   9.844  1.00  0.00     0.163 HD
ATOM     30  O   UNL     1      -4.399   6.315  11.646  1.00  0.00    -0.269 OA
BRANCH  28  31
ATOM     31  C   UNL     1      -4.492   4.512  13.148  1.00  0.00     0.039 A 
ATOM     32  C   UNL     1      -5.473   5.012  14.007  1.00  0.00     0.014 A 
ATOM     33  C   UNL     1      -3.651   3.477  13.564  1.00  0.00     0.014 A 
ATOM     34  C   UNL     1      -5.640   4.441  15.270  1.00  0.00     0.010 A 
ATOM     35  C   UNL     1      -3.866   2.862  14.793  1.00  0.00     0.010 A 
ATOM     36  C   UNL     1      -4.854   3.345  15.663  1.00  0.00    -0.014 A 
BRANCH  36  37
ATOM     37  C   UNL     1      -5.053   2.703  16.986  1.00  0.00     0.031 A 
ATOM     38  C   UNL     1      -3.962   2.740  18.020  1.00  0.00     0.074 A 
ATOM     39  C   UNL     1      -6.199   2.038  17.234  1.00  0.00     0.049 A 
ATOM     40  N   UNL     1      -3.958   2.239  19.227  1.00  0.00    -0.248 NA
ATOM     41  C   UNL     1      -2.700   3.402  17.644  1.00  0.00     0.031 C 
ATOM     42  C   UNL     1      -7.295   1.862  16.279  1.00  0.00     0.029 A 
ATOM     43  N   UNL     1      -6.628   1.375  18.357  1.00  0.00    -0.354 N 
ATOM     44  C   UNL     1      -2.695   2.500  19.743  1.00  0.00     0.074 A 
ATOM     45  C   UNL     1      -1.942   3.167  18.705  1.00  0.00     0.031 C 
ATOM     46  C   UNL     1      -8.278   1.158  16.863  1.00  0.00     0.029 A 
ATOM     47  C   UNL     1      -7.875   0.811  18.223  1.00  0.00     0.049 A 
ATOM     48  H   UNL     1      -6.093   1.309  19.180  1.00  0.00     0.167 HD
ATOM     49  C   UNL     1      -2.219   2.244  20.983  1.00  0.00     0.034 A 
ATOM     50  C   UNL     1      -8.615   0.102  19.099  1.00  0.00     0.034 A 
ATOM     51  C   UNL     1      -2.994   1.636  22.029  1.00  0.00     0.049 A 
ATOM     52  C   UNL     1      -8.082  -0.128  20.487  1.00  0.00     0.074 A 
ATOM     53  C   UNL     1      -2.635   1.427  23.348  1.00  0.00     0.029 A 
ATOM     54  N   UNL     1      -4.279   1.141  21.877  1.00  0.00    -0.354 N 
ATOM     55  N   UNL     1      -6.947   0.273  21.009  1.00  0.00    -0.248 NA
ATOM     56  C   UNL     1      -8.937  -0.878  21.419  1.00  0.00     0.031 C 
ATOM     57  C   UNL     1      -3.697   0.784  23.990  1.00  0.00     0.029 A 
ATOM     58  C   UNL     1      -4.725   0.614  23.076  1.00  0.00     0.049 A 
ATOM     59  H   UNL     1      -4.798   1.161  21.041  1.00  0.00     0.167 HD
ATOM     60  C   UNL     1      -6.964  -0.148  22.333  1.00  0.00     0.074 A 
ATOM     61  C   UNL     1      -8.229  -0.821  22.541  1.00  0.00     0.031 C 
ATOM     62  C   UNL     1      -6.009  -0.004  23.284  1.00  0.00     0.034 A 
BRANCH  49  63
ATOM     63  C   UNL     1      -0.819   2.690  21.312  1.00  0.00     0.023 A 
ATOM     64  C   UNL     1      -0.556   4.064  21.485  1.00  0.00     0.012 A 
ATOM     65  C   UNL     1       0.207   1.754  21.548  1.00  0.00     0.148 A 
ATOM     66  C   UNL     1       0.711   4.503  21.865  1.00  0.00     0.002 A 
ATOM     67  C   UNL     1       1.456   2.196  21.969  1.00  0.00     0.091 A 
ATOM     68  F   UNL     1      -0.059   0.454  21.360  1.00  0.00    -0.205 F 
ATOM     69  C   UNL     1       1.711   3.570  22.119  1.00  0.00     0.022 A 
BRANCH  67  70
ATOM     70  S   UNL     1       2.788   1.073  22.404  1.00  0.00     0.127 S 
ATOM     71  O   UNL     1       3.747   1.323  21.328  1.00  0.00    -0.237 OA
ATOM     72  O   UNL     1       3.199   1.576  23.715  1.00  0.00    -0.237 OA
ATOM     73  O   UNL     1       2.204  -0.260  22.418  1.00  0.00    -0.744 OA
ENDBRANCH  67  70
ENDBRANCH  49  63
BRANCH  50  74
ATOM     74  C   UNL     1      -9.979  -0.354  18.708  1.00  0.00     0.023 A 
ATOM     75  C   UNL     1     -11.104   0.271  19.280  1.00  0.00     0.012 A 
ATOM     76  C   UNL     1     -10.170  -1.346  17.726  1.00  0.00     0.148 A 
ATOM     77  C   UNL     1     -12.395  -0.095  18.895  1.00  0.00     0.002 A 
ATOM     78  C   UNL     1     -11.456  -1.667  17.307  1.00  0.00     0.091 A 
ATOM     79  F   UNL     1      -9.087  -1.937  17.202  1.00  0.00    -0.205 F 
ATOM     80  C   UNL     1     -12.570  -1.054  17.900  1.00  0.00     0.022 A 
BRANCH  78  81
ATOM     81  S   UNL     1     -11.774  -2.784  15.935  1.00  0.00     0.127 S 
ATOM     82  O   UNL     1     -12.367  -3.933  16.616  1.00  0.00    -0.237 OA
ATOM     83  O   UNL     1     -12.704  -2.002  15.120  1.00  0.00    -0.237 OA
ATOM     84  O   UNL     1     -10.479  -3.018  15.311  1.00  0.00    -0.744 OA
ENDBRANCH  78  81
ENDBRANCH  50  74
BRANCH  62  85
ATOM     85  C   UNL     1      -6.275  -0.566  24.655  1.00  0.00     0.023 A 
ATOM     86  C   UNL     1      -6.179  -1.955  24.862  1.00  0.00     0.012 A 
ATOM     87  C   UNL     1      -6.460   0.291  25.758  1.00  0.00     0.148 A 
ATOM     88  C   UNL     1      -6.271  -2.485  26.148  1.00  0.00     0.002 A 
ATOM     89  C   UNL     1      -6.503  -0.240  27.041  1.00  0.00     0.091 A 
ATOM     90  F   UNL     1      -6.558   1.609  25.533  1.00  0.00    -0.205 F 
ATOM     91  C   UNL     1      -6.416  -1.628  27.237  1.00  0.00     0.022 A 
BRANCH  89  92
ATOM     92  S   UNL     1      -6.580   0.787  28.514  1.00  0.00     0.127 S 
ATOM     93  O   UNL     1      -7.903   0.455  29.039  1.00  0.00    -0.237 OA
ATOM     94  O   UNL     1      -5.462   0.275  29.306  1.00  0.00    -0.237 OA
ATOM     95  O   UNL     1      -6.422   2.162  28.057  1.00  0.00    -0.744 OA
ENDBRANCH  89  92
ENDBRANCH  62  85
ENDBRANCH  36  37
ENDBRANCH  28  31
ENDBRANCH  26  27
ENDBRANCH  25  26
ENDBRANCH   1  25
TORSDOF 17
