REMARK SMILES CC1(C)C(C(=O)Nc2ccc(CC(=O)NCCCCNC(=O)c3ccc(-c4c5nc(c(-c6cccc(S(=O)(=O)[O-])c6F)c6ccc([nH]6)c(-c6cccc(S(=O)(=O)[O-])c6F)c6nc(c(-c7cccc(S(=O)(=O)[O-])c7F)c7ccc4[nH]7)C=C6)C=C5)cc3)cc2)C1(C)C
REMARK SMILES IDX 17 1 16 2 15 3 13 4 14 5 12 7 11 8 8 9 9 10 87 11 10 12
REMARK SMILES IDX 86 13 7 14 5 15 6 16 4 18 1 19 2 20 3 21 88 22 89 23 90 24
REMARK SMILES IDX 18 25 19 26 20 27 21 28 22 30 23 31 24 32 85 33 25 34 84 35
REMARK SMILES IDX 26 36 27 37 28 38 78 39 29 40 83 41 77 42 79 43 30 44 82 45
REMARK SMILES IDX 76 46 75 47 31 49 63 50 43 51 62 52 44 53 47 54 61 55 80 56
REMARK SMILES IDX 45 57 46 58 60 60 81 61 48 62 32 63 33 64 41 65 34 66 36 67
REMARK SMILES IDX 42 68 35 69 37 70 38 71 39 72 40 73 64 74 65 75 73 76 66 77
REMARK SMILES IDX 68 78 74 79 67 80 69 81 70 82 71 83 72 84 49 85 50 86 58 87
REMARK SMILES IDX 51 88 53 89 59 90 52 91 54 92 55 93 56 94 57 95
REMARK H PARENT 15 6 7 17 20 29 79 48 47 59
REMARK Flexibility Score: inf
ROOT
ATOM      1  C   UNL     1       1.859   1.971   7.016  1.00  0.00     0.023 C 
ENDROOT
BRANCH   1   2
ATOM      2  C   UNL     1       3.317   1.507   7.072  1.00  0.00     0.116 C 
BRANCH   2   3
ATOM      3  N   UNL     1       3.507   0.452   8.046  1.00  0.00    -0.356 N 
ATOM      4  C   UNL     1       3.409  -0.901   7.882  1.00  0.00     0.224 C 
ATOM      5  O   UNL     1       3.556  -1.625   8.869  1.00  0.00    -0.275 OA
ATOM      6  H   UNL     1       3.741   0.752   8.954  1.00  0.00     0.163 HD
BRANCH   4   7
ATOM      7  C   UNL     1       3.208  -1.500   6.506  1.00  0.00     0.135 C 
BRANCH   7   8
ATOM      8  C   UNL     1       1.837  -1.327   5.905  1.00  0.00    -0.039 A 
ATOM      9  C   UNL     1      -0.561  -1.167   4.479  1.00  0.00     0.041 A 
ATOM     10  C   UNL     1      -0.451  -2.067   5.539  1.00  0.00     0.026 A 
ATOM     11  C   UNL     1       0.415  -0.206   4.300  1.00  0.00     0.026 A 
ATOM     12  C   UNL     1       0.752  -2.141   6.258  1.00  0.00     0.006 A 
ATOM     13  C   UNL     1       1.637  -0.343   4.936  1.00  0.00     0.006 A 
BRANCH   9  14
ATOM     14  N   UNL     1      -1.598  -1.282   3.543  1.00  0.00    -0.326 N 
ATOM     15  C   UNL     1      -1.577  -0.698   2.292  1.00  0.00     0.228 C 
ATOM     16  O   UNL     1      -2.436   0.130   1.992  1.00  0.00    -0.274 OA
ATOM     17  H   UNL     1      -2.389  -1.812   3.793  1.00  0.00     0.169 HD
BRANCH  15  18
ATOM     18  C   UNL     1      -0.776  -1.298   1.166  1.00  0.00     0.091 C 
ATOM     19  C   UNL     1       0.562  -0.410  -0.850  1.00  0.00     0.012 C 
ATOM     20  C   UNL     1       0.564  -0.778   0.624  1.00  0.00    -0.017 C 
ATOM     21  C   UNL     1       1.519   0.136   1.351  1.00  0.00     0.012 C 
ATOM     22  C   UNL     1       0.401  -2.257   1.080  1.00  0.00    -0.017 C 
ATOM     23  C   UNL     1       0.346  -3.325   0.002  1.00  0.00     0.012 C 
ATOM     24  C   UNL     1       1.048  -2.830   2.318  1.00  0.00     0.012 C 
ENDBRANCH  15  18
ENDBRANCH   9  14
ENDBRANCH   7   8
ENDBRANCH   4   7
ENDBRANCH   2   3
ENDBRANCH   1   2
BRANCH   1  25
ATOM     25  C   UNL     1       1.408   2.820   8.196  1.00  0.00     0.023 C 
BRANCH  25  26
ATOM     26  C   UNL     1       2.188   4.108   8.376  1.00  0.00     0.116 C 
BRANCH  26  27
ATOM     27  N   UNL     1       2.121   4.989   7.220  1.00  0.00    -0.352 N 
ATOM     28  C   UNL     1       2.086   6.367   7.205  1.00  0.00     0.251 C 
ATOM     29  H   UNL     1       2.098   4.547   6.340  1.00  0.00     0.163 HD
ATOM     30  O   UNL     1       1.919   6.974   6.165  1.00  0.00    -0.269 OA
BRANCH  28  31
ATOM     31  C   UNL     1       2.215   7.086   8.493  1.00  0.00     0.039 A 
ATOM     32  C   UNL     1       1.276   8.068   8.811  1.00  0.00     0.014 A 
ATOM     33  C   UNL     1       3.215   6.737   9.404  1.00  0.00     0.014 A 
ATOM     34  C   UNL     1       1.307   8.660  10.075  1.00  0.00     0.010 A 
ATOM     35  C   UNL     1       3.187   7.261  10.691  1.00  0.00     0.010 A 
ATOM     36  C   UNL     1       2.241   8.237  11.036  1.00  0.00    -0.014 A 
BRANCH  36  37
ATOM     37  C   UNL     1       2.242   8.803  12.408  1.00  0.00     0.031 A 
ATOM     38  C   UNL     1       3.443   9.557  12.912  1.00  0.00     0.074 A 
ATOM     39  C   UNL     1       1.197   8.571  13.226  1.00  0.00     0.049 A 
ATOM     40  N   UNL     1       3.640  10.102  14.084  1.00  0.00    -0.248 NA
ATOM     41  C   UNL     1       4.585   9.691  11.991  1.00  0.00     0.031 C 
ATOM     42  C   UNL     1       0.015   7.774  12.886  1.00  0.00     0.029 A 
ATOM     43  N   UNL     1       0.969   8.964  14.521  1.00  0.00    -0.354 N 
ATOM     44  C   UNL     1       4.932  10.611  14.054  1.00  0.00     0.074 A 
ATOM     45  C   UNL     1       5.490  10.274  12.763  1.00  0.00     0.031 C 
ATOM     46  C   UNL     1      -0.816   7.748  13.941  1.00  0.00     0.029 A 
ATOM     47  C   UNL     1      -0.218   8.501  15.039  1.00  0.00     0.049 A 
ATOM     48  H   UNL     1       1.597   9.525  15.032  1.00  0.00     0.167 HD
ATOM     49  C   UNL     1       5.585  11.326  15.000  1.00  0.00     0.034 A 
ATOM     50  C   UNL     1      -0.762   8.664  16.260  1.00  0.00     0.034 A 
ATOM     51  C   UNL     1       5.010  11.700  16.263  1.00  0.00     0.049 A 
ATOM     52  C   UNL     1      -0.037   9.506  17.276  1.00  0.00     0.074 A 
ATOM     53  C   UNL     1       5.551  12.506  17.248  1.00  0.00     0.029 A 
ATOM     54  N   UNL     1       3.768  11.288  16.719  1.00  0.00    -0.354 N 
ATOM     55  N   UNL     1       1.111  10.129  17.163  1.00  0.00    -0.248 NA
ATOM     56  C   UNL     1      -0.700   9.699  18.573  1.00  0.00     0.031 C 
ATOM     57  C   UNL     1       4.645  12.560  18.313  1.00  0.00     0.029 A 
ATOM     58  C   UNL     1       3.529  11.812  17.978  1.00  0.00     0.049 A 
ATOM     59  H   UNL     1       3.148  10.708  16.221  1.00  0.00     0.167 HD
ATOM     60  C   UNL     1       1.292  10.814  18.359  1.00  0.00     0.074 A 
ATOM     61  C   UNL     1       0.122  10.550  19.172  1.00  0.00     0.031 C 
ATOM     62  C   UNL     1       2.338  11.580  18.755  1.00  0.00     0.034 A 
BRANCH  49  63
ATOM     63  C   UNL     1       6.979  11.801  14.680  1.00  0.00     0.023 A 
ATOM     64  C   UNL     1       7.163  12.820  13.721  1.00  0.00     0.012 A 
ATOM     65  C   UNL     1       8.097  11.285  15.362  1.00  0.00     0.148 A 
ATOM     66  C   UNL     1       8.440  13.291  13.420  1.00  0.00     0.002 A 
ATOM     67  C   UNL     1       9.362  11.792  15.090  1.00  0.00     0.091 A 
ATOM     68  F   UNL     1       7.905  10.302  16.253  1.00  0.00    -0.205 F 
ATOM     69  C   UNL     1       9.537  12.785  14.112  1.00  0.00     0.022 A 
BRANCH  67  70
ATOM     70  S   UNL     1      10.830  11.266  15.982  1.00  0.00     0.127 S 
ATOM     71  O   UNL     1      11.543  10.508  14.954  1.00  0.00    -0.237 OA
ATOM     72  O   UNL     1      11.449  12.543  16.336  1.00  0.00    -0.237 OA
ATOM     73  O   UNL     1      10.353  10.486  17.115  1.00  0.00    -0.744 OA
ENDBRANCH  67  70
ENDBRANCH  49  63
BRANCH  50  74
ATOM     74  C   UNL     1      -2.097   8.075  16.566  1.00  0.00     0.023 A 
ATOM     75  C   UNL     1      -3.208   8.927  16.728  1.00  0.00     0.012 A 
ATOM     76  C   UNL     1      -2.278   6.683  16.674  1.00  0.00     0.148 A 
ATOM     77  C   UNL     1      -4.467   8.405  17.024  1.00  0.00     0.002 A 
ATOM     78  C   UNL     1      -3.546   6.167  16.914  1.00  0.00     0.091 A 
ATOM     79  F   UNL     1      -1.206   5.891  16.527  1.00  0.00    -0.205 F 
ATOM     80  C   UNL     1      -4.638   7.026  17.108  1.00  0.00     0.022 A 
BRANCH  78  81
ATOM     81  S   UNL     1      -3.883   4.402  16.907  1.00  0.00     0.127 S 
ATOM     82  O   UNL     1      -4.139   4.142  18.322  1.00  0.00    -0.237 OA
ATOM     83  O   UNL     1      -5.061   4.324  16.043  1.00  0.00    -0.237 OA
ATOM     84  O   UNL     1      -2.690   3.777  16.353  1.00  0.00    -0.744 OA
ENDBRANCH  78  81
ENDBRANCH  50  74
BRANCH  62  85
ATOM     85  C   UNL     1       2.261  12.217  20.118  1.00  0.00     0.023 A 
ATOM     86  C   UNL     1       2.396  11.421  21.273  1.00  0.00     0.012 A 
ATOM     87  C   UNL     1       2.127  13.614  20.253  1.00  0.00     0.148 A 
ATOM     88  C   UNL     1       2.364  12.000  22.541  1.00  0.00     0.002 A 
ATOM     89  C   UNL     1       2.147  14.189  21.517  1.00  0.00     0.091 A 
ATOM     90  F   UNL     1       1.981  14.352  19.143  1.00  0.00    -0.205 F 
ATOM     91  C   UNL     1       2.252  13.383  22.662  1.00  0.00     0.022 A 
BRANCH  89  92
ATOM     92  S   UNL     1       2.107  15.968  21.766  1.00  0.00     0.127 S 
ATOM     93  O   UNL     1       0.755  16.166  22.284  1.00  0.00    -0.237 OA
ATOM     94  O   UNL     1       3.173  16.168  22.749  1.00  0.00    -0.237 OA
ATOM     95  O   UNL     1       2.371  16.561  20.462  1.00  0.00    -0.744 OA
ENDBRANCH  89  92
ENDBRANCH  62  85
ENDBRANCH  36  37
ENDBRANCH  28  31
ENDBRANCH  26  27
ENDBRANCH  25  26
ENDBRANCH   1  25
TORSDOF 17
