REMARK SMILES O=C(CCCCc1nc(C[C@H]2CCCO2)no1)NCCCCNC(=O)c1ccc(-c2c3nc(c(-c4cccc(S(=O)(=O)[O-])c4F)c4ccc([nH]4)c(-c4cccc(S(=O)(=O)[O-])c4F)c4nc(c(-c5cccc(S(=O)(=O)[O-])c5F)c5ccc2[nH]5)C=C4)C=C3)cc1
REMARK SMILES IDX 19 1 18 2 1 3 2 4 3 6 4 7 5 8 6 9 7 10 8 11 17 12 9 13 16 14
REMARK SMILES IDX 10 15 11 16 12 17 15 18 13 19 14 20 20 21 21 22 22 23 23 24
REMARK SMILES IDX 24 25 25 27 26 28 27 29 88 30 28 31 87 32 29 33 30 34 31 35
REMARK SMILES IDX 81 36 32 37 86 38 80 39 82 40 33 41 85 42 79 43 78 44 34 46
REMARK SMILES IDX 66 47 46 48 65 49 47 50 50 51 64 52 83 53 48 54 49 55 63 57
REMARK SMILES IDX 84 58 51 59 35 60 36 61 44 62 37 63 39 64 45 65 38 66 40 67
REMARK SMILES IDX 41 68 42 69 43 70 67 71 68 72 76 73 69 74 71 75 77 76 70 77
REMARK SMILES IDX 72 78 73 79 74 80 75 81 52 82 53 83 61 84 54 85 56 86 62 87
REMARK SMILES IDX 55 88 57 89 58 90 59 91 60 92
REMARK H PARENT 18 5 23 26 82 45 50 56
REMARK Flexibility Score: inf
ROOT
ATOM      1  C   UNL     1       2.688 -12.118   6.837  1.00  0.00     0.116 C 
ENDROOT
BRANCH   1   2
ATOM      2  N   UNL     1       3.767 -11.493   6.105  1.00  0.00    -0.356 N 
ATOM      3  O   UNL     1       3.781 -12.960   4.337  1.00  0.00    -0.275 OA
ATOM      4  C   UNL     1       4.199 -11.944   4.882  1.00  0.00     0.219 C 
ATOM      5  H   UNL     1       4.212 -10.709   6.501  1.00  0.00     0.163 HD
BRANCH   4   6
ATOM      6  C   UNL     1       5.235 -11.046   4.239  1.00  0.00     0.100 C 
BRANCH   6   7
ATOM      7  C   UNL     1       4.598  -9.816   3.593  1.00  0.00     0.010 C 
BRANCH   7   8
ATOM      8  C   UNL     1       4.166  -8.682   4.544  1.00  0.00     0.010 C 
BRANCH   8   9
ATOM      9  C   UNL     1       5.258  -8.114   5.462  1.00  0.00     0.100 C 
BRANCH   9  10
ATOM     10  C   UNL     1       6.412  -7.589   4.699  1.00  0.00     0.226 A 
ATOM     11  N   UNL     1       6.462  -7.163   3.458  1.00  0.00    -0.196 NA
ATOM     12  O   UNL     1       7.633  -7.645   5.304  1.00  0.00    -0.339 OA
ATOM     13  C   UNL     1       7.804  -6.987   3.271  1.00  0.00     0.174 A 
ATOM     14  N   UNL     1       8.566  -7.255   4.340  1.00  0.00    -0.062 NA
BRANCH  13  15
ATOM     15  C   UNL     1       8.366  -6.635   1.952  1.00  0.00     0.113 C 
BRANCH  15  16
ATOM     16  C   UNL     1       8.439  -5.128   1.701  1.00  0.00     0.126 C 
ATOM     17  C   UNL     1       9.465  -4.395   2.557  1.00  0.00     0.035 C 
ATOM     18  O   UNL     1       8.870  -4.937   0.332  1.00  0.00    -0.378 OA
ATOM     19  C   UNL     1      10.730  -4.551   1.751  1.00  0.00     0.031 C 
ATOM     20  C   UNL     1      10.211  -4.425   0.336  1.00  0.00     0.160 C 
ENDBRANCH  15  16
ENDBRANCH  13  15
ENDBRANCH   9  10
ENDBRANCH   8   9
ENDBRANCH   7   8
ENDBRANCH   6   7
ENDBRANCH   4   6
ENDBRANCH   1   2
BRANCH   1  21
ATOM     21  C   UNL     1       2.947 -12.111   8.341  1.00  0.00     0.023 C 
BRANCH  21  22
ATOM     22  C   UNL     1       3.105 -10.722   8.972  1.00  0.00     0.023 C 
BRANCH  22  23
ATOM     23  C   UNL     1       1.918  -9.780   8.794  1.00  0.00     0.116 C 
BRANCH  23  24
ATOM     24  N   UNL     1       0.712 -10.277   9.438  1.00  0.00    -0.352 N 
ATOM     25  C   UNL     1      -0.075  -9.690  10.398  1.00  0.00     0.251 C 
ATOM     26  H   UNL     1       0.416 -11.168   9.141  1.00  0.00     0.163 HD
ATOM     27  O   UNL     1      -0.957 -10.354  10.945  1.00  0.00    -0.269 OA
BRANCH  25  28
ATOM     28  C   UNL     1       0.138  -8.280  10.794  1.00  0.00     0.039 A 
ATOM     29  C   UNL     1       0.096  -7.948  12.152  1.00  0.00     0.014 A 
ATOM     30  C   UNL     1       0.360  -7.283   9.841  1.00  0.00     0.014 A 
ATOM     31  C   UNL     1       0.341  -6.631  12.555  1.00  0.00     0.010 A 
ATOM     32  C   UNL     1       0.678  -5.988  10.249  1.00  0.00     0.010 A 
ATOM     33  C   UNL     1       0.671  -5.646  11.610  1.00  0.00    -0.014 A 
BRANCH  33  34
ATOM     34  C   UNL     1       1.031  -4.264  12.031  1.00  0.00     0.031 A 
ATOM     35  C   UNL     1       0.206  -3.087  11.584  1.00  0.00     0.074 A 
ATOM     36  C   UNL     1       2.153  -4.059  12.751  1.00  0.00     0.049 A 
ATOM     37  N   UNL     1       0.404  -1.812  11.802  1.00  0.00    -0.248 NA
ATOM     38  C   UNL     1      -0.983  -3.376  10.766  1.00  0.00     0.031 C 
ATOM     39  C   UNL     1       3.082  -5.105  13.185  1.00  0.00     0.029 A 
ATOM     40  N   UNL     1       2.720  -2.899  13.219  1.00  0.00    -0.354 N 
ATOM     41  C   UNL     1      -0.613  -1.146  11.126  1.00  0.00     0.074 A 
ATOM     42  C   UNL     1      -1.405  -2.157  10.460  1.00  0.00     0.031 C 
ATOM     43  C   UNL     1       4.099  -4.540  13.855  1.00  0.00     0.029 A 
ATOM     44  C   UNL     1       3.917  -3.092  13.869  1.00  0.00     0.049 A 
ATOM     45  H   UNL     1       2.308  -2.012  13.102  1.00  0.00     0.167 HD
ATOM     46  C   UNL     1      -0.881   0.181  11.084  1.00  0.00     0.034 A 
ATOM     47  C   UNL     1       4.782  -2.206  14.402  1.00  0.00     0.034 A 
ATOM     48  C   UNL     1      -0.111   1.184  11.771  1.00  0.00     0.049 A 
ATOM     49  C   UNL     1       4.450  -0.740  14.360  1.00  0.00     0.074 A 
ATOM     50  C   UNL     1      -0.349   2.545  11.852  1.00  0.00     0.029 A 
ATOM     51  N   UNL     1       1.052   0.940  12.484  1.00  0.00    -0.354 N 
ATOM     52  N   UNL     1       3.403  -0.145  13.842  1.00  0.00    -0.248 NA
ATOM     53  C   UNL     1       5.400   0.177  15.009  1.00  0.00     0.031 C 
ATOM     54  C   UNL     1       0.687   3.129  12.587  1.00  0.00     0.029 A 
ATOM     55  C   UNL     1       1.550   2.126  12.998  1.00  0.00     0.049 A 
ATOM     56  H   UNL     1       1.464   0.055  12.608  1.00  0.00     0.167 HD
ATOM     57  C   UNL     1       3.548   1.206  14.134  1.00  0.00     0.074 A 
ATOM     58  C   UNL     1       4.775   1.340  14.893  1.00  0.00     0.031 C 
ATOM     59  C   UNL     1       2.745   2.244  13.794  1.00  0.00     0.034 A 
BRANCH  46  60
ATOM     60  C   UNL     1      -2.090   0.628  10.301  1.00  0.00     0.023 A 
ATOM     61  C   UNL     1      -3.382   0.333  10.784  1.00  0.00     0.012 A 
ATOM     62  C   UNL     1      -1.952   1.391   9.125  1.00  0.00     0.148 A 
ATOM     63  C   UNL     1      -4.515   0.757  10.092  1.00  0.00     0.002 A 
ATOM     64  C   UNL     1      -3.086   1.852   8.466  1.00  0.00     0.091 A 
ATOM     65  F   UNL     1      -0.717   1.648   8.670  1.00  0.00    -0.205 F 
ATOM     66  C   UNL     1      -4.367   1.525   8.940  1.00  0.00     0.022 A 
BRANCH  64  67
ATOM     67  S   UNL     1      -3.005   2.916   7.021  1.00  0.00     0.127 S 
ATOM     68  O   UNL     1      -3.492   2.023   5.971  1.00  0.00    -0.237 OA
ATOM     69  O   UNL     1      -3.927   3.994   7.382  1.00  0.00    -0.237 OA
ATOM     70  O   UNL     1      -1.612   3.322   6.897  1.00  0.00    -0.744 OA
ENDBRANCH  64  67
ENDBRANCH  46  60
BRANCH  47  71
ATOM     71  C   UNL     1       6.030  -2.687  15.061  1.00  0.00     0.023 A 
ATOM     72  C   UNL     1       6.171  -2.568  16.457  1.00  0.00     0.012 A 
ATOM     73  C   UNL     1       7.067  -3.279  14.314  1.00  0.00     0.148 A 
ATOM     74  C   UNL     1       7.338  -2.994  17.092  1.00  0.00     0.002 A 
ATOM     75  C   UNL     1       8.201  -3.755  14.960  1.00  0.00     0.091 A 
ATOM     76  F   UNL     1       6.917  -3.374  12.985  1.00  0.00    -0.205 F 
ATOM     77  C   UNL     1       8.348  -3.596  16.346  1.00  0.00     0.022 A 
BRANCH  75  78
ATOM     78  S   UNL     1       9.488  -4.665  14.098  1.00  0.00     0.127 S 
ATOM     79  O   UNL     1      10.600  -3.720  14.139  1.00  0.00    -0.237 OA
ATOM     80  O   UNL     1       9.646  -5.843  14.952  1.00  0.00    -0.237 OA
ATOM     81  O   UNL     1       8.948  -4.952  12.776  1.00  0.00    -0.744 OA
ENDBRANCH  75  78
ENDBRANCH  47  71
BRANCH  59  82
ATOM     82  C   UNL     1       3.134   3.619  14.275  1.00  0.00     0.023 A 
ATOM     83  C   UNL     1       4.244   4.278  13.710  1.00  0.00     0.012 A 
ATOM     84  C   UNL     1       2.352   4.286  15.239  1.00  0.00     0.148 A 
ATOM     85  C   UNL     1       4.591   5.564  14.124  1.00  0.00     0.002 A 
ATOM     86  C   UNL     1       2.672   5.587  15.608  1.00  0.00     0.091 A 
ATOM     87  F   UNL     1       1.310   3.636  15.778  1.00  0.00    -0.205 F 
ATOM     88  C   UNL     1       3.799   6.222  15.062  1.00  0.00     0.022 A 
BRANCH  86  89
ATOM     89  S   UNL     1       1.656   6.548  16.734  1.00  0.00     0.127 S 
ATOM     90  O   UNL     1       2.512   6.622  17.918  1.00  0.00    -0.237 OA
ATOM     91  O   UNL     1       1.504   7.811  16.011  1.00  0.00    -0.237 OA
ATOM     92  O   UNL     1       0.420   5.796  16.905  1.00  0.00    -0.744 OA
ENDBRANCH  86  89
ENDBRANCH  59  82
ENDBRANCH  33  34
ENDBRANCH  25  28
ENDBRANCH  23  24
ENDBRANCH  22  23
ENDBRANCH  21  22
ENDBRANCH   1  21
TORSDOF 20
