REMARK SMILES CCN(C)C(=O)Cn1ccc2c(C(=O)NCCCCNC(=O)c3ccc(-c4c5nc(c(-c6cccc(S(=O)(=O)[O-])c6F)c6ccc([nH]6)c(-c6cccc(S(=O)(=O)[O-])c6F)c6nc(c(-c7cccc(S(=O)(=O)[O-])c7F)c7ccc4[nH]7)C=C6)C=C5)cc3)cccc21
REMARK SMILES IDX 17 1 16 2 15 3 13 4 14 5 12 7 8 8 9 9 89 10 10 11 11 12
REMARK SMILES IDX 88 13 87 14 86 15 7 16 5 17 6 18 3 19 4 20 2 21 1 22 18 23
REMARK SMILES IDX 19 24 20 25 21 26 22 28 23 29 24 30 85 31 25 32 84 33 26 34
REMARK SMILES IDX 27 35 28 36 78 37 29 38 83 39 77 40 79 41 30 42 82 43 76 44
REMARK SMILES IDX 75 45 31 47 63 48 43 49 62 50 44 51 47 52 61 53 80 54 45 55
REMARK SMILES IDX 46 56 60 58 81 59 48 60 32 61 33 62 41 63 34 64 36 65 42 66
REMARK SMILES IDX 35 67 37 68 38 69 39 70 40 71 64 72 65 73 73 74 66 75 68 76
REMARK SMILES IDX 74 77 67 78 69 79 70 80 71 81 72 82 49 83 50 84 58 85 51 86
REMARK SMILES IDX 53 87 59 88 52 89 54 90 55 91 56 92 57 93
REMARK H PARENT 15 6 20 27 79 46 47 57
REMARK Flexibility Score: inf
ROOT
ATOM      1  C   UNL     1      -2.200  -7.361   2.228  1.00  0.00     0.023 C 
ENDROOT
BRANCH   1   2
ATOM      2  C   UNL     1      -0.682  -7.168   2.278  1.00  0.00     0.116 C 
BRANCH   2   3
ATOM      3  N   UNL     1      -0.067  -7.784   1.119  1.00  0.00    -0.352 N 
ATOM      4  C   UNL     1       0.454  -7.273  -0.044  1.00  0.00     0.251 C 
ATOM      5  O   UNL     1       0.878  -8.085  -0.865  1.00  0.00    -0.269 OA
ATOM      6  H   UNL     1      -0.013  -8.765   1.176  1.00  0.00     0.163 HD
BRANCH   4   7
ATOM      7  C   UNL     1       0.595  -5.809  -0.279  1.00  0.00     0.049 A 
ATOM      8  N   UNL     1       2.591  -3.724  -2.385  1.00  0.00    -0.338 N 
ATOM      9  C   UNL     1       3.019  -4.930  -2.894  1.00  0.00     0.087 A 
ATOM     10  C   UNL     1       1.813  -3.956  -1.268  1.00  0.00     0.049 A 
ATOM     11  C   UNL     1       2.414  -5.934  -2.176  1.00  0.00     0.029 A 
ATOM     12  C   UNL     1       1.555  -5.333  -1.210  1.00  0.00     0.012 A 
ATOM     13  C   UNL     1       1.263  -3.082  -0.326  1.00  0.00     0.027 A 
ATOM     14  C   UNL     1       0.176  -3.520   0.412  1.00  0.00     0.003 A 
ATOM     15  C   UNL     1      -0.204  -4.849   0.361  1.00  0.00     0.014 A 
BRANCH   8  16
ATOM     16  C   UNL     1       2.753  -2.477  -3.143  1.00  0.00     0.222 C 
BRANCH  16  17
ATOM     17  C   UNL     1       2.302  -1.181  -2.493  1.00  0.00     0.242 C 
ATOM     18  O   UNL     1       3.149  -0.417  -2.017  1.00  0.00    -0.273 OA
BRANCH  17  19
ATOM     19  N   UNL     1       0.941  -0.860  -2.468  1.00  0.00    -0.344 N 
ATOM     20  C   UNL     1      -0.078  -1.641  -3.163  1.00  0.00     0.146 C 
BRANCH  19  21
ATOM     21  C   UNL     1       0.519   0.395  -1.831  1.00  0.00     0.115 C 
ATOM     22  C   UNL     1       0.726   0.433  -0.318  1.00  0.00     0.027 C 
ENDBRANCH  19  21
ENDBRANCH  17  19
ENDBRANCH  16  17
ENDBRANCH   8  16
ENDBRANCH   4   7
ENDBRANCH   2   3
ENDBRANCH   1   2
BRANCH   1  23
ATOM     23  C   UNL     1      -2.637  -8.767   2.669  1.00  0.00     0.023 C 
BRANCH  23  24
ATOM     24  C   UNL     1      -2.057  -9.172   4.025  1.00  0.00     0.116 C 
BRANCH  24  25
ATOM     25  N   UNL     1      -2.362  -8.217   5.073  1.00  0.00    -0.352 N 
ATOM     26  C   UNL     1      -3.281  -8.139   6.080  1.00  0.00     0.251 C 
ATOM     27  H   UNL     1      -1.761  -7.437   5.054  1.00  0.00     0.163 HD
ATOM     28  O   UNL     1      -3.164  -7.173   6.840  1.00  0.00    -0.269 OA
BRANCH  26  29
ATOM     29  C   UNL     1      -4.429  -9.062   6.251  1.00  0.00     0.039 A 
ATOM     30  C   UNL     1      -4.667 -10.188   5.468  1.00  0.00     0.014 A 
ATOM     31  C   UNL     1      -5.390  -8.686   7.207  1.00  0.00     0.014 A 
ATOM     32  C   UNL     1      -5.901 -10.804   5.491  1.00  0.00     0.010 A 
ATOM     33  C   UNL     1      -6.613  -9.336   7.275  1.00  0.00     0.010 A 
ATOM     34  C   UNL     1      -6.892 -10.329   6.345  1.00  0.00    -0.014 A 
BRANCH  34  35
ATOM     35  C   UNL     1      -8.204 -10.939   6.211  1.00  0.00     0.031 A 
ATOM     36  C   UNL     1      -8.208 -12.422   6.359  1.00  0.00     0.074 A 
ATOM     37  C   UNL     1      -9.310 -10.208   5.974  1.00  0.00     0.049 A 
ATOM     38  N   UNL     1      -8.456 -13.316   5.455  1.00  0.00    -0.248 NA
ATOM     39  C   UNL     1      -7.703 -12.970   7.627  1.00  0.00     0.031 C 
ATOM     40  C   UNL     1      -9.477  -8.753   6.040  1.00  0.00     0.029 A 
ATOM     41  N   UNL     1     -10.573 -10.647   5.745  1.00  0.00    -0.354 N 
ATOM     42  C   UNL     1      -8.338 -14.544   6.105  1.00  0.00     0.074 A 
ATOM     43  C   UNL     1      -7.731 -14.280   7.385  1.00  0.00     0.031 C 
ATOM     44  C   UNL     1     -10.794  -8.464   6.147  1.00  0.00     0.029 A 
ATOM     45  C   UNL     1     -11.552  -9.689   5.986  1.00  0.00     0.049 A 
ATOM     46  H   UNL     1     -10.778 -11.559   5.437  1.00  0.00     0.167 HD
ATOM     47  C   UNL     1      -8.938 -15.677   5.650  1.00  0.00     0.034 A 
ATOM     48  C   UNL     1     -12.875  -9.939   6.139  1.00  0.00     0.034 A 
ATOM     49  C   UNL     1      -9.392 -15.559   4.297  1.00  0.00     0.049 A 
ATOM     50  C   UNL     1     -13.132 -11.244   5.484  1.00  0.00     0.074 A 
ATOM     51  C   UNL     1      -8.797 -15.445   3.060  1.00  0.00     0.029 A 
ATOM     52  N   UNL     1     -10.699 -15.176   4.133  1.00  0.00    -0.354 N 
ATOM     53  N   UNL     1     -12.977 -11.459   4.208  1.00  0.00    -0.248 NA
ATOM     54  C   UNL     1     -13.174 -12.431   6.322  1.00  0.00     0.031 C 
ATOM     55  C   UNL     1      -9.652 -14.577   2.319  1.00  0.00     0.029 A 
ATOM     56  C   UNL     1     -10.738 -14.244   3.131  1.00  0.00     0.049 A 
ATOM     57  H   UNL     1     -11.471 -15.511   4.644  1.00  0.00     0.167 HD
ATOM     58  C   UNL     1     -12.477 -12.752   4.131  1.00  0.00     0.074 A 
ATOM     59  C   UNL     1     -12.727 -13.334   5.447  1.00  0.00     0.031 C 
ATOM     60  C   UNL     1     -11.661 -13.131   3.105  1.00  0.00     0.034 A 
BRANCH  47  61
ATOM     61  C   UNL     1      -9.438 -16.763   6.560  1.00  0.00     0.023 A 
ATOM     62  C   UNL     1      -9.668 -18.048   6.030  1.00  0.00     0.012 A 
ATOM     63  C   UNL     1      -9.936 -16.490   7.856  1.00  0.00     0.148 A 
ATOM     64  C   UNL     1     -10.356 -19.022   6.766  1.00  0.00     0.002 A 
ATOM     65  C   UNL     1     -10.558 -17.479   8.606  1.00  0.00     0.091 A 
ATOM     66  F   UNL     1      -9.917 -15.232   8.313  1.00  0.00    -0.205 F 
ATOM     67  C   UNL     1     -10.787 -18.742   8.059  1.00  0.00     0.022 A 
BRANCH  65  68
ATOM     68  S   UNL     1     -11.115 -17.172  10.286  1.00  0.00     0.127 S 
ATOM     69  O   UNL     1     -12.569 -17.152  10.108  1.00  0.00    -0.237 OA
ATOM     70  O   UNL     1     -10.597 -18.349  10.988  1.00  0.00    -0.237 OA
ATOM     71  O   UNL     1     -10.499 -15.920  10.678  1.00  0.00    -0.744 OA
ENDBRANCH  65  68
ENDBRANCH  47  61
BRANCH  48  72
ATOM     72  C   UNL     1     -13.819  -9.373   7.138  1.00  0.00     0.023 A 
ATOM     73  C   UNL     1     -15.199  -9.624   6.979  1.00  0.00     0.012 A 
ATOM     74  C   UNL     1     -13.373  -8.886   8.387  1.00  0.00     0.148 A 
ATOM     75  C   UNL     1     -16.092  -9.464   8.045  1.00  0.00     0.002 A 
ATOM     76  C   UNL     1     -14.268  -8.716   9.441  1.00  0.00     0.091 A 
ATOM     77  F   UNL     1     -12.063  -8.684   8.577  1.00  0.00    -0.205 F 
ATOM     78  C   UNL     1     -15.625  -9.025   9.279  1.00  0.00     0.022 A 
BRANCH  76  79
ATOM     79  S   UNL     1     -13.742  -8.158  11.069  1.00  0.00     0.127 S 
ATOM     80  O   UNL     1     -14.733  -7.122  11.367  1.00  0.00    -0.237 OA
ATOM     81  O   UNL     1     -13.872  -9.375  11.864  1.00  0.00    -0.237 OA
ATOM     82  O   UNL     1     -12.386  -7.654  10.896  1.00  0.00    -0.744 OA
ENDBRANCH  76  79
ENDBRANCH  48  72
BRANCH  60  83
ATOM     83  C   UNL     1     -11.528 -12.191   1.934  1.00  0.00     0.023 A 
ATOM     84  C   UNL     1     -10.794 -10.988   2.012  1.00  0.00     0.012 A 
ATOM     85  C   UNL     1     -11.992 -12.630   0.685  1.00  0.00     0.148 A 
ATOM     86  C   UNL     1     -10.532 -10.238   0.861  1.00  0.00     0.002 A 
ATOM     87  C   UNL     1     -11.700 -11.900  -0.460  1.00  0.00     0.091 A 
ATOM     88  F   UNL     1     -12.671 -13.786   0.637  1.00  0.00    -0.205 F 
ATOM     89  C   UNL     1     -10.973 -10.701  -0.377  1.00  0.00     0.022 A 
BRANCH  87  90
ATOM     90  S   UNL     1     -12.146 -12.488  -2.095  1.00  0.00     0.127 S 
ATOM     91  O   UNL     1     -13.104 -11.476  -2.533  1.00  0.00    -0.237 OA
ATOM     92  O   UNL     1     -10.860 -12.456  -2.794  1.00  0.00    -0.237 OA
ATOM     93  O   UNL     1     -12.697 -13.825  -1.912  1.00  0.00    -0.744 OA
ENDBRANCH  87  90
ENDBRANCH  60  83
ENDBRANCH  34  35
ENDBRANCH  26  29
ENDBRANCH  24  25
ENDBRANCH  23  24
ENDBRANCH   1  23
TORSDOF 18
