REMARK SMILES Cc1ccc(CNc2ccc(C(=O)NCCCCNC(=O)c3ccc(-c4c5nc(c(-c6cccc(S(=O)(=O)[O-])c6F)c6ccc([nH]6)c(-c6cccc(S(=O)(=O)[O-])c6F)c6nc(c(-c7cccc(S(=O)(=O)[O-])c7F)c7ccc4[nH]7)C=C6)C=C5)cc3)cc2Br)cc1
REMARK SMILES IDX 16 1 15 2 14 3 12 4 13 5 11 7 8 8 9 9 86 10 10 11 85 12
REMARK SMILES IDX 87 13 7 14 6 16 5 17 1 18 2 19 3 20 89 21 4 22 88 23 17 24
REMARK SMILES IDX 18 25 19 26 20 27 21 29 22 30 23 31 84 32 24 33 83 34 25 35
REMARK SMILES IDX 26 36 27 37 77 38 28 39 82 40 76 41 78 42 29 43 81 44 75 45
REMARK SMILES IDX 74 46 30 48 62 49 42 50 61 51 43 52 46 53 60 54 79 55 44 56
REMARK SMILES IDX 45 57 59 59 80 60 47 61 31 62 32 63 40 64 33 65 35 66 41 67
REMARK SMILES IDX 34 68 36 69 37 70 38 71 39 72 63 73 64 74 72 75 65 76 67 77
REMARK SMILES IDX 73 78 66 79 68 80 69 81 70 82 71 83 48 84 49 85 57 86 50 87
REMARK SMILES IDX 52 88 58 89 51 90 53 91 54 92 55 93 56 94
REMARK H PARENT 14 6 7 15 19 28 78 47 46 58
REMARK Flexibility Score: inf
ROOT
ATOM      1  C   UNL     1     -10.106  -3.561   0.037  1.00  0.00     0.023 C 
ENDROOT
BRANCH   1   2
ATOM      2  C   UNL     1      -8.930  -4.140   0.823  1.00  0.00     0.116 C 
BRANCH   2   3
ATOM      3  N   UNL     1      -8.159  -5.141   0.097  1.00  0.00    -0.352 N 
ATOM      4  C   UNL     1      -6.987  -5.130  -0.623  1.00  0.00     0.251 C 
ATOM      5  O   UNL     1      -6.654  -6.173  -1.188  1.00  0.00    -0.269 OA
ATOM      6  H   UNL     1      -8.573  -6.034   0.131  1.00  0.00     0.163 HD
BRANCH   4   7
ATOM      7  C   UNL     1      -6.120  -3.933  -0.798  1.00  0.00     0.041 A 
ATOM      8  C   UNL     1      -4.436  -1.679  -1.235  1.00  0.00     0.049 A 
ATOM      9  C   UNL     1      -5.317  -1.741  -0.156  1.00  0.00     0.028 A 
ATOM     10  C   UNL     1      -4.408  -2.786  -2.102  1.00  0.00     0.041 A 
ATOM     11  C   UNL     1      -6.073  -2.880   0.105  1.00  0.00     0.016 A 
ATOM     12  C   UNL     1      -5.249  -3.891  -1.899  1.00  0.00     0.031 A 
ATOM     13  Br  UNL     1      -3.172  -2.856  -3.549  1.00  0.00    -0.049 Br
BRANCH   8  14
ATOM     14  N   UNL     1      -3.590  -0.592  -1.395  1.00  0.00    -0.380 N 
ATOM     15  H   UNL     1      -3.293  -0.343  -2.300  1.00  0.00     0.160 HD
BRANCH  14  16
ATOM     16  C   UNL     1      -3.131   0.191  -0.259  1.00  0.00     0.148 C 
BRANCH  16  17
ATOM     17  C   UNL     1      -1.629   0.148  -0.181  1.00  0.00    -0.029 A 
ATOM     18  C   UNL     1       2.667  -0.001   0.038  1.00  0.00     0.044 C 
ATOM     19  C   UNL     1       1.172   0.059  -0.011  1.00  0.00    -0.051 A 
ATOM     20  C   UNL     1       0.430  -1.126  -0.022  1.00  0.00     0.004 A 
ATOM     21  C   UNL     1       0.503   1.288  -0.059  1.00  0.00     0.004 A 
ATOM     22  C   UNL     1      -0.959  -1.083  -0.099  1.00  0.00     0.006 A 
ATOM     23  C   UNL     1      -0.888   1.332  -0.142  1.00  0.00     0.006 A 
ENDBRANCH  16  17
ENDBRANCH  14  16
ENDBRANCH   8  14
ENDBRANCH   4   7
ENDBRANCH   2   3
ENDBRANCH   1   2
BRANCH   1  24
ATOM     24  C   UNL     1     -11.316  -4.479  -0.184  1.00  0.00     0.023 C 
BRANCH  24  25
ATOM     25  C   UNL     1     -11.901  -5.086   1.081  1.00  0.00     0.116 C 
BRANCH  25  26
ATOM     26  N   UNL     1     -12.298  -4.069   2.050  1.00  0.00    -0.352 N 
ATOM     27  C   UNL     1     -12.837  -4.219   3.308  1.00  0.00     0.251 C 
ATOM     28  H   UNL     1     -12.160  -3.138   1.762  1.00  0.00     0.163 HD
ATOM     29  O   UNL     1     -13.654  -3.363   3.683  1.00  0.00    -0.269 OA
BRANCH  27  30
ATOM     30  C   UNL     1     -12.373  -5.276   4.226  1.00  0.00     0.039 A 
ATOM     31  C   UNL     1     -12.894  -5.401   5.523  1.00  0.00     0.014 A 
ATOM     32  C   UNL     1     -11.227  -5.985   3.893  1.00  0.00     0.014 A 
ATOM     33  C   UNL     1     -12.133  -6.044   6.500  1.00  0.00     0.010 A 
ATOM     34  C   UNL     1     -10.628  -6.824   4.768  1.00  0.00     0.010 A 
ATOM     35  C   UNL     1     -10.947  -6.643   6.102  1.00  0.00    -0.014 A 
BRANCH  35  36
ATOM     36  C   UNL     1      -9.825  -7.027   6.928  1.00  0.00     0.031 A 
ATOM     37  C   UNL     1      -9.831  -8.372   7.495  1.00  0.00     0.074 A 
ATOM     38  C   UNL     1      -8.695  -6.316   6.687  1.00  0.00     0.049 A 
ATOM     39  N   UNL     1      -8.936  -8.825   8.292  1.00  0.00    -0.248 NA
ATOM     40  C   UNL     1     -10.889  -9.327   7.188  1.00  0.00     0.031 C 
ATOM     41  C   UNL     1      -7.314  -6.784   6.691  1.00  0.00     0.029 A 
ATOM     42  N   UNL     1      -8.542  -5.004   6.258  1.00  0.00    -0.354 N 
ATOM     43  C   UNL     1      -9.106 -10.192   8.337  1.00  0.00     0.074 A 
ATOM     44  C   UNL     1     -10.417 -10.423   7.784  1.00  0.00     0.031 C 
ATOM     45  C   UNL     1      -6.491  -5.720   6.585  1.00  0.00     0.029 A 
ATOM     46  C   UNL     1      -7.314  -4.528   6.709  1.00  0.00     0.049 A 
ATOM     47  H   UNL     1      -9.193  -4.495   5.723  1.00  0.00     0.167 HD
ATOM     48  C   UNL     1      -8.027 -10.962   8.653  1.00  0.00     0.034 A 
ATOM     49  C   UNL     1      -7.234  -3.636   7.750  1.00  0.00     0.034 A 
ATOM     50  C   UNL     1      -6.866 -10.095   8.953  1.00  0.00     0.049 A 
ATOM     51  C   UNL     1      -6.652  -4.269   9.011  1.00  0.00     0.074 A 
ATOM     52  C   UNL     1      -5.778  -9.697   8.191  1.00  0.00     0.029 A 
ATOM     53  N   UNL     1      -6.919  -9.220  10.037  1.00  0.00    -0.354 N 
ATOM     54  N   UNL     1      -6.424  -5.547   9.146  1.00  0.00    -0.248 NA
ATOM     55  C   UNL     1      -6.271  -3.524  10.208  1.00  0.00     0.031 C 
ATOM     56  C   UNL     1      -5.254  -8.502   8.764  1.00  0.00     0.029 A 
ATOM     57  C   UNL     1      -5.994  -8.192   9.894  1.00  0.00     0.049 A 
ATOM     58  H   UNL     1      -7.530  -9.317  10.802  1.00  0.00     0.167 HD
ATOM     59  C   UNL     1      -6.028  -5.831  10.420  1.00  0.00     0.074 A 
ATOM     60  C   UNL     1      -5.866  -4.516  11.023  1.00  0.00     0.031 C 
ATOM     61  C   UNL     1      -5.921  -7.116  10.885  1.00  0.00     0.034 A 
BRANCH  48  62
ATOM     62  C   UNL     1      -7.894 -12.460   8.401  1.00  0.00     0.023 A 
ATOM     63  C   UNL     1      -6.592 -13.004   8.489  1.00  0.00     0.012 A 
ATOM     64  C   UNL     1      -8.913 -13.379   8.044  1.00  0.00     0.148 A 
ATOM     65  C   UNL     1      -6.306 -14.339   8.178  1.00  0.00     0.002 A 
ATOM     66  C   UNL     1      -8.627 -14.705   7.702  1.00  0.00     0.091 A 
ATOM     67  F   UNL     1     -10.192 -13.016   8.083  1.00  0.00    -0.205 F 
ATOM     68  C   UNL     1      -7.320 -15.187   7.764  1.00  0.00     0.022 A 
BRANCH  66  69
ATOM     69  S   UNL     1      -9.896 -15.863   7.143  1.00  0.00     0.127 S 
ATOM     70  O   UNL     1      -9.350 -16.321   5.863  1.00  0.00    -0.237 OA
ATOM     71  O   UNL     1      -9.886 -16.869   8.202  1.00  0.00    -0.237 OA
ATOM     72  O   UNL     1     -11.132 -15.099   7.025  1.00  0.00    -0.744 OA
ENDBRANCH  66  69
ENDBRANCH  48  62
BRANCH  49  73
ATOM     73  C   UNL     1      -8.349  -2.631   7.716  1.00  0.00     0.023 A 
ATOM     74  C   UNL     1      -8.381  -1.773   6.589  1.00  0.00     0.012 A 
ATOM     75  C   UNL     1      -9.540  -2.857   8.429  1.00  0.00     0.148 A 
ATOM     76  C   UNL     1      -9.599  -1.343   6.057  1.00  0.00     0.002 A 
ATOM     77  C   UNL     1     -10.752  -2.420   7.893  1.00  0.00     0.091 A 
ATOM     78  F   UNL     1      -9.486  -3.556   9.570  1.00  0.00    -0.205 F 
ATOM     79  C   UNL     1     -10.787  -1.716   6.678  1.00  0.00     0.022 A 
BRANCH  77  80
ATOM     80  S   UNL     1     -12.317  -2.855   8.667  1.00  0.00     0.127 S 
ATOM     81  O   UNL     1     -12.526  -1.720   9.563  1.00  0.00    -0.237 OA
ATOM     82  O   UNL     1     -13.240  -2.911   7.534  1.00  0.00    -0.237 OA
ATOM     83  O   UNL     1     -12.076  -4.142   9.301  1.00  0.00    -0.744 OA
ENDBRANCH  77  80
ENDBRANCH  49  73
BRANCH  61  84
ATOM     84  C   UNL     1      -5.731  -7.475  12.342  1.00  0.00     0.023 A 
ATOM     85  C   UNL     1      -6.143  -6.621  13.383  1.00  0.00     0.012 A 
ATOM     86  C   UNL     1      -5.259  -8.759  12.716  1.00  0.00     0.148 A 
ATOM     87  C   UNL     1      -6.006  -6.979  14.727  1.00  0.00     0.002 A 
ATOM     88  C   UNL     1      -5.246  -9.157  14.047  1.00  0.00     0.091 A 
ATOM     89  F   UNL     1      -4.797  -9.600  11.778  1.00  0.00    -0.205 F 
ATOM     90  C   UNL     1      -5.577  -8.255  15.060  1.00  0.00     0.022 A 
BRANCH  88  91
ATOM     91  S   UNL     1      -4.956 -10.871  14.505  1.00  0.00     0.127 S 
ATOM     92  O   UNL     1      -3.543 -10.849  14.875  1.00  0.00    -0.237 OA
ATOM     93  O   UNL     1      -5.878 -11.052  15.629  1.00  0.00    -0.237 OA
ATOM     94  O   UNL     1      -5.298 -11.651  13.323  1.00  0.00    -0.744 OA
ENDBRANCH  88  91
ENDBRANCH  61  84
ENDBRANCH  35  36
ENDBRANCH  27  30
ENDBRANCH  25  26
ENDBRANCH  24  25
ENDBRANCH   1  24
TORSDOF 17
