REMARK SMILES NC(=O)[C@@H]1CCCCN1C(=O)N[C@H]1C=C[C@@H](C(=O)NCCCCNC(=O)c2ccc(-c3c4nc(c(-c5cccc(S(=O)(=O)[O-])c5F)c5ccc([nH]5)c(-c5cccc(S(=O)(=O)[O-])c5F)c5nc(c(-c6cccc(S(=O)(=O)[O-])c6F)c6ccc3[nH]6)C=C5)C=C4)cc2)C1
REMARK SMILES IDX 21 1 20 2 19 3 17 4 18 5 16 7 13 8 14 9 90 10 15 11 12 12
REMARK SMILES IDX 10 13 11 14 9 16 4 17 5 18 6 19 8 20 7 21 2 22 1 23 3 26
REMARK SMILES IDX 22 27 23 28 24 29 25 30 26 32 27 33 28 34 89 35 29 36 88 37
REMARK SMILES IDX 30 38 31 39 32 40 82 41 33 42 87 43 81 44 83 45 34 46 86 47
REMARK SMILES IDX 80 48 79 49 35 51 67 52 47 53 66 54 48 55 51 56 65 57 84 58
REMARK SMILES IDX 49 59 50 60 64 62 85 63 52 64 36 65 37 66 45 67 38 68 40 69
REMARK SMILES IDX 46 70 39 71 41 72 42 73 43 74 44 75 68 76 69 77 77 78 70 79
REMARK SMILES IDX 72 80 78 81 71 82 73 83 74 84 75 85 76 86 53 87 54 88 62 89
REMARK SMILES IDX 55 90 57 91 63 92 56 93 58 94 59 95 60 96 61 97
REMARK H PARENT 19 6 12 15 1 24 1 25 24 31 83 50 51 61
REMARK Flexibility Score: inf
ROOT
ATOM      1  C   UNL     1      -2.916  -1.387   4.447  1.00  0.00     0.023 C 
ENDROOT
BRANCH   1   2
ATOM      2  C   UNL     1      -3.003  -0.989   5.918  1.00  0.00     0.116 C 
BRANCH   2   3
ATOM      3  N   UNL     1      -2.722  -2.083   6.827  1.00  0.00    -0.356 N 
ATOM      4  C   UNL     1      -1.745  -2.221   7.765  1.00  0.00     0.227 C 
ATOM      5  O   UNL     1      -1.795  -3.209   8.506  1.00  0.00    -0.274 OA
ATOM      6  H   UNL     1      -3.337  -2.849   6.755  1.00  0.00     0.163 HD
BRANCH   4   7
ATOM      7  C   UNL     1      -0.561  -1.253   7.877  1.00  0.00     0.103 C 
ATOM      8  C   UNL     1       0.609   0.198   6.243  1.00  0.00     0.107 C 
ATOM      9  C   UNL     1      -0.191   0.976   7.253  1.00  0.00    -0.006 C 
ATOM     10  C   UNL     1       0.286  -1.252   6.606  1.00  0.00     0.047 C 
ATOM     11  C   UNL     1      -0.850   0.192   8.116  1.00  0.00    -0.016 C 
BRANCH   8  12
ATOM     12  N   UNL     1       0.163   0.607   4.922  1.00  0.00    -0.332 N 
ATOM     13  C   UNL     1       0.337   0.248   3.639  1.00  0.00     0.318 C 
ATOM     14  O   UNL     1      -0.270   0.972   2.846  1.00  0.00    -0.249 OA
ATOM     15  H   UNL     1      -0.448   1.376   4.986  1.00  0.00     0.165 HD
BRANCH  13  16
ATOM     16  N   UNL     1       1.100  -0.803   3.226  1.00  0.00    -0.313 N 
ATOM     17  C   UNL     1       0.940  -1.343   1.846  1.00  0.00     0.176 C 
ATOM     18  C   UNL     1       0.455  -2.802   1.926  1.00  0.00     0.035 C 
ATOM     19  C   UNL     1       1.426  -3.657   2.739  1.00  0.00     0.004 C 
ATOM     20  C   UNL     1       2.082  -1.560   3.996  1.00  0.00     0.122 C 
ATOM     21  C   UNL     1       1.687  -3.037   4.108  1.00  0.00     0.022 C 
BRANCH  17  22
ATOM     22  C   UNL     1       0.091  -0.611   0.778  1.00  0.00     0.240 C 
ATOM     23  N   UNL     1       0.774   0.294   0.010  1.00  0.00    -0.368 N 
ATOM     24  H   UNL     1       0.304   0.800  -0.691  1.00  0.00     0.159 HD
ATOM     25  H   UNL     1       1.737   0.439   0.159  1.00  0.00     0.159 HD
ATOM     26  O   UNL     1      -1.106  -0.808   0.587  1.00  0.00    -0.273 OA
ENDBRANCH  17  22
ENDBRANCH  13  16
ENDBRANCH   8  12
ENDBRANCH   4   7
ENDBRANCH   2   3
ENDBRANCH   1   2
BRANCH   1  27
ATOM     27  C   UNL     1      -4.004  -2.342   3.959  1.00  0.00     0.023 C 
BRANCH  27  28
ATOM     28  C   UNL     1      -5.435  -1.941   4.298  1.00  0.00     0.116 C 
BRANCH  28  29
ATOM     29  N   UNL     1      -5.793  -0.601   3.856  1.00  0.00    -0.352 N 
ATOM     30  C   UNL     1      -7.011  -0.145   3.405  1.00  0.00     0.251 C 
ATOM     31  H   UNL     1      -5.069   0.066   3.884  1.00  0.00     0.163 HD
ATOM     32  O   UNL     1      -7.138   1.008   3.015  1.00  0.00    -0.269 OA
BRANCH  30  33
ATOM     33  C   UNL     1      -8.156  -1.079   3.355  1.00  0.00     0.039 A 
ATOM     34  C   UNL     1      -8.874  -1.197   2.162  1.00  0.00     0.014 A 
ATOM     35  C   UNL     1      -8.486  -1.869   4.459  1.00  0.00     0.014 A 
ATOM     36  C   UNL     1      -9.880  -2.159   2.054  1.00  0.00     0.010 A 
ATOM     37  C   UNL     1      -9.438  -2.875   4.326  1.00  0.00     0.010 A 
ATOM     38  C   UNL     1     -10.144  -3.031   3.123  1.00  0.00    -0.014 A 
BRANCH  38  39
ATOM     39  C   UNL     1     -11.142  -4.123   3.001  1.00  0.00     0.031 A 
ATOM     40  C   UNL     1     -12.365  -4.133   3.876  1.00  0.00     0.074 A 
ATOM     41  C   UNL     1     -10.900  -5.156   2.170  1.00  0.00     0.049 A 
ATOM     42  N   UNL     1     -13.315  -5.027   3.956  1.00  0.00    -0.248 NA
ATOM     43  C   UNL     1     -12.525  -3.002   4.805  1.00  0.00     0.031 C 
ATOM     44  C   UNL     1      -9.711  -5.304   1.327  1.00  0.00     0.029 A 
ATOM     45  N   UNL     1     -11.629  -6.291   1.915  1.00  0.00    -0.354 N 
ATOM     46  C   UNL     1     -14.165  -4.588   4.964  1.00  0.00     0.074 A 
ATOM     47  C   UNL     1     -13.596  -3.368   5.494  1.00  0.00     0.031 C 
ATOM     48  C   UNL     1      -9.798  -6.456   0.642  1.00  0.00     0.029 A 
ATOM     49  C   UNL     1     -11.032  -7.141   1.014  1.00  0.00     0.049 A 
ATOM     50  H   UNL     1     -12.498  -6.479   2.338  1.00  0.00     0.167 HD
ATOM     51  C   UNL     1     -15.332  -5.130   5.388  1.00  0.00     0.034 A 
ATOM     52  C   UNL     1     -11.434  -8.336   0.539  1.00  0.00     0.034 A 
ATOM     53  C   UNL     1     -15.918  -6.317   4.827  1.00  0.00     0.049 A 
ATOM     54  C   UNL     1     -12.753  -8.898   0.996  1.00  0.00     0.074 A 
ATOM     55  C   UNL     1     -17.138  -6.898   5.124  1.00  0.00     0.029 A 
ATOM     56  N   UNL     1     -15.323  -7.109   3.856  1.00  0.00    -0.354 N 
ATOM     57  N   UNL     1     -13.622  -8.387   1.834  1.00  0.00    -0.248 NA
ATOM     58  C   UNL     1     -13.162 -10.186   0.417  1.00  0.00     0.031 C 
ATOM     59  C   UNL     1     -17.274  -8.051   4.341  1.00  0.00     0.029 A 
ATOM     60  C   UNL     1     -16.147  -8.178   3.545  1.00  0.00     0.049 A 
ATOM     61  H   UNL     1     -14.445  -6.936   3.447  1.00  0.00     0.167 HD
ATOM     62  C   UNL     1     -14.696  -9.269   1.856  1.00  0.00     0.074 A 
ATOM     63  C   UNL     1     -14.375 -10.339   0.933  1.00  0.00     0.031 C 
ATOM     64  C   UNL     1     -15.838  -9.207   2.585  1.00  0.00     0.034 A 
BRANCH  51  65
ATOM     65  C   UNL     1     -16.079  -4.400   6.474  1.00  0.00     0.023 A 
ATOM     66  C   UNL     1     -16.700  -3.168   6.178  1.00  0.00     0.012 A 
ATOM     67  C   UNL     1     -16.195  -4.935   7.771  1.00  0.00     0.148 A 
ATOM     68  C   UNL     1     -17.384  -2.459   7.164  1.00  0.00     0.002 A 
ATOM     69  C   UNL     1     -16.918  -4.244   8.738  1.00  0.00     0.091 A 
ATOM     70  F   UNL     1     -15.580  -6.095   8.044  1.00  0.00    -0.205 F 
ATOM     71  C   UNL     1     -17.500  -3.001   8.440  1.00  0.00     0.022 A 
BRANCH  69  72
ATOM     72  S   UNL     1     -17.188  -4.900  10.389  1.00  0.00     0.127 S 
ATOM     73  O   UNL     1     -16.240  -4.114  11.178  1.00  0.00    -0.237 OA
ATOM     74  O   UNL     1     -18.595  -4.575  10.627  1.00  0.00    -0.237 OA
ATOM     75  O   UNL     1     -16.906  -6.326  10.299  1.00  0.00    -0.744 OA
ENDBRANCH  69  72
ENDBRANCH  51  65
BRANCH  52  76
ATOM     76  C   UNL     1     -10.620  -9.033  -0.497  1.00  0.00     0.023 A 
ATOM     77  C   UNL     1     -11.099  -9.082  -1.821  1.00  0.00     0.012 A 
ATOM     78  C   UNL     1      -9.368  -9.602  -0.197  1.00  0.00     0.148 A 
ATOM     79  C   UNL     1     -10.357  -9.707  -2.824  1.00  0.00     0.002 A 
ATOM     80  C   UNL     1      -8.611 -10.180  -1.210  1.00  0.00     0.091 A 
ATOM     81  F   UNL     1      -8.936  -9.553   1.071  1.00  0.00    -0.205 F 
ATOM     82  C   UNL     1      -9.110 -10.246  -2.521  1.00  0.00     0.022 A 
BRANCH  80  83
ATOM     83  S   UNL     1      -6.943 -10.793  -0.943  1.00  0.00     0.127 S 
ATOM     84  O   UNL     1      -7.126 -12.235  -1.095  1.00  0.00    -0.237 OA
ATOM     85  O   UNL     1      -6.207 -10.148  -2.031  1.00  0.00    -0.237 OA
ATOM     86  O   UNL     1      -6.566 -10.342   0.389  1.00  0.00    -0.744 OA
ENDBRANCH  80  83
ENDBRANCH  52  76
BRANCH  64  87
ATOM     87  C   UNL     1     -16.845 -10.312   2.401  1.00  0.00     0.023 A 
ATOM     88  C   UNL     1     -16.587 -11.588   2.942  1.00  0.00     0.012 A 
ATOM     89  C   UNL     1     -18.076 -10.067   1.762  1.00  0.00     0.148 A 
ATOM     90  C   UNL     1     -17.528 -12.610   2.825  1.00  0.00     0.002 A 
ATOM     91  C   UNL     1     -19.028 -11.078   1.689  1.00  0.00     0.091 A 
ATOM     92  F   UNL     1     -18.294  -8.853   1.236  1.00  0.00    -0.205 F 
ATOM     93  C   UNL     1     -18.751 -12.352   2.210  1.00  0.00     0.022 A 
BRANCH  91  94
ATOM     94  S   UNL     1     -20.665 -10.809   1.000  1.00  0.00     0.127 S 
ATOM     95  O   UNL     1     -20.565 -11.498  -0.285  1.00  0.00    -0.237 OA
ATOM     96  O   UNL     1     -21.529 -11.468   1.980  1.00  0.00    -0.237 OA
ATOM     97  O   UNL     1     -20.834  -9.364   0.925  1.00  0.00    -0.744 OA
ENDBRANCH  91  94
ENDBRANCH  64  87
ENDBRANCH  38  39
ENDBRANCH  30  33
ENDBRANCH  28  29
ENDBRANCH  27  28
ENDBRANCH   1  27
TORSDOF 17
