REMARK SMILES CCC[C@H](Nc1cc(C)c(N)c(C(=O)NCCCCNC(=O)c2ccc(-c3c4nc(c(-c5cccc(S(=O)(=O)[O-])c5F)c5ccc([nH]5)c(-c5cccc(S(=O)(=O)[O-])c5F)c5nc(c(-c6cccc(S(=O)(=O)[O-])c6F)c6ccc3[nH]6)C=C5)C=C4)cc2)c1)c1cccs1
REMARK SMILES IDX 17 1 16 2 15 3 13 4 14 5 12 7 6 8 7 9 86 10 8 11 9 12 10 13
REMARK SMILES IDX 5 14 4 16 3 17 2 18 1 19 87 20 88 21 91 22 89 23 90 24 11 25
REMARK SMILES IDX 18 28 19 29 20 30 21 31 22 33 23 34 24 35 85 36 25 37 84 38
REMARK SMILES IDX 26 39 27 40 28 41 78 42 29 43 83 44 77 45 79 46 30 47 82 48
REMARK SMILES IDX 76 49 75 50 31 52 63 53 43 54 62 55 44 56 47 57 61 58 80 59
REMARK SMILES IDX 45 60 46 61 60 63 81 64 48 65 32 66 33 67 41 68 34 69 36 70
REMARK SMILES IDX 42 71 35 72 37 73 38 74 39 75 40 76 64 77 65 78 73 79 66 80
REMARK SMILES IDX 68 81 74 82 67 83 69 84 70 85 71 86 72 87 49 88 50 89 58 90
REMARK SMILES IDX 51 91 53 92 59 93 52 94 54 95 55 96 56 97 57 98
REMARK H PARENT 15 6 5 15 11 26 11 27 20 32 79 51 47 62
REMARK Flexibility Score: inf
ROOT
ATOM      1  C   UNL     1       2.280   1.039  -6.811  1.00  0.00     0.023 C 
ENDROOT
BRANCH   1   2
ATOM      2  C   UNL     1       1.905   2.320  -6.059  1.00  0.00     0.116 C 
BRANCH   2   3
ATOM      3  N   UNL     1       0.578   2.756  -6.443  1.00  0.00    -0.352 N 
ATOM      4  C   UNL     1      -0.669   2.596  -5.890  1.00  0.00     0.253 C 
ATOM      5  O   UNL     1      -1.605   3.095  -6.522  1.00  0.00    -0.269 OA
ATOM      6  H   UNL     1       0.568   3.279  -7.277  1.00  0.00     0.163 HD
BRANCH   4   7
ATOM      7  C   UNL     1      -0.935   1.912  -4.577  1.00  0.00     0.065 A 
ATOM      8  C   UNL     1      -0.279   0.331  -2.819  1.00  0.00     0.036 A 
ATOM      9  C   UNL     1      -1.375   0.755  -2.073  1.00  0.00     0.031 A 
ATOM     10  C   UNL     1      -0.090   0.909  -4.076  1.00  0.00     0.041 A 
ATOM     11  C   UNL     1      -2.320   1.656  -2.587  1.00  0.00    -0.025 A 
ATOM     12  C   UNL     1      -3.571   1.915  -1.792  1.00  0.00     0.046 C 
ATOM     13  C   UNL     1      -2.106   2.248  -3.847  1.00  0.00     0.047 A 
BRANCH   8  14
ATOM     14  N   UNL     1       0.579  -0.649  -2.358  1.00  0.00    -0.377 N 
ATOM     15  H   UNL     1       1.487  -0.359  -2.109  1.00  0.00     0.161 HD
BRANCH  14  16
ATOM     16  C   UNL     1       0.276  -2.088  -2.202  1.00  0.00     0.119 C 
BRANCH  16  17
ATOM     17  C   UNL     1      -1.224  -2.450  -2.032  1.00  0.00     0.030 C 
BRANCH  17  18
ATOM     18  C   UNL     1      -1.560  -3.109  -0.684  1.00  0.00    -0.001 C 
ATOM     19  C   UNL     1      -1.268  -2.247   0.535  1.00  0.00     0.004 C 
ENDBRANCH  17  18
ENDBRANCH  16  17
BRANCH  16  20
ATOM     20  C   UNL     1       0.912  -2.967  -3.278  1.00  0.00     0.027 A 
ATOM     21  C   UNL     1       1.400  -2.626  -4.526  1.00  0.00     0.017 A 
ATOM     22  S   UNL     1       1.112  -4.656  -2.990  1.00  0.00    -0.147 S 
ATOM     23  C   UNL     1       1.883  -3.748  -5.259  1.00  0.00     0.012 A 
ATOM     24  C   UNL     1       1.756  -4.919  -4.548  1.00  0.00     0.065 A 
ENDBRANCH  16  20
ENDBRANCH  14  16
ENDBRANCH   8  14
BRANCH  13  25
ATOM     25  N   UNL     1      -3.014   3.191  -4.324  1.00  0.00    -0.398 N 
ATOM     26  H   UNL     1      -3.819   3.407  -3.800  1.00  0.00     0.156 HD
ATOM     27  H   UNL     1      -2.850   3.641  -5.184  1.00  0.00     0.156 HD
ENDBRANCH  13  25
ENDBRANCH   4   7
ENDBRANCH   2   3
ENDBRANCH   1   2
BRANCH   1  28
ATOM     28  C   UNL     1       2.693   1.267  -8.269  1.00  0.00     0.023 C 
BRANCH  28  29
ATOM     29  C   UNL     1       3.953   2.108  -8.458  1.00  0.00     0.116 C 
BRANCH  29  30
ATOM     30  N   UNL     1       5.115   1.557  -7.776  1.00  0.00    -0.352 N 
ATOM     31  C   UNL     1       6.440   1.648  -8.138  1.00  0.00     0.251 C 
ATOM     32  H   UNL     1       4.929   1.055  -6.950  1.00  0.00     0.163 HD
ATOM     33  O   UNL     1       7.295   1.040  -7.515  1.00  0.00    -0.269 OA
BRANCH  31  34
ATOM     34  C   UNL     1       6.802   2.462  -9.318  1.00  0.00     0.039 A 
ATOM     35  C   UNL     1       7.575   1.878 -10.325  1.00  0.00     0.014 A 
ATOM     36  C   UNL     1       6.336   3.772  -9.449  1.00  0.00     0.014 A 
ATOM     37  C   UNL     1       7.821   2.588 -11.501  1.00  0.00     0.010 A 
ATOM     38  C   UNL     1       6.531   4.454 -10.645  1.00  0.00     0.010 A 
ATOM     39  C   UNL     1       7.268   3.867 -11.685  1.00  0.00    -0.014 A 
BRANCH  39  40
ATOM     40  C   UNL     1       7.415   4.594 -12.970  1.00  0.00     0.031 A 
ATOM     41  C   UNL     1       8.166   5.894 -13.023  1.00  0.00     0.074 A 
ATOM     42  C   UNL     1       6.777   4.134 -14.065  1.00  0.00     0.049 A 
ATOM     43  N   UNL     1       8.335   6.706 -14.034  1.00  0.00    -0.248 NA
ATOM     44  C   UNL     1       8.786   6.357 -11.770  1.00  0.00     0.031 C 
ATOM     45  C   UNL     1       5.945   2.930 -14.115  1.00  0.00     0.029 A 
ATOM     46  N   UNL     1       6.700   4.643 -15.337  1.00  0.00    -0.354 N 
ATOM     47  C   UNL     1       9.045   7.791 -13.534  1.00  0.00     0.074 A 
ATOM     48  C   UNL     1       9.251   7.547 -12.123  1.00  0.00     0.031 C 
ATOM     49  C   UNL     1       5.441   2.795 -15.352  1.00  0.00     0.029 A 
ATOM     50  C   UNL     1       5.891   3.913 -16.175  1.00  0.00     0.049 A 
ATOM     51  H   UNL     1       7.179   5.455 -15.622  1.00  0.00     0.167 HD
ATOM     52  C   UNL     1       9.510   8.876 -14.197  1.00  0.00     0.034 A 
ATOM     53  C   UNL     1       5.546   4.123 -17.461  1.00  0.00     0.034 A 
ATOM     54  C   UNL     1       9.348   9.088 -15.610  1.00  0.00     0.049 A 
ATOM     55  C   UNL     1       6.118   5.311 -18.186  1.00  0.00     0.074 A 
ATOM     56  C   UNL     1       9.869  10.101 -16.393  1.00  0.00     0.029 A 
ATOM     57  N   UNL     1       8.604   8.274 -16.450  1.00  0.00    -0.354 N 
ATOM     58  N   UNL     1       6.934   6.234 -17.739  1.00  0.00    -0.248 NA
ATOM     59  C   UNL     1       5.751   5.468 -19.601  1.00  0.00     0.031 C 
ATOM     60  C   UNL     1       9.429   9.909 -17.707  1.00  0.00     0.029 A 
ATOM     61  C   UNL     1       8.644   8.767 -17.743  1.00  0.00     0.049 A 
ATOM     62  H   UNL     1       8.118   7.465 -16.169  1.00  0.00     0.167 HD
ATOM     63  C   UNL     1       7.204   7.062 -18.822  1.00  0.00     0.074 A 
ATOM     64  C   UNL     1       6.481   6.518 -19.953  1.00  0.00     0.031 C 
ATOM     65  C   UNL     1       7.965   8.183 -18.871  1.00  0.00     0.034 A 
BRANCH  52  66
ATOM     66  C   UNL     1      10.301   9.888 -13.411  1.00  0.00     0.023 A 
ATOM     67  C   UNL     1      11.608   9.567 -12.990  1.00  0.00     0.012 A 
ATOM     68  C   UNL     1       9.781  11.168 -13.138  1.00  0.00     0.148 A 
ATOM     69  C   UNL     1      12.374  10.492 -12.283  1.00  0.00     0.002 A 
ATOM     70  C   UNL     1      10.567  12.100 -12.468  1.00  0.00     0.091 A 
ATOM     71  F   UNL     1       8.528  11.447 -13.525  1.00  0.00    -0.205 F 
ATOM     72  C   UNL     1      11.858  11.760 -12.031  1.00  0.00     0.022 A 
BRANCH  70  73
ATOM     73  S   UNL     1      10.020  13.783 -12.160  1.00  0.00     0.127 S 
ATOM     74  O   UNL     1       9.746  13.746 -10.725  1.00  0.00    -0.237 OA
ATOM     75  O   UNL     1      11.199  14.565 -12.536  1.00  0.00    -0.237 OA
ATOM     76  O   UNL     1       8.860  13.989 -13.016  1.00  0.00    -0.744 OA
ENDBRANCH  70  73
ENDBRANCH  52  66
BRANCH  53  77
ATOM     77  C   UNL     1       4.672   3.143 -18.165  1.00  0.00     0.023 A 
ATOM     78  C   UNL     1       5.231   2.311 -19.155  1.00  0.00     0.012 A 
ATOM     79  C   UNL     1       3.310   3.001 -17.838  1.00  0.00     0.148 A 
ATOM     80  C   UNL     1       4.444   1.376 -19.827  1.00  0.00     0.002 A 
ATOM     81  C   UNL     1       2.543   2.031 -18.475  1.00  0.00     0.091 A 
ATOM     82  F   UNL     1       2.792   3.811 -16.904  1.00  0.00    -0.205 F 
ATOM     83  C   UNL     1       3.104   1.228 -19.480  1.00  0.00     0.022 A 
BRANCH  81  84
ATOM     84  S   UNL     1       0.847   1.683 -17.996  1.00  0.00     0.127 S 
ATOM     85  O   UNL     1       0.097   2.267 -19.105  1.00  0.00    -0.237 OA
ATOM     86  O   UNL     1       0.838   0.220 -17.949  1.00  0.00    -0.237 OA
ATOM     87  O   UNL     1       0.670   2.323 -16.700  1.00  0.00    -0.744 OA
ENDBRANCH  81  84
ENDBRANCH  53  77
BRANCH  65  88
ATOM     88  C   UNL     1       8.082   8.891 -20.195  1.00  0.00     0.023 A 
ATOM     89  C   UNL     1       6.995   9.644 -20.678  1.00  0.00     0.012 A 
ATOM     90  C   UNL     1       9.293   8.880 -20.915  1.00  0.00     0.148 A 
ATOM     91  C   UNL     1       7.102  10.357 -21.872  1.00  0.00     0.002 A 
ATOM     92  C   UNL     1       9.407   9.629 -22.081  1.00  0.00     0.091 A 
ATOM     93  F   UNL     1      10.309   8.140 -20.448  1.00  0.00    -0.205 F 
ATOM     94  C   UNL     1       8.310  10.359 -22.565  1.00  0.00     0.022 A 
BRANCH  92  95
ATOM     95  S   UNL     1      10.951   9.765 -22.988  1.00  0.00     0.127 S 
ATOM     96  O   UNL     1      10.684   8.931 -24.159  1.00  0.00    -0.237 OA
ATOM     97  O   UNL     1      11.025  11.200 -23.265  1.00  0.00    -0.237 OA
ATOM     98  O   UNL     1      11.987   9.271 -22.091  1.00  0.00    -0.744 OA
ENDBRANCH  92  95
ENDBRANCH  65  88
ENDBRANCH  39  40
ENDBRANCH  31  34
ENDBRANCH  29  30
ENDBRANCH  28  29
ENDBRANCH   1  28
TORSDOF 20
