REMARK SMILES CC(C)[C@H](C)CNC(=O)N1CC(n2cc(C(=O)NCCCCNC(=O)c3ccc(-c4c5nc(c(-c6cccc(S(=O)(=O)[O-])c6F)c6ccc([nH]6)c(-c6cccc(S(=O)(=O)[O-])c6F)c6nc(c(-c7cccc(S(=O)(=O)[O-])c7F)c7ccc4[nH]7)C=C6)C=C5)cc3)nn2)C1
REMARK SMILES IDX 20 1 19 2 18 3 16 4 17 5 15 7 13 8 14 9 90 10 89 11 12 12
REMARK SMILES IDX 7 13 8 14 9 16 10 17 11 18 91 19 6 20 4 21 5 22 2 23 1 24
REMARK SMILES IDX 3 25 21 26 22 27 23 28 24 29 25 31 26 32 27 33 88 34 28 35
REMARK SMILES IDX 87 36 29 37 30 38 31 39 81 40 32 41 86 42 80 43 82 44 33 45
REMARK SMILES IDX 85 46 79 47 78 48 34 50 66 51 46 52 65 53 47 54 50 55 64 56
REMARK SMILES IDX 83 57 48 58 49 59 63 61 84 62 51 63 35 64 36 65 44 66 37 67
REMARK SMILES IDX 39 68 45 69 38 70 40 71 41 72 42 73 43 74 67 75 68 76 76 77
REMARK SMILES IDX 69 78 71 79 77 80 70 81 72 82 73 83 74 84 75 85 52 86 53 87
REMARK SMILES IDX 61 88 54 89 56 90 62 91 55 92 57 93 58 94 59 95 60 96
REMARK H PARENT 18 6 7 15 23 30 82 49 50 60
REMARK Flexibility Score: inf
ROOT
ATOM      1  C   UNL     1      -8.838   0.324   7.540  1.00  0.00     0.023 C 
ENDROOT
BRANCH   1   2
ATOM      2  C   UNL     1      -8.853  -0.386   6.181  1.00  0.00     0.116 C 
BRANCH   2   3
ATOM      3  N   UNL     1      -9.905   0.119   5.320  1.00  0.00    -0.351 N 
ATOM      4  C   UNL     1      -9.894   1.016   4.282  1.00  0.00     0.273 C 
ATOM      5  O   UNL     1     -10.984   1.237   3.728  1.00  0.00    -0.267 OA
ATOM      6  H   UNL     1     -10.795  -0.252   5.518  1.00  0.00     0.163 HD
BRANCH   4   7
ATOM      7  C   UNL     1      -8.681   1.693   3.842  1.00  0.00     0.170 A 
ATOM      8  N   UNL     1      -6.709   2.567   3.566  1.00  0.00    -0.245 N 
ATOM      9  C   UNL     1      -7.504   1.979   4.511  1.00  0.00     0.145 A 
ATOM     10  N   UNL     1      -7.360   2.731   2.411  1.00  0.00    -0.066 NA
ATOM     11  N   UNL     1      -8.574   2.223   2.569  1.00  0.00    -0.125 NA
BRANCH   8  12
ATOM     12  C   UNL     1      -5.350   2.936   3.798  1.00  0.00     0.148 C 
ATOM     13  N   UNL     1      -1.347   1.952   3.277  1.00  0.00    -0.338 N 
ATOM     14  C   UNL     1      -2.212   2.980   3.094  1.00  0.00     0.317 C 
ATOM     15  H   UNL     1      -0.501   2.194   3.718  1.00  0.00     0.165 HD
ATOM     16  O   UNL     1      -1.770   4.129   3.122  1.00  0.00    -0.249 OA
ATOM     17  N   UNL     1      -3.526   2.711   2.900  1.00  0.00    -0.320 N 
ATOM     18  C   UNL     1      -4.619   3.655   2.657  1.00  0.00     0.150 C 
ATOM     19  C   UNL     1      -4.407   1.743   3.537  1.00  0.00     0.150 C 
BRANCH  13  20
ATOM     20  C   UNL     1      -1.474   0.545   2.922  1.00  0.00     0.121 C 
BRANCH  20  21
ATOM     21  C   UNL     1      -0.984   0.265   1.484  1.00  0.00     0.008 C 
ATOM     22  C   UNL     1       0.537   0.450   1.374  1.00  0.00     0.010 C 
BRANCH  21  23
ATOM     23  C   UNL     1      -1.464  -1.129   0.982  1.00  0.00    -0.013 C 
ATOM     24  C   UNL     1      -1.075  -1.383  -0.478  1.00  0.00     0.008 C 
ATOM     25  C   UNL     1      -0.992  -2.303   1.848  1.00  0.00     0.008 C 
ENDBRANCH  21  23
ENDBRANCH  20  21
ENDBRANCH  13  20
ENDBRANCH   8  12
ENDBRANCH   4   7
ENDBRANCH   2   3
ENDBRANCH   1   2
BRANCH   1  26
ATOM     26  C   UNL     1      -9.951  -0.095   8.517  1.00  0.00     0.023 C 
BRANCH  26  27
ATOM     27  C   UNL     1      -9.865  -1.532   9.028  1.00  0.00     0.116 C 
BRANCH  27  28
ATOM     28  N   UNL     1      -8.632  -1.805   9.774  1.00  0.00    -0.352 N 
ATOM     29  C   UNL     1      -8.091  -3.034  10.099  1.00  0.00     0.251 C 
ATOM     30  H   UNL     1      -8.128  -1.017  10.079  1.00  0.00     0.163 HD
ATOM     31  O   UNL     1      -7.285  -3.145  11.023  1.00  0.00    -0.269 OA
BRANCH  29  32
ATOM     32  C   UNL     1      -8.487  -4.210   9.310  1.00  0.00     0.039 A 
ATOM     33  C   UNL     1      -8.852  -5.415   9.915  1.00  0.00     0.014 A 
ATOM     34  C   UNL     1      -8.560  -4.053   7.930  1.00  0.00     0.014 A 
ATOM     35  C   UNL     1      -9.390  -6.427   9.123  1.00  0.00     0.010 A 
ATOM     36  C   UNL     1      -9.232  -4.984   7.180  1.00  0.00     0.010 A 
ATOM     37  C   UNL     1      -9.607  -6.195   7.755  1.00  0.00    -0.014 A 
BRANCH  37  38
ATOM     38  C   UNL     1     -10.323  -7.171   6.936  1.00  0.00     0.031 A 
ATOM     39  C   UNL     1     -11.639  -7.626   7.470  1.00  0.00     0.074 A 
ATOM     40  C   UNL     1      -9.948  -7.491   5.677  1.00  0.00     0.049 A 
ATOM     41  N   UNL     1     -11.951  -8.813   7.877  1.00  0.00    -0.248 NA
ATOM     42  C   UNL     1     -12.700  -6.630   7.678  1.00  0.00     0.031 C 
ATOM     43  C   UNL     1      -8.866  -6.910   4.871  1.00  0.00     0.029 A 
ATOM     44  N   UNL     1     -10.577  -8.304   4.786  1.00  0.00    -0.354 N 
ATOM     45  C   UNL     1     -13.313  -8.772   8.177  1.00  0.00     0.074 A 
ATOM     46  C   UNL     1     -13.669  -7.377   8.213  1.00  0.00     0.031 C 
ATOM     47  C   UNL     1      -9.097  -7.161   3.565  1.00  0.00     0.029 A 
ATOM     48  C   UNL     1     -10.218  -8.074   3.462  1.00  0.00     0.049 A 
ATOM     49  H   UNL     1     -11.227  -8.994   5.054  1.00  0.00     0.167 HD
ATOM     50  C   UNL     1     -14.084  -9.896   8.141  1.00  0.00     0.034 A 
ATOM     51  C   UNL     1     -10.835  -8.562   2.361  1.00  0.00     0.034 A 
ATOM     52  C   UNL     1     -13.278 -11.090   8.086  1.00  0.00     0.049 A 
ATOM     53  C   UNL     1     -11.586  -9.765   2.786  1.00  0.00     0.074 A 
ATOM     54  C   UNL     1     -12.269 -11.625   8.863  1.00  0.00     0.029 A 
ATOM     55  N   UNL     1     -13.201 -11.742   6.878  1.00  0.00    -0.354 N 
ATOM     56  N   UNL     1     -11.009 -10.856   3.208  1.00  0.00    -0.248 NA
ATOM     57  C   UNL     1     -12.982  -9.607   3.160  1.00  0.00     0.031 C 
ATOM     58  C   UNL     1     -11.338 -12.159   7.924  1.00  0.00     0.029 A 
ATOM     59  C   UNL     1     -11.874 -11.984   6.646  1.00  0.00     0.049 A 
ATOM     60  H   UNL     1     -13.954 -11.988   6.294  1.00  0.00     0.167 HD
ATOM     61  C   UNL     1     -11.802 -11.275   4.268  1.00  0.00     0.074 A 
ATOM     62  C   UNL     1     -13.057 -10.538   4.115  1.00  0.00     0.031 C 
ATOM     63  C   UNL     1     -11.270 -11.946   5.333  1.00  0.00     0.034 A 
BRANCH  50  64
ATOM     64  C   UNL     1     -15.557  -9.946   7.795  1.00  0.00     0.023 A 
ATOM     65  C   UNL     1     -16.221 -11.185   7.963  1.00  0.00     0.012 A 
ATOM     66  C   UNL     1     -16.240  -8.952   7.060  1.00  0.00     0.148 A 
ATOM     67  C   UNL     1     -17.463 -11.443   7.373  1.00  0.00     0.002 A 
ATOM     68  C   UNL     1     -17.511  -9.186   6.544  1.00  0.00     0.091 A 
ATOM     69  F   UNL     1     -15.617  -7.818   6.729  1.00  0.00    -0.205 F 
ATOM     70  C   UNL     1     -18.112 -10.440   6.666  1.00  0.00     0.022 A 
BRANCH  68  71
ATOM     71  S   UNL     1     -18.417  -7.904   5.670  1.00  0.00     0.127 S 
ATOM     72  O   UNL     1     -18.267  -8.335   4.284  1.00  0.00    -0.237 OA
ATOM     73  O   UNL     1     -19.762  -8.054   6.226  1.00  0.00    -0.237 OA
ATOM     74  O   UNL     1     -17.759  -6.654   6.033  1.00  0.00    -0.744 OA
ENDBRANCH  68  71
ENDBRANCH  50  64
BRANCH  51  75
ATOM     75  C   UNL     1     -11.007  -7.947   1.026  1.00  0.00     0.023 A 
ATOM     76  C   UNL     1     -11.360  -8.755  -0.072  1.00  0.00     0.012 A 
ATOM     77  C   UNL     1     -11.101  -6.545   0.877  1.00  0.00     0.148 A 
ATOM     78  C   UNL     1     -11.831  -8.190  -1.263  1.00  0.00     0.002 A 
ATOM     79  C   UNL     1     -11.562  -5.987  -0.311  1.00  0.00     0.091 A 
ATOM     80  F   UNL     1     -10.833  -5.762   1.931  1.00  0.00    -0.205 F 
ATOM     81  C   UNL     1     -11.941  -6.807  -1.380  1.00  0.00     0.022 A 
BRANCH  79  82
ATOM     82  S   UNL     1     -11.747  -4.210  -0.518  1.00  0.00     0.127 S 
ATOM     83  O   UNL     1     -11.182  -3.999  -1.851  1.00  0.00    -0.237 OA
ATOM     84  O   UNL     1     -13.195  -4.048  -0.431  1.00  0.00    -0.237 OA
ATOM     85  O   UNL     1     -10.972  -3.611   0.562  1.00  0.00    -0.744 OA
ENDBRANCH  79  82
ENDBRANCH  51  75
BRANCH  63  86
ATOM     86  C   UNL     1      -9.845 -12.435   5.247  1.00  0.00     0.023 A 
ATOM     87  C   UNL     1      -8.756 -11.554   5.076  1.00  0.00     0.012 A 
ATOM     88  C   UNL     1      -9.582 -13.782   5.550  1.00  0.00     0.148 A 
ATOM     89  C   UNL     1      -7.439 -12.009   5.184  1.00  0.00     0.002 A 
ATOM     90  C   UNL     1      -8.272 -14.220   5.705  1.00  0.00     0.091 A 
ATOM     91  F   UNL     1     -10.625 -14.609   5.717  1.00  0.00    -0.205 F 
ATOM     92  C   UNL     1      -7.197 -13.339   5.514  1.00  0.00     0.022 A 
BRANCH  90  93
ATOM     93  S   UNL     1      -7.901 -15.886   6.262  1.00  0.00     0.127 S 
ATOM     94  O   UNL     1      -7.456 -16.528   5.028  1.00  0.00    -0.237 OA
ATOM     95  O   UNL     1      -6.844 -15.660   7.250  1.00  0.00    -0.237 OA
ATOM     96  O   UNL     1      -9.140 -16.403   6.829  1.00  0.00    -0.744 OA
ENDBRANCH  90  93
ENDBRANCH  63  86
ENDBRANCH  37  38
ENDBRANCH  29  32
ENDBRANCH  27  28
ENDBRANCH  26  27
ENDBRANCH   1  26
TORSDOF 18
