REMARK SMILES Cc1c(Cl)cc2c(c1C)O[C@H](C(F)(F)F)C(C(=O)NCCCCNC(=O)c1ccc(-c3c4nc(c(-c5cccc(S(=O)(=O)[O-])c5F)c5ccc([nH]5)c(-c5cccc(S(=O)(=O)[O-])c5F)c5nc(c(-c6cccc(S(=O)(=O)[O-])c6F)c6ccc3[nH]6)C=C5)C=C4)cc1)=C2
REMARK SMILES IDX 22 1 21 2 20 3 19 4 17 5 18 6 16 8 1 9 2 10 3 11 8 12 4 13
REMARK SMILES IDX 5 14 7 15 9 16 6 17 10 18 90 19 11 20 12 21 13 22 14 23
REMARK SMILES IDX 15 24 23 25 24 26 25 27 26 29 27 30 28 31 89 32 29 33 88 34
REMARK SMILES IDX 30 35 31 36 32 37 82 38 33 39 87 40 81 41 83 42 34 43 86 44
REMARK SMILES IDX 80 45 79 46 35 48 67 49 47 50 66 51 48 52 51 53 65 54 84 55
REMARK SMILES IDX 49 56 50 57 64 59 85 60 52 61 36 62 37 63 45 64 38 65 40 66
REMARK SMILES IDX 46 67 39 68 41 69 42 70 43 71 44 72 68 73 69 74 77 75 70 76
REMARK SMILES IDX 72 77 78 78 71 79 73 80 74 81 75 82 76 83 53 84 54 85 62 86
REMARK SMILES IDX 55 87 57 88 63 89 56 90 58 91 59 92 60 93 61 94
REMARK H PARENT 19 7 24 28 83 47 51 58
REMARK Flexibility Score: inf
ROOT
ATOM      1  C   UNL     1      -5.214   5.855  -7.234  1.00  0.00     0.023 C 
ENDROOT
BRANCH   1   2
ATOM      2  C   UNL     1      -4.440   4.818  -6.415  1.00  0.00     0.023 C 
BRANCH   2   3
ATOM      3  C   UNL     1      -2.929   4.861  -6.622  1.00  0.00     0.116 C 
BRANCH   3   4
ATOM      4  N   UNL     1      -2.281   5.792  -5.715  1.00  0.00    -0.352 N 
ATOM      5  C   UNL     1      -1.552   5.720  -4.577  1.00  0.00     0.251 C 
ATOM      6  O   UNL     1      -1.179   6.803  -4.116  1.00  0.00    -0.270 OA
ATOM      7  H   UNL     1      -2.407   6.725  -6.004  1.00  0.00     0.163 HD
BRANCH   5   8
ATOM      8  C   UNL     1      -1.180   4.459  -3.869  1.00  0.00     0.067 C 
ATOM      9  C   UNL     1       1.126  -0.102   0.230  1.00  0.00     0.046 C 
ATOM     10  C   UNL     1       0.662   1.107  -0.542  1.00  0.00    -0.026 A 
ATOM     11  C   UNL     1       1.087   2.393  -0.141  1.00  0.00     0.045 A 
ATOM     12  C   UNL     1      -0.229   1.002  -1.637  1.00  0.00    -0.004 A 
ATOM     13  Cl  UNL     1       2.106   2.626   1.242  1.00  0.00    -0.084 Cl
ATOM     14  C   UNL     1       0.693   3.542  -0.833  1.00  0.00     0.032 A 
ATOM     15  C   UNL     1      -0.585   2.172  -2.341  1.00  0.00     0.131 A 
ATOM     16  C   UNL     1      -0.777  -0.312  -2.135  1.00  0.00     0.049 C 
ATOM     17  C   UNL     1      -0.136   3.433  -1.946  1.00  0.00     0.019 A 
ATOM     18  O   UNL     1      -1.435   2.028  -3.406  1.00  0.00    -0.475 OA
ATOM     19  C   UNL     1      -0.569   4.616  -2.680  1.00  0.00     0.025 C 
ATOM     20  C   UNL     1      -1.404   3.078  -4.412  1.00  0.00     0.314 C 
BRANCH  20  21
ATOM     21  C   UNL     1      -0.396   2.697  -5.513  1.00  0.00     0.429 C 
ATOM     22  F   UNL     1      -0.816   1.588  -6.173  1.00  0.00    -0.167 F 
ATOM     23  F   UNL     1      -0.249   3.667  -6.444  1.00  0.00    -0.167 F 
ATOM     24  F   UNL     1       0.836   2.430  -5.023  1.00  0.00    -0.167 F 
ENDBRANCH  20  21
ENDBRANCH   5   8
ENDBRANCH   3   4
ENDBRANCH   2   3
ENDBRANCH   1   2
BRANCH   1  25
ATOM     25  C   UNL     1      -4.981   5.809  -8.744  1.00  0.00     0.116 C 
BRANCH  25  26
ATOM     26  N   UNL     1      -5.168   4.487  -9.328  1.00  0.00    -0.352 N 
ATOM     27  C   UNL     1      -5.567   4.179 -10.607  1.00  0.00     0.251 C 
ATOM     28  H   UNL     1      -4.987   3.722  -8.735  1.00  0.00     0.163 HD
ATOM     29  O   UNL     1      -5.765   3.014 -10.937  1.00  0.00    -0.269 OA
BRANCH  27  30
ATOM     30  C   UNL     1      -5.793   5.279 -11.563  1.00  0.00     0.039 A 
ATOM     31  C   UNL     1      -7.039   5.387 -12.187  1.00  0.00     0.014 A 
ATOM     32  C   UNL     1      -4.799   6.236 -11.782  1.00  0.00     0.014 A 
ATOM     33  C   UNL     1      -7.314   6.503 -12.979  1.00  0.00     0.010 A 
ATOM     34  C   UNL     1      -5.096   7.373 -12.524  1.00  0.00     0.010 A 
ATOM     35  C   UNL     1      -6.357   7.520 -13.122  1.00  0.00    -0.014 A 
BRANCH  35  36
ATOM     36  C   UNL     1      -6.651   8.763 -13.875  1.00  0.00     0.031 A 
ATOM     37  C   UNL     1      -5.892   9.072 -15.133  1.00  0.00     0.074 A 
ATOM     38  C   UNL     1      -7.522   9.657 -13.367  1.00  0.00     0.049 A 
ATOM     39  N   UNL     1      -5.920  10.152 -15.867  1.00  0.00    -0.248 NA
ATOM     40  C   UNL     1      -4.957   8.040 -15.613  1.00  0.00     0.031 C 
ATOM     41  C   UNL     1      -8.271   9.492 -12.120  1.00  0.00     0.029 A 
ATOM     42  N   UNL     1      -7.900  10.895 -13.822  1.00  0.00    -0.354 N 
ATOM     43  C   UNL     1      -4.988   9.947 -16.876  1.00  0.00     0.074 A 
ATOM     44  C   UNL     1      -4.387   8.652 -16.641  1.00  0.00     0.031 C 
ATOM     45  C   UNL     1      -9.021  10.586 -11.911  1.00  0.00     0.029 A 
ATOM     46  C   UNL     1      -8.784  11.541 -12.989  1.00  0.00     0.049 A 
ATOM     47  H   UNL     1      -7.571  11.284 -14.664  1.00  0.00     0.167 HD
ATOM     48  C   UNL     1      -4.684  10.751 -17.922  1.00  0.00     0.034 A 
ATOM     49  C   UNL     1      -9.337  12.767 -13.082  1.00  0.00     0.034 A 
ATOM     50  C   UNL     1      -5.317  12.016 -18.174  1.00  0.00     0.049 A 
ATOM     51  C   UNL     1      -9.009  13.626 -14.273  1.00  0.00     0.074 A 
ATOM     52  C   UNL     1      -5.123  12.877 -19.239  1.00  0.00     0.029 A 
ATOM     53  N   UNL     1      -6.272  12.601 -17.355  1.00  0.00    -0.354 N 
ATOM     54  N   UNL     1      -8.218  13.363 -15.285  1.00  0.00    -0.248 NA
ATOM     55  C   UNL     1      -9.671  14.936 -14.353  1.00  0.00     0.031 C 
ATOM     56  C   UNL     1      -5.957  13.985 -19.061  1.00  0.00     0.029 A 
ATOM     57  C   UNL     1      -6.680  13.809 -17.892  1.00  0.00     0.049 A 
ATOM     58  H   UNL     1      -6.609  12.213 -16.515  1.00  0.00     0.167 HD
ATOM     59  C   UNL     1      -8.309  14.458 -16.137  1.00  0.00     0.074 A 
ATOM     60  C   UNL     1      -9.250  15.379 -15.531  1.00  0.00     0.031 C 
ATOM     61  C   UNL     1      -7.658  14.689 -17.303  1.00  0.00     0.034 A 
BRANCH  48  62
ATOM     62  C   UNL     1      -3.668  10.249 -18.913  1.00  0.00     0.023 A 
ATOM     63  C   UNL     1      -4.024   9.207 -19.794  1.00  0.00     0.012 A 
ATOM     64  C   UNL     1      -2.393  10.838 -19.018  1.00  0.00     0.148 A 
ATOM     65  C   UNL     1      -3.119   8.739 -20.744  1.00  0.00     0.002 A 
ATOM     66  C   UNL     1      -1.510  10.394 -19.997  1.00  0.00     0.091 A 
ATOM     67  F   UNL     1      -2.062  11.809 -18.156  1.00  0.00    -0.205 F 
ATOM     68  C   UNL     1      -1.868   9.339 -20.854  1.00  0.00     0.022 A 
BRANCH  66  69
ATOM     69  S   UNL     1       0.095  11.153 -20.269  1.00  0.00     0.127 S 
ATOM     70  O   UNL     1       0.998  10.132 -19.739  1.00  0.00    -0.237 OA
ATOM     71  O   UNL     1       0.126  11.298 -21.725  1.00  0.00    -0.237 OA
ATOM     72  O   UNL     1       0.071  12.411 -19.536  1.00  0.00    -0.744 OA
ENDBRANCH  66  69
ENDBRANCH  48  62
BRANCH  49  73
ATOM     73  C   UNL     1     -10.329  13.205 -12.059  1.00  0.00     0.023 A 
ATOM     74  C   UNL     1     -11.689  13.280 -12.417  1.00  0.00     0.012 A 
ATOM     75  C   UNL     1      -9.953  13.475 -10.729  1.00  0.00     0.148 A 
ATOM     76  C   UNL     1     -12.656  13.632 -11.474  1.00  0.00     0.002 A 
ATOM     77  C   UNL     1     -10.927  13.771  -9.781  1.00  0.00     0.091 A 
ATOM     78  F   UNL     1      -8.653  13.410 -10.411  1.00  0.00    -0.205 F 
ATOM     79  C   UNL     1     -12.277  13.864 -10.155  1.00  0.00     0.022 A 
BRANCH  77  80
ATOM     80  S   UNL     1     -10.553  13.943  -8.032  1.00  0.00     0.127 S 
ATOM     81  O   UNL     1     -10.780  15.369  -7.816  1.00  0.00    -0.237 OA
ATOM     82  O   UNL     1     -11.549  13.060  -7.423  1.00  0.00    -0.237 OA
ATOM     83  O   UNL     1      -9.177  13.490  -7.878  1.00  0.00    -0.744 OA
ENDBRANCH  77  80
ENDBRANCH  49  73
BRANCH  61  84
ATOM     84  C   UNL     1      -7.942  15.981 -18.023  1.00  0.00     0.023 A 
ATOM     85  C   UNL     1      -7.408  17.185 -17.523  1.00  0.00     0.012 A 
ATOM     86  C   UNL     1      -8.647  15.991 -19.243  1.00  0.00     0.148 A 
ATOM     87  C   UNL     1      -7.589  18.382 -18.215  1.00  0.00     0.002 A 
ATOM     88  C   UNL     1      -8.784  17.180 -19.950  1.00  0.00     0.091 A 
ATOM     89  F   UNL     1      -9.167  14.839 -19.692  1.00  0.00    -0.205 F 
ATOM     90  C   UNL     1      -8.264  18.377 -19.433  1.00  0.00     0.022 A 
BRANCH  88  91
ATOM     91  S   UNL     1      -9.551  17.241 -21.574  1.00  0.00     0.127 S 
ATOM     92  O   UNL     1     -10.876  17.772 -21.259  1.00  0.00    -0.237 OA
ATOM     93  O   UNL     1      -8.680  18.168 -22.299  1.00  0.00    -0.237 OA
ATOM     94  O   UNL     1      -9.521  15.874 -22.077  1.00  0.00    -0.744 OA
ENDBRANCH  88  91
ENDBRANCH  61  84
ENDBRANCH  35  36
ENDBRANCH  27  30
ENDBRANCH  25  26
ENDBRANCH   1  25
TORSDOF 15
