REMARK SMILES O=C(NCCCCNC(=O)[C@@H]1[C@@H](C(=O)N2CC[NH+](C/C=C/c3ccccc3)CC2)[C@@H]2C=C[C@H]1C2)c1ccc(-c2c3nc(c(-c4cccc(S(=O)(=O)[O-])c4F)c4ccc([nH]4)c(-c4cccc(S(=O)(=O)[O-])c4F)c4nc(c(-c5cccc(S(=O)(=O)[O-])c5F)c5ccc2[nH]5)C=C4)C=C3)cc1
REMARK SMILES IDX 6 1 5 2 4 3 3 4 1 5 2 6 35 8 36 9 97 10 37 11 96 12 38 13
REMARK SMILES IDX 39 14 40 15 90 16 41 17 95 18 89 19 91 20 42 21 94 22 88 23
REMARK SMILES IDX 87 24 43 26 75 27 55 28 74 29 56 30 59 31 73 32 92 33 57 34
REMARK SMILES IDX 58 35 72 37 93 38 60 39 44 40 45 41 53 42 46 43 48 44 54 45
REMARK SMILES IDX 47 46 49 47 50 48 51 49 52 50 76 51 77 52 85 53 78 54 80 55
REMARK SMILES IDX 86 56 79 57 81 58 82 59 83 60 84 61 61 62 62 63 70 64 63 65
REMARK SMILES IDX 65 66 71 67 64 68 66 69 67 70 68 71 69 72 7 73 8 74 9 75
REMARK SMILES IDX 10 77 11 78 12 79 33 80 30 81 32 82 34 83 31 84 13 85 14 86
REMARK SMILES IDX 15 87 16 88 29 89 17 90 28 91 18 92 19 94 20 95 21 96 22 97
REMARK SMILES IDX 23 98 27 99 24 100 26 101 25 102
REMARK H PARENT 3 7 91 25 59 36 8 76 18 93
REMARK Flexibility Score: inf
ROOT
ATOM      1  C   UNL     1       4.467   2.472   2.761  1.00  0.00     0.023 C 
ENDROOT
BRANCH   1   2
ATOM      2  C   UNL     1       4.908   2.220   1.319  1.00  0.00     0.023 C 
BRANCH   2   3
ATOM      3  C   UNL     1       4.557   0.844   0.775  1.00  0.00     0.116 C 
BRANCH   3   4
ATOM      4  N   UNL     1       3.128   0.581   0.788  1.00  0.00    -0.352 N 
ATOM      5  O   UNL     1       1.155  -0.082  -0.079  1.00  0.00    -0.269 OA
ATOM      6  C   UNL     1       2.375  -0.062  -0.167  1.00  0.00     0.251 C 
ATOM      7  H   UNL     1       2.638   0.902   1.579  1.00  0.00     0.163 HD
BRANCH   6   8
ATOM      8  C   UNL     1       3.064  -0.697  -1.311  1.00  0.00     0.039 A 
ATOM      9  C   UNL     1       4.175  -1.520  -1.099  1.00  0.00     0.014 A 
ATOM     10  C   UNL     1       2.601  -0.451  -2.605  1.00  0.00     0.014 A 
ATOM     11  C   UNL     1       4.889  -2.008  -2.187  1.00  0.00     0.010 A 
ATOM     12  C   UNL     1       3.277  -1.003  -3.694  1.00  0.00     0.010 A 
ATOM     13  C   UNL     1       4.434  -1.772  -3.494  1.00  0.00    -0.014 A 
BRANCH  13  14
ATOM     14  C   UNL     1       5.108  -2.441  -4.633  1.00  0.00     0.031 A 
ATOM     15  C   UNL     1       5.819  -1.653  -5.695  1.00  0.00     0.074 A 
ATOM     16  C   UNL     1       5.023  -3.783  -4.716  1.00  0.00     0.049 A 
ATOM     17  N   UNL     1       6.426  -2.091  -6.767  1.00  0.00    -0.248 NA
ATOM     18  C   UNL     1       5.848  -0.189  -5.545  1.00  0.00     0.031 C 
ATOM     19  C   UNL     1       4.307  -4.639  -3.765  1.00  0.00     0.029 A 
ATOM     20  N   UNL     1       5.514  -4.660  -5.647  1.00  0.00    -0.354 N 
ATOM     21  C   UNL     1       6.868  -0.962  -7.445  1.00  0.00     0.074 A 
ATOM     22  C   UNL     1       6.468   0.185  -6.658  1.00  0.00     0.031 C 
ATOM     23  C   UNL     1       4.402  -5.915  -4.163  1.00  0.00     0.029 A 
ATOM     24  C   UNL     1       5.137  -5.964  -5.420  1.00  0.00     0.049 A 
ATOM     25  H   UNL     1       6.080  -4.385  -6.404  1.00  0.00     0.167 HD
ATOM     26  C   UNL     1       7.554  -0.896  -8.611  1.00  0.00     0.034 A 
ATOM     27  C   UNL     1       5.330  -7.073  -6.158  1.00  0.00     0.034 A 
ATOM     28  C   UNL     1       7.986  -2.048  -9.358  1.00  0.00     0.049 A 
ATOM     29  C   UNL     1       6.108  -6.964  -7.436  1.00  0.00     0.074 A 
ATOM     30  C   UNL     1       8.789  -2.089 -10.485  1.00  0.00     0.029 A 
ATOM     31  N   UNL     1       7.635  -3.358  -9.071  1.00  0.00    -0.354 N 
ATOM     32  N   UNL     1       6.674  -5.907  -7.966  1.00  0.00    -0.248 NA
ATOM     33  C   UNL     1       6.296  -8.200  -8.207  1.00  0.00     0.031 C 
ATOM     34  C   UNL     1       8.899  -3.421 -10.896  1.00  0.00     0.029 A 
ATOM     35  C   UNL     1       8.178  -4.212 -10.015  1.00  0.00     0.049 A 
ATOM     36  H   UNL     1       7.081  -3.639  -8.307  1.00  0.00     0.167 HD
ATOM     37  C   UNL     1       7.295  -6.351  -9.126  1.00  0.00     0.074 A 
ATOM     38  C   UNL     1       7.065  -7.780  -9.202  1.00  0.00     0.031 C 
ATOM     39  C   UNL     1       7.974  -5.637 -10.056  1.00  0.00     0.034 A 
BRANCH  26  40
ATOM     40  C   UNL     1       7.922   0.461  -9.149  1.00  0.00     0.023 A 
ATOM     41  C   UNL     1       8.990   1.173  -8.568  1.00  0.00     0.012 A 
ATOM     42  C   UNL     1       7.287   0.977 -10.296  1.00  0.00     0.148 A 
ATOM     43  C   UNL     1       9.411   2.387  -9.113  1.00  0.00     0.002 A 
ATOM     44  C   UNL     1       7.735   2.170 -10.853  1.00  0.00     0.091 A 
ATOM     45  F   UNL     1       6.261   0.292 -10.821  1.00  0.00    -0.205 F 
ATOM     46  C   UNL     1       8.793   2.878 -10.260  1.00  0.00     0.022 A 
BRANCH  44  47
ATOM     47  S   UNL     1       7.052   2.850 -12.370  1.00  0.00     0.127 S 
ATOM     48  O   UNL     1       6.330   4.019 -11.870  1.00  0.00    -0.237 OA
ATOM     49  O   UNL     1       8.258   3.161 -13.139  1.00  0.00    -0.237 OA
ATOM     50  O   UNL     1       6.221   1.800 -12.943  1.00  0.00    -0.744 OA
ENDBRANCH  44  47
ENDBRANCH  26  40
BRANCH  27  51
ATOM     51  C   UNL     1       4.786  -8.375  -5.685  1.00  0.00     0.023 A 
ATOM     52  C   UNL     1       5.668  -9.377  -5.243  1.00  0.00     0.012 A 
ATOM     53  C   UNL     1       3.397  -8.604  -5.619  1.00  0.00     0.148 A 
ATOM     54  C   UNL     1       5.178 -10.593  -4.764  1.00  0.00     0.002 A 
ATOM     55  C   UNL     1       2.914  -9.792  -5.085  1.00  0.00     0.091 A 
ATOM     56  F   UNL     1       2.571  -7.646  -6.065  1.00  0.00    -0.205 F 
ATOM     57  C   UNL     1       3.803 -10.795  -4.671  1.00  0.00     0.022 A 
BRANCH  55  58
ATOM     58  S   UNL     1       1.161 -10.055  -4.796  1.00  0.00     0.127 S 
ATOM     59  O   UNL     1       0.788 -10.877  -5.944  1.00  0.00    -0.237 OA
ATOM     60  O   UNL     1       1.160 -10.756  -3.511  1.00  0.00    -0.237 OA
ATOM     61  O   UNL     1       0.578  -8.721  -4.744  1.00  0.00    -0.744 OA
ENDBRANCH  55  58
ENDBRANCH  27  51
BRANCH  39  62
ATOM     62  C   UNL     1       8.519  -6.387 -11.240  1.00  0.00     0.023 A 
ATOM     63  C   UNL     1       7.637  -6.816 -12.251  1.00  0.00     0.012 A 
ATOM     64  C   UNL     1       9.903  -6.599 -11.390  1.00  0.00     0.148 A 
ATOM     65  C   UNL     1       8.121  -7.469 -13.383  1.00  0.00     0.002 A 
ATOM     66  C   UNL     1      10.383  -7.210 -12.542  1.00  0.00     0.091 A 
ATOM     67  F   UNL     1      10.722  -6.197 -10.407  1.00  0.00    -0.205 F 
ATOM     68  C   UNL     1       9.493  -7.655 -13.534  1.00  0.00     0.022 A 
BRANCH  66  69
ATOM     69  S   UNL     1      12.138  -7.413 -12.866  1.00  0.00     0.127 S 
ATOM     70  O   UNL     1      12.303  -8.858 -12.716  1.00  0.00    -0.237 OA
ATOM     71  O   UNL     1      12.259  -6.924 -14.239  1.00  0.00    -0.237 OA
ATOM     72  O   UNL     1      12.827  -6.601 -11.872  1.00  0.00    -0.744 OA
ENDBRANCH  66  69
ENDBRANCH  39  62
ENDBRANCH  13  14
ENDBRANCH   6   8
ENDBRANCH   3   4
ENDBRANCH   2   3
ENDBRANCH   1   2
BRANCH   1  73
ATOM     73  C   UNL     1       5.037   1.496   3.791  1.00  0.00     0.116 C 
BRANCH  73  74
ATOM     74  N   UNL     1       6.475   1.590   3.890  1.00  0.00    -0.356 N 
ATOM     75  C   UNL     1       7.263   2.159   4.837  1.00  0.00     0.224 C 
ATOM     76  H   UNL     1       6.966   1.172   3.146  1.00  0.00     0.163 HD
ATOM     77  O   UNL     1       8.470   1.917   4.748  1.00  0.00    -0.275 OA
BRANCH  75  78
ATOM     78  C   UNL     1       6.677   2.955   6.009  1.00  0.00     0.098 C 
ATOM     79  C   UNL     1       5.838   4.237   5.665  1.00  0.00     0.098 C 
ATOM     80  C   UNL     1       7.837   3.553   6.876  1.00  0.00     0.025 C 
ATOM     81  C   UNL     1       6.598   5.351   6.435  1.00  0.00     0.025 C 
ATOM     82  C   UNL     1       8.680   4.494   6.035  1.00  0.00    -0.027 C 
ATOM     83  C   UNL     1       7.099   4.614   7.685  1.00  0.00     0.017 C 
ATOM     84  C   UNL     1       7.925   5.563   5.750  1.00  0.00    -0.027 C 
BRANCH  79  85
ATOM     85  C   UNL     1       4.363   4.101   6.074  1.00  0.00     0.227 C 
ATOM     86  O   UNL     1       3.505   3.681   5.300  1.00  0.00    -0.275 OA
ATOM     87  N   UNL     1       4.046   4.356   7.395  1.00  0.00    -0.331 N 
ATOM     88  C   UNL     1       3.354   3.305   8.139  1.00  0.00     0.181 C 
ATOM     89  C   UNL     1       3.551   5.694   7.701  1.00  0.00     0.181 C 
ATOM     90  C   UNL     1       3.320   3.591   9.653  1.00  0.00     0.284 C 
ATOM     91  C   UNL     1       3.577   5.976   9.213  1.00  0.00     0.284 C 
ATOM     92  N   UNL     1       2.929   4.957  10.055  1.00  0.00    -0.329 N 
ATOM     93  H   UNL     1       3.299   5.096  10.995  1.00  0.00     0.348 HD
BRANCH  92  94
ATOM     94  C   UNL     1       1.492   5.145  10.265  1.00  0.00     0.291 C 
BRANCH  94  95
ATOM     95  C   UNL     1       0.637   5.121   9.036  1.00  0.00     0.034 C 
ATOM     96  C   UNL     1      -0.183   4.114   8.699  1.00  0.00     0.009 C 
BRANCH  96  97
ATOM     97  C   UNL     1      -0.861   4.064   7.401  1.00  0.00    -0.026 A 
ATOM     98  C   UNL     1      -2.248   3.921   7.335  1.00  0.00     0.008 A 
ATOM     99  C   UNL     1      -0.119   4.070   6.210  1.00  0.00     0.008 A 
ATOM    100  C   UNL     1      -2.882   3.783   6.097  1.00  0.00     0.001 A 
ATOM    101  C   UNL     1      -0.750   3.921   4.976  1.00  0.00     0.001 A 
ATOM    102  C   UNL     1      -2.133   3.775   4.920  1.00  0.00     0.000 A 
ENDBRANCH  96  97
ENDBRANCH  94  95
ENDBRANCH  92  94
ENDBRANCH  79  85
ENDBRANCH  75  78
ENDBRANCH  73  74
ENDBRANCH   1  73
TORSDOF 18
