REMARK SMILES C[C@@H](CC(=O)NCCCCNC(=O)c1ccc(-c2c3nc(c(-c4cccc(S(=O)(=O)[O-])c4F)c4ccc([nH]4)c(-c4cccc(S(=O)(=O)[O-])c4F)c4nc(c(-c5cccc(S(=O)(=O)[O-])c5F)c5ccc2[nH]5)C=C4)C=C3)cc1)NC(=O)/C=C/c1cccnc1
REMARK SMILES IDX 8 1 7 2 6 3 4 4 5 5 3 7 2 8 1 9 77 10 78 11 79 13 80 14
REMARK SMILES IDX 81 15 82 16 83 17 87 18 84 19 86 20 85 21 9 22 10 23 11 24
REMARK SMILES IDX 12 25 13 27 14 28 15 29 76 30 16 31 75 32 17 33 18 34 19 35
REMARK SMILES IDX 69 36 20 37 74 38 68 39 70 40 21 41 73 42 67 43 66 44 22 46
REMARK SMILES IDX 54 47 34 48 53 49 35 50 38 51 52 52 71 53 36 54 37 55 51 57
REMARK SMILES IDX 72 58 39 59 23 60 24 61 32 62 25 63 27 64 33 65 26 66 28 67
REMARK SMILES IDX 29 68 30 69 31 70 55 71 56 72 64 73 57 74 59 75 65 76 58 77
REMARK SMILES IDX 60 78 61 79 62 80 63 81 40 82 41 83 49 84 42 85 44 86 50 87
REMARK SMILES IDX 43 88 45 89 46 90 47 91 48 92
REMARK H PARENT 6 6 77 12 11 26 70 45 38 56
REMARK Flexibility Score: inf
ROOT
ATOM      1  C   UNL     1       0.935  -1.911   1.606  1.00  0.00     0.023 C 
ENDROOT
BRANCH   1   2
ATOM      2  C   UNL     1       1.642  -2.456   0.362  1.00  0.00     0.116 C 
BRANCH   2   3
ATOM      3  N   UNL     1       0.664  -2.932  -0.594  1.00  0.00    -0.356 N 
ATOM      4  C   UNL     1       0.199  -2.336  -1.725  1.00  0.00     0.222 C 
ATOM      5  O   UNL     1      -0.822  -2.782  -2.249  1.00  0.00    -0.275 OA
ATOM      6  H   UNL     1       0.279  -3.817  -0.396  1.00  0.00     0.163 HD
BRANCH   4   7
ATOM      7  C   UNL     1       0.947  -1.183  -2.357  1.00  0.00     0.124 C 
BRANCH   7   8
ATOM      8  C   UNL     1       0.504   0.238  -1.980  1.00  0.00     0.088 C 
ATOM      9  C   UNL     1       0.897   0.643  -0.562  1.00  0.00     0.031 C 
BRANCH   8  10
ATOM     10  N   UNL     1      -0.921   0.490  -2.170  1.00  0.00    -0.350 N 
ATOM     11  C   UNL     1      -1.598   1.626  -2.492  1.00  0.00     0.244 C 
ATOM     12  H   UNL     1      -1.493  -0.301  -2.042  1.00  0.00     0.164 HD
ATOM     13  O   UNL     1      -2.828   1.621  -2.471  1.00  0.00    -0.270 OA
BRANCH  11  14
ATOM     14  C   UNL     1      -0.913   2.861  -2.967  1.00  0.00     0.072 C 
ATOM     15  C   UNL     1       0.294   3.315  -2.611  1.00  0.00     0.015 C 
BRANCH  15  16
ATOM     16  C   UNL     1       0.948   4.501  -3.143  1.00  0.00    -0.007 A 
ATOM     17  C   UNL     1       0.621   5.780  -2.705  1.00  0.00     0.011 A 
ATOM     18  C   UNL     1       2.036   4.359  -4.002  1.00  0.00     0.119 A 
ATOM     19  C   UNL     1       1.396   6.857  -3.126  1.00  0.00     0.021 A 
ATOM     20  N   UNL     1       2.800   5.386  -4.433  1.00  0.00    -0.264 NA
ATOM     21  C   UNL     1       2.465   6.612  -3.976  1.00  0.00     0.111 A 
ENDBRANCH  15  16
ENDBRANCH  11  14
ENDBRANCH   8  10
ENDBRANCH   7   8
ENDBRANCH   4   7
ENDBRANCH   2   3
ENDBRANCH   1   2
BRANCH   1  22
ATOM     22  C   UNL     1       0.469  -2.966   2.595  1.00  0.00     0.023 C 
BRANCH  22  23
ATOM     23  C   UNL     1       1.584  -3.799   3.187  1.00  0.00     0.116 C 
BRANCH  23  24
ATOM     24  N   UNL     1       2.594  -3.007   3.876  1.00  0.00    -0.352 N 
ATOM     25  C   UNL     1       3.264  -3.331   5.035  1.00  0.00     0.251 C 
ATOM     26  H   UNL     1       2.824  -2.142   3.466  1.00  0.00     0.163 HD
ATOM     27  O   UNL     1       4.012  -2.532   5.573  1.00  0.00    -0.269 OA
BRANCH  25  28
ATOM     28  C   UNL     1       3.016  -4.664   5.623  1.00  0.00     0.039 A 
ATOM     29  C   UNL     1       2.648  -4.758   6.966  1.00  0.00     0.014 A 
ATOM     30  C   UNL     1       3.046  -5.797   4.808  1.00  0.00     0.014 A 
ATOM     31  C   UNL     1       2.260  -5.997   7.479  1.00  0.00     0.010 A 
ATOM     32  C   UNL     1       2.551  -6.998   5.289  1.00  0.00     0.010 A 
ATOM     33  C   UNL     1       2.185  -7.120   6.637  1.00  0.00    -0.014 A 
BRANCH  33  34
ATOM     34  C   UNL     1       1.788  -8.452   7.152  1.00  0.00     0.031 A 
ATOM     35  C   UNL     1       2.764  -9.596   7.062  1.00  0.00     0.074 A 
ATOM     36  C   UNL     1       0.539  -8.655   7.615  1.00  0.00     0.049 A 
ATOM     37  N   UNL     1       2.599 -10.850   7.389  1.00  0.00    -0.248 NA
ATOM     38  C   UNL     1       4.088  -9.301   6.485  1.00  0.00     0.031 C 
ATOM     39  C   UNL     1      -0.527  -7.651   7.659  1.00  0.00     0.029 A 
ATOM     40  N   UNL     1      -0.051  -9.786   8.118  1.00  0.00    -0.354 N 
ATOM     41  C   UNL     1       3.771 -11.495   7.013  1.00  0.00     0.074 A 
ATOM     42  C   UNL     1       4.617 -10.509   6.383  1.00  0.00     0.031 C 
ATOM     43  C   UNL     1      -1.634  -8.207   8.177  1.00  0.00     0.029 A 
ATOM     44  C   UNL     1      -1.365  -9.608   8.484  1.00  0.00     0.049 A 
ATOM     45  H   UNL     1       0.421 -10.645   8.209  1.00  0.00     0.167 HD
ATOM     46  C   UNL     1       4.135 -12.783   7.216  1.00  0.00     0.034 A 
ATOM     47  C   UNL     1      -2.244 -10.479   9.018  1.00  0.00     0.034 A 
ATOM     48  C   UNL     1       3.322 -13.737   7.918  1.00  0.00     0.049 A 
ATOM     49  C   UNL     1      -1.782 -11.879   9.323  1.00  0.00     0.074 A 
ATOM     50  C   UNL     1       3.630 -15.038   8.268  1.00  0.00     0.029 A 
ATOM     51  N   UNL     1       2.043 -13.485   8.387  1.00  0.00    -0.354 N 
ATOM     52  N   UNL     1      -0.611 -12.428   9.108  1.00  0.00    -0.248 NA
ATOM     53  C   UNL     1      -2.748 -12.766   9.987  1.00  0.00     0.031 C 
ATOM     54  C   UNL     1       2.531 -15.575   8.948  1.00  0.00     0.029 A 
ATOM     55  C   UNL     1       1.547 -14.603   9.032  1.00  0.00     0.049 A 
ATOM     56  H   UNL     1       1.558 -12.635   8.277  1.00  0.00     0.167 HD
ATOM     57  C   UNL     1      -0.685 -13.709   9.644  1.00  0.00     0.074 A 
ATOM     58  C   UNL     1      -2.010 -13.844  10.215  1.00  0.00     0.031 C 
ATOM     59  C   UNL     1       0.249 -14.692   9.648  1.00  0.00     0.034 A 
BRANCH  46  60
ATOM     60  C   UNL     1       5.500 -13.202   6.741  1.00  0.00     0.023 A 
ATOM     61  C   UNL     1       6.646 -12.713   7.403  1.00  0.00     0.012 A 
ATOM     62  C   UNL     1       5.655 -14.096   5.665  1.00  0.00     0.148 A 
ATOM     63  C   UNL     1       7.923 -13.071   6.976  1.00  0.00     0.002 A 
ATOM     64  C   UNL     1       6.931 -14.487   5.275  1.00  0.00     0.091 A 
ATOM     65  F   UNL     1       4.557 -14.531   5.030  1.00  0.00    -0.205 F 
ATOM     66  C   UNL     1       8.066 -13.965   5.919  1.00  0.00     0.022 A 
BRANCH  64  67
ATOM     67  S   UNL     1       7.220 -15.694   3.976  1.00  0.00     0.127 S 
ATOM     68  O   UNL     1       7.746 -14.852   2.902  1.00  0.00    -0.237 OA
ATOM     69  O   UNL     1       8.207 -16.580   4.594  1.00  0.00    -0.237 OA
ATOM     70  O   UNL     1       5.930 -16.314   3.712  1.00  0.00    -0.744 OA
ENDBRANCH  64  67
ENDBRANCH  46  60
BRANCH  47  71
ATOM     71  C   UNL     1      -3.613 -10.024   9.393  1.00  0.00     0.023 A 
ATOM     72  C   UNL     1      -3.945  -9.895  10.757  1.00  0.00     0.012 A 
ATOM     73  C   UNL     1      -4.577  -9.698   8.420  1.00  0.00     0.148 A 
ATOM     74  C   UNL     1      -5.221  -9.487  11.145  1.00  0.00     0.002 A 
ATOM     75  C   UNL     1      -5.830  -9.242   8.813  1.00  0.00     0.091 A 
ATOM     76  F   UNL     1      -4.247  -9.836   7.128  1.00  0.00    -0.205 F 
ATOM     77  C   UNL     1      -6.160  -9.152  10.175  1.00  0.00     0.022 A 
BRANCH  75  78
ATOM     78  S   UNL     1      -7.058  -8.668   7.634  1.00  0.00     0.127 S 
ATOM     79  O   UNL     1      -8.030  -9.757   7.660  1.00  0.00    -0.237 OA
ATOM     80  O   UNL     1      -7.512  -7.420   8.251  1.00  0.00    -0.237 OA
ATOM     81  O   UNL     1      -6.338  -8.487   6.381  1.00  0.00    -0.744 OA
ENDBRANCH  75  78
ENDBRANCH  47  71
BRANCH  59  82
ATOM     82  C   UNL     1      -0.109 -15.988  10.325  1.00  0.00     0.023 A 
ATOM     83  C   UNL     1      -1.025 -16.866   9.713  1.00  0.00     0.012 A 
ATOM     84  C   UNL     1       0.514 -16.365  11.530  1.00  0.00     0.148 A 
ATOM     85  C   UNL     1      -1.343 -18.085  10.310  1.00  0.00     0.002 A 
ATOM     86  C   UNL     1       0.230 -17.603  12.093  1.00  0.00     0.091 A 
ATOM     87  F   UNL     1       1.367 -15.507  12.108  1.00  0.00    -0.205 F 
ATOM     88  C   UNL     1      -0.707 -18.459  11.492  1.00  0.00     0.022 A 
BRANCH  86  89
ATOM     89  S   UNL     1       1.079 -18.199  13.559  1.00  0.00     0.127 S 
ATOM     90  O   UNL     1       0.084 -17.956  14.601  1.00  0.00    -0.237 OA
ATOM     91  O   UNL     1       1.299 -19.611  13.243  1.00  0.00    -0.237 OA
ATOM     92  O   UNL     1       2.301 -17.411  13.655  1.00  0.00    -0.744 OA
ENDBRANCH  86  89
ENDBRANCH  59  82
ENDBRANCH  33  34
ENDBRANCH  25  28
ENDBRANCH  23  24
ENDBRANCH  22  23
ENDBRANCH   1  22
TORSDOF 18
