REMARK SMILES O=C(NCCCCNC(=O)[C@@H]1C[N@@H+](CC(=O)c2ccc[nH]2)CC[NH2+]1)c1ccc(-c2c3nc(c(-c4cccc(S(=O)(=O)[O-])c4F)c4ccc([nH]4)c(-c4cccc(S(=O)(=O)[O-])c4F)c4nc(c(-c5cccc(S(=O)(=O)[O-])c5F)c5ccc2[nH]5)C=C4)C=C3)cc1
REMARK SMILES IDX 5 1 4 2 3 3 1 4 2 5 25 7 26 8 87 9 27 10 86 11 28 12 29 13
REMARK SMILES IDX 30 14 80 15 31 16 85 17 79 18 81 19 32 20 84 21 78 22 77 23
REMARK SMILES IDX 33 25 65 26 45 27 64 28 46 29 49 30 63 31 82 32 47 33 48 34
REMARK SMILES IDX 62 36 83 37 50 38 34 39 35 40 43 41 36 42 38 43 44 44 37 45
REMARK SMILES IDX 39 46 40 47 41 48 42 49 66 50 67 51 75 52 68 53 70 54 76 55
REMARK SMILES IDX 69 56 71 57 72 58 73 59 74 60 51 61 52 62 60 63 53 64 55 65
REMARK SMILES IDX 61 66 54 67 56 68 57 69 58 70 59 71 6 72 7 73 8 74 9 75
REMARK SMILES IDX 10 77 11 78 12 79 24 80 13 81 23 82 22 85 14 87 15 88 16 89
REMARK SMILES IDX 17 90 18 91 21 92 19 93 20 94
REMARK H PARENT 3 6 81 24 49 35 8 76 24 83 24 84 13 86 21 95
REMARK Flexibility Score: inf
ROOT
ATOM      1  C   UNL     1       5.182  -2.045  -0.208  1.00  0.00     0.023 C 
ENDROOT
BRANCH   1   2
ATOM      2  C   UNL     1       4.732  -0.769  -0.934  1.00  0.00     0.116 C 
BRANCH   2   3
ATOM      3  N   UNL     1       3.304  -0.547  -1.061  1.00  0.00    -0.352 N 
ATOM      4  O   UNL     1       1.253   0.184  -0.590  1.00  0.00    -0.269 OA
ATOM      5  C   UNL     1       2.321  -0.240  -0.148  1.00  0.00     0.251 C 
ATOM      6  H   UNL     1       2.971  -0.632  -1.984  1.00  0.00     0.163 HD
BRANCH   5   7
ATOM      7  C   UNL     1       2.469  -0.505   1.304  1.00  0.00     0.039 A 
ATOM      8  C   UNL     1       3.679  -0.384   1.987  1.00  0.00     0.014 A 
ATOM      9  C   UNL     1       1.325  -0.931   1.999  1.00  0.00     0.014 A 
ATOM     10  C   UNL     1       3.786  -0.828   3.298  1.00  0.00     0.010 A 
ATOM     11  C   UNL     1       1.415  -1.331   3.333  1.00  0.00     0.010 A 
ATOM     12  C   UNL     1       2.657  -1.308   3.972  1.00  0.00    -0.014 A 
BRANCH  12  13
ATOM     13  C   UNL     1       2.805  -1.557   5.425  1.00  0.00     0.031 A 
ATOM     14  C   UNL     1       2.891  -0.232   6.197  1.00  0.00     0.074 A 
ATOM     15  C   UNL     1       2.949  -2.850   5.845  1.00  0.00     0.049 A 
ATOM     16  N   UNL     1       3.668   0.109   7.183  1.00  0.00    -0.248 NA
ATOM     17  C   UNL     1       2.126   0.938   5.687  1.00  0.00     0.031 C 
ATOM     18  C   UNL     1       2.829  -4.032   4.967  1.00  0.00     0.029 A 
ATOM     19  N   UNL     1       3.228  -3.443   7.064  1.00  0.00    -0.354 N 
ATOM     20  C   UNL     1       3.296   1.424   7.556  1.00  0.00     0.074 A 
ATOM     21  C   UNL     1       2.500   1.938   6.487  1.00  0.00     0.031 C 
ATOM     22  C   UNL     1       3.092  -5.168   5.650  1.00  0.00     0.029 A 
ATOM     23  C   UNL     1       3.385  -4.851   7.038  1.00  0.00     0.049 A 
ATOM     24  H   UNL     1       3.310  -2.921   7.895  1.00  0.00     0.167 HD
ATOM     25  C   UNL     1       3.500   1.929   8.809  1.00  0.00     0.034 A 
ATOM     26  C   UNL     1       3.754  -5.709   8.043  1.00  0.00     0.034 A 
ATOM     27  C   UNL     1       4.074   0.916   9.633  1.00  0.00     0.049 A 
ATOM     28  C   UNL     1       3.824  -4.904   9.270  1.00  0.00     0.074 A 
ATOM     29  C   UNL     1       5.320   0.364   9.752  1.00  0.00     0.029 A 
ATOM     30  N   UNL     1       3.160   0.140  10.305  1.00  0.00    -0.354 N 
ATOM     31  N   UNL     1       2.791  -4.466   9.926  1.00  0.00    -0.248 NA
ATOM     32  C   UNL     1       5.140  -4.496   9.781  1.00  0.00     0.031 C 
ATOM     33  C   UNL     1       5.070  -0.946  10.211  1.00  0.00     0.029 A 
ATOM     34  C   UNL     1       3.700  -1.107  10.454  1.00  0.00     0.049 A 
ATOM     35  H   UNL     1       2.275   0.431  10.622  1.00  0.00     0.167 HD
ATOM     36  C   UNL     1       3.338  -3.451  10.670  1.00  0.00     0.074 A 
ATOM     37  C   UNL     1       4.742  -3.756  10.812  1.00  0.00     0.031 C 
ATOM     38  C   UNL     1       2.783  -2.214  10.601  1.00  0.00     0.034 A 
BRANCH  25  39
ATOM     39  C   UNL     1       2.982   3.148   9.550  1.00  0.00     0.023 A 
ATOM     40  C   UNL     1       3.623   3.411  10.799  1.00  0.00     0.012 A 
ATOM     41  C   UNL     1       1.792   3.848   9.293  1.00  0.00     0.148 A 
ATOM     42  C   UNL     1       3.046   4.197  11.793  1.00  0.00     0.002 A 
ATOM     43  C   UNL     1       1.248   4.689  10.271  1.00  0.00     0.091 A 
ATOM     44  F   UNL     1       1.133   3.645   8.149  1.00  0.00    -0.205 F 
ATOM     45  C   UNL     1       1.845   4.827  11.533  1.00  0.00     0.022 A 
BRANCH  43  46
ATOM     46  S   UNL     1      -0.246   5.649   9.994  1.00  0.00     0.127 S 
ATOM     47  O   UNL     1      -1.262   4.835  10.629  1.00  0.00    -0.237 OA
ATOM     48  O   UNL     1       0.061   6.903  10.690  1.00  0.00    -0.237 OA
ATOM     49  O   UNL     1      -0.334   5.801   8.538  1.00  0.00    -0.744 OA
ENDBRANCH  43  46
ENDBRANCH  25  39
BRANCH  26  50
ATOM     50  C   UNL     1       4.161  -7.165   8.169  1.00  0.00     0.023 A 
ATOM     51  C   UNL     1       3.952  -8.131   7.175  1.00  0.00     0.012 A 
ATOM     52  C   UNL     1       4.866  -7.621   9.328  1.00  0.00     0.148 A 
ATOM     53  C   UNL     1       4.498  -9.428   7.282  1.00  0.00     0.002 A 
ATOM     54  C   UNL     1       5.505  -8.854   9.381  1.00  0.00     0.091 A 
ATOM     55  F   UNL     1       4.891  -6.869  10.432  1.00  0.00    -0.205 F 
ATOM     56  C   UNL     1       5.312  -9.775   8.358  1.00  0.00     0.022 A 
BRANCH  54  57
ATOM     57  S   UNL     1       6.704  -9.250  10.671  1.00  0.00     0.127 S 
ATOM     58  O   UNL     1       6.180 -10.502  11.212  1.00  0.00    -0.237 OA
ATOM     59  O   UNL     1       7.935  -9.385   9.891  1.00  0.00    -0.237 OA
ATOM     60  O   UNL     1       6.701  -8.126  11.598  1.00  0.00    -0.744 OA
ENDBRANCH  54  57
ENDBRANCH  26  50
BRANCH  38  61
ATOM     61  C   UNL     1       1.288  -2.219  10.283  1.00  0.00     0.023 A 
ATOM     62  C   UNL     1       0.430  -2.863  11.196  1.00  0.00     0.012 A 
ATOM     63  C   UNL     1       0.713  -1.748   9.079  1.00  0.00     0.148 A 
ATOM     64  C   UNL     1      -0.929  -3.047  10.921  1.00  0.00     0.002 A 
ATOM     65  C   UNL     1      -0.641  -1.943   8.794  1.00  0.00     0.091 A 
ATOM     66  F   UNL     1       1.498  -1.118   8.210  1.00  0.00    -0.205 F 
ATOM     67  C   UNL     1      -1.464  -2.591   9.721  1.00  0.00     0.022 A 
BRANCH  65  68
ATOM     68  S   UNL     1      -1.422  -1.468   7.236  1.00  0.00     0.127 S 
ATOM     69  O   UNL     1      -2.034  -2.722   6.795  1.00  0.00    -0.237 OA
ATOM     70  O   UNL     1      -2.377  -0.454   7.668  1.00  0.00    -0.237 OA
ATOM     71  O   UNL     1      -0.354  -0.991   6.362  1.00  0.00    -0.744 OA
ENDBRANCH  65  68
ENDBRANCH  38  61
ENDBRANCH  12  13
ENDBRANCH   5   7
ENDBRANCH   2   3
ENDBRANCH   1   2
BRANCH   1  72
ATOM     72  C   UNL     1       5.702  -3.192  -1.087  1.00  0.00     0.023 C 
BRANCH  72  73
ATOM     73  C   UNL     1       6.712  -2.756  -2.153  1.00  0.00     0.116 C 
BRANCH  73  74
ATOM     74  N   UNL     1       7.815  -3.683  -2.347  1.00  0.00    -0.351 N 
ATOM     75  C   UNL     1       8.221  -4.312  -3.494  1.00  0.00     0.284 C 
ATOM     76  H   UNL     1       8.343  -3.888  -1.541  1.00  0.00     0.163 HD
ATOM     77  O   UNL     1       9.410  -4.631  -3.596  1.00  0.00    -0.268 OA
BRANCH  75  78
ATOM     78  C   UNL     1       7.181  -4.740  -4.542  1.00  0.00     0.328 C 
ATOM     79  C   UNL     1       6.861  -6.225  -4.229  1.00  0.00     0.339 C 
ATOM     80  N   UNL     1       7.700  -4.555  -5.924  1.00  0.00    -0.327 N 
ATOM     81  N   UNL     1       6.051  -6.923  -5.222  1.00  0.00    -0.318 N 
ATOM     82  C   UNL     1       6.734  -5.138  -6.876  1.00  0.00     0.323 C 
ATOM     83  H   UNL     1       8.601  -5.026  -6.018  1.00  0.00     0.347 HD
ATOM     84  H   UNL     1       7.824  -3.562  -6.119  1.00  0.00     0.347 HD
ATOM     85  C   UNL     1       6.381  -6.623  -6.609  1.00  0.00     0.324 C 
ATOM     86  H   UNL     1       6.393  -7.882  -5.165  1.00  0.00     0.348 HD
BRANCH  81  87
ATOM     87  C   UNL     1       4.683  -7.302  -4.862  1.00  0.00     0.346 C 
BRANCH  87  88
ATOM     88  C   UNL     1       3.570  -6.500  -5.545  1.00  0.00     0.232 C 
ATOM     89  O   UNL     1       2.931  -6.993  -6.479  1.00  0.00    -0.286 OA
BRANCH  88  90
ATOM     90  C   UNL     1       3.301  -5.147  -5.102  1.00  0.00     0.088 A 
ATOM     91  C   UNL     1       3.799  -4.419  -4.041  1.00  0.00     0.031 A 
ATOM     92  N   UNL     1       2.413  -4.319  -5.752  1.00  0.00    -0.359 N 
ATOM     93  C   UNL     1       3.366  -3.080  -4.183  1.00  0.00     0.020 A 
ATOM     94  C   UNL     1       2.503  -3.048  -5.251  1.00  0.00     0.083 A 
ATOM     95  H   UNL     1       1.803  -4.599  -6.472  1.00  0.00     0.166 HD
ENDBRANCH  88  90
ENDBRANCH  87  88
ENDBRANCH  81  87
ENDBRANCH  75  78
ENDBRANCH  73  74
ENDBRANCH  72  73
ENDBRANCH   1  72
TORSDOF 17
