REMARK SMILES CCCCCCNC(=O)Oc1cccc(-c2ccc(CC(=O)NCCCCNC(=O)c3ccc(-c4c5nc(c(-c6cccc(S(=O)(=O)[O-])c6F)c6ccc([nH]6)c(-c6cccc(S(=O)(=O)[O-])c6F)c6nc(c(-c7cccc(S(=O)(=O)[O-])c7F)c7ccc4[nH]7)C=C6)C=C5)cc3)cc2F)c1
REMARK SMILES IDX 21 1 22 2 23 3 20 5 19 6 16 7 17 8 95 9 18 10 94 11 96 12
REMARK SMILES IDX 15 13 11 14 12 15 97 16 13 17 14 18 10 19 8 20 7 21 9 23
REMARK SMILES IDX 6 24 5 25 4 26 3 27 2 28 1 29 24 30 25 31 26 32 27 33 28 34
REMARK SMILES IDX 29 35 30 37 31 38 32 39 93 40 33 41 92 42 34 43 35 44 36 45
REMARK SMILES IDX 86 46 37 47 91 48 85 49 87 50 38 51 90 52 84 53 83 54 39 56
REMARK SMILES IDX 71 57 51 58 70 59 52 60 55 61 69 62 88 63 53 64 54 65 68 67
REMARK SMILES IDX 89 68 56 69 40 70 41 71 49 72 42 73 44 74 50 75 43 76 45 77
REMARK SMILES IDX 46 78 47 79 48 80 72 81 73 82 81 83 74 84 76 85 82 86 75 87
REMARK SMILES IDX 77 88 78 89 79 90 80 91 57 92 58 93 66 94 59 95 61 96 67 97
REMARK SMILES IDX 60 98 62 99 63 100 64 101 65 102
REMARK H PARENT 23 4 7 22 28 36 87 55 55 66
REMARK Flexibility Score: inf
ROOT
ATOM      1  C   UNL     1      -6.021   5.165  13.510  1.00  0.00     0.224 C 
ATOM      2  O   UNL     1      -6.081   4.968  14.725  1.00  0.00    -0.275 OA
ATOM      3  N   UNL     1      -7.156   5.537  12.847  1.00  0.00    -0.356 N 
ATOM      4  H   UNL     1      -7.955   5.656  13.410  1.00  0.00     0.163 HD
ENDROOT
BRANCH   1   5
ATOM      5  C   UNL     1      -4.703   5.037  12.761  1.00  0.00     0.135 C 
BRANCH   5   6
ATOM      6  C   UNL     1      -4.669   3.891  11.781  1.00  0.00    -0.036 A 
ATOM      7  C   UNL     1      -4.827   1.784   9.887  1.00  0.00     0.018 A 
ATOM      8  C   UNL     1      -5.029   1.545  11.257  1.00  0.00     0.012 A 
ATOM      9  C   UNL     1      -4.490   3.091   9.504  1.00  0.00     0.131 A 
ATOM     10  C   UNL     1      -4.949   2.582  12.193  1.00  0.00     0.005 A 
ATOM     11  C   UNL     1      -4.396   4.127  10.429  1.00  0.00     0.044 A 
ATOM     12  F   UNL     1      -4.289   3.393   8.211  1.00  0.00    -0.206 F 
BRANCH   7  13
ATOM     13  C   UNL     1      -4.986   0.709   8.894  1.00  0.00    -0.012 A 
ATOM     14  C   UNL     1      -4.188  -0.513   6.952  1.00  0.00     0.133 A 
ATOM     15  C   UNL     1      -5.328  -1.312   6.949  1.00  0.00     0.047 A 
ATOM     16  C   UNL     1      -4.019   0.497   7.900  1.00  0.00     0.056 A 
ATOM     17  C   UNL     1      -6.297  -1.117   7.929  1.00  0.00     0.004 A 
ATOM     18  C   UNL     1      -6.126  -0.118   8.893  1.00  0.00     0.009 A 
BRANCH  14  19
ATOM     19  O   UNL     1      -3.283  -0.684   5.893  1.00  0.00    -0.410 OA
BRANCH  19  20
ATOM     20  C   UNL     1      -1.934  -0.784   6.193  1.00  0.00     0.412 C 
ATOM     21  N   UNL     1      -1.137  -0.833   5.084  1.00  0.00    -0.321 N 
ATOM     22  H   UNL     1      -0.169  -0.914   5.241  1.00  0.00     0.167 HD
ATOM     23  O   UNL     1      -1.439  -0.841   7.316  1.00  0.00    -0.224 OA
BRANCH  21  24
ATOM     24  C   UNL     1      -1.567  -0.776   3.702  1.00  0.00     0.119 C 
BRANCH  24  25
ATOM     25  C   UNL     1      -0.952   0.410   2.959  1.00  0.00     0.021 C 
BRANCH  25  26
ATOM     26  C   UNL     1       0.578   0.384   2.855  1.00  0.00     0.002 C 
BRANCH  26  27
ATOM     27  C   UNL     1       1.173  -0.852   2.170  1.00  0.00    -0.000 C 
BRANCH  27  28
ATOM     28  C   UNL     1       0.699  -1.100   0.736  1.00  0.00    -0.003 C 
ATOM     29  C   UNL     1       1.081   0.016  -0.225  1.00  0.00     0.004 C 
ENDBRANCH  27  28
ENDBRANCH  26  27
ENDBRANCH  25  26
ENDBRANCH  24  25
ENDBRANCH  21  24
ENDBRANCH  19  20
ENDBRANCH  14  19
ENDBRANCH   7  13
ENDBRANCH   5   6
ENDBRANCH   1   5
BRANCH   3  30
ATOM     30  C   UNL     1      -7.350   5.781  11.430  1.00  0.00     0.116 C 
BRANCH  30  31
ATOM     31  C   UNL     1      -8.050   4.612  10.734  1.00  0.00     0.023 C 
BRANCH  31  32
ATOM     32  C   UNL     1      -9.520   4.424  11.119  1.00  0.00     0.023 C 
BRANCH  32  33
ATOM     33  C   UNL     1     -10.420   5.631  10.872  1.00  0.00     0.116 C 
BRANCH  33  34
ATOM     34  N   UNL     1     -10.442   6.056   9.480  1.00  0.00    -0.352 N 
ATOM     35  C   UNL     1     -11.506   6.513   8.738  1.00  0.00     0.251 C 
ATOM     36  H   UNL     1      -9.580   6.011   9.007  1.00  0.00     0.163 HD
ATOM     37  O   UNL     1     -11.370   6.726   7.537  1.00  0.00    -0.269 OA
BRANCH  35  38
ATOM     38  C   UNL     1     -12.821   6.711   9.386  1.00  0.00     0.039 A 
ATOM     39  C   UNL     1     -13.962   6.194   8.768  1.00  0.00     0.014 A 
ATOM     40  C   UNL     1     -12.926   7.380  10.608  1.00  0.00     0.014 A 
ATOM     41  C   UNL     1     -15.200   6.288   9.409  1.00  0.00     0.010 A 
ATOM     42  C   UNL     1     -14.147   7.410  11.277  1.00  0.00     0.010 A 
ATOM     43  C   UNL     1     -15.297   6.865  10.686  1.00  0.00    -0.014 A 
BRANCH  43  44
ATOM     44  C   UNL     1     -16.584   6.888  11.428  1.00  0.00     0.031 A 
ATOM     45  C   UNL     1     -17.229   8.198  11.793  1.00  0.00     0.074 A 
ATOM     46  C   UNL     1     -17.126   5.730  11.856  1.00  0.00     0.049 A 
ATOM     47  N   UNL     1     -18.315   8.416  12.488  1.00  0.00    -0.248 NA
ATOM     48  C   UNL     1     -16.550   9.424  11.342  1.00  0.00     0.031 C 
ATOM     49  C   UNL     1     -16.555   4.398  11.639  1.00  0.00     0.029 A 
ATOM     50  N   UNL     1     -18.262   5.488  12.588  1.00  0.00    -0.354 N 
ATOM     51  C   UNL     1     -18.430   9.797  12.591  1.00  0.00     0.074 A 
ATOM     52  C   UNL     1     -17.286  10.367  11.913  1.00  0.00     0.031 C 
ATOM     53  C   UNL     1     -17.343   3.481  12.223  1.00  0.00     0.029 A 
ATOM     54  C   UNL     1     -18.458   4.157  12.880  1.00  0.00     0.049 A 
ATOM     55  H   UNL     1     -18.878   6.199  12.878  1.00  0.00     0.167 HD
ATOM     56  C   UNL     1     -19.413  10.527  13.169  1.00  0.00     0.034 A 
ATOM     57  C   UNL     1     -19.422   3.550  13.600  1.00  0.00     0.034 A 
ATOM     58  C   UNL     1     -20.573   9.959  13.801  1.00  0.00     0.049 A 
ATOM     59  C   UNL     1     -20.526   4.382  14.194  1.00  0.00     0.074 A 
ATOM     60  C   UNL     1     -21.671  10.615  14.332  1.00  0.00     0.029 A 
ATOM     61  N   UNL     1     -20.785   8.604  13.996  1.00  0.00    -0.354 N 
ATOM     62  N   UNL     1     -20.705   5.680  14.134  1.00  0.00    -0.248 NA
ATOM     63  C   UNL     1     -21.582   3.664  14.923  1.00  0.00     0.031 C 
ATOM     64  C   UNL     1     -22.536   9.655  14.868  1.00  0.00     0.029 A 
ATOM     65  C   UNL     1     -21.990   8.401  14.648  1.00  0.00     0.049 A 
ATOM     66  H   UNL     1     -20.169   7.889  13.713  1.00  0.00     0.167 HD
ATOM     67  C   UNL     1     -21.909   5.929  14.784  1.00  0.00     0.074 A 
ATOM     68  C   UNL     1     -22.427   4.645  15.210  1.00  0.00     0.031 C 
ATOM     69  C   UNL     1     -22.523   7.115  15.018  1.00  0.00     0.034 A 
BRANCH  56  70
ATOM     70  C   UNL     1     -19.306  12.029  13.097  1.00  0.00     0.023 A 
ATOM     71  C   UNL     1     -19.504  12.681  11.863  1.00  0.00     0.012 A 
ATOM     72  C   UNL     1     -19.072  12.798  14.254  1.00  0.00     0.148 A 
ATOM     73  C   UNL     1     -19.436  14.070  11.773  1.00  0.00     0.002 A 
ATOM     74  C   UNL     1     -19.050  14.185  14.165  1.00  0.00     0.091 A 
ATOM     75  F   UNL     1     -18.866  12.160  15.415  1.00  0.00    -0.205 F 
ATOM     76  C   UNL     1     -19.220  14.822  12.924  1.00  0.00     0.022 A 
BRANCH  74  77
ATOM     77  S   UNL     1     -18.859  15.246  15.602  1.00  0.00     0.127 S 
ATOM     78  O   UNL     1     -17.509  15.770  15.403  1.00  0.00    -0.237 OA
ATOM     79  O   UNL     1     -19.928  16.226  15.406  1.00  0.00    -0.237 OA
ATOM     80  O   UNL     1     -19.031  14.384  16.763  1.00  0.00    -0.744 OA
ENDBRANCH  74  77
ENDBRANCH  56  70
BRANCH  57  81
ATOM     81  C   UNL     1     -19.423   2.066  13.740  1.00  0.00     0.023 A 
ATOM     82  C   UNL     1     -20.412   1.312  13.078  1.00  0.00     0.012 A 
ATOM     83  C   UNL     1     -18.443   1.398  14.498  1.00  0.00     0.148 A 
ATOM     84  C   UNL     1     -20.444  -0.078  13.196  1.00  0.00     0.002 A 
ATOM     85  C   UNL     1     -18.448   0.009  14.566  1.00  0.00     0.091 A 
ATOM     86  F   UNL     1     -17.518   2.134  15.130  1.00  0.00    -0.205 F 
ATOM     87  C   UNL     1     -19.457  -0.730  13.930  1.00  0.00     0.022 A 
BRANCH  85  88
ATOM     88  S   UNL     1     -17.142  -0.919  15.378  1.00  0.00     0.127 S 
ATOM     89  O   UNL     1     -17.829  -1.430  16.561  1.00  0.00    -0.237 OA
ATOM     90  O   UNL     1     -16.817  -1.929  14.369  1.00  0.00    -0.237 OA
ATOM     91  O   UNL     1     -16.076   0.041  15.629  1.00  0.00    -0.744 OA
ENDBRANCH  85  88
ENDBRANCH  57  81
BRANCH  69  92
ATOM     92  C   UNL     1     -23.846   7.089  15.738  1.00  0.00     0.023 A 
ATOM     93  C   UNL     1     -23.889   6.800  17.116  1.00  0.00     0.012 A 
ATOM     94  C   UNL     1     -25.036   7.427  15.065  1.00  0.00     0.148 A 
ATOM     95  C   UNL     1     -25.101   6.816  17.806  1.00  0.00     0.002 A 
ATOM     96  C   UNL     1     -26.233   7.490  15.769  1.00  0.00     0.091 A 
ATOM     97  F   UNL     1     -24.977   7.681  13.749  1.00  0.00    -0.205 F 
ATOM     98  C   UNL     1     -26.269   7.173  17.137  1.00  0.00     0.022 A 
BRANCH  96  99
ATOM     99  S   UNL     1     -27.768   8.034  15.011  1.00  0.00     0.127 S 
ATOM    100  O   UNL     1     -28.511   6.779  14.910  1.00  0.00    -0.237 OA
ATOM    101  O   UNL     1     -28.290   8.973  16.005  1.00  0.00    -0.237 OA
ATOM    102  O   UNL     1     -27.395   8.644  13.743  1.00  0.00    -0.744 OA
ENDBRANCH  96  99
ENDBRANCH  69  92
ENDBRANCH  43  44
ENDBRANCH  35  38
ENDBRANCH  33  34
ENDBRANCH  32  33
ENDBRANCH  31  32
ENDBRANCH  30  31
ENDBRANCH   3  30
TORSDOF 23
