REMARK SMILES Cc1nnc(SCC(=O)Nc2cccc(C(=O)NCCCCNC(=O)c3ccc(-c4c5nc(c(-c6cccc(S(=O)(=O)[O-])c6F)c6ccc([nH]6)c(-c6cccc(S(=O)(=O)[O-])c6F)c6nc(c(-c7cccc(S(=O)(=O)[O-])c7F)c7ccc4[nH]7)C=C6)C=C5)cc3)c2)n1-c1ccccc1
REMARK SMILES IDX 19 1 18 2 16 3 17 4 15 6 11 7 12 8 89 9 13 10 14 11 10 12
REMARK SMILES IDX 8 13 9 14 7 16 6 17 5 18 1 19 2 20 3 21 90 22 4 23 91 24
REMARK SMILES IDX 92 25 96 26 93 27 95 28 94 29 20 30 21 31 22 32 23 33 24 34
REMARK SMILES IDX 25 36 26 37 27 38 88 39 28 40 87 41 29 42 30 43 31 44 81 45
REMARK SMILES IDX 32 46 86 47 80 48 82 49 33 50 85 51 79 52 78 53 34 55 66 56
REMARK SMILES IDX 46 57 65 58 47 59 50 60 64 61 83 62 48 63 49 64 63 66 84 67
REMARK SMILES IDX 51 68 35 69 36 70 44 71 37 72 39 73 45 74 38 75 40 76 41 77
REMARK SMILES IDX 42 78 43 79 67 80 68 81 76 82 69 83 71 84 77 85 70 86 72 87
REMARK SMILES IDX 73 88 74 89 75 90 52 91 53 92 61 93 54 94 56 95 62 96 55 97
REMARK SMILES IDX 57 98 58 99 59 100 60 101
REMARK H PARENT 18 5 10 15 23 35 82 54 50 65
REMARK Flexibility Score: inf
ROOT
ATOM      1  C   UNL     1      -0.253  -1.226   5.847  1.00  0.00     0.116 C 
ENDROOT
BRANCH   1   2
ATOM      2  N   UNL     1      -0.566  -1.366   7.260  1.00  0.00    -0.352 N 
ATOM      3  C   UNL     1      -0.238  -0.586   8.350  1.00  0.00     0.251 C 
ATOM      4  O   UNL     1      -0.492  -1.021   9.472  1.00  0.00    -0.269 OA
ATOM      5  H   UNL     1      -1.109  -2.158   7.478  1.00  0.00     0.163 HD
BRANCH   3   6
ATOM      6  C   UNL     1       0.495   0.712   8.245  1.00  0.00     0.041 A 
ATOM      7  C   UNL     1       1.275   2.654   7.026  1.00  0.00     0.041 A 
ATOM      8  C   UNL     1       2.147   2.953   8.083  1.00  0.00     0.026 A 
ATOM      9  C   UNL     1       0.397   1.579   7.149  1.00  0.00     0.040 A 
ATOM     10  C   UNL     1       2.150   2.185   9.243  1.00  0.00     0.003 A 
ATOM     11  C   UNL     1       1.339   1.056   9.314  1.00  0.00     0.014 A 
BRANCH   7  12
ATOM     12  N   UNL     1       1.474   3.390   5.853  1.00  0.00    -0.325 N 
ATOM     13  C   UNL     1       0.810   3.530   4.678  1.00  0.00     0.234 C 
ATOM     14  O   UNL     1       1.472   4.052   3.771  1.00  0.00    -0.274 OA
ATOM     15  H   UNL     1       2.291   3.937   5.889  1.00  0.00     0.169 HD
BRANCH  13  16
ATOM     16  C   UNL     1      -0.672   3.305   4.522  1.00  0.00     0.178 C 
BRANCH  16  17
ATOM     17  S   UNL     1      -1.277   1.762   3.844  1.00  0.00    -0.076 SA
BRANCH  17  18
ATOM     18  C   UNL     1      -0.091   1.054   2.807  1.00  0.00     0.196 A 
ATOM     19  C   UNL     1       1.187   0.159  -0.474  1.00  0.00     0.090 C 
ATOM     20  C   UNL     1       0.800   0.310   0.946  1.00  0.00     0.135 A 
ATOM     21  N   UNL     1       1.047  -0.567   1.901  1.00  0.00    -0.134 NA
ATOM     22  N   UNL     1       0.108   1.379   1.482  1.00  0.00    -0.274 N 
ATOM     23  N   UNL     1       0.488  -0.097   3.061  1.00  0.00    -0.123 NA
BRANCH  22  24
ATOM     24  C   UNL     1      -0.163   2.615   0.881  1.00  0.00     0.049 A 
ATOM     25  C   UNL     1       0.769   3.639   1.053  1.00  0.00     0.027 A 
ATOM     26  C   UNL     1      -1.427   2.860   0.350  1.00  0.00     0.027 A 
ATOM     27  C   UNL     1       0.393   4.952   0.789  1.00  0.00     0.002 A 
ATOM     28  C   UNL     1      -1.778   4.174   0.046  1.00  0.00     0.002 A 
ATOM     29  C   UNL     1      -0.883   5.220   0.296  1.00  0.00     0.000 A 
ENDBRANCH  22  24
ENDBRANCH  17  18
ENDBRANCH  16  17
ENDBRANCH  13  16
ENDBRANCH   7  12
ENDBRANCH   3   6
ENDBRANCH   1   2
BRANCH   1  30
ATOM     30  C   UNL     1       0.327  -2.482   5.186  1.00  0.00     0.023 C 
BRANCH  30  31
ATOM     31  C   UNL     1      -0.625  -3.533   4.599  1.00  0.00     0.023 C 
BRANCH  31  32
ATOM     32  C   UNL     1      -1.855  -3.047   3.836  1.00  0.00     0.116 C 
BRANCH  32  33
ATOM     33  N   UNL     1      -1.618  -2.481   2.513  1.00  0.00    -0.352 N 
ATOM     34  C   UNL     1      -2.604  -2.136   1.575  1.00  0.00     0.251 C 
ATOM     35  H   UNL     1      -0.680  -2.327   2.254  1.00  0.00     0.163 HD
ATOM     36  O   UNL     1      -2.350  -1.897   0.413  1.00  0.00    -0.269 OA
BRANCH  34  37
ATOM     37  C   UNL     1      -3.986  -2.024   2.085  1.00  0.00     0.039 A 
ATOM     38  C   UNL     1      -5.053  -2.750   1.543  1.00  0.00     0.014 A 
ATOM     39  C   UNL     1      -4.165  -1.253   3.229  1.00  0.00     0.014 A 
ATOM     40  C   UNL     1      -6.265  -2.798   2.244  1.00  0.00     0.010 A 
ATOM     41  C   UNL     1      -5.305  -1.415   3.983  1.00  0.00     0.010 A 
ATOM     42  C   UNL     1      -6.376  -2.165   3.495  1.00  0.00    -0.014 A 
BRANCH  42  43
ATOM     43  C   UNL     1      -7.532  -2.410   4.373  1.00  0.00     0.031 A 
ATOM     44  C   UNL     1      -7.882  -3.841   4.620  1.00  0.00     0.074 A 
ATOM     45  C   UNL     1      -8.090  -1.457   5.157  1.00  0.00     0.049 A 
ATOM     46  N   UNL     1      -8.989  -4.449   4.335  1.00  0.00    -0.248 NA
ATOM     47  C   UNL     1      -6.854  -4.724   5.192  1.00  0.00     0.031 C 
ATOM     48  C   UNL     1      -7.658  -0.058   5.292  1.00  0.00     0.029 A 
ATOM     49  N   UNL     1      -9.047  -1.570   6.128  1.00  0.00    -0.354 N 
ATOM     50  C   UNL     1      -8.885  -5.718   4.911  1.00  0.00     0.074 A 
ATOM     51  C   UNL     1      -7.498  -5.892   5.250  1.00  0.00     0.031 C 
ATOM     52  C   UNL     1      -8.119   0.444   6.455  1.00  0.00     0.029 A 
ATOM     53  C   UNL     1      -9.051  -0.508   7.026  1.00  0.00     0.049 A 
ATOM     54  H   UNL     1      -9.672  -2.329   6.185  1.00  0.00     0.167 HD
ATOM     55  C   UNL     1      -9.993  -6.402   5.315  1.00  0.00     0.034 A 
ATOM     56  C   UNL     1      -9.767  -0.386   8.165  1.00  0.00     0.034 A 
ATOM     57  C   UNL     1     -11.198  -5.781   4.830  1.00  0.00     0.049 A 
ATOM     58  C   UNL     1     -10.966  -1.235   8.035  1.00  0.00     0.074 A 
ATOM     59  C   UNL     1     -11.893  -5.671   3.648  1.00  0.00     0.029 A 
ATOM     60  N   UNL     1     -11.712  -4.856   5.698  1.00  0.00    -0.354 N 
ATOM     61  N   UNL     1     -11.898  -1.022   7.146  1.00  0.00    -0.248 NA
ATOM     62  C   UNL     1     -11.046  -2.512   8.732  1.00  0.00     0.031 C 
ATOM     63  C   UNL     1     -12.717  -4.512   3.780  1.00  0.00     0.029 A 
ATOM     64  C   UNL     1     -12.501  -3.955   5.040  1.00  0.00     0.049 A 
ATOM     65  H   UNL     1     -11.537  -4.842   6.666  1.00  0.00     0.167 HD
ATOM     66  C   UNL     1     -12.375  -2.285   6.859  1.00  0.00     0.074 A 
ATOM     67  C   UNL     1     -11.986  -3.109   7.994  1.00  0.00     0.031 C 
ATOM     68  C   UNL     1     -12.713  -2.631   5.584  1.00  0.00     0.034 A 
BRANCH  55  69
ATOM     69  C   UNL     1     -10.094  -7.338   6.514  1.00  0.00     0.023 A 
ATOM     70  C   UNL     1     -11.339  -7.990   6.709  1.00  0.00     0.012 A 
ATOM     71  C   UNL     1      -9.198  -7.356   7.606  1.00  0.00     0.148 A 
ATOM     72  C   UNL     1     -11.701  -8.555   7.938  1.00  0.00     0.002 A 
ATOM     73  C   UNL     1      -9.537  -7.981   8.806  1.00  0.00     0.091 A 
ATOM     74  F   UNL     1      -8.065  -6.653   7.556  1.00  0.00    -0.205 F 
ATOM     75  C   UNL     1     -10.797  -8.552   8.989  1.00  0.00     0.022 A 
BRANCH  73  76
ATOM     76  S   UNL     1      -8.388  -8.030  10.188  1.00  0.00     0.127 S 
ATOM     77  O   UNL     1      -8.898  -6.950  11.026  1.00  0.00    -0.237 OA
ATOM     78  O   UNL     1      -8.603  -9.379  10.713  1.00  0.00    -0.237 OA
ATOM     79  O   UNL     1      -7.073  -7.827   9.594  1.00  0.00    -0.744 OA
ENDBRANCH  73  76
ENDBRANCH  55  69
BRANCH  56  80
ATOM     80  C   UNL     1      -9.480   0.389   9.389  1.00  0.00     0.023 A 
ATOM     81  C   UNL     1     -10.542   0.852  10.189  1.00  0.00     0.012 A 
ATOM     82  C   UNL     1      -8.168   0.453   9.908  1.00  0.00     0.148 A 
ATOM     83  C   UNL     1     -10.312   1.321  11.486  1.00  0.00     0.002 A 
ATOM     84  C   UNL     1      -7.945   0.923  11.199  1.00  0.00     0.091 A 
ATOM     85  F   UNL     1      -7.160  -0.025   9.166  1.00  0.00    -0.205 F 
ATOM     86  C   UNL     1      -9.018   1.345  11.996  1.00  0.00     0.022 A 
BRANCH  84  87
ATOM     87  S   UNL     1      -6.306   0.973  11.936  1.00  0.00     0.127 S 
ATOM     88  O   UNL     1      -6.279   2.313  12.525  1.00  0.00    -0.237 OA
ATOM     89  O   UNL     1      -6.379  -0.118  12.904  1.00  0.00    -0.237 OA
ATOM     90  O   UNL     1      -5.376   0.788  10.831  1.00  0.00    -0.744 OA
ENDBRANCH  84  87
ENDBRANCH  56  80
BRANCH  68  91
ATOM     91  C   UNL     1     -13.054  -1.530   4.622  1.00  0.00     0.023 A 
ATOM     92  C   UNL     1     -12.093  -0.604   4.170  1.00  0.00     0.012 A 
ATOM     93  C   UNL     1     -14.346  -1.493   4.076  1.00  0.00     0.148 A 
ATOM     94  C   UNL     1     -12.422   0.356   3.211  1.00  0.00     0.002 A 
ATOM     95  C   UNL     1     -14.659  -0.564   3.091  1.00  0.00     0.091 A 
ATOM     96  F   UNL     1     -15.247  -2.385   4.517  1.00  0.00    -0.205 F 
ATOM     97  C   UNL     1     -13.702   0.369   2.663  1.00  0.00     0.022 A 
BRANCH  95  98
ATOM     98  S   UNL     1     -16.251  -0.567   2.265  1.00  0.00     0.127 S 
ATOM     99  O   UNL     1     -16.906   0.597   2.857  1.00  0.00    -0.237 OA
ATOM    100  O   UNL     1     -15.876  -0.409   0.859  1.00  0.00    -0.237 OA
ATOM    101  O   UNL     1     -16.860  -1.855   2.575  1.00  0.00    -0.744 OA
ENDBRANCH  95  98
ENDBRANCH  68  91
ENDBRANCH  42  43
ENDBRANCH  34  37
ENDBRANCH  32  33
ENDBRANCH  31  32
ENDBRANCH  30  31
ENDBRANCH   1  30
TORSDOF 19
