REMARK SMILES Cc1ncsc1Cn1c(SCC(=O)NCCCCNC(=O)c2ccc(-c3c4nc(c(-c5cccc(S(=O)(=O)[O-])c5F)c5ccc([nH]5)c(-c5cccc(S(=O)(=O)[O-])c5F)c5nc(c(-c6cccc(S(=O)(=O)[O-])c6F)c6ccc3[nH]6)C=C5)C=C4)cc2)nc2cnccc21
REMARK SMILES IDX 16 1 15 2 14 3 12 4 13 5 11 7 10 8 9 9 8 10 91 11 85 12
REMARK SMILES IDX 86 13 90 14 87 15 89 16 88 17 7 18 6 19 1 20 2 21 3 22 4 23
REMARK SMILES IDX 5 24 17 25 18 26 19 27 20 28 21 30 22 31 23 32 84 33 24 34
REMARK SMILES IDX 83 35 25 36 26 37 27 38 77 39 28 40 82 41 76 42 78 43 29 44
REMARK SMILES IDX 81 45 75 46 74 47 30 49 62 50 42 51 61 52 43 53 46 54 60 55
REMARK SMILES IDX 79 56 44 57 45 58 59 60 80 61 47 62 31 63 32 64 40 65 33 66
REMARK SMILES IDX 35 67 41 68 34 69 36 70 37 71 38 72 39 73 63 74 64 75 72 76
REMARK SMILES IDX 65 77 67 78 73 79 66 80 68 81 69 82 70 83 71 84 48 85 49 86
REMARK SMILES IDX 57 87 50 88 52 89 58 90 51 91 53 92 54 93 55 94 56 95
REMARK H PARENT 14 6 19 29 78 48 46 59
REMARK Flexibility Score: inf
ROOT
ATOM      1  C   UNL     1      -1.996  -7.651  -0.293  1.00  0.00     0.023 C 
ENDROOT
BRANCH   1   2
ATOM      2  C   UNL     1      -3.105  -6.615  -0.149  1.00  0.00     0.116 C 
BRANCH   2   3
ATOM      3  N   UNL     1      -2.718  -5.539   0.741  1.00  0.00    -0.355 N 
ATOM      4  C   UNL     1      -2.694  -4.205   0.526  1.00  0.00     0.230 C 
ATOM      5  O   UNL     1      -2.477  -3.486   1.508  1.00  0.00    -0.274 OA
ATOM      6  H   UNL     1      -2.429  -5.823   1.638  1.00  0.00     0.163 HD
BRANCH   4   7
ATOM      7  C   UNL     1      -3.017  -3.602  -0.821  1.00  0.00     0.178 C 
BRANCH   7   8
ATOM      8  S   UNL     1      -1.958  -4.017  -2.186  1.00  0.00    -0.078 SA
BRANCH   8   9
ATOM      9  C   UNL     1      -0.287  -3.609  -2.028  1.00  0.00     0.169 A 
ATOM     10  N   UNL     1       0.431  -2.865  -1.112  1.00  0.00    -0.313 N 
ATOM     11  C   UNL     1       1.779  -3.054  -1.412  1.00  0.00     0.072 A 
ATOM     12  N   UNL     1       0.506  -4.067  -2.977  1.00  0.00    -0.221 NA
ATOM     13  C   UNL     1       1.780  -3.746  -2.617  1.00  0.00     0.108 A 
ATOM     14  C   UNL     1       2.978  -2.699  -0.786  1.00  0.00     0.049 A 
ATOM     15  C   UNL     1       2.995  -4.027  -3.250  1.00  0.00     0.141 A 
ATOM     16  C   UNL     1       4.133  -3.003  -1.496  1.00  0.00     0.113 A 
ATOM     17  N   UNL     1       4.167  -3.624  -2.694  1.00  0.00    -0.262 NA
BRANCH  10  18
ATOM     18  C   UNL     1      -0.022  -2.114   0.050  1.00  0.00     0.173 C 
BRANCH  18  19
ATOM     19  C   UNL     1      -0.007  -0.615  -0.084  1.00  0.00     0.047 A 
ATOM     20  C   UNL     1      -2.516   0.007   0.134  1.00  0.00     0.068 C 
ATOM     21  C   UNL     1      -1.064   0.291  -0.021  1.00  0.00     0.053 A 
ATOM     22  N   UNL     1      -0.702   1.629  -0.076  1.00  0.00    -0.250 NA
ATOM     23  C   UNL     1       0.603   1.736  -0.137  1.00  0.00     0.176 A 
ATOM     24  S   UNL     1       1.469   0.270  -0.150  1.00  0.00    -0.125 S 
ENDBRANCH  18  19
ENDBRANCH  10  18
ENDBRANCH   8   9
ENDBRANCH   7   8
ENDBRANCH   4   7
ENDBRANCH   2   3
ENDBRANCH   1   2
BRANCH   1  25
ATOM     25  C   UNL     1      -1.515  -8.286   1.021  1.00  0.00     0.023 C 
BRANCH  25  26
ATOM     26  C   UNL     1      -2.615  -8.647   2.022  1.00  0.00     0.116 C 
BRANCH  26  27
ATOM     27  N   UNL     1      -3.666  -9.482   1.485  1.00  0.00    -0.352 N 
ATOM     28  C   UNL     1      -3.829 -10.824   1.298  1.00  0.00     0.251 C 
ATOM     29  H   UNL     1      -4.446  -8.961   1.185  1.00  0.00     0.163 HD
ATOM     30  O   UNL     1      -4.938 -11.177   0.890  1.00  0.00    -0.269 OA
BRANCH  28  31
ATOM     31  C   UNL     1      -2.762 -11.840   1.486  1.00  0.00     0.039 A 
ATOM     32  C   UNL     1      -1.522 -11.606   2.084  1.00  0.00     0.014 A 
ATOM     33  C   UNL     1      -3.030 -13.116   0.960  1.00  0.00     0.014 A 
ATOM     34  C   UNL     1      -0.525 -12.568   2.039  1.00  0.00     0.010 A 
ATOM     35  C   UNL     1      -2.048 -14.095   0.943  1.00  0.00     0.010 A 
ATOM     36  C   UNL     1      -0.777 -13.790   1.424  1.00  0.00    -0.014 A 
BRANCH  36  37
ATOM     37  C   UNL     1       0.333 -14.723   1.302  1.00  0.00     0.031 A 
ATOM     38  C   UNL     1       0.903 -15.260   2.571  1.00  0.00     0.074 A 
ATOM     39  C   UNL     1       0.753 -15.147   0.096  1.00  0.00     0.049 A 
ATOM     40  N   UNL     1       2.133 -15.222   2.978  1.00  0.00    -0.248 NA
ATOM     41  C   UNL     1      -0.034 -15.846   3.540  1.00  0.00     0.031 C 
ATOM     42  C   UNL     1       0.143 -14.897  -1.213  1.00  0.00     0.029 A 
ATOM     43  N   UNL     1       1.747 -16.032  -0.186  1.00  0.00    -0.354 N 
ATOM     44  C   UNL     1       2.158 -15.921   4.184  1.00  0.00     0.074 A 
ATOM     45  C   UNL     1       0.786 -16.198   4.531  1.00  0.00     0.031 C 
ATOM     46  C   UNL     1       0.602 -15.814  -2.091  1.00  0.00     0.029 A 
ATOM     47  C   UNL     1       1.620 -16.617  -1.440  1.00  0.00     0.049 A 
ATOM     48  H   UNL     1       2.482 -16.238   0.435  1.00  0.00     0.167 HD
ATOM     49  C   UNL     1       3.302 -16.367   4.772  1.00  0.00     0.034 A 
ATOM     50  C   UNL     1       2.238 -17.747  -1.854  1.00  0.00     0.034 A 
ATOM     51  C   UNL     1       4.486 -15.778   4.222  1.00  0.00     0.049 A 
ATOM     52  C   UNL     1       3.429 -17.931  -0.990  1.00  0.00     0.074 A 
ATOM     53  C   UNL     1       5.021 -14.507   4.193  1.00  0.00     0.029 A 
ATOM     54  N   UNL     1       5.168 -16.496   3.271  1.00  0.00    -0.354 N 
ATOM     55  N   UNL     1       4.452 -17.123  -0.988  1.00  0.00    -0.248 NA
ATOM     56  C   UNL     1       3.321 -18.802   0.169  1.00  0.00     0.031 C 
ATOM     57  C   UNL     1       5.655 -14.402   2.921  1.00  0.00     0.029 A 
ATOM     58  C   UNL     1       5.484 -15.622   2.263  1.00  0.00     0.049 A 
ATOM     59  H   UNL     1       5.389 -17.455   3.306  1.00  0.00     0.167 HD
ATOM     60  C   UNL     1       4.865 -17.078   0.337  1.00  0.00     0.074 A 
ATOM     61  C   UNL     1       4.218 -18.222   0.972  1.00  0.00     0.031 C 
ATOM     62  C   UNL     1       5.457 -15.961   0.856  1.00  0.00     0.034 A 
BRANCH  49  63
ATOM     63  C   UNL     1       3.356 -17.531   5.717  1.00  0.00     0.023 A 
ATOM     64  C   UNL     1       4.413 -17.619   6.645  1.00  0.00     0.012 A 
ATOM     65  C   UNL     1       2.511 -18.654   5.578  1.00  0.00     0.148 A 
ATOM     66  C   UNL     1       4.606 -18.771   7.417  1.00  0.00     0.002 A 
ATOM     67  C   UNL     1       2.666 -19.769   6.392  1.00  0.00     0.091 A 
ATOM     68  F   UNL     1       1.621 -18.682   4.577  1.00  0.00    -0.205 F 
ATOM     69  C   UNL     1       3.722 -19.840   7.304  1.00  0.00     0.022 A 
BRANCH  67  70
ATOM     70  S   UNL     1       1.519 -21.148   6.316  1.00  0.00     0.127 S 
ATOM     71  O   UNL     1       2.285 -22.128   5.553  1.00  0.00    -0.237 OA
ATOM     72  O   UNL     1       1.336 -21.470   7.732  1.00  0.00    -0.237 OA
ATOM     73  O   UNL     1       0.326 -20.616   5.670  1.00  0.00    -0.744 OA
ENDBRANCH  67  70
ENDBRANCH  49  63
BRANCH  50  74
ATOM     74  C   UNL     1       1.736 -18.802  -2.766  1.00  0.00     0.023 A 
ATOM     75  C   UNL     1       2.640 -19.748  -3.288  1.00  0.00     0.012 A 
ATOM     76  C   UNL     1       0.353 -19.050  -2.931  1.00  0.00     0.148 A 
ATOM     77  C   UNL     1       2.186 -20.914  -3.917  1.00  0.00     0.002 A 
ATOM     78  C   UNL     1      -0.094 -20.199  -3.577  1.00  0.00     0.091 A 
ATOM     79  F   UNL     1      -0.534 -18.220  -2.367  1.00  0.00    -0.205 F 
ATOM     80  C   UNL     1       0.820 -21.142  -4.059  1.00  0.00     0.022 A 
BRANCH  78  81
ATOM     81  S   UNL     1      -1.847 -20.539  -3.788  1.00  0.00     0.127 S 
ATOM     82  O   UNL     1      -1.892 -21.122  -5.130  1.00  0.00    -0.237 OA
ATOM     83  O   UNL     1      -2.107 -21.480  -2.704  1.00  0.00    -0.237 OA
ATOM     84  O   UNL     1      -2.509 -19.244  -3.683  1.00  0.00    -0.744 OA
ENDBRANCH  78  81
ENDBRANCH  50  74
BRANCH  62  85
ATOM     85  C   UNL     1       5.805 -14.845  -0.103  1.00  0.00     0.023 A 
ATOM     86  C   UNL     1       4.792 -14.116  -0.765  1.00  0.00     0.012 A 
ATOM     87  C   UNL     1       7.132 -14.396  -0.199  1.00  0.00     0.148 A 
ATOM     88  C   UNL     1       5.094 -12.985  -1.525  1.00  0.00     0.002 A 
ATOM     89  C   UNL     1       7.425 -13.245  -0.925  1.00  0.00     0.091 A 
ATOM     90  F   UNL     1       8.081 -15.082   0.455  1.00  0.00    -0.205 F 
ATOM     91  C   UNL     1       6.410 -12.542  -1.596  1.00  0.00     0.022 A 
BRANCH  89  92
ATOM     92  S   UNL     1       9.077 -12.542  -0.962  1.00  0.00     0.127 S 
ATOM     93  O   UNL     1       9.502 -12.833  -2.333  1.00  0.00    -0.237 OA
ATOM     94  O   UNL     1       8.817 -11.124  -0.694  1.00  0.00    -0.237 OA
ATOM     95  O   UNL     1       9.827 -13.217   0.082  1.00  0.00    -0.744 OA
ENDBRANCH  89  92
ENDBRANCH  62  85
ENDBRANCH  36  37
ENDBRANCH  28  31
ENDBRANCH  26  27
ENDBRANCH  25  26
ENDBRANCH   1  25
TORSDOF 18
