REMARK SMILES O=C(NCCCCNC(=O)[C@@H]1CCC[N@@H+](Cc2ccc(F)cc2Cl)C1)c1ccc(-c2c3nc(c(-c4cccc(S(=O)(=O)[O-])c4F)c4ccc([nH]4)c(-c4cccc(S(=O)(=O)[O-])c4F)c4nc(c(-c5cccc(S(=O)(=O)[O-])c5F)c5ccc2[nH]5)C=C4)C=C3)cc1
REMARK SMILES IDX 5 1 4 2 3 3 1 4 2 5 26 7 27 8 88 9 28 10 87 11 29 12 30 13
REMARK SMILES IDX 31 14 81 15 32 16 86 17 80 18 82 19 33 20 85 21 79 22 78 23
REMARK SMILES IDX 34 25 66 26 46 27 65 28 47 29 50 30 64 31 83 32 48 33 49 34
REMARK SMILES IDX 63 36 84 37 51 38 35 39 36 40 44 41 37 42 39 43 45 44 38 45
REMARK SMILES IDX 40 46 41 47 42 48 43 49 67 50 68 51 76 52 69 53 71 54 77 55
REMARK SMILES IDX 70 56 72 57 73 58 74 59 75 60 52 61 53 62 61 63 54 64 56 65
REMARK SMILES IDX 62 66 55 67 57 68 58 69 59 70 60 71 6 72 7 73 8 74 9 75
REMARK SMILES IDX 10 77 11 78 12 79 25 80 13 81 15 82 14 83 16 85 17 86 18 87
REMARK SMILES IDX 23 88 19 89 22 90 24 91 20 92 21 93
REMARK H PARENT 3 6 82 24 50 35 8 76 15 84
REMARK Flexibility Score: inf
ROOT
ATOM      1  C   UNL     1       4.762  -2.279   0.648  1.00  0.00     0.023 C 
ENDROOT
BRANCH   1   2
ATOM      2  C   UNL     1       4.471  -1.025  -0.162  1.00  0.00     0.116 C 
BRANCH   2   3
ATOM      3  N   UNL     1       3.044  -0.831  -0.388  1.00  0.00    -0.352 N 
ATOM      4  O   UNL     1       1.076   0.262  -0.314  1.00  0.00    -0.269 OA
ATOM      5  C   UNL     1       2.292   0.314  -0.256  1.00  0.00     0.251 C 
ATOM      6  H   UNL     1       2.549  -1.631  -0.676  1.00  0.00     0.163 HD
BRANCH   5   7
ATOM      7  C   UNL     1       2.994   1.591  -0.023  1.00  0.00     0.039 A 
ATOM      8  C   UNL     1       4.135   1.895  -0.767  1.00  0.00     0.014 A 
ATOM      9  C   UNL     1       2.530   2.462   0.963  1.00  0.00     0.014 A 
ATOM     10  C   UNL     1       4.904   2.992  -0.419  1.00  0.00     0.010 A 
ATOM     11  C   UNL     1       3.248   3.626   1.238  1.00  0.00     0.010 A 
ATOM     12  C   UNL     1       4.453   3.883   0.567  1.00  0.00    -0.014 A 
BRANCH  12  13
ATOM     13  C   UNL     1       5.219   5.128   0.799  1.00  0.00     0.031 A 
ATOM     14  C   UNL     1       5.865   5.414   2.121  1.00  0.00     0.074 A 
ATOM     15  C   UNL     1       5.330   5.994  -0.228  1.00  0.00     0.049 A 
ATOM     16  N   UNL     1       6.583   6.449   2.472  1.00  0.00    -0.248 NA
ATOM     17  C   UNL     1       5.676   4.424   3.193  1.00  0.00     0.031 C 
ATOM     18  C   UNL     1       4.703   5.818  -1.542  1.00  0.00     0.029 A 
ATOM     19  N   UNL     1       6.007   7.177  -0.340  1.00  0.00    -0.354 N 
ATOM     20  C   UNL     1       6.889   6.263   3.814  1.00  0.00     0.074 A 
ATOM     21  C   UNL     1       6.280   5.014   4.216  1.00  0.00     0.031 C 
ATOM     22  C   UNL     1       5.063   6.830  -2.342  1.00  0.00     0.029 A 
ATOM     23  C   UNL     1       5.884   7.760  -1.579  1.00  0.00     0.049 A 
ATOM     24  H   UNL     1       6.531   7.572   0.394  1.00  0.00     0.167 HD
ATOM     25  C   UNL     1       7.620   7.062   4.628  1.00  0.00     0.034 A 
ATOM     26  C   UNL     1       6.363   8.926  -2.047  1.00  0.00     0.034 A 
ATOM     27  C   UNL     1       8.251   8.282   4.196  1.00  0.00     0.049 A 
ATOM     28  C   UNL     1       7.195   9.772  -1.131  1.00  0.00     0.074 A 
ATOM     29  C   UNL     1       9.065   9.134   4.921  1.00  0.00     0.029 A 
ATOM     30  N   UNL     1       8.133   8.828   2.925  1.00  0.00    -0.354 N 
ATOM     31  N   UNL     1       7.565   9.527   0.102  1.00  0.00    -0.248 NA
ATOM     32  C   UNL     1       7.690  11.042  -1.673  1.00  0.00     0.031 C 
ATOM     33  C   UNL     1       9.424  10.204   4.093  1.00  0.00     0.029 A 
ATOM     34  C   UNL     1       8.849  10.010   2.846  1.00  0.00     0.049 A 
ATOM     35  H   UNL     1       7.614   8.432   2.188  1.00  0.00     0.167 HD
ATOM     36  C   UNL     1       8.351  10.604   0.484  1.00  0.00     0.074 A 
ATOM     37  C   UNL     1       8.427  11.489  -0.664  1.00  0.00     0.031 C 
ATOM     38  C   UNL     1       8.940  10.852   1.679  1.00  0.00     0.034 A 
BRANCH  25  39
ATOM     39  C   UNL     1       7.801   6.628   6.060  1.00  0.00     0.023 A 
ATOM     40  C   UNL     1       8.659   5.551   6.362  1.00  0.00     0.012 A 
ATOM     41  C   UNL     1       7.161   7.314   7.112  1.00  0.00     0.148 A 
ATOM     42  C   UNL     1       8.852   5.144   7.682  1.00  0.00     0.002 A 
ATOM     43  C   UNL     1       7.390   6.928   8.428  1.00  0.00     0.091 A 
ATOM     44  F   UNL     1       6.327   8.319   6.807  1.00  0.00    -0.205 F 
ATOM     45  C   UNL     1       8.227   5.837   8.714  1.00  0.00     0.022 A 
BRANCH  43  46
ATOM     46  S   UNL     1       6.683   7.809   9.826  1.00  0.00     0.127 S 
ATOM     47  O   UNL     1       5.599   6.912  10.223  1.00  0.00    -0.237 OA
ATOM     48  O   UNL     1       7.806   7.859  10.763  1.00  0.00    -0.237 OA
ATOM     49  O   UNL     1       6.272   9.107   9.309  1.00  0.00    -0.744 OA
ENDBRANCH  43  46
ENDBRANCH  25  39
BRANCH  26  50
ATOM     50  C   UNL     1       6.096   9.312  -3.459  1.00  0.00     0.023 A 
ATOM     51  C   UNL     1       7.151   9.294  -4.391  1.00  0.00     0.012 A 
ATOM     52  C   UNL     1       4.790   9.603  -3.902  1.00  0.00     0.148 A 
ATOM     53  C   UNL     1       6.911   9.570  -5.738  1.00  0.00     0.002 A 
ATOM     54  C   UNL     1       4.549   9.815  -5.254  1.00  0.00     0.091 A 
ATOM     55  F   UNL     1       3.803   9.627  -2.996  1.00  0.00    -0.205 F 
ATOM     56  C   UNL     1       5.611   9.814  -6.171  1.00  0.00     0.022 A 
BRANCH  54  57
ATOM     57  S   UNL     1       2.887   9.978  -5.917  1.00  0.00     0.127 S 
ATOM     58  O   UNL     1       2.835  11.399  -6.247  1.00  0.00    -0.237 OA
ATOM     59  O   UNL     1       2.931   9.078  -7.070  1.00  0.00    -0.237 OA
ATOM     60  O   UNL     1       1.997   9.540  -4.851  1.00  0.00    -0.744 OA
ENDBRANCH  54  57
ENDBRANCH  26  50
BRANCH  38  61
ATOM     61  C   UNL     1       9.729  12.127   1.800  1.00  0.00     0.023 A 
ATOM     62  C   UNL     1       9.051  13.358   1.894  1.00  0.00     0.012 A 
ATOM     63  C   UNL     1      11.134  12.099   1.875  1.00  0.00     0.148 A 
ATOM     64  C   UNL     1       9.763  14.548   2.031  1.00  0.00     0.002 A 
ATOM     65  C   UNL     1      11.835  13.285   2.058  1.00  0.00     0.091 A 
ATOM     66  F   UNL     1      11.759  10.919   1.758  1.00  0.00    -0.205 F 
ATOM     67  C   UNL     1      11.152  14.511   2.124  1.00  0.00     0.022 A 
BRANCH  65  68
ATOM     68  S   UNL     1      13.617  13.318   2.278  1.00  0.00     0.127 S 
ATOM     69  O   UNL     1      14.069  13.812   0.979  1.00  0.00    -0.237 OA
ATOM     70  O   UNL     1      13.777  14.266   3.382  1.00  0.00    -0.237 OA
ATOM     71  O   UNL     1      14.004  11.951   2.600  1.00  0.00    -0.744 OA
ENDBRANCH  65  68
ENDBRANCH  38  61
ENDBRANCH  12  13
ENDBRANCH   5   7
ENDBRANCH   2   3
ENDBRANCH   1   2
BRANCH   1  72
ATOM     72  C   UNL     1       4.233  -3.557   0.001  1.00  0.00     0.023 C 
BRANCH  72  73
ATOM     73  C   UNL     1       4.970  -3.989  -1.267  1.00  0.00     0.116 C 
BRANCH  73  74
ATOM     74  N   UNL     1       6.385  -4.282  -1.103  1.00  0.00    -0.356 N 
ATOM     75  C   UNL     1       7.000  -5.469  -0.801  1.00  0.00     0.228 C 
ATOM     76  H   UNL     1       6.990  -3.515  -1.228  1.00  0.00     0.163 HD
ATOM     77  O   UNL     1       8.216  -5.551  -0.976  1.00  0.00    -0.275 OA
BRANCH  75  78
ATOM     78  C   UNL     1       6.169  -6.598  -0.187  1.00  0.00     0.133 C 
ATOM     79  C   UNL     1       5.839  -6.201   1.254  1.00  0.00     0.025 C 
ATOM     80  C   UNL     1       6.840  -7.989  -0.346  1.00  0.00     0.276 C 
ATOM     81  C   UNL     1       6.652  -6.943   2.286  1.00  0.00     0.062 C 
ATOM     82  N   UNL     1       6.901  -8.888   0.807  1.00  0.00    -0.330 N 
ATOM     83  C   UNL     1       6.431  -8.425   2.097  1.00  0.00     0.262 C 
ATOM     84  H   UNL     1       7.907  -8.797   0.946  1.00  0.00     0.348 HD
BRANCH  82  85
ATOM     85  C   UNL     1       6.726 -10.320   0.558  1.00  0.00     0.300 C 
BRANCH  85  86
ATOM     86  C   UNL     1       5.279 -10.783   0.558  1.00  0.00     0.025 A 
ATOM     87  C   UNL     1       4.528 -10.655  -0.626  1.00  0.00     0.014 A 
ATOM     88  C   UNL     1       4.627 -11.267   1.711  1.00  0.00     0.052 A 
ATOM     89  C   UNL     1       3.164 -10.947  -0.644  1.00  0.00     0.040 A 
ATOM     90  C   UNL     1       3.258 -11.542   1.694  1.00  0.00     0.060 A 
ATOM     91  Cl  UNL     1       5.456 -11.549   3.203  1.00  0.00    -0.084 Cl
ATOM     92  C   UNL     1       2.540 -11.371   0.520  1.00  0.00     0.124 A 
ATOM     93  F   UNL     1       1.225 -11.623   0.510  1.00  0.00    -0.207 F 
ENDBRANCH  85  86
ENDBRANCH  82  85
ENDBRANCH  75  78
ENDBRANCH  73  74
ENDBRANCH  72  73
ENDBRANCH   1  72
TORSDOF 16
