REMARK SMILES Cc1cccc(S(=O)(=O)N[C@@H](CCC(N)=O)C(=O)NCCCCNC(=O)c2ccc(-c3c4nc(c(-c5cccc(S(=O)(=O)[O-])c5F)c5ccc([nH]5)c(-c5cccc(S(=O)(=O)[O-])c5F)c5nc(c(-c6cccc(S(=O)(=O)[O-])c6F)c6ccc3[nH]6)C=C5)C=C4)cc2)c1
REMARK SMILES IDX 21 1 20 2 19 3 17 4 18 5 11 7 10 8 7 10 8 11 9 12 6 13 1 14
REMARK SMILES IDX 2 15 3 16 90 17 4 18 5 19 12 20 13 21 14 22 15 23 16 24
REMARK SMILES IDX 22 27 23 28 24 29 25 30 26 32 27 33 28 34 89 35 29 36 88 37
REMARK SMILES IDX 30 38 31 39 32 40 82 41 33 42 87 43 81 44 83 45 34 46 86 47
REMARK SMILES IDX 80 48 79 49 35 51 67 52 47 53 66 54 48 55 51 56 65 57 84 58
REMARK SMILES IDX 49 59 50 60 64 62 85 63 52 64 36 65 37 66 45 67 38 68 40 69
REMARK SMILES IDX 46 70 39 71 41 72 42 73 43 74 44 75 68 76 69 77 77 78 70 79
REMARK SMILES IDX 72 80 78 81 71 82 73 83 74 84 75 85 76 86 53 87 54 88 62 89
REMARK SMILES IDX 55 90 57 91 63 92 56 93 58 94 59 95 60 96 61 97
REMARK H PARENT 19 6 10 9 15 25 15 26 24 31 83 50 51 61
REMARK Flexibility Score: inf
ROOT
ATOM      1  C   UNL     1      -1.345   7.425   1.115  1.00  0.00     0.023 C 
ENDROOT
BRANCH   1   2
ATOM      2  C   UNL     1      -1.064   6.777  -0.243  1.00  0.00     0.116 C 
BRANCH   2   3
ATOM      3  N   UNL     1       0.302   6.282  -0.362  1.00  0.00    -0.355 N 
ATOM      4  C   UNL     1       0.796   5.099  -0.843  1.00  0.00     0.238 C 
ATOM      5  O   UNL     1       2.017   4.921  -0.789  1.00  0.00    -0.273 OA
ATOM      6  H   UNL     1       0.990   6.907  -0.039  1.00  0.00     0.163 HD
BRANCH   4   7
ATOM      7  C   UNL     1      -0.143   3.957  -1.289  1.00  0.00     0.159 C 
BRANCH   7   8
ATOM      8  N   UNL     1      -1.080   3.766  -0.161  1.00  0.00    -0.199 NA
ATOM      9  H   UNL     1      -0.491   3.782   0.672  1.00  0.00     0.142 HD
BRANCH   8  10
ATOM     10  S   UNL     1      -2.121   2.503   0.080  1.00  0.00     0.241 S 
ATOM     11  O   UNL     1      -2.998   2.422  -1.080  1.00  0.00    -0.207 OA
ATOM     12  O   UNL     1      -2.647   2.684   1.402  1.00  0.00    -0.207 OA
BRANCH  10  13
ATOM     13  C   UNL     1      -1.152   1.020   0.114  1.00  0.00     0.082 A 
ATOM     14  C   UNL     1       2.470  -0.119   0.182  1.00  0.00     0.044 C 
ATOM     15  C   UNL     1       0.970  -0.144   0.158  1.00  0.00    -0.050 A 
ATOM     16  C   UNL     1       0.289  -1.355  -0.019  1.00  0.00     0.003 A 
ATOM     17  C   UNL     1       0.235   1.041   0.282  1.00  0.00     0.025 A 
ATOM     18  C   UNL     1      -1.103  -1.381  -0.112  1.00  0.00     0.002 A 
ATOM     19  C   UNL     1      -1.825  -0.191  -0.068  1.00  0.00     0.022 A 
ENDBRANCH  10  13
ENDBRANCH   8  10
ENDBRANCH   7   8
BRANCH   7  20
ATOM     20  C   UNL     1      -0.743   4.021  -2.697  1.00  0.00     0.040 C 
BRANCH  20  21
ATOM     21  C   UNL     1      -1.342   5.326  -3.215  1.00  0.00     0.102 C 
BRANCH  21  22
ATOM     22  C   UNL     1      -0.286   6.342  -3.595  1.00  0.00     0.217 C 
ATOM     23  N   UNL     1      -0.765   7.538  -4.010  1.00  0.00    -0.370 N 
ATOM     24  O   UNL     1       0.919   6.129  -3.537  1.00  0.00    -0.275 OA
ATOM     25  H   UNL     1      -1.736   7.692  -4.050  1.00  0.00     0.159 HD
ATOM     26  H   UNL     1      -0.142   8.254  -4.271  1.00  0.00     0.159 HD
ENDBRANCH  21  22
ENDBRANCH  20  21
ENDBRANCH   7  20
ENDBRANCH   4   7
ENDBRANCH   2   3
ENDBRANCH   1   2
BRANCH   1  27
ATOM     27  C   UNL     1      -0.469   8.630   1.451  1.00  0.00     0.023 C 
BRANCH  27  28
ATOM     28  C   UNL     1      -0.553   9.759   0.441  1.00  0.00     0.116 C 
BRANCH  28  29
ATOM     29  N   UNL     1      -1.716  10.602   0.595  1.00  0.00    -0.352 N 
ATOM     30  C   UNL     1      -1.987  11.830   0.021  1.00  0.00     0.251 C 
ATOM     31  H   UNL     1      -2.416  10.252   1.193  1.00  0.00     0.163 HD
ATOM     32  O   UNL     1      -2.855  12.521   0.548  1.00  0.00    -0.269 OA
BRANCH  30  33
ATOM     33  C   UNL     1      -1.377  12.225  -1.280  1.00  0.00     0.039 A 
ATOM     34  C   UNL     1      -2.143  13.041  -2.127  1.00  0.00     0.014 A 
ATOM     35  C   UNL     1      -0.236  11.609  -1.785  1.00  0.00     0.014 A 
ATOM     36  C   UNL     1      -1.942  12.998  -3.502  1.00  0.00     0.010 A 
ATOM     37  C   UNL     1      -0.091  11.479  -3.139  1.00  0.00     0.010 A 
ATOM     38  C   UNL     1      -0.999  12.108  -3.986  1.00  0.00    -0.014 A 
BRANCH  38  39
ATOM     39  C   UNL     1      -0.836  11.732  -5.370  1.00  0.00     0.031 A 
ATOM     40  C   UNL     1       0.079  12.508  -6.205  1.00  0.00     0.074 A 
ATOM     41  C   UNL     1      -1.285  10.503  -5.705  1.00  0.00     0.049 A 
ATOM     42  N   UNL     1       0.089  12.457  -7.486  1.00  0.00    -0.248 NA
ATOM     43  C   UNL     1       1.067  13.421  -5.638  1.00  0.00     0.031 C 
ATOM     44  C   UNL     1      -0.858   9.644  -6.797  1.00  0.00     0.029 A 
ATOM     45  N   UNL     1      -2.380   9.831  -5.150  1.00  0.00    -0.354 N 
ATOM     46  C   UNL     1       1.261  13.056  -7.890  1.00  0.00     0.074 A 
ATOM     47  C   UNL     1       1.774  13.738  -6.725  1.00  0.00     0.031 C 
ATOM     48  C   UNL     1      -1.813   8.724  -7.019  1.00  0.00     0.029 A 
ATOM     49  C   UNL     1      -2.955   9.092  -6.196  1.00  0.00     0.049 A 
ATOM     50  H   UNL     1      -2.684   9.868  -4.214  1.00  0.00     0.167 HD
ATOM     51  C   UNL     1       1.779  12.727  -9.104  1.00  0.00     0.034 A 
ATOM     52  C   UNL     1      -4.226   9.322  -6.641  1.00  0.00     0.034 A 
ATOM     53  C   UNL     1       0.926  11.730  -9.767  1.00  0.00     0.049 A 
ATOM     54  C   UNL     1      -4.222   9.780  -8.090  1.00  0.00     0.074 A 
ATOM     55  C   UNL     1       0.991  10.346  -9.841  1.00  0.00     0.029 A 
ATOM     56  N   UNL     1      -0.365  12.077 -10.151  1.00  0.00    -0.354 N 
ATOM     57  N   UNL     1      -3.147  10.136  -8.739  1.00  0.00    -0.248 NA
ATOM     58  C   UNL     1      -5.414   9.857  -8.923  1.00  0.00     0.031 C 
ATOM     59  C   UNL     1      -0.289   9.861 -10.223  1.00  0.00     0.029 A 
ATOM     60  C   UNL     1      -1.130  10.946 -10.404  1.00  0.00     0.049 A 
ATOM     61  H   UNL     1      -0.693  13.002 -10.232  1.00  0.00     0.167 HD
ATOM     62  C   UNL     1      -3.463  10.546 -10.007  1.00  0.00     0.074 A 
ATOM     63  C   UNL     1      -4.896  10.298 -10.085  1.00  0.00     0.031 C 
ATOM     64  C   UNL     1      -2.517  11.076 -10.851  1.00  0.00     0.034 A 
BRANCH  51  65
ATOM     65  C   UNL     1       3.216  13.008  -9.494  1.00  0.00     0.023 A 
ATOM     66  C   UNL     1       3.852  12.072 -10.340  1.00  0.00     0.012 A 
ATOM     67  C   UNL     1       4.007  14.098  -9.060  1.00  0.00     0.148 A 
ATOM     68  C   UNL     1       5.210  12.150 -10.662  1.00  0.00     0.002 A 
ATOM     69  C   UNL     1       5.380  14.144  -9.330  1.00  0.00     0.091 A 
ATOM     70  F   UNL     1       3.424  15.130  -8.437  1.00  0.00    -0.205 F 
ATOM     71  C   UNL     1       5.983  13.168 -10.130  1.00  0.00     0.022 A 
BRANCH  69  72
ATOM     72  S   UNL     1       6.476  15.377  -8.604  1.00  0.00     0.127 S 
ATOM     73  O   UNL     1       7.602  14.562  -8.143  1.00  0.00    -0.237 OA
ATOM     74  O   UNL     1       6.781  16.240  -9.743  1.00  0.00    -0.237 OA
ATOM     75  O   UNL     1       5.717  15.996  -7.523  1.00  0.00    -0.744 OA
ENDBRANCH  69  72
ENDBRANCH  51  65
BRANCH  52  76
ATOM     76  C   UNL     1      -5.141   9.797  -5.552  1.00  0.00     0.023 A 
ATOM     77  C   UNL     1      -5.289   8.929  -4.438  1.00  0.00     0.012 A 
ATOM     78  C   UNL     1      -5.418  11.164  -5.379  1.00  0.00     0.148 A 
ATOM     79  C   UNL     1      -5.483   9.440  -3.152  1.00  0.00     0.002 A 
ATOM     80  C   UNL     1      -5.636  11.662  -4.093  1.00  0.00     0.091 A 
ATOM     81  F   UNL     1      -5.369  11.970  -6.446  1.00  0.00    -0.205 F 
ATOM     82  C   UNL     1      -5.606  10.813  -2.974  1.00  0.00     0.022 A 
BRANCH  80  83
ATOM     83  S   UNL     1      -5.831  13.429  -3.817  1.00  0.00     0.127 S 
ATOM     84  O   UNL     1      -7.264  13.601  -4.027  1.00  0.00    -0.237 OA
ATOM     85  O   UNL     1      -5.391  13.594  -2.433  1.00  0.00    -0.237 OA
ATOM     86  O   UNL     1      -4.948  14.041  -4.799  1.00  0.00    -0.744 OA
ENDBRANCH  80  83
ENDBRANCH  52  76
BRANCH  64  87
ATOM     87  C   UNL     1      -2.770  11.768 -12.188  1.00  0.00     0.023 A 
ATOM     88  C   UNL     1      -4.053  12.134 -12.629  1.00  0.00     0.012 A 
ATOM     89  C   UNL     1      -1.686  12.193 -13.011  1.00  0.00     0.148 A 
ATOM     90  C   UNL     1      -4.262  12.841 -13.820  1.00  0.00     0.002 A 
ATOM     91  C   UNL     1      -1.889  13.006 -14.121  1.00  0.00     0.091 A 
ATOM     92  F   UNL     1      -0.437  11.782 -12.752  1.00  0.00    -0.205 F 
ATOM     93  C   UNL     1      -3.179  13.306 -14.549  1.00  0.00     0.022 A 
BRANCH  91  94
ATOM     94  S   UNL     1      -0.517  13.819 -14.954  1.00  0.00     0.127 S 
ATOM     95  O   UNL     1      -0.326  12.964 -16.123  1.00  0.00    -0.237 OA
ATOM     96  O   UNL     1      -1.077  15.140 -15.248  1.00  0.00    -0.237 OA
ATOM     97  O   UNL     1       0.570  13.835 -13.985  1.00  0.00    -0.744 OA
ENDBRANCH  91  94
ENDBRANCH  64  87
ENDBRANCH  38  39
ENDBRANCH  30  33
ENDBRANCH  28  29
ENDBRANCH  27  28
ENDBRANCH   1  27
TORSDOF 20
