REMARK SMILES CCc1nsc(NC[C@H](CC(C)C)C(=O)NCCCCNC(=O)c2ccc(-c3c4nc(c(-c5cccc(S(=O)(=O)[O-])c5F)c5ccc([nH]5)c(-c5cccc(S(=O)(=O)[O-])c5F)c5nc(c(-c6cccc(S(=O)(=O)[O-])c6F)c6ccc3[nH]6)C=C5)C=C4)cc2)n1
REMARK SMILES IDX 18 1 17 2 16 3 14 4 15 5 9 7 8 8 7 9 6 11 3 12 4 13 87 14
REMARK SMILES IDX 5 15 2 16 1 17 10 18 11 19 12 20 13 21 19 22 20 23 21 24
REMARK SMILES IDX 22 25 23 27 24 28 25 29 86 30 26 31 85 32 27 33 28 34 29 35
REMARK SMILES IDX 79 36 30 37 84 38 78 39 80 40 31 41 83 42 77 43 76 44 32 46
REMARK SMILES IDX 64 47 44 48 63 49 45 50 48 51 62 52 81 53 46 54 47 55 61 57
REMARK SMILES IDX 82 58 49 59 33 60 34 61 42 62 35 63 37 64 43 65 36 66 38 67
REMARK SMILES IDX 39 68 40 69 41 70 65 71 66 72 74 73 67 74 69 75 75 76 68 77
REMARK SMILES IDX 70 78 71 79 72 80 73 81 50 82 51 83 59 84 52 85 54 86 60 87
REMARK SMILES IDX 53 88 55 89 56 90 57 91 58 92
REMARK H PARENT 16 6 7 10 21 26 80 45 48 56
REMARK Flexibility Score: inf
ROOT
ATOM      1  C   UNL     1       4.099   8.204  -5.041  1.00  0.00     0.023 C 
ENDROOT
BRANCH   1   2
ATOM      2  C   UNL     1       2.633   8.601  -4.915  1.00  0.00     0.116 C 
BRANCH   2   3
ATOM      3  N   UNL     1       1.786   8.013  -5.935  1.00  0.00    -0.356 N 
ATOM      4  C   UNL     1       0.704   7.195  -5.798  1.00  0.00     0.224 C 
ATOM      5  O   UNL     1       0.069   6.887  -6.808  1.00  0.00    -0.275 OA
ATOM      6  H   UNL     1       2.028   8.238  -6.863  1.00  0.00     0.163 HD
BRANCH   4   7
ATOM      7  C   UNL     1       0.257   6.687  -4.426  1.00  0.00     0.098 C 
BRANCH   7   8
ATOM      8  C   UNL     1      -0.424   7.843  -3.650  1.00  0.00     0.128 C 
BRANCH   8   9
ATOM      9  N   UNL     1       0.131   8.114  -2.336  1.00  0.00    -0.359 N 
ATOM     10  H   UNL     1       0.030   7.420  -1.645  1.00  0.00     0.162 HD
BRANCH   9  11
ATOM     11  C   UNL     1       0.775   9.251  -1.993  1.00  0.00     0.202 A 
ATOM     12  C   UNL     1       2.252  10.545  -0.981  1.00  0.00     0.144 A 
ATOM     13  N   UNL     1       1.788  11.505  -1.782  1.00  0.00    -0.174 NA
ATOM     14  N   UNL     1       1.684   9.275  -1.044  1.00  0.00    -0.204 NA
ATOM     15  S   UNL     1       0.577  10.820  -2.696  1.00  0.00     0.004 S 
BRANCH  12  16
ATOM     16  C   UNL     1       3.378  10.778  -0.026  1.00  0.00     0.075 C 
ATOM     17  C   UNL     1       3.975  12.177  -0.049  1.00  0.00     0.012 C 
ENDBRANCH  12  16
ENDBRANCH   9  11
ENDBRANCH   8   9
ENDBRANCH   7   8
BRANCH   7  18
ATOM     18  C   UNL     1       1.369   5.849  -3.751  1.00  0.00     0.018 C 
BRANCH  18  19
ATOM     19  C   UNL     1       1.094   4.330  -3.724  1.00  0.00    -0.017 C 
ATOM     20  C   UNL     1       0.994   3.726  -5.127  1.00  0.00     0.007 C 
ATOM     21  C   UNL     1       2.212   3.626  -2.947  1.00  0.00     0.007 C 
ENDBRANCH  18  19
ENDBRANCH   7  18
ENDBRANCH   4   7
ENDBRANCH   2   3
ENDBRANCH   1   2
BRANCH   1  22
ATOM     22  C   UNL     1       4.835   8.820  -6.227  1.00  0.00     0.023 C 
BRANCH  22  23
ATOM     23  C   UNL     1       4.750  10.338  -6.337  1.00  0.00     0.116 C 
BRANCH  23  24
ATOM     24  N   UNL     1       5.201  11.039  -5.141  1.00  0.00    -0.352 N 
ATOM     25  C   UNL     1       6.008  12.150  -5.058  1.00  0.00     0.251 C 
ATOM     26  H   UNL     1       4.888  10.670  -4.283  1.00  0.00     0.163 HD
ATOM     27  O   UNL     1       6.388  12.570  -3.968  1.00  0.00    -0.269 OA
BRANCH  25  28
ATOM     28  C   UNL     1       6.447  12.806  -6.307  1.00  0.00     0.039 A 
ATOM     29  C   UNL     1       7.812  12.996  -6.532  1.00  0.00     0.014 A 
ATOM     30  C   UNL     1       5.510  13.146  -7.286  1.00  0.00     0.014 A 
ATOM     31  C   UNL     1       8.246  13.440  -7.783  1.00  0.00     0.010 A 
ATOM     32  C   UNL     1       5.948  13.521  -8.550  1.00  0.00     0.010 A 
ATOM     33  C   UNL     1       7.320  13.658  -8.816  1.00  0.00    -0.014 A 
BRANCH  33  34
ATOM     34  C   UNL     1       7.750  13.991 -10.198  1.00  0.00     0.031 A 
ATOM     35  C   UNL     1       7.337  15.297 -10.818  1.00  0.00     0.074 A 
ATOM     36  C   UNL     1       8.393  13.065 -10.937  1.00  0.00     0.049 A 
ATOM     37  N   UNL     1       7.490  15.710 -12.048  1.00  0.00    -0.248 NA
ATOM     38  C   UNL     1       6.628  16.250  -9.947  1.00  0.00     0.031 C 
ATOM     39  C   UNL     1       8.775  11.728 -10.476  1.00  0.00     0.029 A 
ATOM     40  N   UNL     1       8.804  13.092 -12.247  1.00  0.00    -0.354 N 
ATOM     41  C   UNL     1       6.856  16.944 -12.114  1.00  0.00     0.074 A 
ATOM     42  C   UNL     1       6.296  17.204 -10.806  1.00  0.00     0.031 C 
ATOM     43  C   UNL     1       9.358  11.063 -11.487  1.00  0.00     0.029 A 
ATOM     44  C   UNL     1       9.367  11.911 -12.674  1.00  0.00     0.049 A 
ATOM     45  H   UNL     1       8.704  13.882 -12.827  1.00  0.00     0.167 HD
ATOM     46  C   UNL     1       6.771  17.797 -13.161  1.00  0.00     0.034 A 
ATOM     47  C   UNL     1       9.830  11.550 -13.887  1.00  0.00     0.034 A 
ATOM     48  C   UNL     1       7.389  17.569 -14.438  1.00  0.00     0.049 A 
ATOM     49  C   UNL     1       9.785  12.545 -15.015  1.00  0.00     0.074 A 
ATOM     50  C   UNL     1       7.451  18.420 -15.528  1.00  0.00     0.029 A 
ATOM     51  N   UNL     1       8.057  16.409 -14.796  1.00  0.00    -0.354 N 
ATOM     52  N   UNL     1       9.324  13.772 -15.011  1.00  0.00    -0.248 NA
ATOM     53  C   UNL     1      10.353  12.121 -16.303  1.00  0.00     0.031 C 
ATOM     54  C   UNL     1       8.157  17.772 -16.547  1.00  0.00     0.029 A 
ATOM     55  C   UNL     1       8.537  16.520 -16.090  1.00  0.00     0.049 A 
ATOM     56  H   UNL     1       8.174  15.622 -14.216  1.00  0.00     0.167 HD
ATOM     57  C   UNL     1       9.576  14.278 -16.281  1.00  0.00     0.074 A 
ATOM     58  C   UNL     1      10.245  13.230 -17.024  1.00  0.00     0.031 C 
ATOM     59  C   UNL     1       9.263  15.494 -16.792  1.00  0.00     0.034 A 
BRANCH  46  60
ATOM     60  C   UNL     1       6.045  19.097 -12.944  1.00  0.00     0.023 A 
ATOM     61  C   UNL     1       6.662  20.110 -12.182  1.00  0.00     0.012 A 
ATOM     62  C   UNL     1       4.788  19.338 -13.530  1.00  0.00     0.148 A 
ATOM     63  C   UNL     1       6.026  21.334 -11.981  1.00  0.00     0.002 A 
ATOM     64  C   UNL     1       4.177  20.576 -13.357  1.00  0.00     0.091 A 
ATOM     65  F   UNL     1       4.205  18.354 -14.228  1.00  0.00    -0.205 F 
ATOM     66  C   UNL     1       4.790  21.570 -12.576  1.00  0.00     0.022 A 
BRANCH  64  67
ATOM     67  S   UNL     1       2.617  20.995 -14.144  1.00  0.00     0.127 S 
ATOM     68  O   UNL     1       1.680  20.870 -13.029  1.00  0.00    -0.237 OA
ATOM     69  O   UNL     1       2.852  22.369 -14.590  1.00  0.00    -0.237 OA
ATOM     70  O   UNL     1       2.447  20.033 -15.223  1.00  0.00    -0.744 OA
ENDBRANCH  64  67
ENDBRANCH  46  60
BRANCH  47  71
ATOM     71  C   UNL     1      10.453  10.209 -14.074  1.00  0.00     0.023 A 
ATOM     72  C   UNL     1      11.850  10.121 -14.234  1.00  0.00     0.012 A 
ATOM     73  C   UNL     1       9.690   9.026 -14.053  1.00  0.00     0.148 A 
ATOM     74  C   UNL     1      12.472   8.883 -14.395  1.00  0.00     0.002 A 
ATOM     75  C   UNL     1      10.322   7.792 -14.163  1.00  0.00     0.091 A 
ATOM     76  F   UNL     1       8.360   9.129 -13.917  1.00  0.00    -0.205 F 
ATOM     77  C   UNL     1      11.711   7.719 -14.348  1.00  0.00     0.022 A 
BRANCH  75  78
ATOM     78  S   UNL     1       9.429   6.243 -13.981  1.00  0.00     0.127 S 
ATOM     79  O   UNL     1       9.299   5.807 -15.368  1.00  0.00    -0.237 OA
ATOM     80  O   UNL     1      10.352   5.449 -13.169  1.00  0.00    -0.237 OA
ATOM     81  O   UNL     1       8.189   6.592 -13.300  1.00  0.00    -0.744 OA
ENDBRANCH  75  78
ENDBRANCH  47  71
BRANCH  59  82
ATOM     82  C   UNL     1       9.663  15.784 -18.213  1.00  0.00     0.023 A 
ATOM     83  C   UNL     1       8.915  15.231 -19.269  1.00  0.00     0.012 A 
ATOM     84  C   UNL     1      10.711  16.681 -18.498  1.00  0.00     0.148 A 
ATOM     85  C   UNL     1       9.213  15.555 -20.592  1.00  0.00     0.002 A 
ATOM     86  C   UNL     1      10.977  17.030 -19.817  1.00  0.00     0.091 A 
ATOM     87  F   UNL     1      11.424  17.178 -17.477  1.00  0.00    -0.205 F 
ATOM     88  C   UNL     1      10.234  16.462 -20.865  1.00  0.00     0.022 A 
BRANCH  86  89
ATOM     89  S   UNL     1      12.213  18.258 -20.254  1.00  0.00     0.127 S 
ATOM     90  O   UNL     1      13.296  17.422 -20.768  1.00  0.00    -0.237 OA
ATOM     91  O   UNL     1      11.521  19.052 -21.270  1.00  0.00    -0.237 OA
ATOM     92  O   UNL     1      12.508  18.981 -19.024  1.00  0.00    -0.744 OA
ENDBRANCH  86  89
ENDBRANCH  59  82
ENDBRANCH  33  34
ENDBRANCH  25  28
ENDBRANCH  23  24
ENDBRANCH  22  23
ENDBRANCH   1  22
TORSDOF 20
