REMARK SMILES CC(C)CSc1cc2c(cc1Cl)C=C(C(=O)NCCCCNC(=O)c1ccc(-c3c4nc(c(-c5cccc(S(=O)(=O)[O-])c5F)c5ccc([nH]5)c(-c5cccc(S(=O)(=O)[O-])c5F)c5nc(c(-c6cccc(S(=O)(=O)[O-])c6F)c6ccc3[nH]6)C=C5)C=C4)cc1)[C@@H](C(F)(F)F)O2
REMARK SMILES IDX 19 1 18 2 17 3 15 4 16 5 14 7 6 8 7 9 11 10 8 11 10 12 12 13
REMARK SMILES IDX 9 14 93 15 13 16 88 17 5 18 4 19 2 20 1 21 3 22 89 23 90 24
REMARK SMILES IDX 91 25 92 26 20 27 21 28 22 29 23 30 24 32 25 33 26 34 87 35
REMARK SMILES IDX 27 36 86 37 28 38 29 39 30 40 80 41 31 42 85 43 79 44 81 45
REMARK SMILES IDX 32 46 84 47 78 48 77 49 33 51 65 52 45 53 64 54 46 55 49 56
REMARK SMILES IDX 63 57 82 58 47 59 48 60 62 62 83 63 50 64 34 65 35 66 43 67
REMARK SMILES IDX 36 68 38 69 44 70 37 71 39 72 40 73 41 74 42 75 66 76 67 77
REMARK SMILES IDX 75 78 68 79 70 80 76 81 69 82 71 83 72 84 73 85 74 86 51 87
REMARK SMILES IDX 52 88 60 89 53 90 55 91 61 92 54 93 56 94 57 95 58 96 59 97
REMARK H PARENT 17 6 22 31 81 50 49 61
REMARK Flexibility Score: inf
ROOT
ATOM      1  C   UNL     1      -0.041   7.107  -4.241  1.00  0.00     0.023 C 
ENDROOT
BRANCH   1   2
ATOM      2  C   UNL     1      -1.065   6.303  -5.037  1.00  0.00     0.116 C 
BRANCH   2   3
ATOM      3  N   UNL     1      -0.439   5.312  -5.894  1.00  0.00    -0.352 N 
ATOM      4  C   UNL     1      -0.227   3.976  -5.872  1.00  0.00     0.251 C 
ATOM      5  O   UNL     1       0.373   3.520  -6.850  1.00  0.00    -0.270 OA
ATOM      6  H   UNL     1      -0.069   5.723  -6.710  1.00  0.00     0.163 HD
BRANCH   4   7
ATOM      7  C   UNL     1      -0.655   3.050  -4.780  1.00  0.00     0.067 C 
ATOM      8  C   UNL     1      -1.167  -0.986  -1.773  1.00  0.00     0.030 A 
ATOM      9  C   UNL     1      -1.519   0.366  -1.679  1.00  0.00     0.063 A 
ATOM     10  C   UNL     1      -0.564  -1.436  -2.963  1.00  0.00     0.055 A 
ATOM     11  C   UNL     1      -1.207   1.255  -2.707  1.00  0.00     0.129 A 
ATOM     12  C   UNL     1      -0.265  -0.538  -3.998  1.00  0.00     0.033 A 
ATOM     13  Cl  UNL     1      -0.120  -3.092  -3.212  1.00  0.00    -0.083 Cl
ATOM     14  C   UNL     1      -0.570   0.817  -3.863  1.00  0.00     0.019 A 
ATOM     15  O   UNL     1      -1.503   2.568  -2.480  1.00  0.00    -0.475 OA
ATOM     16  C   UNL     1      -0.193   1.789  -4.879  1.00  0.00     0.025 C 
ATOM     17  C   UNL     1      -1.569   3.432  -3.650  1.00  0.00     0.314 C 
BRANCH   8  18
ATOM     18  S   UNL     1      -1.487  -2.082  -0.390  1.00  0.00    -0.124 SA
BRANCH  18  19
ATOM     19  C   UNL     1      -0.891  -1.114   1.051  1.00  0.00     0.078 C 
BRANCH  19  20
ATOM     20  C   UNL     1       0.637  -1.090   1.249  1.00  0.00    -0.007 C 
ATOM     21  C   UNL     1       1.378  -0.228   0.226  1.00  0.00     0.008 C 
ATOM     22  C   UNL     1       0.949  -0.561   2.654  1.00  0.00     0.008 C 
ENDBRANCH  19  20
ENDBRANCH  18  19
ENDBRANCH   8  18
BRANCH  17  23
ATOM     23  C   UNL     1      -3.040   3.550  -4.090  1.00  0.00     0.429 C 
ATOM     24  F   UNL     1      -3.772   4.164  -3.128  1.00  0.00    -0.167 F 
ATOM     25  F   UNL     1      -3.192   4.280  -5.217  1.00  0.00    -0.167 F 
ATOM     26  F   UNL     1      -3.607   2.343  -4.319  1.00  0.00    -0.167 F 
ENDBRANCH  17  23
ENDBRANCH   4   7
ENDBRANCH   2   3
ENDBRANCH   1   2
BRANCH   1  27
ATOM     27  C   UNL     1       0.553   8.297  -4.999  1.00  0.00     0.023 C 
BRANCH  27  28
ATOM     28  C   UNL     1      -0.459   9.298  -5.554  1.00  0.00     0.116 C 
BRANCH  28  29
ATOM     29  N   UNL     1      -1.421   9.786  -4.575  1.00  0.00    -0.352 N 
ATOM     30  C   UNL     1      -2.104  10.983  -4.601  1.00  0.00     0.251 C 
ATOM     31  H   UNL     1      -1.604   9.194  -3.809  1.00  0.00     0.163 HD
ATOM     32  O   UNL     1      -2.865  11.296  -3.694  1.00  0.00    -0.269 OA
BRANCH  30  33
ATOM     33  C   UNL     1      -1.841  11.897  -5.728  1.00  0.00     0.039 A 
ATOM     34  C   UNL     1      -2.052  11.458  -7.038  1.00  0.00     0.014 A 
ATOM     35  C   UNL     1      -1.218  13.119  -5.469  1.00  0.00     0.014 A 
ATOM     36  C   UNL     1      -1.481  12.166  -8.089  1.00  0.00     0.010 A 
ATOM     37  C   UNL     1      -0.698  13.857  -6.533  1.00  0.00     0.010 A 
ATOM     38  C   UNL     1      -0.766  13.350  -7.841  1.00  0.00    -0.014 A 
BRANCH  38  39
ATOM     39  C   UNL     1      -0.030  14.007  -8.949  1.00  0.00     0.031 A 
ATOM     40  C   UNL     1       1.476  14.024  -8.957  1.00  0.00     0.074 A 
ATOM     41  C   UNL     1      -0.716  14.544  -9.975  1.00  0.00     0.049 A 
ATOM     42  N   UNL     1       2.287  14.560  -9.832  1.00  0.00    -0.248 NA
ATOM     43  C   UNL     1       2.164  13.351  -7.841  1.00  0.00     0.031 C 
ATOM     44  C   UNL     1      -2.174  14.580 -10.084  1.00  0.00     0.029 A 
ATOM     45  N   UNL     1      -0.277  15.148 -11.124  1.00  0.00    -0.354 N 
ATOM     46  C   UNL     1       3.571  14.334  -9.352  1.00  0.00     0.074 A 
ATOM     47  C   UNL     1       3.438  13.603  -8.111  1.00  0.00     0.031 C 
ATOM     48  C   UNL     1      -2.510  15.144 -11.255  1.00  0.00     0.029 A 
ATOM     49  C   UNL     1      -1.294  15.547 -11.956  1.00  0.00     0.049 A 
ATOM     50  H   UNL     1       0.676  15.283 -11.334  1.00  0.00     0.167 HD
ATOM     51  C   UNL     1       4.756  14.685  -9.905  1.00  0.00     0.034 A 
ATOM     52  C   UNL     1      -1.256  16.175 -13.147  1.00  0.00     0.034 A 
ATOM     53  C   UNL     1       4.895  15.350 -11.170  1.00  0.00     0.049 A 
ATOM     54  C   UNL     1       0.071  16.541 -13.744  1.00  0.00     0.074 A 
ATOM     55  C   UNL     1       6.059  15.717 -11.824  1.00  0.00     0.029 A 
ATOM     56  N   UNL     1       3.840  15.736 -11.981  1.00  0.00    -0.354 N 
ATOM     57  N   UNL     1       1.274  16.277 -13.295  1.00  0.00    -0.248 NA
ATOM     58  C   UNL     1       0.048  17.286 -15.010  1.00  0.00     0.031 C 
ATOM     59  C   UNL     1       5.706  16.316 -13.039  1.00  0.00     0.029 A 
ATOM     60  C   UNL     1       4.324  16.332 -13.132  1.00  0.00     0.049 A 
ATOM     61  H   UNL     1       2.888  15.604 -11.769  1.00  0.00     0.167 HD
ATOM     62  C   UNL     1       2.152  16.828 -14.220  1.00  0.00     0.074 A 
ATOM     63  C   UNL     1       1.343  17.411 -15.271  1.00  0.00     0.031 C 
ATOM     64  C   UNL     1       3.505  16.873 -14.185  1.00  0.00     0.034 A 
BRANCH  51  65
ATOM     65  C   UNL     1       6.012  14.305  -9.172  1.00  0.00     0.023 A 
ATOM     66  C   UNL     1       6.543  13.014  -9.352  1.00  0.00     0.012 A 
ATOM     67  C   UNL     1       6.704  15.240  -8.380  1.00  0.00     0.148 A 
ATOM     68  C   UNL     1       7.748  12.655  -8.750  1.00  0.00     0.002 A 
ATOM     69  C   UNL     1       7.915  14.882  -7.798  1.00  0.00     0.091 A 
ATOM     70  F   UNL     1       6.164  16.455  -8.207  1.00  0.00    -0.205 F 
ATOM     71  C   UNL     1       8.437  13.590  -7.981  1.00  0.00     0.022 A 
BRANCH  69  72
ATOM     72  S   UNL     1       8.900  16.023  -6.821  1.00  0.00     0.127 S 
ATOM     73  O   UNL     1       8.760  15.457  -5.480  1.00  0.00    -0.237 OA
ATOM     74  O   UNL     1      10.229  15.868  -7.413  1.00  0.00    -0.237 OA
ATOM     75  O   UNL     1       8.298  17.335  -7.009  1.00  0.00    -0.744 OA
ENDBRANCH  69  72
ENDBRANCH  51  65
BRANCH  52  76
ATOM     76  C   UNL     1      -2.530  16.445 -13.863  1.00  0.00     0.023 A 
ATOM     77  C   UNL     1      -2.874  15.647 -14.970  1.00  0.00     0.012 A 
ATOM     78  C   UNL     1      -3.436  17.418 -13.401  1.00  0.00     0.148 A 
ATOM     79  C   UNL     1      -4.105  15.813 -15.605  1.00  0.00     0.002 A 
ATOM     80  C   UNL     1      -4.678  17.547 -14.009  1.00  0.00     0.091 A 
ATOM     81  F   UNL     1      -3.074  18.177 -12.357  1.00  0.00    -0.205 F 
ATOM     82  C   UNL     1      -5.011  16.751 -15.117  1.00  0.00     0.022 A 
BRANCH  80  83
ATOM     83  S   UNL     1      -5.952  18.636 -13.366  1.00  0.00     0.127 S 
ATOM     84  O   UNL     1      -5.963  19.704 -14.362  1.00  0.00    -0.237 OA
ATOM     85  O   UNL     1      -7.130  17.768 -13.379  1.00  0.00    -0.237 OA
ATOM     86  O   UNL     1      -5.504  19.016 -12.033  1.00  0.00    -0.744 OA
ENDBRANCH  80  83
ENDBRANCH  52  76
BRANCH  64  87
ATOM     87  C   UNL     1       4.205  17.599 -15.297  1.00  0.00     0.023 A 
ATOM     88  C   UNL     1       4.311  19.002 -15.227  1.00  0.00     0.012 A 
ATOM     89  C   UNL     1       4.828  16.904 -16.349  1.00  0.00     0.148 A 
ATOM     90  C   UNL     1       5.022  19.705 -16.197  1.00  0.00     0.002 A 
ATOM     91  C   UNL     1       5.558  17.610 -17.299  1.00  0.00     0.091 A 
ATOM     92  F   UNL     1       4.694  15.571 -16.405  1.00  0.00    -0.205 F 
ATOM     93  C   UNL     1       5.654  19.010 -17.226  1.00  0.00     0.022 A 
BRANCH  91  94
ATOM     94  S   UNL     1       6.455  16.782 -18.616  1.00  0.00     0.127 S 
ATOM     95  O   UNL     1       5.547  16.952 -19.749  1.00  0.00    -0.237 OA
ATOM     96  O   UNL     1       7.689  17.565 -18.701  1.00  0.00    -0.237 OA
ATOM     97  O   UNL     1       6.647  15.412 -18.159  1.00  0.00    -0.744 OA
ENDBRANCH  91  94
ENDBRANCH  64  87
ENDBRANCH  38  39
ENDBRANCH  30  33
ENDBRANCH  28  29
ENDBRANCH  27  28
ENDBRANCH   1  27
TORSDOF 18
