REMARK SMILES O=C(NCCCCNC(=O)c1nnn(-c2cccc(C(F)(F)F)c2)c1[C@@H]1COc2ccccc2O1)c1ccc(-c2c3nc(c(-c4cccc(S(=O)(=O)[O-])c4F)c4ccc([nH]4)c(-c4cccc(S(=O)(=O)[O-])c4F)c4nc(c(-c5cccc(S(=O)(=O)[O-])c5F)c5ccc2[nH]5)C=C4)C=C3)cc1
REMARK SMILES IDX 5 1 4 2 3 3 1 4 2 5 36 7 37 8 98 9 38 10 97 11 39 12 40 13
REMARK SMILES IDX 41 14 91 15 42 16 96 17 90 18 92 19 43 20 95 21 89 22 88 23
REMARK SMILES IDX 44 25 76 26 56 27 75 28 57 29 60 30 74 31 93 32 58 33 59 34
REMARK SMILES IDX 73 36 94 37 61 38 45 39 46 40 54 41 47 42 49 43 55 44 48 45
REMARK SMILES IDX 50 46 51 47 52 48 53 49 77 50 78 51 86 52 79 53 81 54 87 55
REMARK SMILES IDX 80 56 82 57 83 58 84 59 85 60 62 61 63 62 71 63 64 64 66 65
REMARK SMILES IDX 72 66 65 67 67 68 68 69 69 70 70 71 6 72 7 73 8 74 9 75
REMARK SMILES IDX 10 77 11 78 12 79 25 80 13 81 14 82 26 83 27 84 35 85 28 86
REMARK SMILES IDX 34 87 29 88 33 89 30 90 32 91 31 92 15 93 16 94 24 95 17 96
REMARK SMILES IDX 19 97 18 98 20 99 21 100 22 101 23 102
REMARK H PARENT 3 6 92 24 60 35 8 76
REMARK Flexibility Score: inf
ROOT
ATOM      1  C   UNL     1       5.303   1.211  -1.444  1.00  0.00     0.023 C 
ENDROOT
BRANCH   1   2
ATOM      2  C   UNL     1       4.776   0.755  -0.078  1.00  0.00     0.116 C 
BRANCH   2   3
ATOM      3  N   UNL     1       3.357   0.968   0.141  1.00  0.00    -0.352 N 
ATOM      4  O   UNL     1       1.201   0.671   0.471  1.00  0.00    -0.269 OA
ATOM      5  C   UNL     1       2.223   0.221  -0.056  1.00  0.00     0.251 C 
ATOM      6  H   UNL     1       3.163   1.856   0.518  1.00  0.00     0.163 HD
BRANCH   5   7
ATOM      7  C   UNL     1       2.128  -1.027  -0.866  1.00  0.00     0.039 A 
ATOM      8  C   UNL     1       3.189  -1.634  -1.535  1.00  0.00     0.014 A 
ATOM      9  C   UNL     1       0.845  -1.598  -0.998  1.00  0.00     0.014 A 
ATOM     10  C   UNL     1       2.972  -2.739  -2.357  1.00  0.00     0.010 A 
ATOM     11  C   UNL     1       0.625  -2.713  -1.808  1.00  0.00     0.010 A 
ATOM     12  C   UNL     1       1.689  -3.269  -2.511  1.00  0.00    -0.014 A 
BRANCH  12  13
ATOM     13  C   UNL     1       1.550  -4.454  -3.356  1.00  0.00     0.031 A 
ATOM     14  C   UNL     1       2.242  -5.688  -2.878  1.00  0.00     0.074 A 
ATOM     15  C   UNL     1       0.770  -4.520  -4.453  1.00  0.00     0.049 A 
ATOM     16  N   UNL     1       3.194  -6.350  -3.455  1.00  0.00    -0.248 NA
ATOM     17  C   UNL     1       1.862  -6.209  -1.558  1.00  0.00     0.031 C 
ATOM     18  C   UNL     1      -0.237  -3.555  -4.897  1.00  0.00     0.029 A 
ATOM     19  N   UNL     1       0.630  -5.553  -5.335  1.00  0.00    -0.354 N 
ATOM     20  C   UNL     1       3.409  -7.480  -2.663  1.00  0.00     0.074 A 
ATOM     21  C   UNL     1       2.650  -7.280  -1.455  1.00  0.00     0.031 C 
ATOM     22  C   UNL     1      -1.045  -4.151  -5.803  1.00  0.00     0.029 A 
ATOM     23  C   UNL     1      -0.526  -5.476  -6.099  1.00  0.00     0.049 A 
ATOM     24  H   UNL     1       1.286  -6.282  -5.422  1.00  0.00     0.167 HD
ATOM     25  C   UNL     1       4.062  -8.584  -3.121  1.00  0.00     0.034 A 
ATOM     26  C   UNL     1      -1.062  -6.462  -6.855  1.00  0.00     0.034 A 
ATOM     27  C   UNL     1       4.776  -8.331  -4.340  1.00  0.00     0.049 A 
ATOM     28  C   UNL     1      -0.001  -7.453  -7.140  1.00  0.00     0.074 A 
ATOM     29  C   UNL     1       5.809  -7.505  -4.731  1.00  0.00     0.029 A 
ATOM     30  N   UNL     1       4.232  -8.831  -5.496  1.00  0.00    -0.354 N 
ATOM     31  N   UNL     1       1.026  -7.227  -7.910  1.00  0.00    -0.248 NA
ATOM     32  C   UNL     1       0.096  -8.632  -6.295  1.00  0.00     0.031 C 
ATOM     33  C   UNL     1       5.538  -7.197  -6.096  1.00  0.00     0.029 A 
ATOM     34  C   UNL     1       4.362  -7.861  -6.450  1.00  0.00     0.049 A 
ATOM     35  H   UNL     1       3.825  -9.719  -5.616  1.00  0.00     0.167 HD
ATOM     36  C   UNL     1       2.052  -7.975  -7.351  1.00  0.00     0.074 A 
ATOM     37  C   UNL     1       1.390  -8.916  -6.456  1.00  0.00     0.031 C 
ATOM     38  C   UNL     1       3.353  -7.571  -7.446  1.00  0.00     0.034 A 
BRANCH  25  39
ATOM     39  C   UNL     1       3.840 -10.003  -2.648  1.00  0.00     0.023 A 
ATOM     40  C   UNL     1       4.765 -10.987  -3.075  1.00  0.00     0.012 A 
ATOM     41  C   UNL     1       2.644 -10.463  -2.057  1.00  0.00     0.148 A 
ATOM     42  C   UNL     1       4.491 -12.354  -2.967  1.00  0.00     0.002 A 
ATOM     43  C   UNL     1       2.412 -11.825  -1.880  1.00  0.00     0.091 A 
ATOM     44  F   UNL     1       1.661  -9.600  -1.781  1.00  0.00    -0.205 F 
ATOM     45  C   UNL     1       3.315 -12.775  -2.361  1.00  0.00     0.022 A 
BRANCH  43  46
ATOM     46  S   UNL     1       0.936 -12.410  -1.039  1.00  0.00     0.127 S 
ATOM     47  O   UNL     1       0.082 -12.777  -2.172  1.00  0.00    -0.237 OA
ATOM     48  O   UNL     1       1.455 -13.548  -0.271  1.00  0.00    -0.237 OA
ATOM     49  O   UNL     1       0.495 -11.297  -0.226  1.00  0.00    -0.744 OA
ENDBRANCH  43  46
ENDBRANCH  25  39
BRANCH  26  50
ATOM     50  C   UNL     1      -2.484  -6.731  -7.164  1.00  0.00     0.023 A 
ATOM     51  C   UNL     1      -2.822  -7.484  -8.305  1.00  0.00     0.012 A 
ATOM     52  C   UNL     1      -3.492  -6.476  -6.208  1.00  0.00     0.148 A 
ATOM     53  C   UNL     1      -4.117  -7.987  -8.477  1.00  0.00     0.002 A 
ATOM     54  C   UNL     1      -4.780  -6.968  -6.388  1.00  0.00     0.091 A 
ATOM     55  F   UNL     1      -3.163  -5.833  -5.079  1.00  0.00    -0.205 F 
ATOM     56  C   UNL     1      -5.094  -7.734  -7.518  1.00  0.00     0.022 A 
BRANCH  54  57
ATOM     57  S   UNL     1      -6.086  -6.690  -5.184  1.00  0.00     0.127 S 
ATOM     58  O   UNL     1      -7.202  -6.277  -6.036  1.00  0.00    -0.237 OA
ATOM     59  O   UNL     1      -6.230  -8.014  -4.584  1.00  0.00    -0.237 OA
ATOM     60  O   UNL     1      -5.593  -5.643  -4.299  1.00  0.00    -0.744 OA
ENDBRANCH  54  57
ENDBRANCH  26  50
BRANCH  38  61
ATOM     61  C   UNL     1       3.703  -6.486  -8.432  1.00  0.00     0.023 A 
ATOM     62  C   UNL     1       3.179  -5.183  -8.314  1.00  0.00     0.012 A 
ATOM     63  C   UNL     1       4.741  -6.725  -9.350  1.00  0.00     0.148 A 
ATOM     64  C   UNL     1       3.668  -4.143  -9.108  1.00  0.00     0.002 A 
ATOM     65  C   UNL     1       5.261  -5.677 -10.100  1.00  0.00     0.091 A 
ATOM     66  F   UNL     1       5.234  -7.970  -9.442  1.00  0.00    -0.205 F 
ATOM     67  C   UNL     1       4.719  -4.386  -9.988  1.00  0.00     0.022 A 
BRANCH  65  68
ATOM     68  S   UNL     1       6.713  -5.884 -11.134  1.00  0.00     0.127 S 
ATOM     69  O   UNL     1       6.139  -5.855 -12.478  1.00  0.00    -0.237 OA
ATOM     70  O   UNL     1       7.515  -4.710 -10.786  1.00  0.00    -0.237 OA
ATOM     71  O   UNL     1       7.313  -7.151 -10.735  1.00  0.00    -0.744 OA
ENDBRANCH  65  68
ENDBRANCH  38  61
ENDBRANCH  12  13
ENDBRANCH   5   7
ENDBRANCH   2   3
ENDBRANCH   1   2
BRANCH   1  72
ATOM     72  C   UNL     1       4.950   2.632  -1.869  1.00  0.00     0.023 C 
BRANCH  72  73
ATOM     73  C   UNL     1       5.321   3.761  -0.918  1.00  0.00     0.116 C 
BRANCH  73  74
ATOM     74  N   UNL     1       6.668   4.260  -0.993  1.00  0.00    -0.351 N 
ATOM     75  C   UNL     1       7.238   5.511  -0.858  1.00  0.00     0.273 C 
ATOM     76  H   UNL     1       7.329   3.555  -1.182  1.00  0.00     0.163 HD
ATOM     77  O   UNL     1       8.468   5.497  -0.990  1.00  0.00    -0.267 OA
BRANCH  75  78
ATOM     78  C   UNL     1       6.553   6.803  -0.594  1.00  0.00     0.178 A 
ATOM     79  N   UNL     1       7.331   7.941  -0.781  1.00  0.00    -0.124 NA
ATOM     80  C   UNL     1       5.272   7.243  -0.229  1.00  0.00     0.122 A 
ATOM     81  N   UNL     1       6.600   9.021  -0.586  1.00  0.00    -0.061 NA
ATOM     82  N   UNL     1       5.395   8.626  -0.153  1.00  0.00    -0.213 N 
BRANCH  80  83
ATOM     83  C   UNL     1       3.949   6.544  -0.153  1.00  0.00     0.262 C 
ATOM     84  C   UNL     1       3.324   6.447  -1.563  1.00  0.00     0.281 C 
ATOM     85  O   UNL     1       3.077   7.080   0.851  1.00  0.00    -0.477 OA
ATOM     86  O   UNL     1       2.602   7.628  -1.906  1.00  0.00    -0.485 OA
ATOM     87  C   UNL     1       1.844   7.451   0.376  1.00  0.00     0.162 A 
ATOM     88  C   UNL     1       1.623   7.782  -0.963  1.00  0.00     0.161 A 
ATOM     89  C   UNL     1       0.803   7.554   1.291  1.00  0.00     0.050 A 
ATOM     90  C   UNL     1       0.397   8.278  -1.386  1.00  0.00     0.050 A 
ATOM     91  C   UNL     1      -0.449   8.000   0.862  1.00  0.00     0.004 A 
ATOM     92  C   UNL     1      -0.647   8.378  -0.470  1.00  0.00     0.004 A 
ENDBRANCH  80  83
BRANCH  82  93
ATOM     93  C   UNL     1       4.480   9.582   0.322  1.00  0.00     0.067 A 
ATOM     94  C   UNL     1       3.813  10.408  -0.586  1.00  0.00     0.028 A 
ATOM     95  C   UNL     1       4.168   9.605   1.687  1.00  0.00     0.041 A 
ATOM     96  C   UNL     1       2.751  11.190  -0.132  1.00  0.00     0.003 A 
ATOM     97  C   UNL     1       3.117  10.408   2.149  1.00  0.00     0.058 A 
ATOM     98  C   UNL     1       2.396  11.179   1.221  1.00  0.00     0.013 A 
BRANCH  97  99
ATOM     99  C   UNL     1       2.712  10.385   3.600  1.00  0.00     0.416 C 
ATOM    100  F   UNL     1       2.477  11.630   4.101  1.00  0.00    -0.166 F 
ATOM    101  F   UNL     1       1.569   9.676   3.816  1.00  0.00    -0.166 F 
ATOM    102  F   UNL     1       3.652   9.831   4.417  1.00  0.00    -0.166 F 
ENDBRANCH  97  99
ENDBRANCH  82  93
ENDBRANCH  75  78
ENDBRANCH  73  74
ENDBRANCH  72  73
ENDBRANCH   1  72
TORSDOF 17
