REMARK SMILES Cc1cc(C)c(S(=O)(=O)Nc2ccc(N3CCN(c4ccccn4)CC3)c(C(=O)NCCCCNC(=O)c3ccc(-c4c5nc(c(-c6cccc(S(=O)(=O)[O-])c6F)c6ccc([nH]6)c(-c6cccc(S(=O)(=O)[O-])c6F)c6nc(c(-c7cccc(S(=O)(=O)[O-])c7F)c7ccc4[nH]7)C=C6)C=C5)cc3)c2)c(C)c1
REMARK SMILES IDX 32 1 31 2 30 3 28 4 29 5 27 7 11 8 12 9 101 10 13 11 14 12
REMARK SMILES IDX 10 13 7 15 8 16 9 17 6 18 1 19 2 20 3 21 104 22 4 23 102 24
REMARK SMILES IDX 5 25 103 26 15 27 16 28 26 29 17 30 25 31 18 32 19 33 20 34
REMARK SMILES IDX 24 35 21 36 23 37 22 38 33 39 34 40 35 41 36 42 37 44 38 45
REMARK SMILES IDX 39 46 100 47 40 48 99 49 41 50 42 51 43 52 93 53 44 54 98 55
REMARK SMILES IDX 92 56 94 57 45 58 97 59 91 60 90 61 46 63 78 64 58 65 77 66
REMARK SMILES IDX 59 67 62 68 76 69 95 70 60 71 61 72 75 74 96 75 63 76 47 77
REMARK SMILES IDX 48 78 56 79 49 80 51 81 57 82 50 83 52 84 53 85 54 86 55 87
REMARK SMILES IDX 79 88 80 89 88 90 81 91 83 92 89 93 82 94 84 95 85 96 86 97
REMARK SMILES IDX 87 98 64 99 65 100 73 101 66 102 68 103 74 104 67 105 69 106
REMARK SMILES IDX 70 107 71 108 72 109
REMARK H PARENT 30 6 10 14 35 43 94 62 62 73
REMARK Flexibility Score: inf
ROOT
ATOM      1  C   UNL     1      -0.141  -1.653   3.966  1.00  0.00     0.023 C 
ENDROOT
BRANCH   1   2
ATOM      2  C   UNL     1       0.773  -1.259   2.804  1.00  0.00     0.116 C 
BRANCH   2   3
ATOM      3  N   UNL     1       2.029  -1.965   2.916  1.00  0.00    -0.352 N 
ATOM      4  C   UNL     1       2.437  -3.206   2.494  1.00  0.00     0.253 C 
ATOM      5  O   UNL     1       3.449  -3.631   3.050  1.00  0.00    -0.269 OA
ATOM      6  H   UNL     1       2.729  -1.456   3.386  1.00  0.00     0.163 HD
BRANCH   4   7
ATOM      7  C   UNL     1       1.732  -3.999   1.423  1.00  0.00     0.065 A 
ATOM      8  C   UNL     1      -0.271  -4.386   0.111  1.00  0.00     0.050 A 
ATOM      9  C   UNL     1       0.401  -5.310  -0.679  1.00  0.00     0.029 A 
ATOM     10  C   UNL     1       0.339  -3.905   1.261  1.00  0.00     0.042 A 
ATOM     11  C   UNL     1       1.763  -5.504  -0.484  1.00  0.00     0.029 A 
ATOM     12  C   UNL     1       2.473  -4.762   0.478  1.00  0.00     0.050 A 
BRANCH   8  13
ATOM     13  N   UNL     1      -1.493  -3.884  -0.408  1.00  0.00    -0.280 N 
ATOM     14  H   UNL     1      -2.000  -4.485  -1.000  1.00  0.00     0.180 HD
BRANCH  13  15
ATOM     15  S   UNL     1      -2.162  -2.376  -0.120  1.00  0.00     0.262 S 
ATOM     16  O   UNL     1      -2.455  -2.328   1.299  1.00  0.00    -0.201 OA
ATOM     17  O   UNL     1      -3.223  -2.265  -1.103  1.00  0.00    -0.201 OA
BRANCH  15  18
ATOM     18  C   UNL     1      -1.035  -1.001  -0.452  1.00  0.00     0.093 A 
ATOM     19  C   UNL     1       1.883   2.181  -0.007  1.00  0.00     0.044 C 
ATOM     20  C   UNL     1       0.860   1.101  -0.202  1.00  0.00    -0.051 A 
ATOM     21  C   UNL     1      -0.460   1.296   0.188  1.00  0.00     0.008 A 
ATOM     22  C   UNL     1       1.183  -0.086  -0.857  1.00  0.00     0.008 A 
ATOM     23  C   UNL     1      -1.416   0.265   0.075  1.00  0.00    -0.030 A 
ATOM     24  C   UNL     1       0.237  -1.123  -1.044  1.00  0.00    -0.030 A 
ATOM     25  C   UNL     1      -2.832   0.654   0.429  1.00  0.00     0.046 C 
ATOM     26  C   UNL     1       0.697  -2.235  -1.934  1.00  0.00     0.046 C 
ENDBRANCH  15  18
ENDBRANCH  13  15
ENDBRANCH   8  13
BRANCH  12  27
ATOM     27  N   UNL     1       3.851  -4.700   0.357  1.00  0.00    -0.367 N 
ATOM     28  C   UNL     1       4.471  -4.439  -0.960  1.00  0.00     0.138 C 
ATOM     29  C   UNL     1       4.708  -5.423   1.311  1.00  0.00     0.138 C 
ATOM     30  C   UNL     1       5.859  -3.766  -0.814  1.00  0.00     0.139 C 
ATOM     31  C   UNL     1       6.039  -4.660   1.479  1.00  0.00     0.139 C 
ATOM     32  N   UNL     1       6.674  -4.516   0.151  1.00  0.00    -0.353 N 
BRANCH  32  33
ATOM     33  C   UNL     1       8.048  -4.388   0.098  1.00  0.00     0.128 A 
ATOM     34  C   UNL     1       8.848  -5.381   0.665  1.00  0.00     0.047 A 
ATOM     35  N   UNL     1       8.601  -3.340  -0.550  1.00  0.00    -0.239 NA
ATOM     36  C   UNL     1      10.235  -5.288   0.600  1.00  0.00     0.005 A 
ATOM     37  C   UNL     1       9.951  -3.251  -0.575  1.00  0.00     0.113 A 
ATOM     38  C   UNL     1      10.803  -4.191  -0.024  1.00  0.00     0.020 A 
ENDBRANCH  32  33
ENDBRANCH  12  27
ENDBRANCH   4   7
ENDBRANCH   2   3
ENDBRANCH   1   2
BRANCH   1  39
ATOM     39  C   UNL     1       0.254  -1.003   5.293  1.00  0.00     0.023 C 
BRANCH  39  40
ATOM     40  C   UNL     1       0.215   0.518   5.274  1.00  0.00     0.116 C 
BRANCH  40  41
ATOM     41  N   UNL     1      -1.081   1.045   4.873  1.00  0.00    -0.352 N 
ATOM     42  C   UNL     1      -1.698   2.189   5.310  1.00  0.00     0.251 C 
ATOM     43  H   UNL     1      -1.575   0.515   4.207  1.00  0.00     0.163 HD
ATOM     44  O   UNL     1      -2.850   2.446   4.975  1.00  0.00    -0.269 OA
BRANCH  42  45
ATOM     45  C   UNL     1      -0.958   3.095   6.209  1.00  0.00     0.039 A 
ATOM     46  C   UNL     1      -1.568   3.525   7.389  1.00  0.00     0.014 A 
ATOM     47  C   UNL     1       0.346   3.488   5.896  1.00  0.00     0.014 A 
ATOM     48  C   UNL     1      -0.852   4.330   8.275  1.00  0.00     0.010 A 
ATOM     49  C   UNL     1       1.082   4.223   6.816  1.00  0.00     0.010 A 
ATOM     50  C   UNL     1       0.483   4.672   8.002  1.00  0.00    -0.014 A 
BRANCH  50  51
ATOM     51  C   UNL     1       1.258   5.537   8.923  1.00  0.00     0.031 A 
ATOM     52  C   UNL     1       1.723   6.891   8.458  1.00  0.00     0.074 A 
ATOM     53  C   UNL     1       1.606   5.078  10.140  1.00  0.00     0.049 A 
ATOM     54  N   UNL     1       2.439   7.780   9.094  1.00  0.00    -0.248 NA
ATOM     55  C   UNL     1       1.364   7.285   7.084  1.00  0.00     0.031 C 
ATOM     56  C   UNL     1       1.289   3.750  10.669  1.00  0.00     0.029 A 
ATOM     57  N   UNL     1       2.323   5.674  11.147  1.00  0.00    -0.354 N 
ATOM     58  C   UNL     1       2.654   8.812   8.188  1.00  0.00     0.074 A 
ATOM     59  C   UNL     1       2.025   8.424   6.946  1.00  0.00     0.031 C 
ATOM     60  C   UNL     1       1.800   3.636  11.907  1.00  0.00     0.029 A 
ATOM     61  C   UNL     1       2.491   4.874  12.253  1.00  0.00     0.049 A 
ATOM     62  H   UNL     1       2.683   6.588  11.083  1.00  0.00     0.167 HD
ATOM     63  C   UNL     1       3.285   9.993   8.382  1.00  0.00     0.034 A 
ATOM     64  C   UNL     1       3.122   5.120  13.418  1.00  0.00     0.034 A 
ATOM     65  C   UNL     1       3.847  10.402   9.640  1.00  0.00     0.049 A 
ATOM     66  C   UNL     1       3.736   6.478  13.638  1.00  0.00     0.074 A 
ATOM     67  C   UNL     1       4.427  11.613   9.972  1.00  0.00     0.029 A 
ATOM     68  N   UNL     1       3.889   9.611  10.778  1.00  0.00    -0.354 N 
ATOM     69  N   UNL     1       3.786   7.504  12.824  1.00  0.00    -0.248 NA
ATOM     70  C   UNL     1       4.338   6.728  14.956  1.00  0.00     0.031 C 
ATOM     71  C   UNL     1       4.825  11.553  11.312  1.00  0.00     0.029 A 
ATOM     72  C   UNL     1       4.478  10.309  11.817  1.00  0.00     0.049 A 
ATOM     73  H   UNL     1       3.550   8.689  10.837  1.00  0.00     0.167 HD
ATOM     74  C   UNL     1       4.377   8.535  13.546  1.00  0.00     0.074 A 
ATOM     75  C   UNL     1       4.655   8.012  14.868  1.00  0.00     0.031 C 
ATOM     76  C   UNL     1       4.676   9.796  13.147  1.00  0.00     0.034 A 
BRANCH  63  77
ATOM     77  C   UNL     1       3.339  10.955   7.225  1.00  0.00     0.023 A 
ATOM     78  C   UNL     1       2.161  11.615   6.816  1.00  0.00     0.012 A 
ATOM     79  C   UNL     1       4.553  11.244   6.573  1.00  0.00     0.148 A 
ATOM     80  C   UNL     1       2.183  12.517   5.754  1.00  0.00     0.002 A 
ATOM     81  C   UNL     1       4.576  12.179   5.544  1.00  0.00     0.091 A 
ATOM     82  F   UNL     1       5.659  10.589   6.958  1.00  0.00    -0.205 F 
ATOM     83  C   UNL     1       3.391  12.807   5.125  1.00  0.00     0.022 A 
BRANCH  81  84
ATOM     84  S   UNL     1       6.095  12.678   4.724  1.00  0.00     0.127 S 
ATOM     85  O   UNL     1       5.957  12.026   3.423  1.00  0.00    -0.237 OA
ATOM     86  O   UNL     1       5.964  14.135   4.692  1.00  0.00    -0.237 OA
ATOM     87  O   UNL     1       7.181  12.187   5.561  1.00  0.00    -0.744 OA
ENDBRANCH  81  84
ENDBRANCH  63  77
BRANCH  64  88
ATOM     88  C   UNL     1       3.108   4.102  14.505  1.00  0.00     0.023 A 
ATOM     89  C   UNL     1       2.324   4.335  15.652  1.00  0.00     0.012 A 
ATOM     90  C   UNL     1       3.841   2.904  14.407  1.00  0.00     0.148 A 
ATOM     91  C   UNL     1       2.298   3.412  16.698  1.00  0.00     0.002 A 
ATOM     92  C   UNL     1       3.772   1.965  15.431  1.00  0.00     0.091 A 
ATOM     93  F   UNL     1       4.590   2.704  13.313  1.00  0.00    -0.205 F 
ATOM     94  C   UNL     1       3.014   2.224  16.584  1.00  0.00     0.022 A 
BRANCH  92  95
ATOM     95  S   UNL     1       4.562   0.356  15.314  1.00  0.00     0.127 S 
ATOM     96  O   UNL     1       5.697   0.514  16.220  1.00  0.00    -0.237 OA
ATOM     97  O   UNL     1       3.508  -0.538  15.796  1.00  0.00    -0.237 OA
ATOM     98  O   UNL     1       4.891   0.186  13.905  1.00  0.00    -0.744 OA
ENDBRANCH  92  95
ENDBRANCH  64  88
BRANCH  76  99
ATOM     99  C   UNL     1       5.287  10.723  14.164  1.00  0.00     0.023 A 
ATOM    100  C   UNL     1       6.627  10.547  14.560  1.00  0.00     0.012 A 
ATOM    101  C   UNL     1       4.552  11.813  14.671  1.00  0.00     0.148 A 
ATOM    102  C   UNL     1       7.215  11.422  15.473  1.00  0.00     0.002 A 
ATOM    103  C   UNL     1       5.160  12.708  15.543  1.00  0.00     0.091 A 
ATOM    104  F   UNL     1       3.270  11.952  14.300  1.00  0.00    -0.205 F 
ATOM    105  C   UNL     1       6.487  12.508  15.954  1.00  0.00     0.022 A 
BRANCH 103 106
ATOM    106  S   UNL     1       4.319  14.184  16.127  1.00  0.00     0.127 S 
ATOM    107  O   UNL     1       3.884  13.773  17.460  1.00  0.00    -0.237 OA
ATOM    108  O   UNL     1       5.389  15.183  16.116  1.00  0.00    -0.237 OA
ATOM    109  O   UNL     1       3.256  14.438  15.164  1.00  0.00    -0.744 OA
ENDBRANCH 103 106
ENDBRANCH  76  99
ENDBRANCH  50  51
ENDBRANCH  42  45
ENDBRANCH  40  41
ENDBRANCH  39  40
ENDBRANCH   1  39
TORSDOF 19
