REMARK SMILES O=C(NCCCCNC(=O)C1CC2(CCCC2)C1)c1ccc(-c2c3nc(c(-c4cccc(S(=O)(=O)[O-])c4F)c4ccc([nH]4)c(-c4cccc(S(=O)(=O)[O-])c4F)c4nc(c(-c5cccc(S(=O)(=O)[O-])c5F)c5ccc2[nH]5)C=C4)C=C3)cc1
REMARK SMILES IDX 4 1 3 2 1 3 2 4 19 6 20 7 81 8 21 9 80 10 22 11 23 12 24 13
REMARK SMILES IDX 74 14 25 15 79 16 73 17 75 18 26 19 78 20 72 21 71 22 27 24
REMARK SMILES IDX 59 25 39 26 58 27 40 28 43 29 57 30 76 31 41 32 42 33 56 35
REMARK SMILES IDX 77 36 44 37 28 38 29 39 37 40 30 41 32 42 38 43 31 44 33 45
REMARK SMILES IDX 34 46 35 47 36 48 60 49 61 50 69 51 62 52 64 53 70 54 63 55
REMARK SMILES IDX 65 56 66 57 67 58 68 59 45 60 46 61 54 62 47 63 49 64 55 65
REMARK SMILES IDX 48 66 50 67 51 68 52 69 53 70 5 71 6 72 7 73 8 74 9 75 10 77
REMARK SMILES IDX 11 78 12 79 18 80 13 81 14 82 17 83 15 84 16 85
REMARK H PARENT 3 5 75 23 43 34 8 76
REMARK Flexibility Score: inf
ROOT
ATOM      1  C   UNL     1       4.680  -1.266  -0.121  1.00  0.00     0.116 C 
ENDROOT
BRANCH   1   2
ATOM      2  N   UNL     1       3.261  -1.074  -0.380  1.00  0.00    -0.352 N 
ATOM      3  O   UNL     1       1.257  -0.039  -0.191  1.00  0.00    -0.269 OA
ATOM      4  C   UNL     1       2.453  -0.027   0.033  1.00  0.00     0.251 C 
ATOM      5  H   UNL     1       2.821  -1.774  -0.914  1.00  0.00     0.163 HD
BRANCH   4   6
ATOM      6  C   UNL     1       3.072   1.081   0.803  1.00  0.00     0.039 A 
ATOM      7  C   UNL     1       4.240   1.688   0.343  1.00  0.00     0.014 A 
ATOM      8  C   UNL     1       2.533   1.439   2.042  1.00  0.00     0.014 A 
ATOM      9  C   UNL     1       4.974   2.500   1.202  1.00  0.00     0.010 A 
ATOM     10  C   UNL     1       3.229   2.331   2.866  1.00  0.00     0.010 A 
ATOM     11  C   UNL     1       4.487   2.820   2.481  1.00  0.00    -0.014 A 
BRANCH  11  12
ATOM     12  C   UNL     1       5.313   3.667   3.385  1.00  0.00     0.031 A 
ATOM     13  C   UNL     1       5.826   3.144   4.703  1.00  0.00     0.074 A 
ATOM     14  C   UNL     1       5.633   4.917   2.993  1.00  0.00     0.049 A 
ATOM     15  N   UNL     1       6.605   3.734   5.575  1.00  0.00    -0.248 NA
ATOM     16  C   UNL     1       5.408   1.791   5.104  1.00  0.00     0.031 C 
ATOM     17  C   UNL     1       5.167   5.555   1.759  1.00  0.00     0.029 A 
ATOM     18  N   UNL     1       6.428   5.869   3.578  1.00  0.00    -0.354 N 
ATOM     19  C   UNL     1       6.727   2.854   6.645  1.00  0.00     0.074 A 
ATOM     20  C   UNL     1       5.940   1.685   6.315  1.00  0.00     0.031 C 
ATOM     21  C   UNL     1       5.716   6.774   1.659  1.00  0.00     0.029 A 
ATOM     22  C   UNL     1       6.530   7.026   2.842  1.00  0.00     0.049 A 
ATOM     23  H   UNL     1       6.882   5.737   4.442  1.00  0.00     0.167 HD
ATOM     24  C   UNL     1       7.440   2.997   7.790  1.00  0.00     0.034 A 
ATOM     25  C   UNL     1       7.200   8.168   3.090  1.00  0.00     0.034 A 
ATOM     26  C   UNL     1       8.268   4.135   8.091  1.00  0.00     0.049 A 
ATOM     27  C   UNL     1       8.023   8.276   4.341  1.00  0.00     0.074 A 
ATOM     28  C   UNL     1       9.085   4.338   9.191  1.00  0.00     0.029 A 
ATOM     29  N   UNL     1       8.386   5.264   7.295  1.00  0.00    -0.354 N 
ATOM     30  N   UNL     1       8.225   7.378   5.274  1.00  0.00    -0.248 NA
ATOM     31  C   UNL     1       8.735   9.543   4.558  1.00  0.00     0.031 C 
ATOM     32  C   UNL     1       9.684   5.597   9.067  1.00  0.00     0.029 A 
ATOM     33  C   UNL     1       9.257   6.169   7.880  1.00  0.00     0.049 A 
ATOM     34  H   UNL     1       7.918   5.403   6.440  1.00  0.00     0.167 HD
ATOM     35  C   UNL     1       9.112   7.958   6.173  1.00  0.00     0.074 A 
ATOM     36  C   UNL     1       9.427   9.275   5.657  1.00  0.00     0.031 C 
ATOM     37  C   UNL     1       9.608   7.452   7.328  1.00  0.00     0.034 A 
BRANCH  24  38
ATOM     38  C   UNL     1       7.392   1.876   8.798  1.00  0.00     0.023 A 
ATOM     39  C   UNL     1       8.087   0.676   8.544  1.00  0.00     0.012 A 
ATOM     40  C   UNL     1       6.725   2.038  10.030  1.00  0.00     0.148 A 
ATOM     41  C   UNL     1       8.095  -0.354   9.484  1.00  0.00     0.002 A 
ATOM     42  C   UNL     1       6.771   1.022  10.979  1.00  0.00     0.091 A 
ATOM     43  F   UNL     1       6.052   3.177  10.248  1.00  0.00    -0.205 F 
ATOM     44  C   UNL     1       7.447  -0.178  10.704  1.00  0.00     0.022 A 
BRANCH  42  45
ATOM     45  S   UNL     1       6.033   1.190  12.609  1.00  0.00     0.127 S 
ATOM     46  O   UNL     1       4.841   0.353  12.481  1.00  0.00    -0.237 OA
ATOM     47  O   UNL     1       7.073   0.639  13.479  1.00  0.00    -0.237 OA
ATOM     48  O   UNL     1       5.787   2.613  12.790  1.00  0.00    -0.744 OA
ENDBRANCH  42  45
ENDBRANCH  24  38
BRANCH  25  49
ATOM     49  C   UNL     1       7.168   9.273   2.090  1.00  0.00     0.023 A 
ATOM     50  C   UNL     1       8.332   9.575   1.358  1.00  0.00     0.012 A 
ATOM     51  C   UNL     1       5.984   9.986   1.825  1.00  0.00     0.148 A 
ATOM     52  C   UNL     1       8.323  10.586   0.396  1.00  0.00     0.002 A 
ATOM     53  C   UNL     1       5.966  10.949   0.824  1.00  0.00     0.091 A 
ATOM     54  F   UNL     1       4.891   9.694   2.545  1.00  0.00    -0.205 F 
ATOM     55  C   UNL     1       7.138  11.263   0.119  1.00  0.00     0.022 A 
BRANCH  53  56
ATOM     56  S   UNL     1       4.449  11.761   0.306  1.00  0.00     0.127 S 
ATOM     57  O   UNL     1       4.612  13.093   0.881  1.00  0.00    -0.237 OA
ATOM     58  O   UNL     1       4.554  11.701  -1.153  1.00  0.00    -0.237 OA
ATOM     59  O   UNL     1       3.369  10.955   0.860  1.00  0.00    -0.744 OA
ENDBRANCH  53  56
ENDBRANCH  25  49
BRANCH  37  60
ATOM     60  C   UNL     1      10.577   8.308   8.100  1.00  0.00     0.023 A 
ATOM     61  C   UNL     1      10.111   9.438   8.801  1.00  0.00     0.012 A 
ATOM     62  C   UNL     1      11.940   7.961   8.175  1.00  0.00     0.148 A 
ATOM     63  C   UNL     1      10.993  10.230   9.535  1.00  0.00     0.002 A 
ATOM     64  C   UNL     1      12.805   8.729   8.947  1.00  0.00     0.091 A 
ATOM     65  F   UNL     1      12.371   6.896   7.482  1.00  0.00    -0.205 F 
ATOM     66  C   UNL     1      12.336   9.870   9.617  1.00  0.00     0.022 A 
BRANCH  64  67
ATOM     67  S   UNL     1      14.528   8.277   9.179  1.00  0.00     0.127 S 
ATOM     68  O   UNL     1      15.203   9.189   8.257  1.00  0.00    -0.237 OA
ATOM     69  O   UNL     1      14.743   8.574  10.596  1.00  0.00    -0.237 OA
ATOM     70  O   UNL     1      14.614   6.862   8.844  1.00  0.00    -0.744 OA
ENDBRANCH  64  67
ENDBRANCH  37  60
ENDBRANCH  11  12
ENDBRANCH   4   6
ENDBRANCH   1   2
BRANCH   1  71
ATOM     71  C   UNL     1       5.060  -2.709   0.198  1.00  0.00     0.023 C 
BRANCH  71  72
ATOM     72  C   UNL     1       5.121  -3.638  -1.020  1.00  0.00     0.023 C 
BRANCH  72  73
ATOM     73  C   UNL     1       6.280  -3.291  -1.965  1.00  0.00     0.116 C 
BRANCH  73  74
ATOM     74  N   UNL     1       7.231  -4.389  -2.113  1.00  0.00    -0.356 N 
ATOM     75  C   UNL     1       7.295  -5.532  -2.887  1.00  0.00     0.223 C 
ATOM     76  H   UNL     1       8.012  -4.292  -1.521  1.00  0.00     0.163 HD
ATOM     77  O   UNL     1       8.300  -6.236  -2.704  1.00  0.00    -0.275 OA
BRANCH  75  78
ATOM     78  C   UNL     1       6.215  -5.912  -3.948  1.00  0.00     0.079 C 
ATOM     79  C   UNL     1       6.629  -6.001  -5.488  1.00  0.00     0.020 C 
ATOM     80  C   UNL     1       5.281  -4.842  -4.481  1.00  0.00     0.020 C 
ATOM     81  C   UNL     1       6.474  -4.411  -5.482  1.00  0.00    -0.028 C 
ATOM     82  C   UNL     1       5.770  -3.262  -6.223  1.00  0.00     0.007 C 
ATOM     83  C   UNL     1       7.962  -3.999  -5.488  1.00  0.00     0.007 C 
ATOM     84  C   UNL     1       6.855  -2.251  -6.606  1.00  0.00     0.001 C 
ATOM     85  C   UNL     1       7.989  -2.500  -5.633  1.00  0.00     0.001 C 
ENDBRANCH  75  78
ENDBRANCH  73  74
ENDBRANCH  72  73
ENDBRANCH  71  72
ENDBRANCH   1  71
TORSDOF 14
