REMARK SMILES O=C(NCCCCNC(=O)c1cccc(Nc2ccnc3ccc(F)cc23)c1)c1ccc(-c2c3nc(c(-c4cccc(S(=O)(=O)[O-])c4F)c4ccc([nH]4)c(-c4cccc(S(=O)(=O)[O-])c4F)c4nc(c(-c5cccc(S(=O)(=O)[O-])c5F)c5ccc2[nH]5)C=C4)C=C3)cc1
REMARK SMILES IDX 5 1 4 2 3 3 1 4 2 5 29 7 30 8 91 9 31 10 90 11 32 12 33 13
REMARK SMILES IDX 34 14 84 15 35 16 89 17 83 18 85 19 36 20 88 21 82 22 81 23
REMARK SMILES IDX 37 25 69 26 49 27 68 28 50 29 53 30 67 31 86 32 51 33 52 34
REMARK SMILES IDX 66 36 87 37 54 38 38 39 39 40 47 41 40 42 42 43 48 44 41 45
REMARK SMILES IDX 43 46 44 47 45 48 46 49 70 50 71 51 79 52 72 53 74 54 80 55
REMARK SMILES IDX 73 56 75 57 76 58 77 59 78 60 55 61 56 62 64 63 57 64 59 65
REMARK SMILES IDX 65 66 58 67 60 68 61 69 62 70 63 71 6 72 7 73 8 74 9 75
REMARK SMILES IDX 10 77 11 78 12 79 28 80 13 81 15 82 14 83 16 84 17 86 18 87
REMARK SMILES IDX 27 88 19 89 21 90 26 91 20 92 22 93 24 94 23 95 25 96
REMARK H PARENT 3 6 85 24 53 35 8 76 16 85
REMARK Flexibility Score: inf
ROOT
ATOM      1  C   UNL     1       4.984   1.697  -2.164  1.00  0.00     0.023 C 
ENDROOT
BRANCH   1   2
ATOM      2  C   UNL     1       4.556   1.304  -0.758  1.00  0.00     0.116 C 
BRANCH   2   3
ATOM      3  N   UNL     1       3.115   1.172  -0.592  1.00  0.00    -0.352 N 
ATOM      4  O   UNL     1       1.161   0.137  -0.122  1.00  0.00    -0.269 OA
ATOM      5  C   UNL     1       2.393   0.108  -0.092  1.00  0.00     0.251 C 
ATOM      6  H   UNL     1       2.582   1.950  -0.875  1.00  0.00     0.163 HD
BRANCH   5   7
ATOM      7  C   UNL     1       3.100  -1.078   0.442  1.00  0.00     0.039 A 
ATOM      8  C   UNL     1       4.219  -0.914   1.257  1.00  0.00     0.014 A 
ATOM      9  C   UNL     1       2.673  -2.365   0.098  1.00  0.00     0.014 A 
ATOM     10  C   UNL     1       5.021  -2.006   1.554  1.00  0.00     0.010 A 
ATOM     11  C   UNL     1       3.415  -3.480   0.511  1.00  0.00     0.010 A 
ATOM     12  C   UNL     1       4.617  -3.309   1.214  1.00  0.00    -0.014 A 
BRANCH  12  13
ATOM     13  C   UNL     1       5.428  -4.452   1.712  1.00  0.00     0.031 A 
ATOM     14  C   UNL     1       6.086  -5.436   0.781  1.00  0.00     0.074 A 
ATOM     15  C   UNL     1       5.601  -4.568   3.045  1.00  0.00     0.049 A 
ATOM     16  N   UNL     1       6.868  -6.444   1.078  1.00  0.00    -0.248 NA
ATOM     17  C   UNL     1       5.836  -5.281  -0.660  1.00  0.00     0.031 C 
ATOM     18  C   UNL     1       4.979  -3.699   4.050  1.00  0.00     0.029 A 
ATOM     19  N   UNL     1       6.351  -5.442   3.788  1.00  0.00    -0.354 N 
ATOM     20  C   UNL     1       7.182  -7.059  -0.129  1.00  0.00     0.074 A 
ATOM     21  C   UNL     1       6.494  -6.318  -1.165  1.00  0.00     0.031 C 
ATOM     22  C   UNL     1       5.404  -4.054   5.269  1.00  0.00     0.029 A 
ATOM     23  C   UNL     1       6.260  -5.226   5.143  1.00  0.00     0.049 A 
ATOM     24  H   UNL     1       6.901  -6.155   3.390  1.00  0.00     0.167 HD
ATOM     25  C   UNL     1       7.978  -8.134  -0.350  1.00  0.00     0.034 A 
ATOM     26  C   UNL     1       6.774  -5.912   6.179  1.00  0.00     0.034 A 
ATOM     27  C   UNL     1       8.666  -8.861   0.687  1.00  0.00     0.049 A 
ATOM     28  C   UNL     1       7.637  -7.105   5.897  1.00  0.00     0.074 A 
ATOM     29  C   UNL     1       9.530  -9.936   0.555  1.00  0.00     0.029 A 
ATOM     30  N   UNL     1       8.560  -8.605   2.046  1.00  0.00    -0.354 N 
ATOM     31  N   UNL     1       8.012  -7.597   4.742  1.00  0.00    -0.248 NA
ATOM     32  C   UNL     1       8.172  -7.822   7.061  1.00  0.00     0.031 C 
ATOM     33  C   UNL     1       9.911 -10.355   1.834  1.00  0.00     0.029 A 
ATOM     34  C   UNL     1       9.328  -9.509   2.762  1.00  0.00     0.049 A 
ATOM     35  H   UNL     1       8.019  -7.885   2.444  1.00  0.00     0.167 HD
ATOM     36  C   UNL     1       8.850  -8.664   5.040  1.00  0.00     0.074 A 
ATOM     37  C   UNL     1       8.958  -8.718   6.483  1.00  0.00     0.031 C 
ATOM     38  C   UNL     1       9.459  -9.532   4.196  1.00  0.00     0.034 A 
BRANCH  25  39
ATOM     39  C   UNL     1       8.180  -8.591  -1.775  1.00  0.00     0.023 A 
ATOM     40  C   UNL     1       8.969  -7.820  -2.651  1.00  0.00     0.012 A 
ATOM     41  C   UNL     1       7.678  -9.835  -2.213  1.00  0.00     0.148 A 
ATOM     42  C   UNL     1       9.236  -8.265  -3.947  1.00  0.00     0.002 A 
ATOM     43  C   UNL     1       7.986 -10.292  -3.489  1.00  0.00     0.091 A 
ATOM     44  F   UNL     1       6.922 -10.550  -1.369  1.00  0.00    -0.205 F 
ATOM     45  C   UNL     1       8.755  -9.504  -4.361  1.00  0.00     0.022 A 
BRANCH  43  46
ATOM     46  S   UNL     1       7.485 -11.909  -4.093  1.00  0.00     0.127 S 
ATOM     47  O   UNL     1       6.576 -11.548  -5.180  1.00  0.00    -0.237 OA
ATOM     48  O   UNL     1       8.759 -12.480  -4.529  1.00  0.00    -0.237 OA
ATOM     49  O   UNL     1       6.862 -12.588  -2.965  1.00  0.00    -0.744 OA
ENDBRANCH  43  46
ENDBRANCH  25  39
BRANCH  26  50
ATOM     50  C   UNL     1       6.474  -5.495   7.578  1.00  0.00     0.023 A 
ATOM     51  C   UNL     1       7.510  -5.040   8.415  1.00  0.00     0.012 A 
ATOM     52  C   UNL     1       5.160  -5.558   8.082  1.00  0.00     0.148 A 
ATOM     53  C   UNL     1       7.250  -4.705   9.745  1.00  0.00     0.002 A 
ATOM     54  C   UNL     1       4.897  -5.158   9.384  1.00  0.00     0.091 A 
ATOM     55  F   UNL     1       4.188  -6.003   7.272  1.00  0.00    -0.205 F 
ATOM     56  C   UNL     1       5.944  -4.755  10.226  1.00  0.00     0.022 A 
BRANCH  54  57
ATOM     57  S   UNL     1       3.228  -5.058  10.037  1.00  0.00     0.127 S 
ATOM     58  O   UNL     1       3.212  -6.169  10.985  1.00  0.00    -0.237 OA
ATOM     59  O   UNL     1       3.223  -3.727  10.646  1.00  0.00    -0.237 OA
ATOM     60  O   UNL     1       2.347  -5.193   8.886  1.00  0.00    -0.744 OA
ENDBRANCH  54  57
ENDBRANCH  26  50
BRANCH  38  61
ATOM     61  C   UNL     1      10.336 -10.589   4.817  1.00  0.00     0.023 A 
ATOM     62  C   UNL     1       9.764 -11.626   5.581  1.00  0.00     0.012 A 
ATOM     63  C   UNL     1      11.731 -10.564   4.622  1.00  0.00     0.148 A 
ATOM     64  C   UNL     1      10.571 -12.588   6.188  1.00  0.00     0.002 A 
ATOM     65  C   UNL     1      12.523 -11.560   5.179  1.00  0.00     0.091 A 
ATOM     66  F   UNL     1      12.260  -9.561   3.906  1.00  0.00    -0.205 F 
ATOM     67  C   UNL     1      11.947 -12.561   5.979  1.00  0.00     0.022 A 
BRANCH  65  68
ATOM     68  S   UNL     1      14.291 -11.664   4.886  1.00  0.00     0.127 S 
ATOM     69  O   UNL     1      14.831 -11.327   6.202  1.00  0.00    -0.237 OA
ATOM     70  O   UNL     1      14.457 -13.065   4.499  1.00  0.00    -0.237 OA
ATOM     71  O   UNL     1      14.582 -10.704   3.830  1.00  0.00    -0.744 OA
ENDBRANCH  65  68
ENDBRANCH  38  61
ENDBRANCH  12  13
ENDBRANCH   5   7
ENDBRANCH   2   3
ENDBRANCH   1   2
BRANCH   1  72
ATOM     72  C   UNL     1       4.597   3.103  -2.616  1.00  0.00     0.023 C 
BRANCH  72  73
ATOM     73  C   UNL     1       4.980   4.256  -1.685  1.00  0.00     0.116 C 
BRANCH  73  74
ATOM     74  N   UNL     1       6.393   4.344  -1.348  1.00  0.00    -0.352 N 
ATOM     75  C   UNL     1       7.227   5.439  -1.468  1.00  0.00     0.251 C 
ATOM     76  H   UNL     1       6.804   3.524  -0.990  1.00  0.00     0.163 HD
ATOM     77  O   UNL     1       8.325   5.466  -0.925  1.00  0.00    -0.269 OA
BRANCH  75  78
ATOM     78  C   UNL     1       6.856   6.492  -2.439  1.00  0.00     0.041 A 
ATOM     79  C   UNL     1       7.159   6.149  -3.759  1.00  0.00     0.014 A 
ATOM     80  C   UNL     1       6.195   7.704  -2.121  1.00  0.00     0.039 A 
ATOM     81  C   UNL     1       6.648   6.913  -4.787  1.00  0.00     0.003 A 
ATOM     82  C   UNL     1       5.759   8.543  -3.168  1.00  0.00     0.039 A 
ATOM     83  C   UNL     1       5.931   8.068  -4.488  1.00  0.00     0.026 A 
BRANCH  82  84
ATOM     84  N   UNL     1       5.069   9.784  -2.989  1.00  0.00    -0.355 N 
ATOM     85  H   UNL     1       5.357  10.378  -2.258  1.00  0.00     0.167 HD
BRANCH  84  86
ATOM     86  C   UNL     1       3.987  10.203  -3.814  1.00  0.00     0.050 A 
ATOM     87  C   UNL     1       3.060   9.199  -4.104  1.00  0.00     0.047 A 
ATOM     88  C   UNL     1       3.743  11.502  -4.383  1.00  0.00     0.027 A 
ATOM     89  C   UNL     1       2.386   9.349  -5.278  1.00  0.00     0.114 A 
ATOM     90  C   UNL     1       2.538  11.597  -5.136  1.00  0.00     0.072 A 
ATOM     91  C   UNL     1       4.527  12.691  -4.335  1.00  0.00     0.051 A 
ATOM     92  N   UNL     1       1.879  10.538  -5.596  1.00  0.00    -0.256 NA
ATOM     93  C   UNL     1       2.019  12.811  -5.538  1.00  0.00     0.032 A 
ATOM     94  C   UNL     1       4.037  13.889  -4.884  1.00  0.00     0.124 A 
ATOM     95  C   UNL     1       2.758  13.974  -5.414  1.00  0.00     0.041 A 
ATOM     96  F   UNL     1       4.811  14.982  -4.917  1.00  0.00    -0.207 F 
ENDBRANCH  84  86
ENDBRANCH  82  84
ENDBRANCH  75  78
ENDBRANCH  73  74
ENDBRANCH  72  73
ENDBRANCH   1  72
TORSDOF 16
