REMARK SMILES C[NH2+]C[C@H]1CCCN(c2ccc(C(=O)NCCCCNC(=O)c3ccc(-c4c5nc(c(-c6cccc(S(=O)(=O)[O-])c6F)c6ccc([nH]6)c(-c6cccc(S(=O)(=O)[O-])c6F)c6nc(c(-c7cccc(S(=O)(=O)[O-])c7F)c7ccc4[nH]7)C=C6)C=C5)cc3)c(F)c2F)C1
REMARK SMILES IDX 17 1 16 2 15 3 13 4 14 5 12 7 9 8 10 9 88 10 11 11 86 12
REMARK SMILES IDX 89 13 87 14 8 15 4 16 5 17 90 18 6 19 7 20 3 21 2 22 1 23
REMARK SMILES IDX 18 26 19 27 20 28 21 29 22 31 23 32 24 33 85 34 25 35 84 36
REMARK SMILES IDX 26 37 27 38 28 39 78 40 29 41 83 42 77 43 79 44 30 45 82 46
REMARK SMILES IDX 76 47 75 48 31 50 63 51 43 52 62 53 44 54 47 55 61 56 80 57
REMARK SMILES IDX 45 58 46 59 60 61 81 62 48 63 32 64 33 65 41 66 34 67 36 68
REMARK SMILES IDX 42 69 35 70 37 71 38 72 39 73 40 74 64 75 65 76 73 77 66 78
REMARK SMILES IDX 68 79 74 80 67 81 69 82 70 83 71 84 72 85 49 86 50 87 58 88
REMARK SMILES IDX 51 89 53 90 59 91 52 92 54 93 55 94 56 95 57 96
REMARK H PARENT 15 6 2 24 2 25 20 30 79 49 47 60
REMARK Flexibility Score: inf
ROOT
ATOM      1  C   UNL     1       5.279  -0.224   5.713  1.00  0.00     0.023 C 
ENDROOT
BRANCH   1   2
ATOM      2  C   UNL     1       5.054  -0.905   4.367  1.00  0.00     0.116 C 
BRANCH   2   3
ATOM      3  N   UNL     1       5.523  -2.279   4.316  1.00  0.00    -0.352 N 
ATOM      4  C   UNL     1       4.938  -3.388   3.756  1.00  0.00     0.254 C 
ATOM      5  O   UNL     1       5.504  -4.477   3.829  1.00  0.00    -0.269 OA
ATOM      6  H   UNL     1       6.393  -2.439   4.750  1.00  0.00     0.163 HD
BRANCH   4   7
ATOM      7  C   UNL     1       3.602  -3.333   3.130  1.00  0.00     0.078 A 
ATOM      8  C   UNL     1       0.963  -3.296   2.052  1.00  0.00     0.076 A 
ATOM      9  C   UNL     1       1.401  -4.334   2.892  1.00  0.00     0.030 A 
ATOM     10  C   UNL     1       1.920  -2.311   1.735  1.00  0.00     0.182 A 
ATOM     11  C   UNL     1       2.697  -4.357   3.427  1.00  0.00     0.019 A 
ATOM     12  C   UNL     1       3.220  -2.345   2.236  1.00  0.00     0.173 A 
ATOM     13  F   UNL     1       1.584  -1.262   0.963  1.00  0.00    -0.201 F 
ATOM     14  F   UNL     1       4.083  -1.397   1.838  1.00  0.00    -0.203 F 
BRANCH   8  15
ATOM     15  N   UNL     1      -0.332  -3.289   1.557  1.00  0.00    -0.369 N 
ATOM     16  C   UNL     1      -1.522  -1.431   0.464  1.00  0.00     0.064 C 
ATOM     17  C   UNL     1      -2.775  -1.808   1.276  1.00  0.00     0.013 C 
ATOM     18  C   UNL     1      -0.656  -2.688   0.261  1.00  0.00     0.126 C 
ATOM     19  C   UNL     1      -2.392  -2.484   2.595  1.00  0.00     0.022 C 
ATOM     20  C   UNL     1      -1.475  -3.690   2.378  1.00  0.00     0.116 C 
BRANCH  16  21
ATOM     21  C   UNL     1      -1.845  -0.819  -0.914  1.00  0.00     0.265 C 
BRANCH  21  22
ATOM     22  N   UNL     1      -2.799   0.292  -0.935  1.00  0.00    -0.348 N 
ATOM     23  C   UNL     1      -2.318   1.472  -0.233  1.00  0.00     0.330 C 
ATOM     24  H   UNL     1      -2.983   0.544  -1.906  1.00  0.00     0.346 HD
ATOM     25  H   UNL     1      -3.643  -0.024  -0.456  1.00  0.00     0.346 HD
ENDBRANCH  21  22
ENDBRANCH  16  21
ENDBRANCH   8  15
ENDBRANCH   4   7
ENDBRANCH   2   3
ENDBRANCH   1   2
BRANCH   1  26
ATOM     26  C   UNL     1       6.730  -0.073   6.160  1.00  0.00     0.023 C 
BRANCH  26  27
ATOM     27  C   UNL     1       7.692   0.534   5.144  1.00  0.00     0.116 C 
BRANCH  27  28
ATOM     28  N   UNL     1       7.285   1.845   4.659  1.00  0.00    -0.352 N 
ATOM     29  C   UNL     1       7.981   3.033   4.632  1.00  0.00     0.251 C 
ATOM     30  H   UNL     1       6.371   1.889   4.294  1.00  0.00     0.163 HD
ATOM     31  O   UNL     1       7.425   4.057   4.251  1.00  0.00    -0.269 OA
BRANCH  29  32
ATOM     32  C   UNL     1       9.384   3.084   5.103  1.00  0.00     0.039 A 
ATOM     33  C   UNL     1       9.762   4.104   5.981  1.00  0.00     0.014 A 
ATOM     34  C   UNL     1      10.315   2.122   4.707  1.00  0.00     0.014 A 
ATOM     35  C   UNL     1      11.045   4.102   6.536  1.00  0.00     0.010 A 
ATOM     36  C   UNL     1      11.563   2.075   5.323  1.00  0.00     0.010 A 
ATOM     37  C   UNL     1      11.940   3.058   6.250  1.00  0.00    -0.014 A 
BRANCH  37  38
ATOM     38  C   UNL     1      13.259   2.955   6.930  1.00  0.00     0.031 A 
ATOM     39  C   UNL     1      14.533   2.998   6.130  1.00  0.00     0.074 A 
ATOM     40  C   UNL     1      13.306   2.713   8.256  1.00  0.00     0.049 A 
ATOM     41  N   UNL     1      15.767   2.840   6.535  1.00  0.00    -0.248 NA
ATOM     42  C   UNL     1      14.403   3.213   4.679  1.00  0.00     0.031 C 
ATOM     43  C   UNL     1      12.142   2.557   9.131  1.00  0.00     0.029 A 
ATOM     44  N   UNL     1      14.377   2.522   9.095  1.00  0.00    -0.354 N 
ATOM     45  C   UNL     1      16.553   2.894   5.391  1.00  0.00     0.074 A 
ATOM     46  C   UNL     1      15.655   3.067   4.270  1.00  0.00     0.031 C 
ATOM     47  C   UNL     1      12.560   2.298  10.381  1.00  0.00     0.029 A 
ATOM     48  C   UNL     1      14.018   2.242  10.394  1.00  0.00     0.049 A 
ATOM     49  H   UNL     1      15.313   2.579   8.796  1.00  0.00     0.167 HD
ATOM     50  C   UNL     1      17.902   2.837   5.283  1.00  0.00     0.034 A 
ATOM     51  C   UNL     1      14.777   1.967  11.474  1.00  0.00     0.034 A 
ATOM     52  C   UNL     1      18.796   2.727   6.403  1.00  0.00     0.049 A 
ATOM     53  C   UNL     1      16.276   1.976  11.337  1.00  0.00     0.074 A 
ATOM     54  C   UNL     1      20.180   2.764   6.406  1.00  0.00     0.029 A 
ATOM     55  N   UNL     1      18.398   2.558   7.720  1.00  0.00    -0.354 N 
ATOM     56  N   UNL     1      17.005   2.201  10.271  1.00  0.00    -0.248 NA
ATOM     57  C   UNL     1      17.058   1.733  12.559  1.00  0.00     0.031 C 
ATOM     58  C   UNL     1      20.618   2.607   7.726  1.00  0.00     0.029 A 
ATOM     59  C   UNL     1      19.507   2.486   8.545  1.00  0.00     0.049 A 
ATOM     60  H   UNL     1      17.463   2.497   8.024  1.00  0.00     0.167 HD
ATOM     61  C   UNL     1      18.327   2.162  10.699  1.00  0.00     0.074 A 
ATOM     62  C   UNL     1      18.298   1.913  12.125  1.00  0.00     0.031 C 
ATOM     63  C   UNL     1      19.463   2.301   9.972  1.00  0.00     0.034 A 
BRANCH  50  64
ATOM     64  C   UNL     1      18.500   2.966   3.906  1.00  0.00     0.023 A 
ATOM     65  C   UNL     1      18.480   4.219   3.260  1.00  0.00     0.012 A 
ATOM     66  C   UNL     1      19.130   1.875   3.279  1.00  0.00     0.148 A 
ATOM     67  C   UNL     1      19.048   4.377   1.997  1.00  0.00     0.002 A 
ATOM     68  C   UNL     1      19.732   2.050   2.037  1.00  0.00     0.091 A 
ATOM     69  F   UNL     1      19.120   0.686   3.899  1.00  0.00    -0.205 F 
ATOM     70  C   UNL     1      19.682   3.296   1.391  1.00  0.00     0.022 A 
BRANCH  68  71
ATOM     71  S   UNL     1      20.641   0.741   1.208  1.00  0.00     0.127 S 
ATOM     72  O   UNL     1      19.728   0.391   0.120  1.00  0.00    -0.237 OA
ATOM     73  O   UNL     1      21.859   1.431   0.783  1.00  0.00    -0.237 OA
ATOM     74  O   UNL     1      20.850  -0.296   2.208  1.00  0.00    -0.744 OA
ENDBRANCH  68  71
ENDBRANCH  50  64
BRANCH  51  75
ATOM     75  C   UNL     1      14.133   1.742  12.800  1.00  0.00     0.023 A 
ATOM     76  C   UNL     1      14.261   2.724  13.801  1.00  0.00     0.012 A 
ATOM     77  C   UNL     1      13.375   0.586  13.066  1.00  0.00     0.148 A 
ATOM     78  C   UNL     1      13.675   2.545  15.054  1.00  0.00     0.002 A 
ATOM     79  C   UNL     1      12.748   0.438  14.299  1.00  0.00     0.091 A 
ATOM     80  F   UNL     1      13.275  -0.345  12.107  1.00  0.00    -0.205 F 
ATOM     81  C   UNL     1      12.910   1.408  15.300  1.00  0.00     0.022 A 
BRANCH  79  82
ATOM     82  S   UNL     1      11.639  -0.930  14.654  1.00  0.00     0.127 S 
ATOM     83  O   UNL     1      12.454  -1.755  15.541  1.00  0.00    -0.237 OA
ATOM     84  O   UNL     1      10.515  -0.252  15.303  1.00  0.00    -0.237 OA
ATOM     85  O   UNL     1      11.314  -1.514  13.359  1.00  0.00    -0.744 OA
ENDBRANCH  79  82
ENDBRANCH  51  75
BRANCH  63  86
ATOM     86  C   UNL     1      20.777   2.222  10.704  1.00  0.00     0.023 A 
ATOM     87  C   UNL     1      21.249   0.974  11.157  1.00  0.00     0.012 A 
ATOM     88  C   UNL     1      21.580   3.368  10.869  1.00  0.00     0.148 A 
ATOM     89  C   UNL     1      22.488   0.873  11.788  1.00  0.00     0.002 A 
ATOM     90  C   UNL     1      22.834   3.251  11.458  1.00  0.00     0.091 A 
ATOM     91  F   UNL     1      21.104   4.549  10.449  1.00  0.00    -0.205 F 
ATOM     92  C   UNL     1      23.285   2.007  11.927  1.00  0.00     0.022 A 
BRANCH  90  93
ATOM     93  S   UNL     1      23.963   4.641  11.592  1.00  0.00     0.127 S 
ATOM     94  O   UNL     1      23.862   4.973  13.012  1.00  0.00    -0.237 OA
ATOM     95  O   UNL     1      25.240   4.047  11.194  1.00  0.00    -0.237 OA
ATOM     96  O   UNL     1      23.460   5.654  10.673  1.00  0.00    -0.744 OA
ENDBRANCH  90  93
ENDBRANCH  63  86
ENDBRANCH  37  38
ENDBRANCH  29  32
ENDBRANCH  27  28
ENDBRANCH  26  27
ENDBRANCH   1  26
TORSDOF 17
