REMARK SMILES Cc1c(CC(=O)N[C@@H](CCO)C(=O)NCCCCNC(=O)c2ccc(-c3c4nc(c(-c5cccc(S(=O)(=O)[O-])c5F)c5ccc([nH]5)c(-c5cccc(S(=O)(=O)[O-])c5F)c5nc(c(-c6cccc(S(=O)(=O)[O-])c6F)c6ccc3[nH]6)C=C5)C=C4)cc2)cc(-c2ccc(S(C)(=O)=O)cc2)n1-c1ccc(F)cc1
REMARK SMILES IDX 15 1 14 2 12 3 13 4 8 6 7 7 5 8 6 9 4 11 3 12 1 13 2 14
REMARK SMILES IDX 97 15 85 16 86 17 98 18 99 19 104 20 100 21 103 22 101 23
REMARK SMILES IDX 102 24 87 25 88 26 96 27 89 28 95 29 90 30 91 31 92 32 93 33
REMARK SMILES IDX 94 34 9 35 10 36 11 37 16 39 17 40 18 41 19 42 20 43 21 45
REMARK SMILES IDX 22 46 23 47 84 48 24 49 83 50 25 51 26 52 27 53 77 54 28 55
REMARK SMILES IDX 82 56 76 57 78 58 29 59 81 60 75 61 74 62 30 64 62 65 42 66
REMARK SMILES IDX 61 67 43 68 46 69 60 70 79 71 44 72 45 73 59 75 80 76 47 77
REMARK SMILES IDX 31 78 32 79 40 80 33 81 35 82 41 83 34 84 36 85 37 86 38 87
REMARK SMILES IDX 39 88 63 89 64 90 72 91 65 92 67 93 73 94 66 95 68 96 69 97
REMARK SMILES IDX 70 98 71 99 48 100 49 101 57 102 50 103 52 104 58 105 51 106
REMARK SMILES IDX 53 107 54 108 55 109 56 110
REMARK H PARENT 14 5 7 10 11 38 19 44 78 63 46 74
REMARK Flexibility Score: inf
ROOT
ATOM      1  C   UNL     1      -3.738  -4.735  -1.890  1.00  0.00     0.116 C 
ENDROOT
BRANCH   1   2
ATOM      2  N   UNL     1      -3.088  -5.527  -0.859  1.00  0.00    -0.354 N 
ATOM      3  C   UNL     1      -2.315  -5.202   0.206  1.00  0.00     0.242 C 
ATOM      4  O   UNL     1      -2.137  -6.085   1.050  1.00  0.00    -0.273 OA
ATOM      5  H   UNL     1      -3.239  -6.496  -0.954  1.00  0.00     0.163 HD
BRANCH   3   6
ATOM      6  C   UNL     1      -1.739  -3.800   0.439  1.00  0.00     0.173 C 
BRANCH   6   7
ATOM      7  N   UNL     1      -0.990  -3.315  -0.723  1.00  0.00    -0.344 N 
ATOM      8  C   UNL     1       0.354  -3.076  -0.815  1.00  0.00     0.225 C 
ATOM      9  O   UNL     1       0.833  -2.891  -1.937  1.00  0.00    -0.275 OA
ATOM     10  H   UNL     1      -1.518  -3.140  -1.535  1.00  0.00     0.164 HD
BRANCH   8  11
ATOM     11  C   UNL     1       1.227  -3.038   0.435  1.00  0.00     0.137 C 
BRANCH  11  12
ATOM     12  C   UNL     1       0.781  -1.988   1.409  1.00  0.00    -0.017 A 
ATOM     13  C   UNL     1       0.968   0.122  -0.072  1.00  0.00     0.065 C 
ATOM     14  C   UNL     1       0.600  -0.632   1.167  1.00  0.00     0.024 A 
ATOM     15  N   UNL     1       0.059  -0.054   2.310  1.00  0.00    -0.314 N 
ATOM     16  C   UNL     1       0.443  -2.210   2.769  1.00  0.00     0.033 A 
ATOM     17  C   UNL     1      -0.034  -1.028   3.306  1.00  0.00     0.053 A 
BRANCH  15  18
ATOM     18  C   UNL     1      -0.345   1.299   2.448  1.00  0.00     0.046 A 
ATOM     19  C   UNL     1       0.129   2.052   3.530  1.00  0.00     0.029 A 
ATOM     20  C   UNL     1      -1.259   1.848   1.538  1.00  0.00     0.029 A 
ATOM     21  C   UNL     1      -0.308   3.364   3.697  1.00  0.00     0.041 A 
ATOM     22  C   UNL     1      -1.704   3.157   1.724  1.00  0.00     0.041 A 
ATOM     23  C   UNL     1      -1.223   3.901   2.797  1.00  0.00     0.123 A 
ATOM     24  F   UNL     1      -1.652   5.158   2.971  1.00  0.00    -0.207 F 
ENDBRANCH  15  18
BRANCH  17  25
ATOM     25  C   UNL     1      -0.629  -0.836   4.635  1.00  0.00    -0.001 A 
ATOM     26  C   UNL     1      -1.932  -0.335   4.788  1.00  0.00     0.011 A 
ATOM     27  C   UNL     1       0.112  -1.167   5.777  1.00  0.00     0.011 A 
ATOM     28  C   UNL     1      -2.464  -0.112   6.061  1.00  0.00     0.021 A 
ATOM     29  C   UNL     1      -0.413  -0.947   7.052  1.00  0.00     0.021 A 
ATOM     30  C   UNL     1      -1.690  -0.400   7.187  1.00  0.00     0.067 A 
BRANCH  30  31
ATOM     31  S   UNL     1      -2.345  -0.086   8.809  1.00  0.00     0.175 S 
ATOM     32  C   UNL     1      -2.546   1.675   8.860  1.00  0.00     0.163 C 
ATOM     33  O   UNL     1      -3.666  -0.692   8.863  1.00  0.00    -0.224 OA
ATOM     34  O   UNL     1      -1.324  -0.427   9.774  1.00  0.00    -0.224 OA
ENDBRANCH  30  31
ENDBRANCH  17  25
ENDBRANCH  11  12
ENDBRANCH   8  11
ENDBRANCH   6   7
BRANCH   6  35
ATOM     35  C   UNL     1      -2.678  -2.765   1.081  1.00  0.00     0.063 C 
BRANCH  35  36
ATOM     36  C   UNL     1      -4.025  -2.481   0.439  1.00  0.00     0.158 C 
BRANCH  36  37
ATOM     37  O   UNL     1      -5.002  -3.462   0.734  1.00  0.00    -0.396 OA
ATOM     38  H   UNL     1      -4.713  -4.320   0.386  1.00  0.00     0.210 HD
ENDBRANCH  36  37
ENDBRANCH  35  36
ENDBRANCH   6  35
ENDBRANCH   3   6
ENDBRANCH   1   2
BRANCH   1  39
ATOM     39  C   UNL     1      -3.816  -5.447  -3.234  1.00  0.00     0.023 C 
BRANCH  39  40
ATOM     40  C   UNL     1      -4.414  -6.864  -3.225  1.00  0.00     0.023 C 
BRANCH  40  41
ATOM     41  C   UNL     1      -5.540  -7.183  -2.227  1.00  0.00     0.116 C 
BRANCH  41  42
ATOM     42  N   UNL     1      -6.875  -7.044  -2.748  1.00  0.00    -0.352 N 
ATOM     43  C   UNL     1      -8.021  -7.646  -2.244  1.00  0.00     0.251 C 
ATOM     44  H   UNL     1      -6.986  -6.467  -3.538  1.00  0.00     0.163 HD
ATOM     45  O   UNL     1      -9.086  -7.403  -2.806  1.00  0.00    -0.269 OA
BRANCH  43  46
ATOM     46  C   UNL     1      -7.925  -8.651  -1.120  1.00  0.00     0.039 A 
ATOM     47  C   UNL     1      -7.556  -9.950  -1.433  1.00  0.00     0.014 A 
ATOM     48  C   UNL     1      -8.312  -8.406   0.209  1.00  0.00     0.014 A 
ATOM     49  C   UNL     1      -7.520 -10.955  -0.426  1.00  0.00     0.010 A 
ATOM     50  C   UNL     1      -8.359  -9.458   1.213  1.00  0.00     0.010 A 
ATOM     51  C   UNL     1      -7.974 -10.784   0.934  1.00  0.00    -0.014 A 
BRANCH  51  52
ATOM     52  C   UNL     1      -8.527 -12.116   1.642  1.00  0.00     0.031 A 
ATOM     53  C   UNL     1      -9.423 -12.664   0.582  1.00  0.00     0.074 A 
ATOM     54  C   UNL     1      -8.552 -12.815   2.850  1.00  0.00     0.049 A 
ATOM     55  N   UNL     1     -10.350 -11.902   0.066  1.00  0.00    -0.248 NA
ATOM     56  C   UNL     1      -9.080 -13.825  -0.242  1.00  0.00     0.031 C 
ATOM     57  C   UNL     1      -8.022 -12.390   4.156  1.00  0.00     0.029 A 
ATOM     58  N   UNL     1      -9.062 -14.106   3.215  1.00  0.00    -0.354 N 
ATOM     59  C   UNL     1     -10.970 -12.650  -0.890  1.00  0.00     0.074 A 
ATOM     60  C   UNL     1      -9.974 -13.661  -1.226  1.00  0.00     0.031 C 
ATOM     61  C   UNL     1      -8.069 -13.399   5.079  1.00  0.00     0.029 A 
ATOM     62  C   UNL     1      -8.687 -14.602   4.521  1.00  0.00     0.049 A 
ATOM     63  H   UNL     1      -9.638 -14.626   2.609  1.00  0.00     0.167 HD
ATOM     64  C   UNL     1     -12.311 -12.814  -0.695  1.00  0.00     0.034 A 
ATOM     65  C   UNL     1      -8.914 -15.831   5.143  1.00  0.00     0.034 A 
ATOM     66  C   UNL     1     -12.626 -14.117  -0.177  1.00  0.00     0.049 A 
ATOM     67  C   UNL     1     -10.136 -16.355   4.522  1.00  0.00     0.074 A 
ATOM     68  C   UNL     1     -12.158 -15.383  -0.473  1.00  0.00     0.029 A 
ATOM     69  N   UNL     1     -13.145 -14.171   1.099  1.00  0.00    -0.354 N 
ATOM     70  N   UNL     1     -11.314 -15.927   4.867  1.00  0.00    -0.248 NA
ATOM     71  C   UNL     1     -10.118 -17.482   3.596  1.00  0.00     0.031 C 
ATOM     72  C   UNL     1     -11.919 -15.975   0.784  1.00  0.00     0.029 A 
ATOM     73  C   UNL     1     -12.637 -15.281   1.746  1.00  0.00     0.049 A 
ATOM     74  H   UNL     1     -13.776 -13.523   1.487  1.00  0.00     0.167 HD
ATOM     75  C   UNL     1     -12.089 -16.332   3.824  1.00  0.00     0.074 A 
ATOM     76  C   UNL     1     -11.408 -17.482   3.258  1.00  0.00     0.031 C 
ATOM     77  C   UNL     1     -12.775 -15.360   3.178  1.00  0.00     0.034 A 
BRANCH  64  78
ATOM     78  C   UNL     1     -13.066 -11.547  -0.362  1.00  0.00     0.023 A 
ATOM     79  C   UNL     1     -13.967 -11.074  -1.330  1.00  0.00     0.012 A 
ATOM     80  C   UNL     1     -12.809 -10.741   0.778  1.00  0.00     0.148 A 
ATOM     81  C   UNL     1     -14.549  -9.810  -1.201  1.00  0.00     0.002 A 
ATOM     82  C   UNL     1     -13.302  -9.443   0.844  1.00  0.00     0.091 A 
ATOM     83  F   UNL     1     -12.106 -11.255   1.800  1.00  0.00    -0.205 F 
ATOM     84  C   UNL     1     -14.186  -8.981  -0.140  1.00  0.00     0.022 A 
BRANCH  82  85
ATOM     85  S   UNL     1     -12.687  -8.243   2.043  1.00  0.00     0.127 S 
ATOM     86  O   UNL     1     -12.487  -7.048   1.218  1.00  0.00    -0.237 OA
ATOM     87  O   UNL     1     -13.789  -8.139   2.992  1.00  0.00    -0.237 OA
ATOM     88  O   UNL     1     -11.445  -8.795   2.574  1.00  0.00    -0.744 OA
ENDBRANCH  82  85
ENDBRANCH  64  78
BRANCH  65  89
ATOM     89  C   UNL     1      -8.558 -16.774   6.342  1.00  0.00     0.023 A 
ATOM     90  C   UNL     1      -9.614 -17.572   6.919  1.00  0.00     0.012 A 
ATOM     91  C   UNL     1      -7.256 -17.255   6.605  1.00  0.00     0.148 A 
ATOM     92  C   UNL     1      -9.414 -18.802   7.574  1.00  0.00     0.002 A 
ATOM     93  C   UNL     1      -7.056 -18.481   7.297  1.00  0.00     0.091 A 
ATOM     94  F   UNL     1      -6.219 -16.581   6.093  1.00  0.00    -0.205 F 
ATOM     95  C   UNL     1      -8.130 -19.266   7.750  1.00  0.00     0.022 A 
BRANCH  93  96
ATOM     96  S   UNL     1      -5.430 -19.218   7.580  1.00  0.00     0.127 S 
ATOM     97  O   UNL     1      -5.533 -19.703   8.959  1.00  0.00    -0.237 OA
ATOM     98  O   UNL     1      -5.399 -20.276   6.571  1.00  0.00    -0.237 OA
ATOM     99  O   UNL     1      -4.478 -18.134   7.392  1.00  0.00    -0.744 OA
ENDBRANCH  93  96
ENDBRANCH  65  89
BRANCH  77 100
ATOM    100  C   UNL     1     -13.491 -14.332   4.021  1.00  0.00     0.023 A 
ATOM    101  C   UNL     1     -12.905 -13.558   5.047  1.00  0.00     0.012 A 
ATOM    102  C   UNL     1     -14.862 -14.165   3.773  1.00  0.00     0.148 A 
ATOM    103  C   UNL     1     -13.672 -12.669   5.810  1.00  0.00     0.002 A 
ATOM    104  C   UNL     1     -15.614 -13.252   4.499  1.00  0.00     0.091 A 
ATOM    105  F   UNL     1     -15.423 -14.933   2.826  1.00  0.00    -0.205 F 
ATOM    106  C   UNL     1     -15.026 -12.503   5.526  1.00  0.00     0.022 A 
BRANCH 104 107
ATOM    107  S   UNL     1     -17.349 -13.014   4.124  1.00  0.00     0.127 S 
ATOM    108  O   UNL     1     -17.992 -13.847   5.139  1.00  0.00    -0.237 OA
ATOM    109  O   UNL     1     -17.539 -11.578   4.304  1.00  0.00    -0.237 OA
ATOM    110  O   UNL     1     -17.513 -13.473   2.748  1.00  0.00    -0.744 OA
ENDBRANCH 104 107
ENDBRANCH  77 100
ENDBRANCH  51  52
ENDBRANCH  43  46
ENDBRANCH  41  42
ENDBRANCH  40  41
ENDBRANCH  39  40
ENDBRANCH   1  39
TORSDOF 23
