REMARK SMILES O=C(NCCCCNC(=O)c1cc(S[C@H]2CCOC2=O)cs1)c1ccc(-c2c3nc(c(-c4cccc(S(=O)(=O)[O-])c4F)c4ccc([nH]4)c(-c4cccc(S(=O)(=O)[O-])c4F)c4nc(c(-c5cccc(S(=O)(=O)[O-])c5F)c5ccc2[nH]5)C=C4)C=C3)cc1
REMARK SMILES IDX 5 1 4 2 3 3 1 4 2 5 23 7 24 8 85 9 25 10 84 11 26 12 27 13
REMARK SMILES IDX 28 14 78 15 29 16 83 17 77 18 79 19 30 20 82 21 76 22 75 23
REMARK SMILES IDX 31 25 63 26 43 27 62 28 44 29 47 30 61 31 80 32 45 33 46 34
REMARK SMILES IDX 60 36 81 37 48 38 32 39 33 40 41 41 34 42 36 43 42 44 35 45
REMARK SMILES IDX 37 46 38 47 39 48 40 49 64 50 65 51 73 52 66 53 68 54 74 55
REMARK SMILES IDX 67 56 69 57 70 58 71 59 72 60 49 61 50 62 58 63 51 64 53 65
REMARK SMILES IDX 59 66 52 67 54 68 55 69 56 70 57 71 6 72 7 73 8 74 9 75
REMARK SMILES IDX 10 77 11 78 12 79 22 80 13 81 21 82 14 83 15 84 16 85 19 86
REMARK SMILES IDX 17 87 18 88 20 89
REMARK H PARENT 3 6 79 24 47 35 8 76
REMARK Flexibility Score: inf
ROOT
ATOM      1  C   UNL     1       4.942   1.359   2.273  1.00  0.00     0.023 C 
ENDROOT
BRANCH   1   2
ATOM      2  C   UNL     1       4.560   0.201   1.362  1.00  0.00     0.116 C 
BRANCH   2   3
ATOM      3  N   UNL     1       3.120   0.027   1.235  1.00  0.00    -0.352 N 
ATOM      4  O   UNL     1       1.122   0.009   0.193  1.00  0.00    -0.269 OA
ATOM      5  C   UNL     1       2.344   0.028   0.097  1.00  0.00     0.251 C 
ATOM      6  H   UNL     1       2.633  -0.111   2.080  1.00  0.00     0.163 HD
BRANCH   5   7
ATOM      7  C   UNL     1       3.001   0.086  -1.227  1.00  0.00     0.039 A 
ATOM      8  C   UNL     1       4.108  -0.720  -1.497  1.00  0.00     0.014 A 
ATOM      9  C   UNL     1       2.531   0.981  -2.192  1.00  0.00     0.014 A 
ATOM     10  C   UNL     1       4.851  -0.505  -2.651  1.00  0.00     0.010 A 
ATOM     11  C   UNL     1       3.219   1.116  -3.402  1.00  0.00     0.010 A 
ATOM     12  C   UNL     1       4.406   0.401  -3.627  1.00  0.00    -0.014 A 
BRANCH  12  13
ATOM     13  C   UNL     1       5.157   0.510  -4.904  1.00  0.00     0.031 A 
ATOM     14  C   UNL     1       5.791   1.802  -5.341  1.00  0.00     0.074 A 
ATOM     15  C   UNL     1       5.262  -0.589  -5.678  1.00  0.00     0.049 A 
ATOM     16  N   UNL     1       6.490   2.047  -6.420  1.00  0.00    -0.248 NA
ATOM     17  C   UNL     1       5.617   2.970  -4.465  1.00  0.00     0.031 C 
ATOM     18  C   UNL     1       4.652  -1.888  -5.378  1.00  0.00     0.029 A 
ATOM     19  N   UNL     1       5.909  -0.795  -6.868  1.00  0.00    -0.354 N 
ATOM     20  C   UNL     1       6.803   3.401  -6.378  1.00  0.00     0.074 A 
ATOM     21  C   UNL     1       6.212   3.927  -5.165  1.00  0.00     0.031 C 
ATOM     22  C   UNL     1       4.971  -2.759  -6.344  1.00  0.00     0.029 A 
ATOM     23  C   UNL     1       5.748  -2.067  -7.364  1.00  0.00     0.049 A 
ATOM     24  H   UNL     1       6.437  -0.100  -7.324  1.00  0.00     0.167 HD
ATOM     25  C   UNL     1       7.522   4.133  -7.263  1.00  0.00     0.034 A 
ATOM     26  C   UNL     1       6.149  -2.615  -8.526  1.00  0.00     0.034 A 
ATOM     27  C   UNL     1       8.123   3.596  -8.457  1.00  0.00     0.049 A 
ATOM     28  C   UNL     1       6.947  -1.780  -9.484  1.00  0.00     0.074 A 
ATOM     29  C   UNL     1       8.928   4.242  -9.380  1.00  0.00     0.029 A 
ATOM     30  N   UNL     1       7.968   2.293  -8.908  1.00  0.00    -0.354 N 
ATOM     31  N   UNL     1       7.342  -0.537  -9.360  1.00  0.00    -0.248 NA
ATOM     32  C   UNL     1       7.379  -2.431 -10.727  1.00  0.00     0.031 C 
ATOM     33  C   UNL     1       9.225   3.342 -10.409  1.00  0.00     0.029 A 
ATOM     34  C   UNL     1       8.645   2.121 -10.105  1.00  0.00     0.049 A 
ATOM     35  H   UNL     1       7.454   1.593  -8.445  1.00  0.00     0.167 HD
ATOM     36  C   UNL     1       8.093  -0.263 -10.496  1.00  0.00     0.074 A 
ATOM     37  C   UNL     1       8.119  -1.481 -11.282  1.00  0.00     0.031 C 
ATOM     38  C   UNL     1       8.696   0.895 -10.860  1.00  0.00     0.034 A 
BRANCH  25  39
ATOM     39  C   UNL     1       7.719   5.601  -6.972  1.00  0.00     0.023 A 
ATOM     40  C   UNL     1       8.567   6.003  -5.920  1.00  0.00     0.012 A 
ATOM     41  C   UNL     1       7.119   6.583  -7.786  1.00  0.00     0.148 A 
ATOM     42  C   UNL     1       8.787   7.356  -5.660  1.00  0.00     0.002 A 
ATOM     43  C   UNL     1       7.379   7.929  -7.550  1.00  0.00     0.091 A 
ATOM     44  F   UNL     1       6.303   6.185  -8.773  1.00  0.00    -0.205 F 
ATOM     45  C   UNL     1       8.202   8.317  -6.480  1.00  0.00     0.022 A 
BRANCH  43  46
ATOM     46  S   UNL     1       6.739   9.239  -8.599  1.00  0.00     0.127 S 
ATOM     47  O   UNL     1       5.760   9.871  -7.716  1.00  0.00    -0.237 OA
ATOM     48  O   UNL     1       7.937  10.042  -8.854  1.00  0.00    -0.237 OA
ATOM     49  O   UNL     1       6.188   8.581  -9.775  1.00  0.00    -0.744 OA
ENDBRANCH  43  46
ENDBRANCH  25  39
BRANCH  26  50
ATOM     50  C   UNL     1       5.809  -4.032  -8.829  1.00  0.00     0.023 A 
ATOM     51  C   UNL     1       6.826  -5.003  -8.866  1.00  0.00     0.012 A 
ATOM     52  C   UNL     1       4.472  -4.426  -9.035  1.00  0.00     0.148 A 
ATOM     53  C   UNL     1       6.522  -6.338  -9.134  1.00  0.00     0.002 A 
ATOM     54  C   UNL     1       4.169  -5.765  -9.239  1.00  0.00     0.091 A 
ATOM     55  F   UNL     1       3.520  -3.482  -9.003  1.00  0.00    -0.205 F 
ATOM     56  C   UNL     1       5.194  -6.721  -9.309  1.00  0.00     0.022 A 
BRANCH  54  57
ATOM     57  S   UNL     1       2.479  -6.365  -9.328  1.00  0.00     0.127 S 
ATOM     58  O   UNL     1       2.375  -6.758 -10.730  1.00  0.00    -0.237 OA
ATOM     59  O   UNL     1       2.504  -7.476  -8.375  1.00  0.00    -0.237 OA
ATOM     60  O   UNL     1       1.641  -5.246  -8.921  1.00  0.00    -0.744 OA
ENDBRANCH  54  57
ENDBRANCH  26  50
BRANCH  38  61
ATOM     61  C   UNL     1       9.473   0.894 -12.151  1.00  0.00     0.023 A 
ATOM     62  C   UNL     1       8.795   0.833 -13.384  1.00  0.00     0.012 A 
ATOM     63  C   UNL     1      10.877   1.012 -12.139  1.00  0.00     0.148 A 
ATOM     64  C   UNL     1       9.504   0.851 -14.585  1.00  0.00     0.002 A 
ATOM     65  C   UNL     1      11.573   1.085 -13.339  1.00  0.00     0.091 A 
ATOM     66  F   UNL     1      11.506   1.049 -10.955  1.00  0.00    -0.205 F 
ATOM     67  C   UNL     1      10.890   0.989 -14.562  1.00  0.00     0.022 A 
BRANCH  65  68
ATOM     68  S   UNL     1      13.346   1.360 -13.410  1.00  0.00     0.127 S 
ATOM     69  O   UNL     1      13.830   0.065 -13.886  1.00  0.00    -0.237 OA
ATOM     70  O   UNL     1      13.451   2.446 -14.384  1.00  0.00    -0.237 OA
ATOM     71  O   UNL     1      13.753   1.718 -12.058  1.00  0.00    -0.744 OA
ENDBRANCH  65  68
ENDBRANCH  38  61
ENDBRANCH  12  13
ENDBRANCH   5   7
ENDBRANCH   2   3
ENDBRANCH   1   2
BRANCH   1  72
ATOM     72  C   UNL     1       4.500   1.206   3.723  1.00  0.00     0.023 C 
BRANCH  72  73
ATOM     73  C   UNL     1       4.972  -0.074   4.405  1.00  0.00     0.116 C 
BRANCH  73  74
ATOM     74  N   UNL     1       6.417  -0.144   4.540  1.00  0.00    -0.351 N 
ATOM     75  C   UNL     1       7.166  -0.263   5.692  1.00  0.00     0.261 C 
ATOM     76  H   UNL     1       6.928  -0.103   3.699  1.00  0.00     0.163 HD
ATOM     77  O   UNL     1       8.386  -0.130   5.610  1.00  0.00    -0.268 OA
BRANCH  75  78
ATOM     78  C   UNL     1       6.458  -0.534   6.924  1.00  0.00     0.093 A 
ATOM     79  C   UNL     1       5.533  -1.532   7.178  1.00  0.00     0.040 A 
ATOM     80  S   UNL     1       6.709   0.451   8.293  1.00  0.00    -0.137 S 
ATOM     81  C   UNL     1       4.863  -1.347   8.415  1.00  0.00     0.020 A 
ATOM     82  C   UNL     1       5.440  -0.327   9.143  1.00  0.00     0.080 A 
BRANCH  81  83
ATOM     83  S   UNL     1       3.478  -2.245   9.027  1.00  0.00    -0.110 SA
BRANCH  83  84
ATOM     84  C   UNL     1       2.793  -3.213   7.659  1.00  0.00     0.165 C 
ATOM     85  C   UNL     1       2.341  -2.427   6.447  1.00  0.00     0.068 C 
ATOM     86  C   UNL     1       3.749  -4.231   7.100  1.00  0.00     0.319 C 
ATOM     87  C   UNL     1       2.610  -3.379   5.305  1.00  0.00     0.234 C 
ATOM     88  O   UNL     1       3.656  -4.248   5.736  1.00  0.00    -0.465 OA
ATOM     89  O   UNL     1       4.491  -4.965   7.732  1.00  0.00    -0.251 OA
ENDBRANCH  83  84
ENDBRANCH  81  83
ENDBRANCH  75  78
ENDBRANCH  73  74
ENDBRANCH  72  73
ENDBRANCH   1  72
TORSDOF 16
