REMARK SMILES CC[C@](C)(NC(=O)/C=C/c1ccco1)C(=O)NCCCCNC(=O)c1ccc(-c2c3nc(c(-c4cccc(S(=O)(=O)[O-])c4F)c4ccc([nH]4)c(-c4cccc(S(=O)(=O)[O-])c4F)c4nc(c(-c5cccc(S(=O)(=O)[O-])c5F)c5ccc2[nH]5)C=C4)C=C3)cc1
REMARK SMILES IDX 19 1 18 2 17 3 15 4 16 5 3 7 4 8 2 9 1 10 5 11 6 12 7 14
REMARK SMILES IDX 8 15 9 16 10 17 11 18 14 19 12 20 13 21 20 22 21 23 22 24
REMARK SMILES IDX 23 25 24 27 25 28 26 29 87 30 27 31 86 32 28 33 29 34 30 35
REMARK SMILES IDX 80 36 31 37 85 38 79 39 81 40 32 41 84 42 78 43 77 44 33 46
REMARK SMILES IDX 65 47 45 48 64 49 46 50 49 51 63 52 82 53 47 54 48 55 62 57
REMARK SMILES IDX 83 58 50 59 34 60 35 61 43 62 36 63 38 64 44 65 37 66 39 67
REMARK SMILES IDX 40 68 41 69 42 70 66 71 67 72 75 73 68 74 70 75 76 76 69 77
REMARK SMILES IDX 71 78 72 79 73 80 74 81 51 82 52 83 60 84 53 85 55 86 61 87
REMARK SMILES IDX 54 88 56 89 57 90 58 91 59 92
REMARK H PARENT 17 6 5 13 22 26 81 45 49 56
REMARK Flexibility Score: inf
ROOT
ATOM      1  C   UNL     1       2.630   5.094   3.377  1.00  0.00     0.023 C 
ENDROOT
BRANCH   1   2
ATOM      2  C   UNL     1       2.188   4.761   1.954  1.00  0.00     0.116 C 
BRANCH   2   3
ATOM      3  N   UNL     1       2.835   3.614   1.336  1.00  0.00    -0.354 N 
ATOM      4  C   UNL     1       2.348   2.387   0.970  1.00  0.00     0.245 C 
ATOM      5  O   UNL     1       3.005   1.730   0.155  1.00  0.00    -0.272 OA
ATOM      6  H   UNL     1       3.792   3.743   1.148  1.00  0.00     0.163 HD
BRANCH   4   7
ATOM      7  C   UNL     1       0.951   1.892   1.433  1.00  0.00     0.116 C 
ATOM      8  C   UNL     1       0.750   0.369   1.252  1.00  0.00     0.045 C 
BRANCH   7   9
ATOM      9  C   UNL     1      -0.098   2.636   0.538  1.00  0.00     0.035 C 
ATOM     10  C   UNL     1       0.065   2.425  -0.973  1.00  0.00     0.007 C 
ENDBRANCH   7   9
BRANCH   7  11
ATOM     11  N   UNL     1       0.718   2.188   2.873  1.00  0.00    -0.338 N 
ATOM     12  C   UNL     1       1.427   1.817   3.988  1.00  0.00     0.244 C 
ATOM     13  H   UNL     1      -0.076   2.740   3.056  1.00  0.00     0.164 HD
ATOM     14  O   UNL     1       0.850   1.804   5.075  1.00  0.00    -0.270 OA
BRANCH  12  15
ATOM     15  C   UNL     1       2.909   1.719   3.954  1.00  0.00     0.075 C 
ATOM     16  C   UNL     1       3.659   0.895   3.215  1.00  0.00     0.053 C 
BRANCH  16  17
ATOM     17  C   UNL     1       5.029   1.213   2.997  1.00  0.00     0.126 A 
ATOM     18  C   UNL     1       6.168   0.971   3.752  1.00  0.00     0.050 A 
ATOM     19  O   UNL     1       5.427   1.891   1.864  1.00  0.00    -0.465 OA
ATOM     20  C   UNL     1       7.279   1.497   3.042  1.00  0.00     0.042 A 
ATOM     21  C   UNL     1       6.769   2.047   1.895  1.00  0.00     0.195 A 
ENDBRANCH  16  17
ENDBRANCH  12  15
ENDBRANCH   7  11
ENDBRANCH   4   7
ENDBRANCH   2   3
ENDBRANCH   1   2
BRANCH   1  22
ATOM     22  C   UNL     1       4.133   5.238   3.587  1.00  0.00     0.023 C 
BRANCH  22  23
ATOM     23  C   UNL     1       4.801   6.244   2.663  1.00  0.00     0.116 C 
BRANCH  23  24
ATOM     24  N   UNL     1       4.192   7.564   2.752  1.00  0.00    -0.352 N 
ATOM     25  C   UNL     1       4.785   8.783   2.967  1.00  0.00     0.251 C 
ATOM     26  H   UNL     1       3.214   7.585   2.642  1.00  0.00     0.163 HD
ATOM     27  O   UNL     1       4.095   9.769   3.191  1.00  0.00    -0.269 OA
BRANCH  25  28
ATOM     28  C   UNL     1       6.258   8.888   2.941  1.00  0.00     0.039 A 
ATOM     29  C   UNL     1       6.901   9.639   3.926  1.00  0.00     0.014 A 
ATOM     30  C   UNL     1       7.000   8.233   1.954  1.00  0.00     0.014 A 
ATOM     31  C   UNL     1       8.295   9.687   3.954  1.00  0.00     0.010 A 
ATOM     32  C   UNL     1       8.386   8.205   2.040  1.00  0.00     0.010 A 
ATOM     33  C   UNL     1       9.048   8.943   3.030  1.00  0.00    -0.014 A 
BRANCH  33  34
ATOM     34  C   UNL     1      10.531   8.925   3.081  1.00  0.00     0.031 A 
ATOM     35  C   UNL     1      11.330   9.435   1.912  1.00  0.00     0.074 A 
ATOM     36  C   UNL     1      11.153   8.372   4.140  1.00  0.00     0.049 A 
ATOM     37  N   UNL     1      12.627   9.451   1.746  1.00  0.00    -0.248 NA
ATOM     38  C   UNL     1      10.575   9.970   0.765  1.00  0.00     0.031 C 
ATOM     39  C   UNL     1      10.485   7.774   5.298  1.00  0.00     0.029 A 
ATOM     40  N   UNL     1      12.489   8.201   4.405  1.00  0.00    -0.354 N 
ATOM     41  C   UNL     1      12.840   9.956   0.469  1.00  0.00     0.074 A 
ATOM     42  C   UNL     1      11.540  10.201  -0.113  1.00  0.00     0.031 C 
ATOM     43  C   UNL     1      11.412   7.313   6.153  1.00  0.00     0.029 A 
ATOM     44  C   UNL     1      12.737   7.548   5.590  1.00  0.00     0.049 A 
ATOM     45  H   UNL     1      13.202   8.516   3.803  1.00  0.00     0.167 HD
ATOM     46  C   UNL     1      14.013  10.217  -0.154  1.00  0.00     0.034 A 
ATOM     47  C   UNL     1      13.902   7.173   6.154  1.00  0.00     0.034 A 
ATOM     48  C   UNL     1      15.303  10.011   0.446  1.00  0.00     0.049 A 
ATOM     49  C   UNL     1      15.191   7.508   5.454  1.00  0.00     0.074 A 
ATOM     50  C   UNL     1      16.548  10.334  -0.062  1.00  0.00     0.029 A 
ATOM     51  N   UNL     1      15.515   9.418   1.681  1.00  0.00    -0.354 N 
ATOM     52  N   UNL     1      15.374   8.133   4.316  1.00  0.00    -0.248 NA
ATOM     53  C   UNL     1      16.435   7.117   6.132  1.00  0.00     0.031 C 
ATOM     54  C   UNL     1      17.516   9.901   0.850  1.00  0.00     0.029 A 
ATOM     55  C   UNL     1      16.871   9.349   1.945  1.00  0.00     0.049 A 
ATOM     56  H   UNL     1      14.805   9.095   2.281  1.00  0.00     0.167 HD
ATOM     57  C   UNL     1      16.751   8.246   4.161  1.00  0.00     0.074 A 
ATOM     58  C   UNL     1      17.353   7.642   5.332  1.00  0.00     0.031 C 
ATOM     59  C   UNL     1      17.454   8.790   3.138  1.00  0.00     0.034 A 
BRANCH  46  60
ATOM     60  C   UNL     1      13.957  10.794  -1.545  1.00  0.00     0.023 A 
ATOM     61  C   UNL     1      13.508  12.116  -1.739  1.00  0.00     0.012 A 
ATOM     62  C   UNL     1      14.409  10.049  -2.652  1.00  0.00     0.148 A 
ATOM     63  C   UNL     1      13.474  12.676  -3.016  1.00  0.00     0.002 A 
ATOM     64  C   UNL     1      14.419  10.631  -3.914  1.00  0.00     0.091 A 
ATOM     65  F   UNL     1      14.813   8.787  -2.452  1.00  0.00    -0.205 F 
ATOM     66  C   UNL     1      13.940  11.938  -4.100  1.00  0.00     0.022 A 
BRANCH  64  67
ATOM     67  S   UNL     1      15.078   9.796  -5.362  1.00  0.00     0.127 S 
ATOM     68  O   UNL     1      13.866   9.568  -6.147  1.00  0.00    -0.237 OA
ATOM     69  O   UNL     1      15.981  10.805  -5.913  1.00  0.00    -0.237 OA
ATOM     70  O   UNL     1      15.735   8.593  -4.869  1.00  0.00    -0.744 OA
ENDBRANCH  64  67
ENDBRANCH  46  60
BRANCH  47  71
ATOM     71  C   UNL     1      13.906   6.491   7.479  1.00  0.00     0.023 A 
ATOM     72  C   UNL     1      14.412   7.170   8.605  1.00  0.00     0.012 A 
ATOM     73  C   UNL     1      13.401   5.186   7.634  1.00  0.00     0.148 A 
ATOM     74  C   UNL     1      14.452   6.547   9.853  1.00  0.00     0.002 A 
ATOM     75  C   UNL     1      13.391   4.592   8.890  1.00  0.00     0.091 A 
ATOM     76  F   UNL     1      12.931   4.555   6.549  1.00  0.00    -0.205 F 
ATOM     77  C   UNL     1      13.934   5.263   9.998  1.00  0.00     0.022 A 
BRANCH  75  78
ATOM     78  S   UNL     1      12.628   2.995   9.194  1.00  0.00     0.127 S 
ATOM     79  O   UNL     1      13.791   2.157   9.476  1.00  0.00    -0.237 OA
ATOM     80  O   UNL     1      11.779   3.283  10.351  1.00  0.00    -0.237 OA
ATOM     81  O   UNL     1      11.895   2.670   7.978  1.00  0.00    -0.744 OA
ENDBRANCH  75  78
ENDBRANCH  47  71
BRANCH  59  82
ATOM     82  C   UNL     1      18.956   8.806   3.252  1.00  0.00     0.023 A 
ATOM     83  C   UNL     1      19.686   7.608   3.132  1.00  0.00     0.012 A 
ATOM     84  C   UNL     1      19.646  10.025   3.403  1.00  0.00     0.148 A 
ATOM     85  C   UNL     1      21.079   7.618   3.198  1.00  0.00     0.002 A 
ATOM     86  C   UNL     1      21.035  10.034   3.413  1.00  0.00     0.091 A 
ATOM     87  F   UNL     1      18.932  11.153   3.532  1.00  0.00    -0.205 F 
ATOM     88  C   UNL     1      21.753   8.830   3.326  1.00  0.00     0.022 A 
BRANCH  86  89
ATOM     89  S   UNL     1      21.989  11.555   3.471  1.00  0.00     0.127 S 
ATOM     90  O   UNL     1      22.557  11.499   4.816  1.00  0.00    -0.237 OA
ATOM     91  O   UNL     1      22.956  11.354   2.391  1.00  0.00    -0.237 OA
ATOM     92  O   UNL     1      21.039  12.635   3.239  1.00  0.00    -0.744 OA
ENDBRANCH  86  89
ENDBRANCH  59  82
ENDBRANCH  33  34
ENDBRANCH  25  28
ENDBRANCH  23  24
ENDBRANCH  22  23
ENDBRANCH   1  22
TORSDOF 18
