REMARK SMILES C/C(=N\Nc1nc(-c2ccc(Cl)cc2)cs1)c1nnn(-c2ccc(C(=O)NCCCCNC(=O)c3ccc(-c4c5nc(c(-c6cccc(S(=O)(=O)[O-])c6F)c6ccc([nH]6)c(-c6cccc(S(=O)(=O)[O-])c6F)c6nc(c(-c7cccc(S(=O)(=O)[O-])c7F)c7ccc4[nH]7)C=C6)C=C5)cc3)cc2)c1C
REMARK SMILES IDX 28 1 27 2 25 3 26 4 24 6 21 7 22 8 99 9 23 10 98 11 20 12
REMARK SMILES IDX 17 13 18 14 100 15 19 16 101 17 2 18 1 19 3 20 4 21 5 23
REMARK SMILES IDX 6 24 16 25 7 26 15 27 8 28 9 29 14 30 10 31 13 32 11 33
REMARK SMILES IDX 12 34 29 35 30 36 31 37 32 38 33 39 34 41 35 42 36 43 97 44
REMARK SMILES IDX 37 45 96 46 38 47 39 48 40 49 90 50 41 51 95 52 89 53 91 54
REMARK SMILES IDX 42 55 94 56 88 57 87 58 43 60 75 61 55 62 74 63 56 64 59 65
REMARK SMILES IDX 73 66 92 67 57 68 58 69 72 71 93 72 60 73 44 74 45 75 53 76
REMARK SMILES IDX 46 77 48 78 54 79 47 80 49 81 50 82 51 83 52 84 76 85 77 86
REMARK SMILES IDX 85 87 78 88 80 89 86 90 79 91 81 92 82 93 83 94 84 95 61 96
REMARK SMILES IDX 62 97 70 98 63 99 65 100 71 101 64 102 66 103 67 104 68 105
REMARK SMILES IDX 69 106
REMARK H PARENT 27 5 4 22 32 40 91 59 59 70
REMARK Flexibility Score: inf
ROOT
ATOM      1  C   UNL     1       8.072   6.868   0.851  1.00  0.00     0.116 C 
ENDROOT
BRANCH   1   2
ATOM      2  N   UNL     1       7.670   7.298   2.179  1.00  0.00    -0.352 N 
ATOM      3  C   UNL     1       6.478   7.243   2.862  1.00  0.00     0.251 C 
ATOM      4  O   UNL     1       6.430   7.748   3.984  1.00  0.00    -0.269 OA
ATOM      5  H   UNL     1       8.399   7.713   2.694  1.00  0.00     0.163 HD
BRANCH   3   6
ATOM      6  C   UNL     1       5.249   6.587   2.329  1.00  0.00     0.039 A 
ATOM      7  C   UNL     1       2.988   5.179   1.479  1.00  0.00     0.067 A 
ATOM      8  C   UNL     1       3.171   5.397   2.843  1.00  0.00     0.029 A 
ATOM      9  C   UNL     1       3.858   5.732   0.540  1.00  0.00     0.029 A 
ATOM     10  C   UNL     1       4.320   6.081   3.261  1.00  0.00     0.016 A 
ATOM     11  C   UNL     1       4.961   6.462   0.970  1.00  0.00     0.016 A 
BRANCH   7  12
ATOM     12  N   UNL     1       2.011   4.279   1.029  1.00  0.00    -0.217 N 
ATOM     13  C   UNL     1       0.968   2.590   0.147  1.00  0.00     0.132 A 
ATOM     14  N   UNL     1       0.044   3.425   0.716  1.00  0.00    -0.128 NA
ATOM     15  C   UNL     1       2.236   3.125   0.308  1.00  0.00     0.071 A 
ATOM     16  N   UNL     1       0.700   4.412   1.319  1.00  0.00    -0.061 NA
ATOM     17  C   UNL     1       3.587   2.571   0.014  1.00  0.00     0.069 C 
BRANCH  13  18
ATOM     18  C   UNL     1       0.675   1.258  -0.356  1.00  0.00     0.087 C 
ATOM     19  C   UNL     1       1.424   0.153   0.351  1.00  0.00     0.071 C 
ATOM     20  N   UNL     1      -0.142   1.172  -1.372  1.00  0.00    -0.176 NA
BRANCH  20  21
ATOM     21  N   UNL     1      -0.401  -0.019  -2.018  1.00  0.00    -0.252 N 
ATOM     22  H   UNL     1      -0.686   0.066  -2.957  1.00  0.00     0.193 HD
BRANCH  21  23
ATOM     23  C   UNL     1      -0.321  -1.292  -1.552  1.00  0.00     0.203 A 
ATOM     24  N   UNL     1      -0.588  -1.677  -0.327  1.00  0.00    -0.219 NA
ATOM     25  S   UNL     1       0.328  -2.551  -2.547  1.00  0.00    -0.103 S 
ATOM     26  C   UNL     1       0.082  -2.849  -0.042  1.00  0.00     0.084 A 
ATOM     27  C   UNL     1       0.651  -3.476  -1.130  1.00  0.00     0.097 A 
BRANCH  26  28
ATOM     28  C   UNL     1       0.250  -3.246   1.343  1.00  0.00     0.001 A 
ATOM     29  C   UNL     1      -0.875  -3.327   2.172  1.00  0.00     0.012 A 
ATOM     30  C   UNL     1       1.530  -3.385   1.902  1.00  0.00     0.012 A 
ATOM     31  C   UNL     1      -0.728  -3.576   3.539  1.00  0.00     0.021 A 
ATOM     32  C   UNL     1       1.677  -3.619   3.273  1.00  0.00     0.021 A 
ATOM     33  C   UNL     1       0.547  -3.721   4.083  1.00  0.00     0.041 A 
ATOM     34  Cl  UNL     1       0.723  -4.011   5.770  1.00  0.00    -0.084 Cl
ENDBRANCH  26  28
ENDBRANCH  21  23
ENDBRANCH  20  21
ENDBRANCH  13  18
ENDBRANCH   7  12
ENDBRANCH   3   6
ENDBRANCH   1   2
BRANCH   1  35
ATOM     35  C   UNL     1       7.904   8.002  -0.175  1.00  0.00     0.023 C 
BRANCH  35  36
ATOM     36  C   UNL     1       8.985   9.091  -0.143  1.00  0.00     0.023 C 
BRANCH  36  37
ATOM     37  C   UNL     1      10.340   8.652  -0.679  1.00  0.00     0.116 C 
BRANCH  37  38
ATOM     38  N   UNL     1      10.303   8.282  -2.103  1.00  0.00    -0.352 N 
ATOM     39  C   UNL     1      11.278   7.630  -2.836  1.00  0.00     0.251 C 
ATOM     40  H   UNL     1       9.485   8.527  -2.593  1.00  0.00     0.163 HD
ATOM     41  O   UNL     1      11.317   7.707  -4.064  1.00  0.00    -0.269 OA
BRANCH  39  42
ATOM     42  C   UNL     1      12.249   6.803  -2.108  1.00  0.00     0.039 A 
ATOM     43  C   UNL     1      13.620   6.801  -2.389  1.00  0.00     0.014 A 
ATOM     44  C   UNL     1      11.728   6.060  -1.056  1.00  0.00     0.014 A 
ATOM     45  C   UNL     1      14.472   6.091  -1.544  1.00  0.00     0.010 A 
ATOM     46  C   UNL     1      12.577   5.568  -0.113  1.00  0.00     0.010 A 
ATOM     47  C   UNL     1      13.933   5.485  -0.403  1.00  0.00    -0.014 A 
BRANCH  47  48
ATOM     48  C   UNL     1      14.742   4.795   0.589  1.00  0.00     0.031 A 
ATOM     49  C   UNL     1      15.701   5.665   1.320  1.00  0.00     0.074 A 
ATOM     50  C   UNL     1      14.378   3.561   1.011  1.00  0.00     0.049 A 
ATOM     51  N   UNL     1      16.992   5.613   1.305  1.00  0.00    -0.248 NA
ATOM     52  C   UNL     1      15.164   6.836   2.036  1.00  0.00     0.031 C 
ATOM     53  C   UNL     1      13.209   2.771   0.584  1.00  0.00     0.029 A 
ATOM     54  N   UNL     1      14.863   2.826   2.044  1.00  0.00    -0.354 N 
ATOM     55  C   UNL     1      17.410   6.579   2.220  1.00  0.00     0.074 A 
ATOM     56  C   UNL     1      16.284   7.446   2.429  1.00  0.00     0.031 C 
ATOM     57  C   UNL     1      12.931   1.832   1.514  1.00  0.00     0.029 A 
ATOM     58  C   UNL     1      13.996   1.831   2.495  1.00  0.00     0.049 A 
ATOM     59  H   UNL     1      15.751   2.981   2.440  1.00  0.00     0.167 HD
ATOM     60  C   UNL     1      18.542   6.409   2.960  1.00  0.00     0.034 A 
ATOM     61  C   UNL     1      14.125   1.098   3.628  1.00  0.00     0.034 A 
ATOM     62  C   UNL     1      19.346   5.332   2.437  1.00  0.00     0.049 A 
ATOM     63  C   UNL     1      15.545   1.191   4.033  1.00  0.00     0.074 A 
ATOM     64  C   UNL     1      19.965   5.060   1.234  1.00  0.00     0.029 A 
ATOM     65  N   UNL     1      19.256   4.130   3.098  1.00  0.00    -0.354 N 
ATOM     66  N   UNL     1      16.526   0.723   3.313  1.00  0.00    -0.248 NA
ATOM     67  C   UNL     1      15.907   2.208   5.005  1.00  0.00     0.031 C 
ATOM     68  C   UNL     1      19.784   3.658   1.039  1.00  0.00     0.029 A 
ATOM     69  C   UNL     1      19.131   3.141   2.161  1.00  0.00     0.049 A 
ATOM     70  H   UNL     1      19.277   4.003   4.074  1.00  0.00     0.167 HD
ATOM     71  C   UNL     1      17.513   1.697   3.405  1.00  0.00     0.074 A 
ATOM     72  C   UNL     1      17.124   2.521   4.550  1.00  0.00     0.031 C 
ATOM     73  C   UNL     1      18.376   1.923   2.369  1.00  0.00     0.034 A 
BRANCH  60  74
ATOM     74  C   UNL     1      18.751   6.915   4.375  1.00  0.00     0.023 A 
ATOM     75  C   UNL     1      20.042   6.750   4.930  1.00  0.00     0.012 A 
ATOM     76  C   UNL     1      17.718   7.277   5.272  1.00  0.00     0.148 A 
ATOM     77  C   UNL     1      20.277   6.872   6.304  1.00  0.00     0.002 A 
ATOM     78  C   UNL     1      17.973   7.476   6.625  1.00  0.00     0.091 A 
ATOM     79  F   UNL     1      16.449   7.302   4.863  1.00  0.00    -0.205 F 
ATOM     80  C   UNL     1      19.242   7.241   7.153  1.00  0.00     0.022 A 
BRANCH  78  81
ATOM     81  S   UNL     1      16.677   7.995   7.760  1.00  0.00     0.127 S 
ATOM     82  O   UNL     1      16.427   6.761   8.498  1.00  0.00    -0.237 OA
ATOM     83  O   UNL     1      17.351   9.048   8.519  1.00  0.00    -0.237 OA
ATOM     84  O   UNL     1      15.588   8.472   6.916  1.00  0.00    -0.744 OA
ENDBRANCH  78  81
ENDBRANCH  60  74
BRANCH  61  85
ATOM     85  C   UNL     1      13.079   0.560   4.530  1.00  0.00     0.023 A 
ATOM     86  C   UNL     1      13.385  -0.498   5.409  1.00  0.00     0.012 A 
ATOM     87  C   UNL     1      11.870   1.264   4.731  1.00  0.00     0.148 A 
ATOM     88  C   UNL     1      12.532  -0.822   6.473  1.00  0.00     0.002 A 
ATOM     89  C   UNL     1      11.023   0.934   5.785  1.00  0.00     0.091 A 
ATOM     90  F   UNL     1      11.599   2.314   3.944  1.00  0.00    -0.205 F 
ATOM     91  C   UNL     1      11.357  -0.100   6.668  1.00  0.00     0.022 A 
BRANCH  89  92
ATOM     92  S   UNL     1       9.499   1.834   6.107  1.00  0.00     0.127 S 
ATOM     93  O   UNL     1       8.527   0.747   6.223  1.00  0.00    -0.237 OA
ATOM     94  O   UNL     1       9.812   2.515   7.360  1.00  0.00    -0.237 OA
ATOM     95  O   UNL     1       9.296   2.696   4.949  1.00  0.00    -0.744 OA
ENDBRANCH  89  92
ENDBRANCH  61  85
BRANCH  73  96
ATOM     96  C   UNL     1      18.366   0.944   1.216  1.00  0.00     0.023 A 
ATOM     97  C   UNL     1      17.267   0.818   0.339  1.00  0.00     0.012 A 
ATOM     98  C   UNL     1      19.560   0.280   0.898  1.00  0.00     0.148 A 
ATOM     99  C   UNL     1      17.350   0.038  -0.818  1.00  0.00     0.002 A 
ATOM    100  C   UNL     1      19.655  -0.460  -0.275  1.00  0.00     0.091 A 
ATOM    101  F   UNL     1      20.601   0.420   1.733  1.00  0.00    -0.205 F 
ATOM    102  C   UNL     1      18.550  -0.592  -1.131  1.00  0.00     0.022 A 
BRANCH 100 103
ATOM    103  S   UNL     1      21.204  -1.191  -0.806  1.00  0.00     0.127 S 
ATOM    104  O   UNL     1      20.937  -2.619  -0.648  1.00  0.00    -0.237 OA
ATOM    105  O   UNL     1      21.303  -0.736  -2.193  1.00  0.00    -0.237 OA
ATOM    106  O   UNL     1      22.231  -0.648   0.075  1.00  0.00    -0.744 OA
ENDBRANCH 100 103
ENDBRANCH  73  96
ENDBRANCH  47  48
ENDBRANCH  39  42
ENDBRANCH  37  38
ENDBRANCH  36  37
ENDBRANCH  35  36
ENDBRANCH   1  35
TORSDOF 19
