REMARK SMILES O=C(NCCCCNC(=O)c1[nH]ncc1C[N@H+]1CCC[C@@H](C(=O)c2ccc(Oc3ccccc3)cc2)C1)c1ccc(-c2c3nc(c(-c4cccc(S(=O)(=O)[O-])c4F)c4ccc([nH]4)c(-c4cccc(S(=O)(=O)[O-])c4F)c4nc(c(-c5cccc(S(=O)(=O)[O-])c5F)c5ccc2[nH]5)C=C4)C=C3)cc1
REMARK SMILES IDX 7 1 6 2 5 3 4 4 3 5 1 6 2 7 38 9 39 10 100 11 40 12 99 13
REMARK SMILES IDX 41 14 42 15 43 16 93 17 44 18 98 19 92 20 94 21 45 22 97 23
REMARK SMILES IDX 91 24 90 25 46 27 78 28 58 29 77 30 59 31 62 32 76 33 95 34
REMARK SMILES IDX 60 35 61 36 75 38 96 39 63 40 47 41 48 42 56 43 49 44 51 45
REMARK SMILES IDX 57 46 50 47 52 48 53 49 54 50 55 51 79 52 80 53 88 54 81 55
REMARK SMILES IDX 83 56 89 57 82 58 84 59 85 60 86 61 87 62 64 63 65 64 73 65
REMARK SMILES IDX 66 66 68 67 74 68 67 69 69 70 70 71 71 72 72 73 8 74 9 75
REMARK SMILES IDX 10 77 11 78 12 79 15 80 13 81 14 83 16 84 17 85 18 86 37 87
REMARK SMILES IDX 19 89 21 90 20 91 22 92 23 93 24 94 25 95 36 96 26 97 35 98
REMARK SMILES IDX 27 99 28 100 29 101 30 102 34 103 31 104 33 105 32 106
REMARK H PARENT 3 8 94 26 62 37 8 76 12 82 17 88
REMARK Flexibility Score: inf
ROOT
ATOM      1  C   UNL     1       5.002  -3.788   1.977  1.00  0.00     0.116 C 
ENDROOT
BRANCH   1   2
ATOM      2  C   UNL     1       4.603  -2.564   2.792  1.00  0.00     0.023 C 
BRANCH   2   3
ATOM      3  C   UNL     1       5.036  -1.227   2.200  1.00  0.00     0.023 C 
BRANCH   3   4
ATOM      4  C   UNL     1       4.683  -1.028   0.731  1.00  0.00     0.116 C 
BRANCH   4   5
ATOM      5  N   UNL     1       3.251  -1.077   0.480  1.00  0.00    -0.352 N 
ATOM      6  O   UNL     1       1.213  -0.278  -0.050  1.00  0.00    -0.269 OA
ATOM      7  C   UNL     1       2.429  -0.112  -0.051  1.00  0.00     0.251 C 
ATOM      8  H   UNL     1       2.808  -1.922   0.726  1.00  0.00     0.163 HD
BRANCH   7   9
ATOM      9  C   UNL     1       3.020   1.134  -0.583  1.00  0.00     0.039 A 
ATOM     10  C   UNL     1       4.128   1.087  -1.432  1.00  0.00     0.014 A 
ATOM     11  C   UNL     1       2.479   2.362  -0.197  1.00  0.00     0.014 A 
ATOM     12  C   UNL     1       4.796   2.262  -1.760  1.00  0.00     0.010 A 
ATOM     13  C   UNL     1       3.100   3.546  -0.602  1.00  0.00     0.010 A 
ATOM     14  C   UNL     1       4.288   3.504  -1.350  1.00  0.00    -0.014 A 
BRANCH  14  15
ATOM     15  C   UNL     1       4.980   4.754  -1.752  1.00  0.00     0.031 A 
ATOM     16  C   UNL     1       5.572   5.679  -0.725  1.00  0.00     0.074 A 
ATOM     17  C   UNL     1       5.053   5.062  -3.062  1.00  0.00     0.049 A 
ATOM     18  N   UNL     1       6.177   6.826  -0.902  1.00  0.00    -0.248 NA
ATOM     19  C   UNL     1       5.465   5.272   0.686  1.00  0.00     0.031 C 
ATOM     20  C   UNL     1       4.485   4.258  -4.146  1.00  0.00     0.029 A 
ATOM     21  N   UNL     1       5.617   6.135  -3.702  1.00  0.00    -0.354 N 
ATOM     22  C   UNL     1       6.481   7.300   0.368  1.00  0.00     0.074 A 
ATOM     23  C   UNL     1       5.991   6.318   1.311  1.00  0.00     0.031 C 
ATOM     24  C   UNL     1       4.734   4.861  -5.317  1.00  0.00     0.029 A 
ATOM     25  C   UNL     1       5.430   6.117  -5.064  1.00  0.00     0.049 A 
ATOM     26  H   UNL     1       6.107   6.848  -3.233  1.00  0.00     0.167 HD
ATOM     27  C   UNL     1       7.122   8.442   0.715  1.00  0.00     0.034 A 
ATOM     28  C   UNL     1       5.758   7.021  -6.006  1.00  0.00     0.034 A 
ATOM     29  C   UNL     1       7.640   9.396  -0.230  1.00  0.00     0.049 A 
ATOM     30  C   UNL     1       6.486   8.268  -5.596  1.00  0.00     0.074 A 
ATOM     31  C   UNL     1       8.363  10.550   0.020  1.00  0.00     0.029 A 
ATOM     32  N   UNL     1       7.486   9.313  -1.606  1.00  0.00    -0.354 N 
ATOM     33  N   UNL     1       6.872   8.639  -4.399  1.00  0.00    -0.248 NA
ATOM     34  C   UNL     1       6.849   9.207  -6.665  1.00  0.00     0.031 C 
ATOM     35  C   UNL     1       8.629  11.174  -1.204  1.00  0.00     0.029 A 
ATOM     36  C   UNL     1       8.092  10.397  -2.218  1.00  0.00     0.049 A 
ATOM     37  H   UNL     1       7.016   8.589  -2.078  1.00  0.00     0.167 HD
ATOM     38  C   UNL     1       7.549   9.839  -4.573  1.00  0.00     0.074 A 
ATOM     39  C   UNL     1       7.537  10.123  -5.995  1.00  0.00     0.031 C 
ATOM     40  C   UNL     1       8.117  10.640  -3.639  1.00  0.00     0.034 A 
BRANCH  27  41
ATOM     41  C   UNL     1       7.333   8.711   2.183  1.00  0.00     0.023 A 
ATOM     42  C   UNL     1       8.294   7.966   2.897  1.00  0.00     0.012 A 
ATOM     43  C   UNL     1       6.626   9.736   2.843  1.00  0.00     0.148 A 
ATOM     44  C   UNL     1       8.525   8.214   4.250  1.00  0.00     0.002 A 
ATOM     45  C   UNL     1       6.891  10.004   4.182  1.00  0.00     0.091 A 
ATOM     46  F   UNL     1       5.700  10.420   2.157  1.00  0.00    -0.205 F 
ATOM     47  C   UNL     1       7.831   9.239   4.889  1.00  0.00     0.022 A 
BRANCH  45  48
ATOM     48  S   UNL     1       6.099  11.353   5.067  1.00  0.00     0.127 S 
ATOM     49  O   UNL     1       5.108  10.638   5.869  1.00  0.00    -0.237 OA
ATOM     50  O   UNL     1       7.211  11.918   5.834  1.00  0.00    -0.237 OA
ATOM     51  O   UNL     1       5.563  12.239   4.043  1.00  0.00    -0.744 OA
ENDBRANCH  45  48
ENDBRANCH  27  41
BRANCH  28  52
ATOM     52  C   UNL     1       5.434   6.739  -7.431  1.00  0.00     0.023 A 
ATOM     53  C   UNL     1       6.472   6.426  -8.328  1.00  0.00     0.012 A 
ATOM     54  C   UNL     1       4.099   6.704  -7.881  1.00  0.00     0.148 A 
ATOM     55  C   UNL     1       6.187   6.098  -9.654  1.00  0.00     0.002 A 
ATOM     56  C   UNL     1       3.819   6.320  -9.186  1.00  0.00     0.091 A 
ATOM     57  F   UNL     1       3.128   7.016  -7.011  1.00  0.00    -0.205 F 
ATOM     58  C   UNL     1       4.863   6.031 -10.079  1.00  0.00     0.022 A 
BRANCH  56  59
ATOM     59  S   UNL     1       2.141   6.066  -9.775  1.00  0.00     0.127 S 
ATOM     60  O   UNL     1       1.973   7.192 -10.690  1.00  0.00    -0.237 OA
ATOM     61  O   UNL     1       2.244   4.756 -10.421  1.00  0.00    -0.237 OA
ATOM     62  O   UNL     1       1.300   6.083  -8.586  1.00  0.00    -0.744 OA
ENDBRANCH  56  59
ENDBRANCH  28  52
BRANCH  40  63
ATOM     63  C   UNL     1       8.807  11.888  -4.119  1.00  0.00     0.023 A 
ATOM     64  C   UNL     1       8.041  12.989  -4.550  1.00  0.00     0.012 A 
ATOM     65  C   UNL     1      10.211  11.997  -4.068  1.00  0.00     0.148 A 
ATOM     66  C   UNL     1       8.663  14.171  -4.949  1.00  0.00     0.002 A 
ATOM     67  C   UNL     1      10.821  13.194  -4.423  1.00  0.00     0.091 A 
ATOM     68  F   UNL     1      10.922  10.930  -3.676  1.00  0.00    -0.205 F 
ATOM     69  C   UNL     1      10.050  14.278  -4.873  1.00  0.00     0.022 A 
BRANCH  67  70
ATOM     70  S   UNL     1      12.592  13.451  -4.269  1.00  0.00     0.127 S 
ATOM     71  O   UNL     1      13.023  13.410  -5.665  1.00  0.00    -0.237 OA
ATOM     72  O   UNL     1      12.662  14.774  -3.647  1.00  0.00    -0.237 OA
ATOM     73  O   UNL     1      13.082  12.365  -3.430  1.00  0.00    -0.744 OA
ENDBRANCH  67  70
ENDBRANCH  40  63
ENDBRANCH  14  15
ENDBRANCH   7   9
ENDBRANCH   4   5
ENDBRANCH   3   4
ENDBRANCH   2   3
ENDBRANCH   1   2
BRANCH   1  74
ATOM     74  N   UNL     1       6.442  -3.914   1.801  1.00  0.00    -0.351 N 
ATOM     75  C   UNL     1       7.258  -4.964   2.138  1.00  0.00     0.269 C 
ATOM     76  H   UNL     1       6.889  -3.143   1.385  1.00  0.00     0.163 HD
ATOM     77  O   UNL     1       8.477  -4.819   2.095  1.00  0.00    -0.268 OA
BRANCH  75  78
ATOM     78  C   UNL     1       6.641  -6.167   2.606  1.00  0.00     0.131 A 
ATOM     79  N   UNL     1       7.005  -6.748   3.788  1.00  0.00    -0.272 N 
ATOM     80  C   UNL     1       5.636  -6.967   2.076  1.00  0.00     0.057 A 
ATOM     81  N   UNL     1       6.159  -7.708   4.191  1.00  0.00    -0.183 NA
ATOM     82  H   UNL     1       7.808  -6.488   4.293  1.00  0.00     0.190 HD
ATOM     83  C   UNL     1       5.314  -7.819   3.165  1.00  0.00     0.145 A 
BRANCH  80  84
ATOM     84  C   UNL     1       4.971  -6.821   0.734  1.00  0.00     0.303 C 
BRANCH  84  85
ATOM     85  N   UNL     1       4.989  -8.017  -0.123  1.00  0.00    -0.330 N 
ATOM     86  C   UNL     1       6.328  -8.460  -0.501  1.00  0.00     0.262 C 
ATOM     87  C   UNL     1       4.169  -9.095   0.412  1.00  0.00     0.274 C 
ATOM     88  H   UNL     1       4.555  -7.724  -0.999  1.00  0.00     0.348 HD
ATOM     89  C   UNL     1       6.237  -9.623  -1.493  1.00  0.00     0.062 C 
ATOM     90  C   UNL     1       4.030 -10.338  -0.470  1.00  0.00     0.116 C 
ATOM     91  C   UNL     1       5.424 -10.790  -0.931  1.00  0.00     0.023 C 
BRANCH  90  92
ATOM     92  C   UNL     1       3.328 -11.511   0.248  1.00  0.00     0.171 C 
ATOM     93  O   UNL     1       3.185 -12.613  -0.281  1.00  0.00    -0.294 OA
BRANCH  92  94
ATOM     94  C   UNL     1       2.882 -11.360   1.660  1.00  0.00     0.018 A 
ATOM     95  C   UNL     1       3.491 -12.144   2.640  1.00  0.00     0.015 A 
ATOM     96  C   UNL     1       1.952 -10.384   2.026  1.00  0.00     0.015 A 
ATOM     97  C   UNL     1       3.221 -11.895   3.990  1.00  0.00     0.048 A 
ATOM     98  C   UNL     1       1.725 -10.105   3.378  1.00  0.00     0.048 A 
ATOM     99  C   UNL     1       2.363 -10.855   4.370  1.00  0.00     0.127 A 
BRANCH  99 100
ATOM    100  O   UNL     1       2.219 -10.691   5.732  1.00  0.00    -0.457 OA
BRANCH 100 101
ATOM    101  C   UNL     1       1.697  -9.516   6.216  1.00  0.00     0.127 A 
ATOM    102  C   UNL     1       2.545  -8.656   6.917  1.00  0.00     0.047 A 
ATOM    103  C   UNL     1       0.331  -9.239   6.131  1.00  0.00     0.047 A 
ATOM    104  C   UNL     1       2.032  -7.489   7.487  1.00  0.00     0.004 A 
ATOM    105  C   UNL     1      -0.173  -8.059   6.677  1.00  0.00     0.004 A 
ATOM    106  C   UNL     1       0.676  -7.184   7.355  1.00  0.00     0.000 A 
ENDBRANCH 100 101
ENDBRANCH  99 100
ENDBRANCH  92  94
ENDBRANCH  90  92
ENDBRANCH  84  85
ENDBRANCH  80  84
ENDBRANCH  75  78
ENDBRANCH   1  74
TORSDOF 20
