REMARK SMILES Cc1nc(-c2cccc(F)c2)sc1C(=O)NC[C@H]1CC[C@@H](C(=O)NCCCCNC(=O)c2ccc(-c3c4nc(c(-c5cccc(S(=O)(=O)[O-])c5F)c5ccc([nH]5)c(-c5cccc(S(=O)(=O)[O-])c5F)c5nc(c(-c6cccc(S(=O)(=O)[O-])c6F)c6ccc3[nH]6)C=C5)C=C4)cc2)CC1
REMARK SMILES IDX 26 1 25 2 24 3 22 4 23 5 21 7 18 8 19 9 96 10 20 11 95 12
REMARK SMILES IDX 17 13 16 14 14 15 15 16 13 18 1 19 2 20 3 21 4 22 12 23 5 24
REMARK SMILES IDX 6 25 11 26 7 27 9 28 8 29 10 30 27 31 28 32 29 33 30 34
REMARK SMILES IDX 31 36 32 37 33 38 94 39 34 40 93 41 35 42 36 43 37 44 87 45
REMARK SMILES IDX 38 46 92 47 86 48 88 49 39 50 91 51 85 52 84 53 40 55 72 56
REMARK SMILES IDX 52 57 71 58 53 59 56 60 70 61 89 62 54 63 55 64 69 66 90 67
REMARK SMILES IDX 57 68 41 69 42 70 50 71 43 72 45 73 51 74 44 75 46 76 47 77
REMARK SMILES IDX 48 78 49 79 73 80 74 81 82 82 75 83 77 84 83 85 76 86 78 87
REMARK SMILES IDX 79 88 80 89 81 90 58 91 59 92 67 93 60 94 62 95 68 96 61 97
REMARK SMILES IDX 63 98 64 99 65 100 66 101
REMARK H PARENT 24 6 16 17 29 35 88 54 56 65
REMARK Flexibility Score: inf
ROOT
ATOM      1  C   UNL     1      -5.949  -1.510   1.299  1.00  0.00     0.023 C 
ENDROOT
BRANCH   1   2
ATOM      2  C   UNL     1      -6.137  -2.938   0.783  1.00  0.00     0.116 C 
BRANCH   2   3
ATOM      3  N   UNL     1      -7.291  -3.099  -0.071  1.00  0.00    -0.356 N 
ATOM      4  C   UNL     1      -7.451  -3.374  -1.388  1.00  0.00     0.223 C 
ATOM      5  O   UNL     1      -8.610  -3.634  -1.740  1.00  0.00    -0.275 OA
ATOM      6  H   UNL     1      -8.144  -2.985   0.406  1.00  0.00     0.163 HD
BRANCH   4   7
ATOM      7  C   UNL     1      -6.346  -3.367  -2.458  1.00  0.00     0.078 C 
ATOM      8  C   UNL     1      -3.439  -2.992  -1.693  1.00  0.00     0.008 C 
ATOM      9  C   UNL     1      -4.101  -4.386  -1.677  1.00  0.00     0.006 C 
ATOM     10  C   UNL     1      -4.394  -1.803  -1.907  1.00  0.00     0.006 C 
ATOM     11  C   UNL     1      -5.373  -4.539  -2.498  1.00  0.00     0.014 C 
ATOM     12  C   UNL     1      -5.661  -2.037  -2.704  1.00  0.00     0.014 C 
BRANCH   8  13
ATOM     13  C   UNL     1      -2.599  -2.789  -0.396  1.00  0.00     0.119 C 
BRANCH  13  14
ATOM     14  N   UNL     1      -1.185  -2.941  -0.615  1.00  0.00    -0.351 N 
ATOM     15  C   UNL     1      -0.073  -2.148  -0.500  1.00  0.00     0.263 C 
ATOM     16  O   UNL     1       0.963  -2.809  -0.667  1.00  0.00    -0.268 OA
ATOM     17  H   UNL     1      -0.958  -3.846  -0.929  1.00  0.00     0.163 HD
BRANCH  15  18
ATOM     18  C   UNL     1      -0.035  -0.706  -0.247  1.00  0.00     0.115 A 
ATOM     19  C   UNL     1      -2.383   0.473  -0.076  1.00  0.00     0.068 C 
ATOM     20  C   UNL     1      -0.909   0.366  -0.068  1.00  0.00     0.062 A 
ATOM     21  N   UNL     1      -0.309   1.605   0.115  1.00  0.00    -0.241 NA
ATOM     22  C   UNL     1       0.991   1.529   0.018  1.00  0.00     0.124 A 
ATOM     23  S   UNL     1       1.598  -0.044  -0.181  1.00  0.00    -0.108 S 
BRANCH  22  24
ATOM     24  C   UNL     1       1.855   2.705   0.070  1.00  0.00     0.013 A 
ATOM     25  C   UNL     1       2.789   2.975  -0.943  1.00  0.00     0.011 A 
ATOM     26  C   UNL     1       1.659   3.648   1.087  1.00  0.00     0.050 A 
ATOM     27  C   UNL     1       3.511   4.172  -0.940  1.00  0.00     0.004 A 
ATOM     28  C   UNL     1       2.388   4.830   1.083  1.00  0.00     0.123 A 
ATOM     29  C   UNL     1       3.308   5.102   0.077  1.00  0.00     0.039 A 
ATOM     30  F   UNL     1       2.189   5.732   2.053  1.00  0.00    -0.207 F 
ENDBRANCH  22  24
ENDBRANCH  15  18
ENDBRANCH  13  14
ENDBRANCH   8  13
ENDBRANCH   4   7
ENDBRANCH   2   3
ENDBRANCH   1   2
BRANCH   1  31
ATOM     31  C   UNL     1      -6.263  -1.307   2.778  1.00  0.00     0.023 C 
BRANCH  31  32
ATOM     32  C   UNL     1      -5.444  -2.155   3.749  1.00  0.00     0.116 C 
BRANCH  32  33
ATOM     33  N   UNL     1      -4.005  -1.969   3.664  1.00  0.00    -0.352 N 
ATOM     34  C   UNL     1      -3.074  -2.078   4.691  1.00  0.00     0.251 C 
ATOM     35  H   UNL     1      -3.648  -1.738   2.776  1.00  0.00     0.163 HD
ATOM     36  O   UNL     1      -1.896  -1.861   4.487  1.00  0.00    -0.269 OA
BRANCH  34  37
ATOM     37  C   UNL     1      -3.569  -2.411   6.048  1.00  0.00     0.039 A 
ATOM     38  C   UNL     1      -3.290  -1.536   7.099  1.00  0.00     0.014 A 
ATOM     39  C   UNL     1      -4.407  -3.509   6.242  1.00  0.00     0.014 A 
ATOM     40  C   UNL     1      -3.944  -1.704   8.324  1.00  0.00     0.010 A 
ATOM     41  C   UNL     1      -5.118  -3.625   7.431  1.00  0.00     0.010 A 
ATOM     42  C   UNL     1      -4.908  -2.715   8.479  1.00  0.00    -0.014 A 
BRANCH  42  43
ATOM     43  C   UNL     1      -5.746  -2.812   9.704  1.00  0.00     0.031 A 
ATOM     44  C   UNL     1      -5.715  -4.057  10.547  1.00  0.00     0.074 A 
ATOM     45  C   UNL     1      -6.627  -1.831   9.990  1.00  0.00     0.049 A 
ATOM     46  N   UNL     1      -6.441  -4.362  11.590  1.00  0.00    -0.248 NA
ATOM     47  C   UNL     1      -4.771  -5.114  10.145  1.00  0.00     0.031 C 
ATOM     48  C   UNL     1      -6.831  -0.617   9.195  1.00  0.00     0.029 A 
ATOM     49  N   UNL     1      -7.537  -1.710  11.012  1.00  0.00    -0.354 N 
ATOM     50  C   UNL     1      -6.078  -5.657  11.940  1.00  0.00     0.074 A 
ATOM     51  C   UNL     1      -5.090  -6.094  10.979  1.00  0.00     0.031 C 
ATOM     52  C   UNL     1      -7.793   0.127   9.763  1.00  0.00     0.029 A 
ATOM     53  C   UNL     1      -8.295  -0.563  10.948  1.00  0.00     0.049 A 
ATOM     54  H   UNL     1      -7.639  -2.382  11.724  1.00  0.00     0.167 HD
ATOM     55  C   UNL     1      -6.501  -6.402  12.987  1.00  0.00     0.034 A 
ATOM     56  C   UNL     1      -9.280  -0.113  11.751  1.00  0.00     0.034 A 
ATOM     57  C   UNL     1      -7.420  -5.935  13.988  1.00  0.00     0.049 A 
ATOM     58  C   UNL     1      -9.666  -0.920  12.961  1.00  0.00     0.074 A 
ATOM     59  C   UNL     1      -7.817  -6.572  15.150  1.00  0.00     0.029 A 
ATOM     60  N   UNL     1      -8.078  -4.716  13.953  1.00  0.00    -0.354 N 
ATOM     61  N   UNL     1      -9.187  -2.071  13.368  1.00  0.00    -0.248 NA
ATOM     62  C   UNL     1     -10.700  -0.356  13.843  1.00  0.00     0.031 C 
ATOM     63  C   UNL     1      -8.721  -5.740  15.816  1.00  0.00     0.029 A 
ATOM     64  C   UNL     1      -8.879  -4.581  15.073  1.00  0.00     0.049 A 
ATOM     65  H   UNL     1      -7.989  -4.046  13.237  1.00  0.00     0.167 HD
ATOM     66  C   UNL     1      -9.837  -2.354  14.563  1.00  0.00     0.074 A 
ATOM     67  C   UNL     1     -10.730  -1.246  14.828  1.00  0.00     0.031 C 
ATOM     68  C   UNL     1      -9.717  -3.445  15.358  1.00  0.00     0.034 A 
BRANCH  55  69
ATOM     69  C   UNL     1      -5.909  -7.774  13.160  1.00  0.00     0.023 A 
ATOM     70  C   UNL     1      -4.580  -7.898  13.613  1.00  0.00     0.012 A 
ATOM     71  C   UNL     1      -6.685  -8.933  12.963  1.00  0.00     0.148 A 
ATOM     72  C   UNL     1      -4.022  -9.154  13.842  1.00  0.00     0.002 A 
ATOM     73  C   UNL     1      -6.135 -10.181  13.234  1.00  0.00     0.091 A 
ATOM     74  F   UNL     1      -7.941  -8.794  12.513  1.00  0.00    -0.205 F 
ATOM     75  C   UNL     1      -4.803 -10.293  13.665  1.00  0.00     0.022 A 
BRANCH  73  76
ATOM     76  S   UNL     1      -7.080 -11.704  13.113  1.00  0.00     0.127 S 
ATOM     77  O   UNL     1      -6.475 -12.332  11.938  1.00  0.00    -0.237 OA
ATOM     78  O   UNL     1      -6.769 -12.361  14.383  1.00  0.00    -0.237 OA
ATOM     79  O   UNL     1      -8.471 -11.303  12.960  1.00  0.00    -0.744 OA
ENDBRANCH  73  76
ENDBRANCH  55  69
BRANCH  56  80
ATOM     80  C   UNL     1      -9.899   1.218  11.483  1.00  0.00     0.023 A 
ATOM     81  C   UNL     1      -9.589   2.299  12.331  1.00  0.00     0.012 A 
ATOM     82  C   UNL     1     -10.730   1.436  10.368  1.00  0.00     0.148 A 
ATOM     83  C   UNL     1     -10.111   3.570  12.085  1.00  0.00     0.002 A 
ATOM     84  C   UNL     1     -11.204   2.716  10.098  1.00  0.00     0.091 A 
ATOM     85  F   UNL     1     -11.025   0.392   9.581  1.00  0.00    -0.205 F 
ATOM     86  C   UNL     1     -10.907   3.781  10.962  1.00  0.00     0.022 A 
BRANCH  84  87
ATOM     87  S   UNL     1     -12.116   3.107   8.600  1.00  0.00     0.127 S 
ATOM     88  O   UNL     1     -13.467   3.310   9.115  1.00  0.00    -0.237 OA
ATOM     89  O   UNL     1     -11.441   4.323   8.142  1.00  0.00    -0.237 OA
ATOM     90  O   UNL     1     -11.936   1.959   7.722  1.00  0.00    -0.744 OA
ENDBRANCH  84  87
ENDBRANCH  56  80
BRANCH  68  91
ATOM     91  C   UNL     1     -10.552  -3.511  16.609  1.00  0.00     0.023 A 
ATOM     92  C   UNL     1     -11.922  -3.818  16.510  1.00  0.00     0.012 A 
ATOM     93  C   UNL     1      -9.953  -3.408  17.881  1.00  0.00     0.148 A 
ATOM     94  C   UNL     1     -12.688  -4.011  17.658  1.00  0.00     0.002 A 
ATOM     95  C   UNL     1     -10.713  -3.644  19.020  1.00  0.00     0.091 A 
ATOM     96  F   UNL     1      -8.650  -3.097  17.951  1.00  0.00    -0.205 F 
ATOM     97  C   UNL     1     -12.082  -3.939  18.911  1.00  0.00     0.022 A 
BRANCH  95  98
ATOM     98  S   UNL     1      -9.995  -3.675  20.667  1.00  0.00     0.127 S 
ATOM     99  O   UNL     1     -10.498  -2.425  21.234  1.00  0.00    -0.237 OA
ATOM    100  O   UNL     1     -10.583  -4.886  21.241  1.00  0.00    -0.237 OA
ATOM    101  O   UNL     1      -8.553  -3.739  20.473  1.00  0.00    -0.744 OA
ENDBRANCH  95  98
ENDBRANCH  68  91
ENDBRANCH  42  43
ENDBRANCH  34  37
ENDBRANCH  32  33
ENDBRANCH  31  32
ENDBRANCH   1  31
TORSDOF 18
