REMARK SMILES C[C@H](O)[C@H](C)[N@H+]1Cc2ccccc2C[C@@H]1C(=O)NCCCCNC(=O)c1ccc(-c2c3nc(c(-c4cccc(S(=O)(=O)[O-])c4F)c4ccc([nH]4)c(-c4cccc(S(=O)(=O)[O-])c4F)c4nc(c(-c5cccc(S(=O)(=O)[O-])c5F)c5ccc2[nH]5)C=C4)C=C3)cc1
REMARK SMILES IDX 20 1 19 2 18 3 16 4 17 5 15 7 6 8 7 9 8 11 14 12 9 13 13 14
REMARK SMILES IDX 10 15 12 16 11 17 4 18 5 19 2 20 1 21 3 22 21 24 22 25 23 26
REMARK SMILES IDX 24 27 25 29 26 30 27 31 88 32 28 33 87 34 29 35 30 36 31 37
REMARK SMILES IDX 81 38 32 39 86 40 80 41 82 42 33 43 85 44 79 45 78 46 34 48
REMARK SMILES IDX 66 49 46 50 65 51 47 52 50 53 64 54 83 55 48 56 49 57 63 59
REMARK SMILES IDX 84 60 51 61 35 62 36 63 44 64 37 65 39 66 45 67 38 68 40 69
REMARK SMILES IDX 41 70 42 71 43 72 67 73 68 74 76 75 69 76 71 77 77 78 70 79
REMARK SMILES IDX 72 80 73 81 74 82 75 83 52 84 53 85 61 86 54 87 56 88 62 89
REMARK SMILES IDX 55 90 57 91 58 92 59 93 60 94
REMARK H PARENT 18 6 6 10 3 23 23 28 82 47 50 58
REMARK Flexibility Score: inf
ROOT
ATOM      1  C   UNL     1      -4.508  -4.458  -0.877  1.00  0.00     0.023 C 
ENDROOT
BRANCH   1   2
ATOM      2  C   UNL     1      -4.192  -3.278   0.033  1.00  0.00     0.116 C 
BRANCH   2   3
ATOM      3  N   UNL     1      -3.662  -3.687   1.317  1.00  0.00    -0.351 N 
ATOM      4  C   UNL     1      -2.393  -3.853   1.771  1.00  0.00     0.278 C 
ATOM      5  O   UNL     1      -2.291  -4.194   2.961  1.00  0.00    -0.268 OA
ATOM      6  H   UNL     1      -4.354  -3.882   1.990  1.00  0.00     0.163 HD
BRANCH   4   7
ATOM      7  C   UNL     1      -1.091  -3.681   0.942  1.00  0.00     0.279 C 
ATOM      8  N   UNL     1      -1.266  -2.951  -0.347  1.00  0.00    -0.316 N 
ATOM      9  C   UNL     1      -0.855  -3.718  -1.536  1.00  0.00     0.300 C 
ATOM     10  H   UNL     1      -2.271  -2.861  -0.495  1.00  0.00     0.349 HD
ATOM     11  C   UNL     1      -1.199  -5.192  -1.466  1.00  0.00     0.010 A 
ATOM     12  C   UNL     1      -0.385  -5.056   0.862  1.00  0.00     0.111 C 
ATOM     13  C   UNL     1      -1.740  -5.893  -2.549  1.00  0.00     0.010 A 
ATOM     14  C   UNL     1      -0.945  -5.870  -0.266  1.00  0.00    -0.033 A 
ATOM     15  C   UNL     1      -2.051  -7.249  -2.419  1.00  0.00     0.001 A 
ATOM     16  C   UNL     1      -1.231  -7.232  -0.146  1.00  0.00     0.004 A 
ATOM     17  C   UNL     1      -1.795  -7.917  -1.221  1.00  0.00     0.000 A 
BRANCH   8  18
ATOM     18  C   UNL     1      -0.789  -1.544  -0.275  1.00  0.00     0.210 C 
ATOM     19  C   UNL     1       0.745  -1.437  -0.359  1.00  0.00     0.078 C 
BRANCH  18  20
ATOM     20  C   UNL     1      -1.429  -0.491  -1.258  1.00  0.00     0.169 C 
ATOM     21  C   UNL     1      -2.634   0.226  -0.656  1.00  0.00     0.045 C 
BRANCH  20  22
ATOM     22  O   UNL     1      -1.831  -1.033  -2.513  1.00  0.00    -0.387 OA
ATOM     23  H   UNL     1      -2.554  -1.664  -2.376  1.00  0.00     0.211 HD
ENDBRANCH  20  22
ENDBRANCH  18  20
ENDBRANCH   8  18
ENDBRANCH   4   7
ENDBRANCH   2   3
ENDBRANCH   1   2
BRANCH   1  24
ATOM     24  C   UNL     1      -5.899  -5.062  -0.712  1.00  0.00     0.023 C 
BRANCH  24  25
ATOM     25  C   UNL     1      -7.057  -4.090  -0.872  1.00  0.00     0.116 C 
BRANCH  25  26
ATOM     26  N   UNL     1      -7.037  -3.333  -2.116  1.00  0.00    -0.352 N 
ATOM     27  C   UNL     1      -8.112  -2.813  -2.801  1.00  0.00     0.251 C 
ATOM     28  H   UNL     1      -6.150  -3.174  -2.514  1.00  0.00     0.163 HD
ATOM     29  O   UNL     1      -7.959  -2.267  -3.889  1.00  0.00    -0.269 OA
BRANCH  27  30
ATOM     30  C   UNL     1      -9.465  -2.965  -2.223  1.00  0.00     0.039 A 
ATOM     31  C   UNL     1     -10.490  -3.481  -3.019  1.00  0.00     0.014 A 
ATOM     32  C   UNL     1      -9.700  -2.652  -0.882  1.00  0.00     0.014 A 
ATOM     33  C   UNL     1     -11.738  -3.743  -2.449  1.00  0.00     0.010 A 
ATOM     34  C   UNL     1     -10.912  -2.996  -0.297  1.00  0.00     0.010 A 
ATOM     35  C   UNL     1     -11.949  -3.531  -1.076  1.00  0.00    -0.014 A 
BRANCH  35  36
ATOM     36  C   UNL     1     -13.252  -3.833  -0.435  1.00  0.00     0.031 A 
ATOM     37  C   UNL     1     -14.049  -2.722   0.197  1.00  0.00     0.074 A 
ATOM     38  C   UNL     1     -13.673  -5.110  -0.337  1.00  0.00     0.049 A 
ATOM     39  N   UNL     1     -15.174  -2.787   0.859  1.00  0.00    -0.248 NA
ATOM     40  C   UNL     1     -13.487  -1.363   0.105  1.00  0.00     0.031 C 
ATOM     41  C   UNL     1     -12.944  -6.284  -0.822  1.00  0.00     0.029 A 
ATOM     42  N   UNL     1     -14.808  -5.636   0.228  1.00  0.00    -0.354 N 
ATOM     43  C   UNL     1     -15.429  -1.494   1.300  1.00  0.00     0.074 A 
ATOM     44  C   UNL     1     -14.320  -0.672   0.868  1.00  0.00     0.031 C 
ATOM     45  C   UNL     1     -13.656  -7.389  -0.546  1.00  0.00     0.029 A 
ATOM     46  C   UNL     1     -14.881  -7.007   0.150  1.00  0.00     0.049 A 
ATOM     47  H   UNL     1     -15.506  -5.083   0.649  1.00  0.00     0.167 HD
ATOM     48  C   UNL     1     -16.507  -1.021   1.968  1.00  0.00     0.034 A 
ATOM     49  C   UNL     1     -15.834  -7.856   0.581  1.00  0.00     0.034 A 
ATOM     50  C   UNL     1     -17.641  -1.826   2.327  1.00  0.00     0.049 A 
ATOM     51  C   UNL     1     -17.068  -7.293   1.234  1.00  0.00     0.074 A 
ATOM     52  C   UNL     1     -18.826  -1.430   2.920  1.00  0.00     0.029 A 
ATOM     53  N   UNL     1     -17.735  -3.193   2.115  1.00  0.00    -0.354 N 
ATOM     54  N   UNL     1     -17.366  -6.043   1.496  1.00  0.00    -0.248 NA
ATOM     55  C   UNL     1     -18.119  -8.251   1.609  1.00  0.00     0.031 C 
ATOM     56  C   UNL     1     -19.639  -2.560   3.065  1.00  0.00     0.029 A 
ATOM     57  C   UNL     1     -18.962  -3.656   2.554  1.00  0.00     0.049 A 
ATOM     58  H   UNL     1     -17.032  -3.751   1.710  1.00  0.00     0.167 HD
ATOM     59  C   UNL     1     -18.651  -6.059   2.026  1.00  0.00     0.074 A 
ATOM     60  C   UNL     1     -19.082  -7.442   2.031  1.00  0.00     0.031 C 
ATOM     61  C   UNL     1     -19.401  -5.026   2.483  1.00  0.00     0.034 A 
BRANCH  48  62
ATOM     62  C   UNL     1     -16.542   0.453   2.277  1.00  0.00     0.023 A 
ATOM     63  C   UNL     1     -16.738   1.374   1.227  1.00  0.00     0.012 A 
ATOM     64  C   UNL     1     -16.419   0.927   3.597  1.00  0.00     0.148 A 
ATOM     65  C   UNL     1     -16.771   2.744   1.479  1.00  0.00     0.002 A 
ATOM     66  C   UNL     1     -16.497   2.293   3.846  1.00  0.00     0.091 A 
ATOM     67  F   UNL     1     -16.208   0.041   4.581  1.00  0.00    -0.205 F 
ATOM     68  C   UNL     1     -16.660   3.203   2.788  1.00  0.00     0.022 A 
BRANCH  66  69
ATOM     69  S   UNL     1     -16.442   2.977   5.506  1.00  0.00     0.127 S 
ATOM     70  O   UNL     1     -15.097   3.547   5.548  1.00  0.00    -0.237 OA
ATOM     71  O   UNL     1     -17.521   3.966   5.471  1.00  0.00    -0.237 OA
ATOM     72  O   UNL     1     -16.680   1.857   6.406  1.00  0.00    -0.744 OA
ENDBRANCH  66  69
ENDBRANCH  48  62
BRANCH  49  73
ATOM     73  C   UNL     1     -15.711  -9.316   0.306  1.00  0.00     0.023 A 
ATOM     74  C   UNL     1     -16.549  -9.902  -0.663  1.00  0.00     0.012 A 
ATOM     75  C   UNL     1     -14.761 -10.118   0.966  1.00  0.00     0.148 A 
ATOM     76  C   UNL     1     -16.466 -11.265  -0.948  1.00  0.00     0.002 A 
ATOM     77  C   UNL     1     -14.649 -11.467   0.642  1.00  0.00     0.091 A 
ATOM     78  F   UNL     1     -13.980  -9.547   1.894  1.00  0.00    -0.205 F 
ATOM     79  C   UNL     1     -15.511 -12.045  -0.303  1.00  0.00     0.022 A 
BRANCH  77  80
ATOM     80  S   UNL     1     -13.365 -12.518   1.332  1.00  0.00     0.127 S 
ATOM     81  O   UNL     1     -14.119 -13.323   2.288  1.00  0.00    -0.237 OA
ATOM     82  O   UNL     1     -12.896 -13.243   0.151  1.00  0.00    -0.237 OA
ATOM     83  O   UNL     1     -12.382 -11.606   1.902  1.00  0.00    -0.744 OA
ENDBRANCH  77  80
ENDBRANCH  49  73
BRANCH  61  84
ATOM     84  C   UNL     1     -20.784  -5.336   2.988  1.00  0.00     0.023 A 
ATOM     85  C   UNL     1     -20.946  -5.962   4.239  1.00  0.00     0.012 A 
ATOM     86  C   UNL     1     -21.921  -4.930   2.262  1.00  0.00     0.148 A 
ATOM     87  C   UNL     1     -22.221  -6.205   4.748  1.00  0.00     0.002 A 
ATOM     88  C   UNL     1     -23.188  -5.136   2.796  1.00  0.00     0.091 A 
ATOM     89  F   UNL     1     -21.746  -4.356   1.062  1.00  0.00    -0.205 F 
ATOM     90  C   UNL     1     -23.340  -5.781   4.034  1.00  0.00     0.022 A 
BRANCH  88  91
ATOM     91  S   UNL     1     -24.673  -4.534   1.984  1.00  0.00     0.127 S 
ATOM     92  O   UNL     1     -25.187  -5.751   1.360  1.00  0.00    -0.237 OA
ATOM     93  O   UNL     1     -25.470  -4.042   3.108  1.00  0.00    -0.237 OA
ATOM     94  O   UNL     1     -24.227  -3.494   1.066  1.00  0.00    -0.744 OA
ENDBRANCH  88  91
ENDBRANCH  61  84
ENDBRANCH  35  36
ENDBRANCH  27  30
ENDBRANCH  25  26
ENDBRANCH  24  25
ENDBRANCH   1  24
TORSDOF 17
