REMARK SMILES CSc1nc2nnc(C(=O)NCCCCNC(=O)c3ccc(-c4c5nc(c(-c6cccc(S(=O)(=O)[O-])c6F)c6ccc([nH]6)c(-c6cccc(S(=O)(=O)[O-])c6F)c6nc(c(-c7cccc(S(=O)(=O)[O-])c7F)c7ccc4[nH]7)C=C6)C=C5)cc3)c(O)n2n1
REMARK SMILES IDX 14 1 13 2 12 3 11 4 9 5 10 6 8 8 3 9 4 10 85 11 5 12 84 13
REMARK SMILES IDX 6 14 82 15 7 16 2 17 1 18 83 19 15 21 16 22 17 23 18 25
REMARK SMILES IDX 19 26 20 27 81 28 21 29 80 30 22 31 23 32 24 33 74 34 25 35
REMARK SMILES IDX 79 36 73 37 75 38 26 39 78 40 72 41 71 42 27 44 59 45 39 46
REMARK SMILES IDX 58 47 40 48 43 49 57 50 76 51 41 52 42 53 56 55 77 56 44 57
REMARK SMILES IDX 28 58 29 59 37 60 30 61 32 62 38 63 31 64 33 65 34 66 35 67
REMARK SMILES IDX 36 68 60 69 61 70 69 71 62 72 64 73 70 74 63 75 65 76 66 77
REMARK SMILES IDX 67 78 68 79 45 80 46 81 54 82 47 83 49 84 55 85 48 86 50 87
REMARK SMILES IDX 51 88 52 89 53 90
REMARK H PARENT 11 7 83 20 16 24 75 43 43 54
REMARK Flexibility Score: inf
ROOT
ATOM      1  C   UNL     1       2.422   2.046  11.562  1.00  0.00     0.023 C 
ENDROOT
BRANCH   1   2
ATOM      2  C   UNL     1       2.228   2.760  10.213  1.00  0.00     0.023 C 
BRANCH   2   3
ATOM      3  C   UNL     1       3.344   2.538   9.186  1.00  0.00     0.116 C 
BRANCH   3   4
ATOM      4  N   UNL     1       3.394   1.157   8.735  1.00  0.00    -0.350 N 
ATOM      5  C   UNL     1       3.047   0.533   7.577  1.00  0.00     0.277 C 
ATOM      6  O   UNL     1       3.159  -0.699   7.550  1.00  0.00    -0.267 OA
ATOM      7  H   UNL     1       3.756   0.541   9.412  1.00  0.00     0.163 HD
BRANCH   5   8
ATOM      8  C   UNL     1       2.534   1.248   6.356  1.00  0.00     0.212 A 
ATOM      9  C   UNL     1       1.092   1.906   2.294  1.00  0.00     0.210 A 
ATOM     10  N   UNL     1       1.171   3.035   3.052  1.00  0.00    -0.182 NA
ATOM     11  N   UNL     1       1.441   0.776   2.905  1.00  0.00    -0.134 NA
ATOM     12  C   UNL     1       1.629   2.592   4.204  1.00  0.00     0.275 A 
ATOM     13  N   UNL     1       1.806   1.216   4.137  1.00  0.00    -0.159 N 
ATOM     14  N   UNL     1       1.911   3.250   5.365  1.00  0.00    -0.108 NA
ATOM     15  C   UNL     1       2.274   0.511   5.247  1.00  0.00     0.249 A 
ATOM     16  N   UNL     1       2.327   2.615   6.373  1.00  0.00    -0.136 NA
BRANCH   9  17
ATOM     17  S   UNL     1       0.516   1.946   0.647  1.00  0.00    -0.088 SA
ATOM     18  C   UNL     1       1.015   0.311   0.066  1.00  0.00     0.094 C 
ENDBRANCH   9  17
BRANCH  15  19
ATOM     19  O   UNL     1       2.427  -0.865   5.135  1.00  0.00    -0.491 OA
ATOM     20  H   UNL     1       2.739  -1.363   5.864  1.00  0.00     0.295 HD
ENDBRANCH  15  19
ENDBRANCH   5   8
ENDBRANCH   3   4
ENDBRANCH   2   3
ENDBRANCH   1   2
BRANCH   1  21
ATOM     21  C   UNL     1       3.641   2.507  12.353  1.00  0.00     0.116 C 
BRANCH  21  22
ATOM     22  N   UNL     1       3.553   3.908  12.761  1.00  0.00    -0.352 N 
ATOM     23  C   UNL     1       4.514   4.650  13.417  1.00  0.00     0.251 C 
ATOM     24  H   UNL     1       2.714   4.375  12.544  1.00  0.00     0.163 HD
ATOM     25  O   UNL     1       4.222   5.689  14.003  1.00  0.00    -0.269 OA
BRANCH  23  26
ATOM     26  C   UNL     1       5.902   4.162  13.405  1.00  0.00     0.039 A 
ATOM     27  C   UNL     1       6.634   4.053  14.591  1.00  0.00     0.014 A 
ATOM     28  C   UNL     1       6.437   3.745  12.188  1.00  0.00     0.014 A 
ATOM     29  C   UNL     1       7.881   3.433  14.559  1.00  0.00     0.010 A 
ATOM     30  C   UNL     1       7.617   3.036  12.177  1.00  0.00     0.010 A 
ATOM     31  C   UNL     1       8.359   2.903  13.352  1.00  0.00    -0.014 A 
BRANCH  31  32
ATOM     32  C   UNL     1       9.592   2.117  13.326  1.00  0.00     0.031 A 
ATOM     33  C   UNL     1       9.631   0.905  14.199  1.00  0.00     0.074 A 
ATOM     34  C   UNL     1      10.547   2.308  12.391  1.00  0.00     0.049 A 
ATOM     35  N   UNL     1      10.470   0.633  15.145  1.00  0.00    -0.248 NA
ATOM     36  C   UNL     1       8.567  -0.099  14.046  1.00  0.00     0.031 C 
ATOM     37  C   UNL     1      10.522   3.231  11.249  1.00  0.00     0.029 A 
ATOM     38  N   UNL     1      11.678   1.583  12.171  1.00  0.00    -0.354 N 
ATOM     39  C   UNL     1      10.162  -0.657  15.583  1.00  0.00     0.074 A 
ATOM     40  C   UNL     1       8.902  -0.996  14.975  1.00  0.00     0.031 C 
ATOM     41  C   UNL     1      11.421   2.824  10.328  1.00  0.00     0.029 A 
ATOM     42  C   UNL     1      12.200   1.740  10.893  1.00  0.00     0.049 A 
ATOM     43  H   UNL     1      12.088   1.004  12.853  1.00  0.00     0.167 HD
ATOM     44  C   UNL     1      11.058  -1.425  16.267  1.00  0.00     0.034 A 
ATOM     45  C   UNL     1      13.174   0.998  10.319  1.00  0.00     0.034 A 
ATOM     46  C   UNL     1      12.169  -0.645  16.747  1.00  0.00     0.049 A 
ATOM     47  C   UNL     1      13.932   0.348  11.410  1.00  0.00     0.074 A 
ATOM     48  C   UNL     1      12.315   0.435  17.593  1.00  0.00     0.029 A 
ATOM     49  N   UNL     1      13.351  -0.741  16.054  1.00  0.00    -0.354 N 
ATOM     50  N   UNL     1      14.652   1.006  12.278  1.00  0.00    -0.248 NA
ATOM     51  C   UNL     1      13.568  -1.004  11.796  1.00  0.00     0.031 C 
ATOM     52  C   UNL     1      13.357   1.214  17.009  1.00  0.00     0.029 A 
ATOM     53  C   UNL     1      13.811   0.536  15.874  1.00  0.00     0.049 A 
ATOM     54  H   UNL     1      13.785  -1.569  15.746  1.00  0.00     0.167 HD
ATOM     55  C   UNL     1      14.449   0.335  13.477  1.00  0.00     0.074 A 
ATOM     56  C   UNL     1      13.886  -0.958  13.092  1.00  0.00     0.031 C 
ATOM     57  C   UNL     1      14.481   0.995  14.674  1.00  0.00     0.034 A 
BRANCH  44  58
ATOM     58  C   UNL     1      11.115  -2.936  16.277  1.00  0.00     0.023 A 
ATOM     59  C   UNL     1      11.995  -3.553  17.199  1.00  0.00     0.012 A 
ATOM     60  C   UNL     1      10.560  -3.764  15.277  1.00  0.00     0.148 A 
ATOM     61  C   UNL     1      12.339  -4.906  17.101  1.00  0.00     0.002 A 
ATOM     62  C   UNL     1      10.840  -5.128  15.235  1.00  0.00     0.091 A 
ATOM     63  F   UNL     1       9.861  -3.223  14.274  1.00  0.00    -0.205 F 
ATOM     64  C   UNL     1      11.753  -5.698  16.124  1.00  0.00     0.022 A 
BRANCH  62  65
ATOM     65  S   UNL     1      10.050  -6.209  14.036  1.00  0.00     0.127 S 
ATOM     66  O   UNL     1      11.117  -6.391  13.056  1.00  0.00    -0.237 OA
ATOM     67  O   UNL     1       9.745  -7.388  14.846  1.00  0.00    -0.237 OA
ATOM     68  O   UNL     1       8.873  -5.479  13.582  1.00  0.00    -0.744 OA
ENDBRANCH  62  65
ENDBRANCH  44  58
BRANCH  45  69
ATOM     69  C   UNL     1      13.361   0.654   8.894  1.00  0.00     0.023 A 
ATOM     70  C   UNL     1      14.639   0.313   8.416  1.00  0.00     0.012 A 
ATOM     71  C   UNL     1      12.246   0.418   8.057  1.00  0.00     0.148 A 
ATOM     72  C   UNL     1      14.802  -0.268   7.153  1.00  0.00     0.002 A 
ATOM     73  C   UNL     1      12.412  -0.155   6.800  1.00  0.00     0.091 A 
ATOM     74  F   UNL     1      11.019   0.677   8.530  1.00  0.00    -0.205 F 
ATOM     75  C   UNL     1      13.690  -0.509   6.349  1.00  0.00     0.022 A 
BRANCH  73  76
ATOM     76  S   UNL     1      11.023  -0.522   5.718  1.00  0.00     0.127 S 
ATOM     77  O   UNL     1      11.452   0.088   4.459  1.00  0.00    -0.237 OA
ATOM     78  O   UNL     1      11.016  -1.982   5.721  1.00  0.00    -0.237 OA
ATOM     79  O   UNL     1       9.862   0.115   6.328  1.00  0.00    -0.744 OA
ENDBRANCH  73  76
ENDBRANCH  45  69
BRANCH  57  80
ATOM     80  C   UNL     1      14.952   2.433  14.696  1.00  0.00     0.023 A 
ATOM     81  C   UNL     1      14.272   3.446  13.987  1.00  0.00     0.012 A 
ATOM     82  C   UNL     1      15.945   2.809  15.618  1.00  0.00     0.148 A 
ATOM     83  C   UNL     1      14.582   4.795  14.176  1.00  0.00     0.002 A 
ATOM     84  C   UNL     1      16.215   4.155  15.843  1.00  0.00     0.091 A 
ATOM     85  F   UNL     1      16.581   1.841  16.295  1.00  0.00    -0.205 F 
ATOM     86  C   UNL     1      15.543   5.151  15.117  1.00  0.00     0.022 A 
BRANCH  84  87
ATOM     87  S   UNL     1      17.329   4.690  17.145  1.00  0.00     0.127 S 
ATOM     88  O   UNL     1      18.503   5.118  16.388  1.00  0.00    -0.237 OA
ATOM     89  O   UNL     1      16.579   5.778  17.775  1.00  0.00    -0.237 OA
ATOM     90  O   UNL     1      17.526   3.530  18.006  1.00  0.00    -0.744 OA
ENDBRANCH  84  87
ENDBRANCH  57  80
ENDBRANCH  31  32
ENDBRANCH  23  26
ENDBRANCH  21  22
ENDBRANCH   1  21
TORSDOF 16
