REMARK SMILES Cc1cc2c(c(C)c1Cl)C=C(C(=O)NCCCCNC(=O)c1ccc(-c3c4nc(c(-c5cccc(S(=O)(=O)[O-])c5F)c5ccc([nH]5)c(-c5cccc(S(=O)(=O)[O-])c5F)c5nc(c(-c6cccc(S(=O)(=O)[O-])c6F)c6ccc3[nH]6)C=C5)C=C4)cc1)[C@H](C(F)(F)F)O2
REMARK SMILES IDX 17 1 16 2 15 3 14 4 12 5 13 6 11 8 1 9 2 10 3 11 8 12 4 13
REMARK SMILES IDX 6 14 9 15 5 16 90 17 7 18 10 19 85 20 86 21 87 22 88 23
REMARK SMILES IDX 89 24 18 25 19 26 20 27 21 29 22 30 23 31 84 32 24 33 83 34
REMARK SMILES IDX 25 35 26 36 27 37 77 38 28 39 82 40 76 41 78 42 29 43 81 44
REMARK SMILES IDX 75 45 74 46 30 48 62 49 42 50 61 51 43 52 46 53 60 54 79 55
REMARK SMILES IDX 44 56 45 57 59 59 80 60 47 61 31 62 32 63 40 64 33 65 35 66
REMARK SMILES IDX 41 67 34 68 36 69 37 70 38 71 39 72 63 73 64 74 72 75 65 76
REMARK SMILES IDX 67 77 73 78 66 79 68 80 69 81 70 82 71 83 48 84 49 85 57 86
REMARK SMILES IDX 50 87 52 88 58 89 51 90 53 91 54 92 55 93 56 94
REMARK H PARENT 14 7 19 28 78 47 46 58
REMARK Flexibility Score: inf
ROOT
ATOM      1  C   UNL     1      -2.404   5.009   9.188  1.00  0.00     0.023 C 
ENDROOT
BRANCH   1   2
ATOM      2  C   UNL     1      -2.295   4.092   7.967  1.00  0.00     0.023 C 
BRANCH   2   3
ATOM      3  C   UNL     1      -2.995   4.619   6.715  1.00  0.00     0.116 C 
BRANCH   3   4
ATOM      4  N   UNL     1      -2.166   5.568   5.997  1.00  0.00    -0.352 N 
ATOM      5  C   UNL     1      -1.380   5.545   4.897  1.00  0.00     0.251 C 
ATOM      6  O   UNL     1      -0.916   6.638   4.557  1.00  0.00    -0.270 OA
ATOM      7  H   UNL     1      -2.178   6.457   6.419  1.00  0.00     0.163 HD
BRANCH   5   8
ATOM      8  C   UNL     1      -1.044   4.330   4.097  1.00  0.00     0.067 C 
ATOM      9  C   UNL     1       1.146  -0.014  -0.228  1.00  0.00     0.046 C 
ATOM     10  C   UNL     1       0.754   1.216   0.546  1.00  0.00    -0.028 A 
ATOM     11  C   UNL     1      -0.063   1.068   1.673  1.00  0.00     0.052 A 
ATOM     12  C   UNL     1       1.185   2.508   0.178  1.00  0.00     0.047 A 
ATOM     13  C   UNL     1      -0.428   2.177   2.428  1.00  0.00     0.128 A 
ATOM     14  C   UNL     1       0.805   3.647   0.928  1.00  0.00    -0.021 A 
ATOM     15  Cl  UNL     1       2.194   2.670  -1.229  1.00  0.00    -0.084 Cl
ATOM     16  C   UNL     1      -0.021   3.465   2.064  1.00  0.00     0.022 A 
ATOM     17  O   UNL     1      -1.225   1.928   3.513  1.00  0.00    -0.475 OA
ATOM     18  C   UNL     1       1.261   5.039   0.557  1.00  0.00     0.047 C 
ATOM     19  C   UNL     1      -0.503   4.577   2.889  1.00  0.00     0.026 C 
ATOM     20  C   UNL     1      -1.157   2.914   4.583  1.00  0.00     0.314 C 
BRANCH  20  21
ATOM     21  C   UNL     1      -0.083   2.517   5.608  1.00  0.00     0.429 C 
ATOM     22  F   UNL     1       0.413   3.576   6.285  1.00  0.00    -0.167 F 
ATOM     23  F   UNL     1      -0.612   1.670   6.530  1.00  0.00    -0.167 F 
ATOM     24  F   UNL     1       0.970   1.881   5.045  1.00  0.00    -0.167 F 
ENDBRANCH  20  21
ENDBRANCH   5   8
ENDBRANCH   3   4
ENDBRANCH   2   3
ENDBRANCH   1   2
BRANCH   1  25
ATOM     25  C   UNL     1      -3.824   5.272   9.677  1.00  0.00     0.116 C 
BRANCH  25  26
ATOM     26  N   UNL     1      -4.590   4.060   9.936  1.00  0.00    -0.352 N 
ATOM     27  C   UNL     1      -5.587   3.882  10.865  1.00  0.00     0.251 C 
ATOM     28  H   UNL     1      -4.367   3.277   9.382  1.00  0.00     0.163 HD
ATOM     29  O   UNL     1      -6.111   2.784  11.028  1.00  0.00    -0.269 OA
BRANCH  27  30
ATOM     30  C   UNL     1      -5.976   5.036  11.696  1.00  0.00     0.039 A 
ATOM     31  C   UNL     1      -5.844   4.942  13.082  1.00  0.00     0.014 A 
ATOM     32  C   UNL     1      -6.347   6.238  11.088  1.00  0.00     0.014 A 
ATOM     33  C   UNL     1      -6.008   6.087  13.861  1.00  0.00     0.010 A 
ATOM     34  C   UNL     1      -6.443   7.390  11.859  1.00  0.00     0.010 A 
ATOM     35  C   UNL     1      -6.268   7.326  13.250  1.00  0.00    -0.014 A 
BRANCH  35  36
ATOM     36  C   UNL     1      -6.332   8.572  14.050  1.00  0.00     0.031 A 
ATOM     37  C   UNL     1      -7.621   9.334  14.150  1.00  0.00     0.074 A 
ATOM     38  C   UNL     1      -5.209   9.054  14.619  1.00  0.00     0.049 A 
ATOM     39  N   UNL     1      -7.869  10.447  14.789  1.00  0.00    -0.248 NA
ATOM     40  C   UNL     1      -8.778   8.793  13.416  1.00  0.00     0.031 C 
ATOM     41  C   UNL     1      -3.880   8.447  14.513  1.00  0.00     0.029 A 
ATOM     42  N   UNL     1      -5.002  10.170  15.390  1.00  0.00    -0.354 N 
ATOM     43  C   UNL     1      -9.195  10.751  14.515  1.00  0.00     0.074 A 
ATOM     44  C   UNL     1      -9.690   9.733  13.616  1.00  0.00     0.031 C 
ATOM     45  C   UNL     1      -3.003   9.183  15.215  1.00  0.00     0.029 A 
ATOM     46  C   UNL     1      -3.700  10.320  15.807  1.00  0.00     0.049 A 
ATOM     47  H   UNL     1      -5.719  10.804  15.622  1.00  0.00     0.167 HD
ATOM     48  C   UNL     1      -9.948  11.762  15.007  1.00  0.00     0.034 A 
ATOM     49  C   UNL     1      -3.139  11.258  16.596  1.00  0.00     0.034 A 
ATOM     50  C   UNL     1      -9.471  12.729  15.953  1.00  0.00     0.049 A 
ATOM     51  C   UNL     1      -4.011  12.339  17.175  1.00  0.00     0.074 A 
ATOM     52  C   UNL     1     -10.179  13.736  16.583  1.00  0.00     0.029 A 
ATOM     53  N   UNL     1      -8.165  12.805  16.413  1.00  0.00    -0.354 N 
ATOM     54  N   UNL     1      -5.302  12.518  17.034  1.00  0.00    -0.248 NA
ATOM     55  C   UNL     1      -3.360  13.329  18.047  1.00  0.00     0.031 C 
ATOM     56  C   UNL     1      -9.300  14.421  17.428  1.00  0.00     0.029 A 
ATOM     57  C   UNL     1      -8.046  13.840  17.322  1.00  0.00     0.049 A 
ATOM     58  H   UNL     1      -7.432  12.210  16.135  1.00  0.00     0.167 HD
ATOM     59  C   UNL     1      -5.624  13.619  17.818  1.00  0.00     0.074 A 
ATOM     60  C   UNL     1      -4.396  14.057  18.448  1.00  0.00     0.031 C 
ATOM     61  C   UNL     1      -6.826  14.223  17.986  1.00  0.00     0.034 A 
BRANCH  48  62
ATOM     62  C   UNL     1     -11.396  11.809  14.605  1.00  0.00     0.023 A 
ATOM     63  C   UNL     1     -12.290  10.876  15.170  1.00  0.00     0.012 A 
ATOM     64  C   UNL     1     -11.886  12.793  13.726  1.00  0.00     0.148 A 
ATOM     65  C   UNL     1     -13.645  10.903  14.846  1.00  0.00     0.002 A 
ATOM     66  C   UNL     1     -13.245  12.836  13.435  1.00  0.00     0.091 A 
ATOM     67  F   UNL     1     -11.016  13.654  13.179  1.00  0.00    -0.205 F 
ATOM     68  C   UNL     1     -14.123  11.889  13.988  1.00  0.00     0.022 A 
BRANCH  66  69
ATOM     69  S   UNL     1     -13.969  14.107  12.391  1.00  0.00     0.127 S 
ATOM     70  O   UNL     1     -14.231  13.362  11.160  1.00  0.00    -0.237 OA
ATOM     71  O   UNL     1     -15.167  14.482  13.143  1.00  0.00    -0.237 OA
ATOM     72  O   UNL     1     -12.966  15.157  12.289  1.00  0.00    -0.744 OA
ENDBRANCH  66  69
ENDBRANCH  48  62
BRANCH  49  73
ATOM     73  C   UNL     1      -1.704  11.135  16.982  1.00  0.00     0.023 A 
ATOM     74  C   UNL     1      -1.386  10.737  18.295  1.00  0.00     0.012 A 
ATOM     75  C   UNL     1      -0.663  11.341  16.056  1.00  0.00     0.148 A 
ATOM     76  C   UNL     1      -0.059  10.562  18.686  1.00  0.00     0.002 A 
ATOM     77  C   UNL     1       0.657  11.118  16.439  1.00  0.00     0.091 A 
ATOM     78  F   UNL     1      -0.983  11.735  14.816  1.00  0.00    -0.205 F 
ATOM     79  C   UNL     1       0.962  10.740  17.756  1.00  0.00     0.022 A 
BRANCH  77  80
ATOM     80  S   UNL     1       2.020  11.198  15.270  1.00  0.00     0.127 S 
ATOM     81  O   UNL     1       2.638  12.474  15.617  1.00  0.00    -0.237 OA
ATOM     82  O   UNL     1       2.803  10.015  15.630  1.00  0.00    -0.237 OA
ATOM     83  O   UNL     1       1.402  11.124  13.952  1.00  0.00    -0.744 OA
ENDBRANCH  77  80
ENDBRANCH  49  73
BRANCH  61  84
ATOM     84  C   UNL     1      -6.896  15.425  18.888  1.00  0.00     0.023 A 
ATOM     85  C   UNL     1      -6.442  16.668  18.408  1.00  0.00     0.012 A 
ATOM     86  C   UNL     1      -7.540  15.353  20.139  1.00  0.00     0.148 A 
ATOM     87  C   UNL     1      -6.624  17.825  19.163  1.00  0.00     0.002 A 
ATOM     88  C   UNL     1      -7.754  16.517  20.867  1.00  0.00     0.091 A 
ATOM     89  F   UNL     1      -7.949  14.155  20.580  1.00  0.00    -0.205 F 
ATOM     90  C   UNL     1      -7.292  17.752  20.384  1.00  0.00     0.022 A 
BRANCH  88  91
ATOM     91  S   UNL     1      -8.691  16.536  22.401  1.00  0.00     0.127 S 
ATOM     92  O   UNL     1      -7.641  16.779  23.388  1.00  0.00    -0.237 OA
ATOM     93  O   UNL     1      -9.605  17.660  22.193  1.00  0.00    -0.237 OA
ATOM     94  O   UNL     1      -9.343  15.236  22.489  1.00  0.00    -0.744 OA
ENDBRANCH  88  91
ENDBRANCH  61  84
ENDBRANCH  35  36
ENDBRANCH  27  30
ENDBRANCH  25  26
ENDBRANCH   1  25
TORSDOF 15
