REMARK SMILES O=C(CCN1C(=O)/C(=C2/C(=O)N(Cc3ccccc3)c3ccccc32)SC1=S)NCCCCNC(=O)c1ccc(-c2c3nc(c(-c4cccc(S(=O)(=O)[O-])c4F)c4ccc([nH]4)c(-c4cccc(S(=O)(=O)[O-])c4F)c4nc(c(-c5cccc(S(=O)(=O)[O-])c5F)c5ccc2[nH]5)C=C4)C=C3)cc1
REMARK SMILES IDX 31 1 30 2 29 3 1 4 2 5 3 7 4 8 5 9 6 10 27 11 7 12 8 13
REMARK SMILES IDX 26 14 28 15 9 16 10 17 25 18 11 19 12 20 20 21 24 22 21 23
REMARK SMILES IDX 23 24 22 25 13 26 14 27 15 28 19 29 16 30 18 31 17 32 32 33
REMARK SMILES IDX 33 34 34 35 35 36 36 38 37 39 38 40 99 41 39 42 98 43 40 44
REMARK SMILES IDX 41 45 42 46 92 47 43 48 97 49 91 50 93 51 44 52 96 53 90 54
REMARK SMILES IDX 89 55 45 57 77 58 57 59 76 60 58 61 61 62 75 63 94 64 59 65
REMARK SMILES IDX 60 66 74 68 95 69 62 70 46 71 47 72 55 73 48 74 50 75 56 76
REMARK SMILES IDX 49 77 51 78 52 79 53 80 54 81 78 82 79 83 87 84 80 85 82 86
REMARK SMILES IDX 88 87 81 88 83 89 84 90 85 91 86 92 63 93 64 94 72 95 65 96
REMARK SMILES IDX 67 97 73 98 66 99 68 100 69 101 70 102 71 103
REMARK H PARENT 29 6 34 37 93 56 61 67
REMARK Flexibility Score: inf
ROOT
ATOM      1  C   UNL     1       2.155  -2.715   2.430  1.00  0.00     0.023 C 
ENDROOT
BRANCH   1   2
ATOM      2  C   UNL     1       1.786  -1.233   2.372  1.00  0.00     0.116 C 
BRANCH   2   3
ATOM      3  N   UNL     1       2.476  -0.531   1.305  1.00  0.00    -0.356 N 
ATOM      4  O   UNL     1       0.600  -0.118   0.068  1.00  0.00    -0.275 OA
ATOM      5  C   UNL     1       1.819  -0.036   0.208  1.00  0.00     0.221 C 
ATOM      6  H   UNL     1       3.450  -0.407   1.371  1.00  0.00     0.163 HD
BRANCH   5   7
ATOM      7  C   UNL     1       2.671   0.547  -0.899  1.00  0.00     0.122 C 
BRANCH   7   8
ATOM      8  C   UNL     1       3.960   1.262  -0.520  1.00  0.00     0.137 C 
BRANCH   8   9
ATOM      9  N   UNL     1       5.097   0.524   0.059  1.00  0.00    -0.292 N 
ATOM     10  C   UNL     1       5.938   1.252   0.901  1.00  0.00     0.267 C 
ATOM     11  C   UNL     1       5.571  -0.728  -0.275  1.00  0.00     0.148 C 
ATOM     12  O   UNL     1       5.624   2.275   1.491  1.00  0.00    -0.268 OA
ATOM     13  C   UNL     1       7.257   0.576   1.022  1.00  0.00     0.093 C 
ATOM     14  S   UNL     1       6.951  -1.102   0.748  1.00  0.00    -0.053 SA
ATOM     15  S   UNL     1       5.041  -1.802  -1.427  1.00  0.00    -0.052 S 
ATOM     16  C   UNL     1       8.461   1.167   1.106  1.00  0.00     0.069 C 
ATOM     17  C   UNL     1       9.760   0.385   1.172  1.00  0.00     0.260 C 
ATOM     18  C   UNL     1       8.839   2.593   1.069  1.00  0.00     0.012 A 
ATOM     19  O   UNL     1       9.881  -0.827   1.201  1.00  0.00    -0.269 OA
ATOM     20  N   UNL     1      10.770   1.338   1.188  1.00  0.00    -0.303 N 
ATOM     21  C   UNL     1      10.235   2.637   1.190  1.00  0.00     0.052 A 
ATOM     22  C   UNL     1       8.139   3.773   0.855  1.00  0.00     0.011 A 
ATOM     23  C   UNL     1      10.922   3.839   1.250  1.00  0.00     0.027 A 
ATOM     24  C   UNL     1       8.836   4.987   0.826  1.00  0.00     0.001 A 
ATOM     25  C   UNL     1      10.216   5.022   1.043  1.00  0.00     0.002 A 
BRANCH  20  26
ATOM     26  C   UNL     1      12.182   0.998   1.108  1.00  0.00     0.161 C 
BRANCH  26  27
ATOM     27  C   UNL     1      12.767   1.107  -0.293  1.00  0.00    -0.028 A 
ATOM     28  C   UNL     1      13.105   2.347  -0.858  1.00  0.00     0.005 A 
ATOM     29  C   UNL     1      13.035  -0.046  -1.047  1.00  0.00     0.005 A 
ATOM     30  C   UNL     1      13.665   2.443  -2.134  1.00  0.00     0.000 A 
ATOM     31  C   UNL     1      13.620   0.047  -2.317  1.00  0.00     0.000 A 
ATOM     32  C   UNL     1      13.927   1.291  -2.863  1.00  0.00     0.000 A 
ENDBRANCH  26  27
ENDBRANCH  20  26
ENDBRANCH   8   9
ENDBRANCH   7   8
ENDBRANCH   5   7
ENDBRANCH   2   3
ENDBRANCH   1   2
BRANCH   1  33
ATOM     33  C   UNL     1       3.639  -3.016   2.644  1.00  0.00     0.023 C 
BRANCH  33  34
ATOM     34  C   UNL     1       4.293  -2.325   3.834  1.00  0.00     0.116 C 
BRANCH  34  35
ATOM     35  N   UNL     1       3.776  -2.771   5.118  1.00  0.00    -0.352 N 
ATOM     36  C   UNL     1       4.464  -3.231   6.221  1.00  0.00     0.251 C 
ATOM     37  H   UNL     1       2.797  -2.740   5.213  1.00  0.00     0.163 HD
ATOM     38  O   UNL     1       3.844  -3.680   7.181  1.00  0.00    -0.269 OA
BRANCH  36  39
ATOM     39  C   UNL     1       5.946  -3.224   6.225  1.00  0.00     0.039 A 
ATOM     40  C   UNL     1       6.658  -2.116   5.760  1.00  0.00     0.014 A 
ATOM     41  C   UNL     1       6.633  -4.362   6.656  1.00  0.00     0.014 A 
ATOM     42  C   UNL     1       8.027  -2.220   5.538  1.00  0.00     0.010 A 
ATOM     43  C   UNL     1       8.024  -4.427   6.524  1.00  0.00     0.010 A 
ATOM     44  C   UNL     1       8.727  -3.381   5.906  1.00  0.00    -0.014 A 
BRANCH  44  45
ATOM     45  C   UNL     1      10.185  -3.481   5.624  1.00  0.00     0.031 A 
ATOM     46  C   UNL     1      10.727  -4.538   4.696  1.00  0.00     0.074 A 
ATOM     47  C   UNL     1      11.029  -2.587   6.175  1.00  0.00     0.049 A 
ATOM     48  N   UNL     1      11.968  -4.766   4.345  1.00  0.00    -0.248 NA
ATOM     49  C   UNL     1       9.757  -5.466   4.091  1.00  0.00     0.031 C 
ATOM     50  C   UNL     1      10.640  -1.524   7.103  1.00  0.00     0.029 A 
ATOM     51  N   UNL     1      12.384  -2.424   6.032  1.00  0.00    -0.354 N 
ATOM     52  C   UNL     1      11.931  -5.868   3.499  1.00  0.00     0.074 A 
ATOM     53  C   UNL     1      10.549  -6.286   3.413  1.00  0.00     0.031 C 
ATOM     54  C   UNL     1      11.723  -0.802   7.423  1.00  0.00     0.029 A 
ATOM     55  C   UNL     1      12.892  -1.381   6.767  1.00  0.00     0.049 A 
ATOM     56  H   UNL     1      12.939  -3.000   5.457  1.00  0.00     0.167 HD
ATOM     57  C   UNL     1      12.947  -6.461   2.829  1.00  0.00     0.034 A 
ATOM     58  C   UNL     1      14.156  -0.941   6.919  1.00  0.00     0.034 A 
ATOM     59  C   UNL     1      14.316  -6.024   2.877  1.00  0.00     0.049 A 
ATOM     60  C   UNL     1      15.271  -1.620   6.184  1.00  0.00     0.074 A 
ATOM     61  C   UNL     1      15.408  -6.549   2.208  1.00  0.00     0.029 A 
ATOM     62  N   UNL     1      14.783  -4.957   3.629  1.00  0.00    -0.354 N 
ATOM     63  N   UNL     1      15.205  -2.624   5.344  1.00  0.00    -0.248 NA
ATOM     64  C   UNL     1      16.629  -1.101   6.397  1.00  0.00     0.031 C 
ATOM     65  C   UNL     1      16.538  -5.807   2.564  1.00  0.00     0.029 A 
ATOM     66  C   UNL     1      16.146  -4.808   3.440  1.00  0.00     0.049 A 
ATOM     67  H   UNL     1      14.227  -4.389   4.210  1.00  0.00     0.167 HD
ATOM     68  C   UNL     1      16.507  -2.852   4.919  1.00  0.00     0.074 A 
ATOM     69  C   UNL     1      17.341  -1.869   5.580  1.00  0.00     0.031 C 
ATOM     70  C   UNL     1      16.964  -3.802   4.068  1.00  0.00     0.034 A 
BRANCH  57  71
ATOM     71  C   UNL     1      12.614  -7.621   1.929  1.00  0.00     0.023 A 
ATOM     72  C   UNL     1      12.001  -7.371   0.685  1.00  0.00     0.012 A 
ATOM     73  C   UNL     1      12.976  -8.939   2.272  1.00  0.00     0.148 A 
ATOM     74  C   UNL     1      11.736  -8.417  -0.199  1.00  0.00     0.002 A 
ATOM     75  C   UNL     1      12.736  -9.973   1.373  1.00  0.00     0.091 A 
ATOM     76  F   UNL     1      13.549  -9.154   3.464  1.00  0.00    -0.205 F 
ATOM     77  C   UNL     1      12.112  -9.714   0.141  1.00  0.00     0.022 A 
BRANCH  75  78
ATOM     78  S   UNL     1      13.223 -11.673   1.689  1.00  0.00     0.127 S 
ATOM     79  O   UNL     1      11.924 -12.335   1.801  1.00  0.00    -0.237 OA
ATOM     80  O   UNL     1      13.975 -12.007   0.479  1.00  0.00    -0.237 OA
ATOM     81  O   UNL     1      14.012 -11.647   2.912  1.00  0.00    -0.744 OA
ENDBRANCH  75  78
ENDBRANCH  57  71
BRANCH  58  82
ATOM     82  C   UNL     1      14.394   0.240   7.790  1.00  0.00     0.023 A 
ATOM     83  C   UNL     1      14.606   1.500   7.203  1.00  0.00     0.012 A 
ATOM     84  C   UNL     1      14.275   0.136   9.190  1.00  0.00     0.148 A 
ATOM     85  C   UNL     1      14.687   2.644   7.997  1.00  0.00     0.002 A 
ATOM     86  C   UNL     1      14.316   1.283   9.971  1.00  0.00     0.091 A 
ATOM     87  F   UNL     1      14.066  -1.078   9.718  1.00  0.00    -0.205 F 
ATOM     88  C   UNL     1      14.528   2.538   9.377  1.00  0.00     0.022 A 
BRANCH  86  89
ATOM     89  S   UNL     1      14.013   1.264  11.741  1.00  0.00     0.127 S 
ATOM     90  O   UNL     1      15.255   1.830  12.262  1.00  0.00    -0.237 OA
ATOM     91  O   UNL     1      12.845   2.138  11.849  1.00  0.00    -0.237 OA
ATOM     92  O   UNL     1      13.771  -0.129  12.089  1.00  0.00    -0.744 OA
ENDBRANCH  86  89
ENDBRANCH  58  82
BRANCH  70  93
ATOM     93  C   UNL     1      18.438  -3.839   3.771  1.00  0.00     0.023 A 
ATOM     94  C   UNL     1      19.317  -4.422   4.703  1.00  0.00     0.012 A 
ATOM     95  C   UNL     1      18.927  -3.424   2.517  1.00  0.00     0.148 A 
ATOM     96  C   UNL     1      20.666  -4.589   4.392  1.00  0.00     0.002 A 
ATOM     97  C   UNL     1      20.265  -3.622   2.201  1.00  0.00     0.091 A 
ATOM     98  F   UNL     1      18.068  -2.867   1.651  1.00  0.00    -0.205 F 
ATOM     99  C   UNL     1      21.137  -4.202   3.139  1.00  0.00     0.022 A 
BRANCH  97 100
ATOM    100  S   UNL     1      20.954  -3.219   0.592  1.00  0.00     0.127 S 
ATOM    101  O   UNL     1      21.903  -2.159   0.932  1.00  0.00    -0.237 OA
ATOM    102  O   UNL     1      21.570  -4.484   0.194  1.00  0.00    -0.237 OA
ATOM    103  O   UNL     1      19.832  -2.798  -0.236  1.00  0.00    -0.744 OA
ENDBRANCH  97 100
ENDBRANCH  70  93
ENDBRANCH  44  45
ENDBRANCH  36  39
ENDBRANCH  34  35
ENDBRANCH  33  34
ENDBRANCH   1  33
TORSDOF 18
