REMARK SMILES O=C(C[C@H](C(=O)NCCCCNC(=O)c1ccc(-c2c3nc(c(-c4cccc(S(=O)(=O)[O-])c4F)c4ccc([nH]4)c(-c4cccc(S(=O)(=O)[O-])c4F)c4nc(c(-c5cccc(S(=O)(=O)[O-])c5F)c5ccc2[nH]5)C=C4)C=C3)cc1)c1ccccc1)Nc1ccc(Cl)cc1Cl
REMARK SMILES IDX 9 1 8 2 7 3 5 4 6 5 4 7 3 8 2 9 1 10 84 11 85 13 86 14 91 15
REMARK SMILES IDX 87 16 90 17 92 18 88 19 89 20 78 21 79 22 83 23 80 24 82 25
REMARK SMILES IDX 81 26 10 27 11 28 12 29 13 30 14 32 15 33 16 34 77 35 17 36
REMARK SMILES IDX 76 37 18 38 19 39 20 40 70 41 21 42 75 43 69 44 71 45 22 46
REMARK SMILES IDX 74 47 68 48 67 49 23 51 55 52 35 53 54 54 36 55 39 56 53 57
REMARK SMILES IDX 72 58 37 59 38 60 52 62 73 63 40 64 24 65 25 66 33 67 26 68
REMARK SMILES IDX 28 69 34 70 27 71 29 72 30 73 31 74 32 75 56 76 57 77 65 78
REMARK SMILES IDX 58 79 60 80 66 81 59 82 61 83 62 84 63 85 64 86 41 87 42 88
REMARK SMILES IDX 50 89 43 90 45 91 51 92 44 93 46 94 47 95 48 96 49 97
REMARK H PARENT 7 6 84 12 12 31 71 50 39 61
REMARK Flexibility Score: inf
ROOT
ATOM      1  C   UNL     1       5.020   0.485   2.683  1.00  0.00     0.023 C 
ENDROOT
BRANCH   1   2
ATOM      2  C   UNL     1       5.313   0.100   1.112  1.00  0.00     0.116 C 
BRANCH   2   3
ATOM      3  N   UNL     1       4.674  -0.988   0.322  1.00  0.00    -0.356 N 
ATOM      4  C   UNL     1       3.962  -1.226  -0.812  1.00  0.00     0.228 C 
ATOM      5  O   UNL     1       3.565  -2.381  -1.019  1.00  0.00    -0.274 OA
ATOM      6  H   UNL     1       4.819  -1.843   0.788  1.00  0.00     0.163 HD
BRANCH   4   7
ATOM      7  C   UNL     1       3.559  -0.139  -1.770  1.00  0.00     0.118 C 
BRANCH   7   8
ATOM      8  C   UNL     1       3.019   1.003  -0.925  1.00  0.00     0.118 C 
BRANCH   8   9
ATOM      9  C   UNL     1       2.556   0.683   0.559  1.00  0.00     0.225 C 
ATOM     10  O   UNL     1       2.609   1.692   1.269  1.00  0.00    -0.275 OA
ATOM     11  N   UNL     1       1.992  -0.590   0.928  1.00  0.00    -0.325 N 
ATOM     12  H   UNL     1       1.482  -1.010   0.199  1.00  0.00     0.169 HD
BRANCH  11  13
ATOM     13  C   UNL     1       2.013  -1.433   2.203  1.00  0.00     0.060 A 
ATOM     14  C   UNL     1       0.805  -1.656   2.892  1.00  0.00     0.029 A 
ATOM     15  C   UNL     1       2.987  -2.318   2.733  1.00  0.00     0.066 A 
ATOM     16  C   UNL     1       0.665  -2.401   4.198  1.00  0.00     0.023 A 
ATOM     17  C   UNL     1       2.778  -3.131   3.928  1.00  0.00     0.043 A 
ATOM     18  Cl  UNL     1       4.590  -2.765   2.223  1.00  0.00    -0.082 Cl
ATOM     19  C   UNL     1       1.745  -3.072   4.981  1.00  0.00     0.042 A 
ATOM     20  Cl  UNL     1       1.990  -3.663   7.374  1.00  0.00    -0.084 Cl
ENDBRANCH  11  13
ENDBRANCH   8   9
ENDBRANCH   7   8
BRANCH   7  21
ATOM     21  C   UNL     1       4.554  -0.053  -2.945  1.00  0.00    -0.035 A 
ATOM     22  C   UNL     1       4.843  -1.274  -3.613  1.00  0.00     0.004 A 
ATOM     23  C   UNL     1       5.163   1.096  -3.465  1.00  0.00     0.004 A 
ATOM     24  C   UNL     1       5.720  -1.365  -4.696  1.00  0.00     0.000 A 
ATOM     25  C   UNL     1       6.042   1.006  -4.572  1.00  0.00     0.000 A 
ATOM     26  C   UNL     1       6.328  -0.220  -5.178  1.00  0.00     0.000 A 
ENDBRANCH   7  21
ENDBRANCH   4   7
ENDBRANCH   2   3
ENDBRANCH   1   2
BRANCH   1  27
ATOM     27  C   UNL     1       3.753   0.954   3.506  1.00  0.00     0.023 C 
BRANCH  27  28
ATOM     28  C   UNL     1       3.340   0.334   4.851  1.00  0.00     0.116 C 
BRANCH  28  29
ATOM     29  N   UNL     1       4.385  -0.112   5.729  1.00  0.00    -0.352 N 
ATOM     30  C   UNL     1       4.482  -1.339   6.352  1.00  0.00     0.251 C 
ATOM     31  H   UNL     1       5.111   0.528   5.907  1.00  0.00     0.163 HD
ATOM     32  O   UNL     1       5.499  -1.664   6.951  1.00  0.00    -0.269 OA
BRANCH  30  33
ATOM     33  C   UNL     1       3.332  -2.262   6.281  1.00  0.00     0.039 A 
ATOM     34  C   UNL     1       1.675  -1.601   6.598  1.00  0.00     0.014 A 
ATOM     35  C   UNL     1       3.550  -4.038   5.910  1.00  0.00     0.014 A 
ATOM     36  C   UNL     1       0.225  -2.701   6.557  1.00  0.00     0.010 A 
ATOM     37  C   UNL     1       2.059  -5.095   5.681  1.00  0.00     0.010 A 
ATOM     38  C   UNL     1       0.381  -4.474   6.081  1.00  0.00    -0.014 A 
BRANCH  38  39
ATOM     39  C   UNL     1      -0.688  -5.457   6.703  1.00  0.00     0.031 A 
ATOM     40  C   UNL     1      -0.353  -6.861   7.252  1.00  0.00     0.074 A 
ATOM     41  C   UNL     1      -1.947  -5.043   7.005  1.00  0.00     0.049 A 
ATOM     42  N   UNL     1      -1.173  -7.838   7.595  1.00  0.00    -0.248 NA
ATOM     43  C   UNL     1       1.052  -7.236   7.441  1.00  0.00     0.031 C 
ATOM     44  C   UNL     1      -2.524  -3.745   6.682  1.00  0.00     0.029 A 
ATOM     45  N   UNL     1      -2.965  -5.652   7.726  1.00  0.00    -0.354 N 
ATOM     46  C   UNL     1      -0.379  -8.953   7.883  1.00  0.00     0.074 A 
ATOM     47  C   UNL     1       0.987  -8.538   7.676  1.00  0.00     0.031 C 
ATOM     48  C   UNL     1      -3.667  -3.569   7.354  1.00  0.00     0.029 A 
ATOM     49  C   UNL     1      -4.074  -4.850   7.910  1.00  0.00     0.049 A 
ATOM     50  H   UNL     1      -2.902  -6.571   8.074  1.00  0.00     0.167 HD
ATOM     51  C   UNL     1      -0.718 -10.194   8.323  1.00  0.00     0.034 A 
ATOM     52  C   UNL     1      -5.331  -5.097   8.343  1.00  0.00     0.034 A 
ATOM     53  C   UNL     1      -2.038 -10.591   8.745  1.00  0.00     0.049 A 
ATOM     54  C   UNL     1      -5.724  -6.491   8.735  1.00  0.00     0.074 A 
ATOM     55  C   UNL     1      -2.460 -11.830   9.204  1.00  0.00     0.029 A 
ATOM     56  N   UNL     1      -3.136  -9.753   8.812  1.00  0.00    -0.354 N 
ATOM     57  N   UNL     1      -4.975  -7.556   8.853  1.00  0.00    -0.248 NA
ATOM     58  C   UNL     1      -7.147  -6.722   9.032  1.00  0.00     0.031 C 
ATOM     59  C   UNL     1      -3.825 -11.754   9.497  1.00  0.00     0.029 A 
ATOM     60  C   UNL     1      -4.237 -10.451   9.284  1.00  0.00     0.049 A 
ATOM     61  H   UNL     1      -3.136  -8.801   8.562  1.00  0.00     0.167 HD
ATOM     62  C   UNL     1      -5.828  -8.574   9.264  1.00  0.00     0.074 A 
ATOM     63  C   UNL     1      -7.145  -7.994   9.402  1.00  0.00     0.031 C 
ATOM     64  C   UNL     1      -5.540  -9.878   9.486  1.00  0.00     0.034 A 
BRANCH  51  65
ATOM     65  C   UNL     1       0.356 -11.265   8.358  1.00  0.00     0.023 A 
ATOM     66  C   UNL     1       1.380 -11.252   9.326  1.00  0.00     0.012 A 
ATOM     67  C   UNL     1       0.290 -12.343   7.447  1.00  0.00     0.148 A 
ATOM     68  C   UNL     1       2.348 -12.259   9.351  1.00  0.00     0.002 A 
ATOM     69  C   UNL     1       1.222 -13.372   7.515  1.00  0.00     0.091 A 
ATOM     70  F   UNL     1      -0.692 -12.346   6.534  1.00  0.00    -0.205 F 
ATOM     71  C   UNL     1       2.264 -13.322   8.454  1.00  0.00     0.022 A 
BRANCH  69  72
ATOM     72  S   UNL     1       1.137 -14.829   6.466  1.00  0.00     0.127 S 
ATOM     73  O   UNL     1       2.313 -14.649   5.616  1.00  0.00    -0.237 OA
ATOM     74  O   UNL     1       1.250 -15.915   7.440  1.00  0.00    -0.237 OA
ATOM     75  O   UNL     1      -0.145 -14.759   5.779  1.00  0.00    -0.744 OA
ENDBRANCH  69  72
ENDBRANCH  51  65
BRANCH  52  76
ATOM     76  C   UNL     1      -6.375  -4.021   8.287  1.00  0.00     0.023 A 
ATOM     77  C   UNL     1      -7.034  -3.596   9.457  1.00  0.00     0.012 A 
ATOM     78  C   UNL     1      -6.735  -3.436   7.055  1.00  0.00     0.148 A 
ATOM     79  C   UNL     1      -8.041  -2.629   9.393  1.00  0.00     0.002 A 
ATOM     80  C   UNL     1      -7.668  -2.410   7.012  1.00  0.00     0.091 A 
ATOM     81  F   UNL     1      -6.139  -3.883   5.939  1.00  0.00    -0.205 F 
ATOM     82  C   UNL     1      -8.344  -2.022   8.175  1.00  0.00     0.022 A 
BRANCH  80  83
ATOM     83  S   UNL     1      -7.978  -1.469   5.514  1.00  0.00     0.127 S 
ATOM     84  O   UNL     1      -9.329  -1.896   5.166  1.00  0.00    -0.237 OA
ATOM     85  O   UNL     1      -7.869  -0.092   5.998  1.00  0.00    -0.237 OA
ATOM     86  O   UNL     1      -6.928  -1.856   4.580  1.00  0.00    -0.744 OA
ENDBRANCH  80  83
ENDBRANCH  52  76
BRANCH  64  87
ATOM     87  C   UNL     1      -6.645 -10.766   9.993  1.00  0.00     0.023 A 
ATOM     88  C   UNL     1      -7.721 -11.121   9.155  1.00  0.00     0.012 A 
ATOM     89  C   UNL     1      -6.594 -11.278  11.305  1.00  0.00     0.148 A 
ATOM     90  C   UNL     1      -8.750 -11.934   9.630  1.00  0.00     0.002 A 
ATOM     91  C   UNL     1      -7.593 -12.133  11.752  1.00  0.00     0.091 A 
ATOM     92  F   UNL     1      -5.572 -10.914  12.093  1.00  0.00    -0.205 F 
ATOM     93  C   UNL     1      -8.681 -12.448  10.923  1.00  0.00     0.022 A 
BRANCH  91  94
ATOM     94  S   UNL     1      -7.539 -12.916  13.367  1.00  0.00     0.127 S 
ATOM     95  O   UNL     1      -8.646 -12.254  14.056  1.00  0.00    -0.237 OA
ATOM     96  O   UNL     1      -7.780 -14.321  13.036  1.00  0.00    -0.237 OA
ATOM     97  O   UNL     1      -6.216 -12.639  13.908  1.00  0.00    -0.744 OA
ENDBRANCH  91  94
ENDBRANCH  64  87
ENDBRANCH  38  39
ENDBRANCH  30  33
ENDBRANCH  28  29
ENDBRANCH  27  28
ENDBRANCH   1  27
TORSDOF 18
