REMARK SMILES COc1cc2c(cc1OC)-c1c(c(C(=O)Nc3ccc(C(=O)NCCCCNC(=O)c4ccc(-c5c6nc(c(-c7cccc(S(=O)(=O)[O-])c7F)c7ccc([nH]7)c(-c7cccc(S(=O)(=O)[O-])c7F)c7nc(c(-c8cccc(S(=O)(=O)[O-])c8F)c8ccc5[nH]8)C=C7)C=C6)cc4)cc3)nn1-c1ccc(F)cc1)C2
REMARK SMILES IDX 25 1 24 2 23 3 21 4 22 5 20 7 17 8 18 9 95 10 19 11 94 12
REMARK SMILES IDX 16 13 14 14 15 15 13 17 3 18 4 19 8 20 5 21 7 22 6 23 105 24
REMARK SMILES IDX 11 25 12 26 97 27 96 28 2 29 1 30 9 31 10 32 98 33 99 34
REMARK SMILES IDX 104 35 100 36 103 37 101 38 102 39 26 40 27 41 28 42 29 43
REMARK SMILES IDX 30 45 31 46 32 47 93 48 33 49 92 50 34 51 35 52 36 53 86 54
REMARK SMILES IDX 37 55 91 56 85 57 87 58 38 59 90 60 84 61 83 62 39 64 71 65
REMARK SMILES IDX 51 66 70 67 52 68 55 69 69 70 88 71 53 72 54 73 68 75 89 76
REMARK SMILES IDX 56 77 40 78 41 79 49 80 42 81 44 82 50 83 43 84 45 85 46 86
REMARK SMILES IDX 47 87 48 88 72 89 73 90 81 91 74 92 76 93 82 94 75 95 77 96
REMARK SMILES IDX 78 97 79 98 80 99 57 100 58 101 66 102 59 103 61 104 67 105
REMARK SMILES IDX 60 106 62 107 63 108 64 109 65 110
REMARK H PARENT 23 6 16 16 28 44 87 63 55 74
REMARK Flexibility Score: inf
ROOT
ATOM      1  C   UNL     1      -5.264  -6.960   1.096  1.00  0.00     0.023 C 
ENDROOT
BRANCH   1   2
ATOM      2  C   UNL     1      -5.390  -6.461  -0.339  1.00  0.00     0.116 C 
BRANCH   2   3
ATOM      3  N   UNL     1      -4.963  -5.097  -0.583  1.00  0.00    -0.352 N 
ATOM      4  C   UNL     1      -4.591  -4.454  -1.747  1.00  0.00     0.251 C 
ATOM      5  O   UNL     1      -4.384  -3.240  -1.679  1.00  0.00    -0.269 OA
ATOM      6  H   UNL     1      -4.932  -4.531   0.222  1.00  0.00     0.163 HD
BRANCH   4   7
ATOM      7  C   UNL     1      -4.272  -5.164  -3.031  1.00  0.00     0.039 A 
ATOM      8  C   UNL     1      -2.711  -6.598  -4.844  1.00  0.00     0.041 A 
ATOM      9  C   UNL     1      -2.641  -5.215  -4.844  1.00  0.00     0.027 A 
ATOM     10  C   UNL     1      -3.789  -7.215  -4.209  1.00  0.00     0.027 A 
ATOM     11  C   UNL     1      -3.427  -4.495  -3.932  1.00  0.00     0.016 A 
ATOM     12  C   UNL     1      -4.584  -6.489  -3.317  1.00  0.00     0.016 A 
BRANCH   8  13
ATOM     13  N   UNL     1      -1.766  -7.416  -5.455  1.00  0.00    -0.321 N 
ATOM     14  C   UNL     1      -0.414  -7.291  -5.708  1.00  0.00     0.276 C 
ATOM     15  O   UNL     1       0.011  -8.081  -6.563  1.00  0.00    -0.267 OA
ATOM     16  H   UNL     1      -2.142  -8.267  -5.777  1.00  0.00     0.170 HD
BRANCH  14  17
ATOM     17  C   UNL     1       0.532  -6.423  -4.940  1.00  0.00     0.155 A 
ATOM     18  C   UNL     1       1.087  -2.362  -0.572  1.00  0.00     0.161 A 
ATOM     19  C   UNL     1       0.121  -3.295  -0.975  1.00  0.00     0.055 A 
ATOM     20  C   UNL     1       2.411  -2.429  -1.057  1.00  0.00     0.161 A 
ATOM     21  C   UNL     1       0.480  -4.249  -1.918  1.00  0.00    -0.030 A 
ATOM     22  C   UNL     1       2.748  -3.369  -2.036  1.00  0.00     0.061 A 
ATOM     23  C   UNL     1       1.786  -4.271  -2.442  1.00  0.00     0.008 A 
ATOM     24  C   UNL     1      -0.466  -5.222  -2.641  1.00  0.00     0.076 C 
ATOM     25  C   UNL     1       1.735  -5.225  -3.504  1.00  0.00     0.079 A 
ATOM     26  C   UNL     1       0.463  -5.693  -3.717  1.00  0.00     0.016 A 
ATOM     27  N   UNL     1       2.540  -5.697  -4.480  1.00  0.00    -0.232 N 
ATOM     28  N   UNL     1       1.801  -6.302  -5.441  1.00  0.00    -0.162 NA
BRANCH  18  29
ATOM     29  O   UNL     1       0.679  -1.388   0.304  1.00  0.00    -0.493 OA
ATOM     30  C   UNL     1       0.442  -0.161  -0.391  1.00  0.00     0.278 C 
ENDBRANCH  18  29
BRANCH  20  31
ATOM     31  O   UNL     1       3.434  -1.581  -0.720  1.00  0.00    -0.493 OA
ATOM     32  C   UNL     1       3.493  -1.214   0.655  1.00  0.00     0.278 C 
ENDBRANCH  20  31
BRANCH  27  33
ATOM     33  C   UNL     1       3.944  -5.572  -4.553  1.00  0.00     0.065 A 
ATOM     34  C   UNL     1       4.555  -5.280  -5.776  1.00  0.00     0.031 A 
ATOM     35  C   UNL     1       4.708  -5.663  -3.377  1.00  0.00     0.031 A 
ATOM     36  C   UNL     1       5.917  -4.966  -5.793  1.00  0.00     0.041 A 
ATOM     37  C   UNL     1       6.070  -5.377  -3.409  1.00  0.00     0.041 A 
ATOM     38  C   UNL     1       6.656  -5.006  -4.612  1.00  0.00     0.123 A 
ATOM     39  F   UNL     1       7.953  -4.670  -4.634  1.00  0.00    -0.207 F 
ENDBRANCH  27  33
ENDBRANCH  14  17
ENDBRANCH   8  13
ENDBRANCH   4   7
ENDBRANCH   2   3
ENDBRANCH   1   2
BRANCH   1  40
ATOM     40  C   UNL     1      -6.008  -6.206   2.195  1.00  0.00     0.023 C 
BRANCH  40  41
ATOM     41  C   UNL     1      -7.436  -5.764   1.883  1.00  0.00     0.116 C 
BRANCH  41  42
ATOM     42  N   UNL     1      -8.305  -6.784   1.339  1.00  0.00    -0.352 N 
ATOM     43  C   UNL     1      -9.120  -7.746   1.866  1.00  0.00     0.251 C 
ATOM     44  H   UNL     1      -8.312  -6.785   0.354  1.00  0.00     0.163 HD
ATOM     45  O   UNL     1      -9.883  -8.292   1.065  1.00  0.00    -0.269 OA
BRANCH  43  46
ATOM     46  C   UNL     1      -9.085  -8.221   3.272  1.00  0.00     0.039 A 
ATOM     47  C   UNL     1      -8.373  -7.622   4.313  1.00  0.00     0.014 A 
ATOM     48  C   UNL     1      -9.781  -9.417   3.529  1.00  0.00     0.014 A 
ATOM     49  C   UNL     1      -8.241  -8.268   5.536  1.00  0.00     0.010 A 
ATOM     50  C   UNL     1      -9.676 -10.053   4.756  1.00  0.00     0.010 A 
ATOM     51  C   UNL     1      -8.853  -9.505   5.735  1.00  0.00    -0.014 A 
BRANCH  51  52
ATOM     52  C   UNL     1      -8.705 -10.151   7.034  1.00  0.00     0.031 A 
ATOM     53  C   UNL     1      -9.341  -9.418   8.168  1.00  0.00     0.074 A 
ATOM     54  C   UNL     1      -8.171 -11.385   7.152  1.00  0.00     0.049 A 
ATOM     55  N   UNL     1      -8.793  -8.992   9.261  1.00  0.00    -0.248 NA
ATOM     56  C   UNL     1     -10.744  -8.999   8.001  1.00  0.00     0.031 C 
ATOM     57  C   UNL     1      -7.771 -12.289   6.068  1.00  0.00     0.029 A 
ATOM     58  N   UNL     1      -8.022 -12.159   8.264  1.00  0.00    -0.354 N 
ATOM     59  C   UNL     1      -9.834  -8.444  10.011  1.00  0.00     0.074 A 
ATOM     60  C   UNL     1     -10.967  -8.330   9.131  1.00  0.00     0.031 C 
ATOM     61  C   UNL     1      -7.694 -13.549   6.548  1.00  0.00     0.029 A 
ATOM     62  C   UNL     1      -7.916 -13.522   7.982  1.00  0.00     0.049 A 
ATOM     63  H   UNL     1      -7.991 -11.793   9.177  1.00  0.00     0.167 HD
ATOM     64  C   UNL     1      -9.782  -8.329  11.365  1.00  0.00     0.034 A 
ATOM     65  C   UNL     1      -8.111 -14.543   8.855  1.00  0.00     0.034 A 
ATOM     66  C   UNL     1      -8.452  -8.456  11.880  1.00  0.00     0.049 A 
ATOM     67  C   UNL     1      -7.971 -13.972  10.215  1.00  0.00     0.074 A 
ATOM     68  C   UNL     1      -7.278  -7.747  11.735  1.00  0.00     0.029 A 
ATOM     69  N   UNL     1      -8.103  -9.676  12.401  1.00  0.00    -0.354 N 
ATOM     70  N   UNL     1      -6.857 -13.494  10.693  1.00  0.00    -0.248 NA
ATOM     71  C   UNL     1      -9.182 -13.561  10.908  1.00  0.00     0.031 C 
ATOM     72  C   UNL     1      -6.254  -8.737  11.726  1.00  0.00     0.029 A 
ATOM     73  C   UNL     1      -6.860  -9.981  11.917  1.00  0.00     0.049 A 
ATOM     74  H   UNL     1      -8.645 -10.228  13.010  1.00  0.00     0.167 HD
ATOM     75  C   UNL     1      -7.249 -12.397  11.446  1.00  0.00     0.074 A 
ATOM     76  C   UNL     1      -8.689 -12.553  11.631  1.00  0.00     0.031 C 
ATOM     77  C   UNL     1      -6.425 -11.321  11.598  1.00  0.00     0.034 A 
BRANCH  64  78
ATOM     78  C   UNL     1     -10.991  -8.449  12.252  1.00  0.00     0.023 A 
ATOM     79  C   UNL     1     -10.918  -7.958  13.571  1.00  0.00     0.012 A 
ATOM     80  C   UNL     1     -12.102  -9.258  11.918  1.00  0.00     0.148 A 
ATOM     81  C   UNL     1     -11.912  -8.255  14.512  1.00  0.00     0.002 A 
ATOM     82  C   UNL     1     -13.122  -9.486  12.832  1.00  0.00     0.091 A 
ATOM     83  F   UNL     1     -12.111  -9.916  10.754  1.00  0.00    -0.205 F 
ATOM     84  C   UNL     1     -13.023  -9.004  14.138  1.00  0.00     0.022 A 
BRANCH  82  85
ATOM     85  S   UNL     1     -14.591 -10.416  12.378  1.00  0.00     0.127 S 
ATOM     86  O   UNL     1     -14.361 -11.681  13.080  1.00  0.00    -0.237 OA
ATOM     87  O   UNL     1     -15.656  -9.582  12.944  1.00  0.00    -0.237 OA
ATOM     88  O   UNL     1     -14.582 -10.473  10.931  1.00  0.00    -0.744 OA
ENDBRANCH  82  85
ENDBRANCH  64  78
BRANCH  65  89
ATOM     89  C   UNL     1      -8.699 -15.893   8.644  1.00  0.00     0.023 A 
ATOM     90  C   UNL     1      -8.602 -16.849   9.680  1.00  0.00     0.012 A 
ATOM     91  C   UNL     1      -9.599 -16.161   7.588  1.00  0.00     0.148 A 
ATOM     92  C   UNL     1      -9.414 -17.990   9.698  1.00  0.00     0.002 A 
ATOM     93  C   UNL     1     -10.393 -17.307   7.602  1.00  0.00     0.091 A 
ATOM     94  F   UNL     1      -9.758 -15.252   6.620  1.00  0.00    -0.205 F 
ATOM     95  C   UNL     1     -10.318 -18.213   8.665  1.00  0.00     0.022 A 
BRANCH  93  96
ATOM     96  S   UNL     1     -11.584 -17.652   6.298  1.00  0.00     0.127 S 
ATOM     97  O   UNL     1     -11.387 -19.085   6.074  1.00  0.00    -0.237 OA
ATOM     98  O   UNL     1     -12.847 -17.300   6.939  1.00  0.00    -0.237 OA
ATOM     99  O   UNL     1     -11.186 -16.815   5.172  1.00  0.00    -0.744 OA
ENDBRANCH  93  96
ENDBRANCH  65  89
BRANCH  77 100
ATOM    100  C   UNL     1      -4.996 -11.455  11.144  1.00  0.00     0.023 A 
ATOM    101  C   UNL     1      -4.648 -11.537   9.778  1.00  0.00     0.012 A 
ATOM    102  C   UNL     1      -3.984 -11.277  12.100  1.00  0.00     0.148 A 
ATOM    103  C   UNL     1      -3.312 -11.441   9.377  1.00  0.00     0.002 A 
ATOM    104  C   UNL     1      -2.664 -11.141  11.694  1.00  0.00     0.091 A 
ATOM    105  F   UNL     1      -4.345 -11.189  13.389  1.00  0.00    -0.205 F 
ATOM    106  C   UNL     1      -2.322 -11.227  10.334  1.00  0.00     0.022 A 
BRANCH 104 107
ATOM    107  S   UNL     1      -1.356 -10.745  12.855  1.00  0.00     0.127 S 
ATOM    108  O   UNL     1      -0.545 -11.961  12.828  1.00  0.00    -0.237 OA
ATOM    109  O   UNL     1      -0.732  -9.578  12.230  1.00  0.00    -0.237 OA
ATOM    110  O   UNL     1      -2.011 -10.465  14.127  1.00  0.00    -0.744 OA
ENDBRANCH 104 107
ENDBRANCH  77 100
ENDBRANCH  51  52
ENDBRANCH  43  46
ENDBRANCH  41  42
ENDBRANCH  40  41
ENDBRANCH   1  40
TORSDOF 19
