REMARK SMILES Cc1cc(C)c2c(c1)C=C(C(=O)NCCCCNC(=O)c1ccc(-c3c4nc(c(-c5cccc(S(=O)(=O)[O-])c5F)c5ccc([nH]5)c(-c5cccc(S(=O)(=O)[O-])c5F)c5nc(c(-c6cccc(S(=O)(=O)[O-])c6F)c6ccc3[nH]6)C=C5)C=C4)cc1)[C@@H](C(F)(F)F)O2
REMARK SMILES IDX 16 1 15 2 14 3 13 4 11 5 12 6 10 8 1 9 2 10 3 11 8 12 4 13
REMARK SMILES IDX 7 14 5 15 6 16 9 17 89 18 84 19 85 20 86 21 87 22 88 23
REMARK SMILES IDX 17 24 18 25 19 26 20 28 21 29 22 30 83 31 23 32 82 33 24 34
REMARK SMILES IDX 25 35 26 36 76 37 27 38 81 39 75 40 77 41 28 42 80 43 74 44
REMARK SMILES IDX 73 45 29 47 61 48 41 49 60 50 42 51 45 52 59 53 78 54 43 55
REMARK SMILES IDX 44 56 58 58 79 59 46 60 30 61 31 62 39 63 32 64 34 65 40 66
REMARK SMILES IDX 33 67 35 68 36 69 37 70 38 71 62 72 63 73 71 74 64 75 66 76
REMARK SMILES IDX 72 77 65 78 67 79 68 80 69 81 70 82 47 83 48 84 56 85 49 86
REMARK SMILES IDX 51 87 57 88 50 89 52 90 53 91 54 92 55 93
REMARK H PARENT 13 7 18 27 77 46 45 57
REMARK Flexibility Score: inf
ROOT
ATOM      1  C   UNL     1      -3.133   5.946  -8.640  1.00  0.00     0.023 C 
ENDROOT
BRANCH   1   2
ATOM      2  C   UNL     1      -2.706   4.649  -7.947  1.00  0.00     0.023 C 
BRANCH   2   3
ATOM      3  C   UNL     1      -1.199   4.513  -7.750  1.00  0.00     0.116 C 
BRANCH   3   4
ATOM      4  N   UNL     1      -0.753   5.129  -6.514  1.00  0.00    -0.352 N 
ATOM      5  C   UNL     1      -0.383   4.714  -5.280  1.00  0.00     0.251 C 
ATOM      6  O   UNL     1      -0.055   5.611  -4.497  1.00  0.00    -0.270 OA
ATOM      7  H   UNL     1      -0.706   6.109  -6.595  1.00  0.00     0.163 HD
BRANCH   5   8
ATOM      8  C   UNL     1      -0.347   3.293  -4.822  1.00  0.00     0.067 C 
ATOM      9  C   UNL     1       1.025  -0.050   0.194  1.00  0.00     0.044 C 
ATOM     10  C   UNL     1       0.497   0.206  -1.186  1.00  0.00    -0.050 A 
ATOM     11  C   UNL     1       0.086  -0.858  -2.000  1.00  0.00     0.010 A 
ATOM     12  C   UNL     1       0.454   1.512  -1.692  1.00  0.00     0.015 A 
ATOM     13  C   UNL     1      -0.389  -0.629  -3.299  1.00  0.00    -0.008 A 
ATOM     14  C   UNL     1      -0.010   1.756  -2.988  1.00  0.00     0.018 A 
ATOM     15  C   UNL     1      -0.834  -1.775  -4.161  1.00  0.00     0.048 C 
ATOM     16  C   UNL     1      -0.426   0.685  -3.783  1.00  0.00     0.130 A 
ATOM     17  C   UNL     1      -0.098   3.114  -3.511  1.00  0.00     0.025 C 
ATOM     18  O   UNL     1      -0.925   0.877  -5.042  1.00  0.00    -0.475 OA
ATOM     19  C   UNL     1      -0.523   2.101  -5.718  1.00  0.00     0.314 C 
BRANCH  19  20
ATOM     20  C   UNL     1       0.720   1.815  -6.581  1.00  0.00     0.429 C 
ATOM     21  F   UNL     1       0.413   0.944  -7.576  1.00  0.00    -0.167 F 
ATOM     22  F   UNL     1       1.205   2.926  -7.182  1.00  0.00    -0.167 F 
ATOM     23  F   UNL     1       1.737   1.274  -5.873  1.00  0.00    -0.167 F 
ENDBRANCH  19  20
ENDBRANCH   5   8
ENDBRANCH   3   4
ENDBRANCH   2   3
ENDBRANCH   1   2
BRANCH   1  24
ATOM     24  C   UNL     1      -2.480   6.213  -9.996  1.00  0.00     0.116 C 
BRANCH  24  25
ATOM     25  N   UNL     1      -2.568   5.093 -10.924  1.00  0.00    -0.352 N 
ATOM     26  C   UNL     1      -2.644   5.138 -12.296  1.00  0.00     0.251 C 
ATOM     27  H   UNL     1      -2.575   4.195 -10.520  1.00  0.00     0.163 HD
ATOM     28  O   UNL     1      -2.790   4.111 -12.950  1.00  0.00    -0.269 OA
BRANCH  26  29
ATOM     29  C   UNL     1      -2.589   6.453 -12.962  1.00  0.00     0.039 A 
ATOM     30  C   UNL     1      -3.646   6.832 -13.792  1.00  0.00     0.014 A 
ATOM     31  C   UNL     1      -1.536   7.332 -12.695  1.00  0.00     0.014 A 
ATOM     32  C   UNL     1      -3.684   8.131 -14.300  1.00  0.00     0.010 A 
ATOM     33  C   UNL     1      -1.607   8.642 -13.153  1.00  0.00     0.010 A 
ATOM     34  C   UNL     1      -2.684   9.055 -13.953  1.00  0.00    -0.014 A 
BRANCH  34  35
ATOM     35  C   UNL     1      -2.754  10.466 -14.402  1.00  0.00     0.031 A 
ATOM     36  C   UNL     1      -1.724  11.004 -15.352  1.00  0.00     0.074 A 
ATOM     37  C   UNL     1      -3.698  11.279 -13.888  1.00  0.00     0.049 A 
ATOM     38  N   UNL     1      -1.591  12.217 -15.819  1.00  0.00    -0.248 NA
ATOM     39  C   UNL     1      -0.693  10.063 -15.821  1.00  0.00     0.031 C 
ATOM     40  C   UNL     1      -4.707  10.886 -12.902  1.00  0.00     0.029 A 
ATOM     41  N   UNL     1      -3.952  12.609 -14.109  1.00  0.00    -0.354 N 
ATOM     42  C   UNL     1      -0.453  12.193 -16.614  1.00  0.00     0.074 A 
ATOM     43  C   UNL     1       0.092  10.855 -16.536  1.00  0.00     0.031 C 
ATOM     44  C   UNL     1      -5.478  11.947 -12.615  1.00  0.00     0.029 A 
ATOM     45  C   UNL     1      -5.008  13.100 -13.377  1.00  0.00     0.049 A 
ATOM     46  H   UNL     1      -3.427  13.161 -14.733  1.00  0.00     0.167 HD
ATOM     47  C   UNL     1       0.069  13.184 -17.374  1.00  0.00     0.034 A 
ATOM     48  C   UNL     1      -5.542  14.336 -13.333  1.00  0.00     0.034 A 
ATOM     49  C   UNL     1      -0.506  14.495 -17.489  1.00  0.00     0.049 A 
ATOM     50  C   UNL     1      -4.964  15.411 -14.215  1.00  0.00     0.074 A 
ATOM     51  C   UNL     1      -0.095  15.546 -18.289  1.00  0.00     0.029 A 
ATOM     52  N   UNL     1      -1.619  14.935 -16.788  1.00  0.00    -0.354 N 
ATOM     53  N   UNL     1      -3.975  15.329 -15.072  1.00  0.00    -0.248 NA
ATOM     54  C   UNL     1      -5.594  16.738 -14.150  1.00  0.00     0.031 C 
ATOM     55  C   UNL     1      -0.958  16.624 -18.069  1.00  0.00     0.029 A 
ATOM     56  C   UNL     1      -1.910  16.242 -17.136  1.00  0.00     0.049 A 
ATOM     57  H   UNL     1      -2.127  14.396 -16.139  1.00  0.00     0.167 HD
ATOM     58  C   UNL     1      -3.879  16.582 -15.666  1.00  0.00     0.074 A 
ATOM     59  C   UNL     1      -4.927  17.399 -15.088  1.00  0.00     0.031 C 
ATOM     60  C   UNL     1      -2.991  17.023 -16.591  1.00  0.00     0.034 A 
BRANCH  47  61
ATOM     61  C   UNL     1       1.278  12.858 -18.209  1.00  0.00     0.023 A 
ATOM     62  C   UNL     1       1.120  12.053 -19.355  1.00  0.00     0.012 A 
ATOM     63  C   UNL     1       2.546  13.390 -17.905  1.00  0.00     0.148 A 
ATOM     64  C   UNL     1       2.209  11.757 -20.172  1.00  0.00     0.002 A 
ATOM     65  C   UNL     1       3.620  13.123 -18.747  1.00  0.00     0.091 A 
ATOM     66  F   UNL     1       2.681  14.133 -16.798  1.00  0.00    -0.205 F 
ATOM     67  C   UNL     1       3.455  12.301 -19.874  1.00  0.00     0.022 A 
BRANCH  65  68
ATOM     68  S   UNL     1       5.250  13.833 -18.491  1.00  0.00     0.127 S 
ATOM     69  O   UNL     1       6.010  12.670 -18.034  1.00  0.00    -0.237 OA
ATOM     70  O   UNL     1       5.599  14.299 -19.834  1.00  0.00    -0.237 OA
ATOM     71  O   UNL     1       5.075  14.893 -17.508  1.00  0.00    -0.744 OA
ENDBRANCH  65  68
ENDBRANCH  47  61
BRANCH  48  72
ATOM     72  C   UNL     1      -6.752  14.589 -12.500  1.00  0.00     0.023 A 
ATOM     73  C   UNL     1      -7.991  14.785 -13.140  1.00  0.00     0.012 A 
ATOM     74  C   UNL     1      -6.702  14.574 -11.092  1.00  0.00     0.148 A 
ATOM     75  C   UNL     1      -9.155  14.980 -12.396  1.00  0.00     0.002 A 
ATOM     76  C   UNL     1      -7.874  14.716 -10.357  1.00  0.00     0.091 A 
ATOM     77  F   UNL     1      -5.512  14.400 -10.501  1.00  0.00    -0.205 F 
ATOM     78  C   UNL     1      -9.099  14.933 -11.007  1.00  0.00     0.022 A 
BRANCH  76  79
ATOM     79  S   UNL     1      -7.918  14.531  -8.570  1.00  0.00     0.127 S 
ATOM     80  O   UNL     1      -8.129  15.908  -8.131  1.00  0.00    -0.237 OA
ATOM     81  O   UNL     1      -9.066  13.642  -8.384  1.00  0.00    -0.237 OA
ATOM     82  O   UNL     1      -6.638  13.938  -8.207  1.00  0.00    -0.744 OA
ENDBRANCH  76  79
ENDBRANCH  48  72
BRANCH  60  83
ATOM     83  C   UNL     1      -3.103  18.452 -17.051  1.00  0.00     0.023 A 
ATOM     84  C   UNL     1      -2.657  19.485 -16.204  1.00  0.00     0.012 A 
ATOM     85  C   UNL     1      -3.532  18.762 -18.356  1.00  0.00     0.148 A 
ATOM     86  C   UNL     1      -2.650  20.807 -16.643  1.00  0.00     0.002 A 
ATOM     87  C   UNL     1      -3.482  20.078 -18.802  1.00  0.00     0.091 A 
ATOM     88  F   UNL     1      -3.972  17.766 -19.140  1.00  0.00    -0.205 F 
ATOM     89  C   UNL     1      -3.048  21.102 -17.945  1.00  0.00     0.022 A 
BRANCH  87  90
ATOM     90  S   UNL     1      -3.880  20.532 -20.495  1.00  0.00     0.127 S 
ATOM     91  O   UNL     1      -5.200  21.141 -20.337  1.00  0.00    -0.237 OA
ATOM     92  O   UNL     1      -2.810  21.474 -20.827  1.00  0.00    -0.237 OA
ATOM     93  O   UNL     1      -3.847  19.292 -21.258  1.00  0.00    -0.744 OA
ENDBRANCH  87  90
ENDBRANCH  60  83
ENDBRANCH  34  35
ENDBRANCH  26  29
ENDBRANCH  24  25
ENDBRANCH   1  24
TORSDOF 15
