REMARK SMILES CCCC1CN(c2cc(C(=O)NCCCCNC(=O)c3ccc(-c4c5nc(c(-c6cccc(S(=O)(=O)[O-])c6F)c6ccc([nH]6)c(-c6cccc(S(=O)(=O)[O-])c6F)c6nc(c(-c7cccc(S(=O)(=O)[O-])c7F)c7ccc4[nH]7)C=C6)C=C5)cc3)ccc2C)C1
REMARK SMILES IDX 14 1 13 2 12 3 10 4 11 5 9 7 7 8 8 9 85 10 84 11 86 12 83 13
REMARK SMILES IDX 6 14 4 15 5 16 87 17 3 18 2 19 1 20 15 21 16 22 17 23 18 24
REMARK SMILES IDX 19 26 20 27 21 28 82 29 22 30 81 31 23 32 24 33 25 34 75 35
REMARK SMILES IDX 26 36 80 37 74 38 76 39 27 40 79 41 73 42 72 43 28 45 60 46
REMARK SMILES IDX 40 47 59 48 41 49 44 50 58 51 77 52 42 53 43 54 57 56 78 57
REMARK SMILES IDX 45 58 29 59 30 60 38 61 31 62 33 63 39 64 32 65 34 66 35 67
REMARK SMILES IDX 36 68 37 69 61 70 62 71 70 72 63 73 65 74 71 75 64 76 66 77
REMARK SMILES IDX 67 78 68 79 69 80 46 81 47 82 55 83 48 84 50 85 56 86 49 87
REMARK SMILES IDX 51 88 52 89 53 90 54 91
REMARK H PARENT 12 6 17 25 76 44 44 55
REMARK Flexibility Score: inf
ROOT
ATOM      1  C   UNL     1      -4.410  -4.162  -0.847  1.00  0.00     0.023 C 
ENDROOT
BRANCH   1   2
ATOM      2  C   UNL     1      -3.307  -4.515   0.149  1.00  0.00     0.116 C 
BRANCH   2   3
ATOM      3  N   UNL     1      -3.240  -5.924   0.503  1.00  0.00    -0.352 N 
ATOM      4  C   UNL     1      -2.345  -6.929   0.214  1.00  0.00     0.251 C 
ATOM      5  O   UNL     1      -2.611  -8.068   0.602  1.00  0.00    -0.269 OA
ATOM      6  H   UNL     1      -3.990  -6.221   1.066  1.00  0.00     0.163 HD
BRANCH   4   7
ATOM      7  C   UNL     1      -1.112  -6.729  -0.596  1.00  0.00     0.041 A 
ATOM      8  C   UNL     1       0.678  -5.333  -1.503  1.00  0.00     0.040 A 
ATOM      9  C   UNL     1      -0.365  -5.552  -0.588  1.00  0.00     0.040 A 
ATOM     10  C   UNL     1       1.120  -6.415  -2.291  1.00  0.00    -0.028 A 
ATOM     11  C   UNL     1       0.459  -7.651  -2.195  1.00  0.00     0.006 A 
ATOM     12  C   UNL     1       2.347  -6.347  -3.161  1.00  0.00     0.046 C 
ATOM     13  C   UNL     1      -0.665  -7.796  -1.382  1.00  0.00     0.014 A 
BRANCH   8  14
ATOM     14  N   UNL     1       1.217  -4.034  -1.671  1.00  0.00    -0.371 N 
ATOM     15  C   UNL     1       0.545  -2.092  -2.006  1.00  0.00     0.028 C 
ATOM     16  C   UNL     1       1.043  -3.256  -2.874  1.00  0.00     0.122 C 
ATOM     17  C   UNL     1       1.103  -2.886  -0.817  1.00  0.00     0.122 C 
BRANCH  15  18
ATOM     18  C   UNL     1       1.149  -0.730  -2.320  1.00  0.00     0.007 C 
BRANCH  18  19
ATOM     19  C   UNL     1       0.634   0.365  -1.383  1.00  0.00    -0.003 C 
ATOM     20  C   UNL     1       1.145   0.244   0.045  1.00  0.00     0.004 C 
ENDBRANCH  18  19
ENDBRANCH  15  18
ENDBRANCH   8  14
ENDBRANCH   4   7
ENDBRANCH   2   3
ENDBRANCH   1   2
BRANCH   1  21
ATOM     21  C   UNL     1      -5.864  -4.235  -0.365  1.00  0.00     0.023 C 
BRANCH  21  22
ATOM     22  C   UNL     1      -6.260  -3.308   0.784  1.00  0.00     0.116 C 
BRANCH  22  23
ATOM     23  N   UNL     1      -5.914  -1.909   0.537  1.00  0.00    -0.352 N 
ATOM     24  C   UNL     1      -5.779  -0.846   1.413  1.00  0.00     0.251 C 
ATOM     25  H   UNL     1      -5.751  -1.686  -0.408  1.00  0.00     0.163 HD
ATOM     26  O   UNL     1      -5.828   0.296   0.963  1.00  0.00    -0.269 OA
BRANCH  24  27
ATOM     27  C   UNL     1      -5.502  -1.077   2.846  1.00  0.00     0.039 A 
ATOM     28  C   UNL     1      -5.790  -0.130   3.840  1.00  0.00     0.014 A 
ATOM     29  C   UNL     1      -4.778  -2.212   3.176  1.00  0.00     0.014 A 
ATOM     30  C   UNL     1      -5.284  -0.308   5.135  1.00  0.00     0.010 A 
ATOM     31  C   UNL     1      -4.468  -2.498   4.470  1.00  0.00     0.010 A 
ATOM     32  C   UNL     1      -4.574  -1.473   5.409  1.00  0.00    -0.014 A 
BRANCH  32  33
ATOM     33  C   UNL     1      -3.618  -1.679   6.486  1.00  0.00     0.031 A 
ATOM     34  C   UNL     1      -4.013  -2.308   7.753  1.00  0.00     0.074 A 
ATOM     35  C   UNL     1      -2.345  -1.750   6.021  1.00  0.00     0.049 A 
ATOM     36  N   UNL     1      -3.198  -2.556   8.719  1.00  0.00    -0.248 NA
ATOM     37  C   UNL     1      -5.379  -2.733   8.024  1.00  0.00     0.031 C 
ATOM     38  C   UNL     1      -1.243  -2.563   6.511  1.00  0.00     0.029 A 
ATOM     39  N   UNL     1      -1.774  -1.089   4.923  1.00  0.00    -0.354 N 
ATOM     40  C   UNL     1      -3.819  -3.468   9.547  1.00  0.00     0.074 A 
ATOM     41  C   UNL     1      -5.210  -3.411   9.164  1.00  0.00     0.031 C 
ATOM     42  C   UNL     1      -0.105  -2.126   5.940  1.00  0.00     0.029 A 
ATOM     43  C   UNL     1      -0.439  -0.879   5.270  1.00  0.00     0.049 A 
ATOM     44  H   UNL     1      -2.221  -0.828   4.085  1.00  0.00     0.167 HD
ATOM     45  C   UNL     1      -3.037  -4.287  10.312  1.00  0.00     0.034 A 
ATOM     46  C   UNL     1       0.024   0.359   5.637  1.00  0.00     0.034 A 
ATOM     47  C   UNL     1      -1.613  -3.907  10.182  1.00  0.00     0.049 A 
ATOM     48  C   UNL     1       0.559   0.378   7.064  1.00  0.00     0.074 A 
ATOM     49  C   UNL     1      -0.545  -4.463   9.494  1.00  0.00     0.029 A 
ATOM     50  N   UNL     1      -1.197  -2.638  10.580  1.00  0.00    -0.354 N 
ATOM     51  N   UNL     1       0.352  -0.576   7.930  1.00  0.00    -0.248 NA
ATOM     52  C   UNL     1       1.380   1.447   7.626  1.00  0.00     0.031 C 
ATOM     53  C   UNL     1       0.471  -3.470   9.383  1.00  0.00     0.029 A 
ATOM     54  C   UNL     1       0.041  -2.325  10.034  1.00  0.00     0.049 A 
ATOM     55  H   UNL     1      -1.712  -2.042  11.171  1.00  0.00     0.167 HD
ATOM     56  C   UNL     1       0.879  -0.249   9.146  1.00  0.00     0.074 A 
ATOM     57  C   UNL     1       1.577   1.000   8.881  1.00  0.00     0.031 C 
ATOM     58  C   UNL     1       0.644  -1.009  10.263  1.00  0.00     0.034 A 
BRANCH  45  59
ATOM     59  C   UNL     1      -3.466  -5.611  10.954  1.00  0.00     0.023 A 
ATOM     60  C   UNL     1      -2.436  -6.457  11.434  1.00  0.00     0.012 A 
ATOM     61  C   UNL     1      -4.777  -6.134  11.073  1.00  0.00     0.148 A 
ATOM     62  C   UNL     1      -2.674  -7.752  11.917  1.00  0.00     0.002 A 
ATOM     63  C   UNL     1      -5.019  -7.434  11.537  1.00  0.00     0.091 A 
ATOM     64  F   UNL     1      -5.831  -5.377  10.783  1.00  0.00    -0.205 F 
ATOM     65  C   UNL     1      -3.966  -8.250  11.951  1.00  0.00     0.022 A 
BRANCH  63  66
ATOM     66  S   UNL     1      -6.674  -8.153  11.603  1.00  0.00     0.127 S 
ATOM     67  O   UNL     1      -6.513  -9.368  10.803  1.00  0.00    -0.237 OA
ATOM     68  O   UNL     1      -6.856  -8.388  13.034  1.00  0.00    -0.237 OA
ATOM     69  O   UNL     1      -7.578  -7.168  11.020  1.00  0.00    -0.744 OA
ENDBRANCH  63  66
ENDBRANCH  45  59
BRANCH  46  70
ATOM     70  C   UNL     1      -0.709   1.481   4.956  1.00  0.00     0.023 A 
ATOM     71  C   UNL     1      -0.639   1.506   3.540  1.00  0.00     0.012 A 
ATOM     72  C   UNL     1      -1.759   2.175   5.587  1.00  0.00     0.148 A 
ATOM     73  C   UNL     1      -1.679   2.040   2.776  1.00  0.00     0.002 A 
ATOM     74  C   UNL     1      -2.787   2.725   4.814  1.00  0.00     0.091 A 
ATOM     75  F   UNL     1      -1.780   2.233   6.925  1.00  0.00    -0.205 F 
ATOM     76  C   UNL     1      -2.773   2.612   3.415  1.00  0.00     0.022 A 
BRANCH  74  77
ATOM     77  S   UNL     1      -4.230   3.492   5.571  1.00  0.00     0.127 S 
ATOM     78  O   UNL     1      -3.815   4.888   5.647  1.00  0.00    -0.237 OA
ATOM     79  O   UNL     1      -5.292   3.219   4.603  1.00  0.00    -0.237 OA
ATOM     80  O   UNL     1      -4.396   2.793   6.840  1.00  0.00    -0.744 OA
ENDBRANCH  74  77
ENDBRANCH  46  70
BRANCH  58  81
ATOM     81  C   UNL     1       0.946  -0.580  11.688  1.00  0.00     0.023 A 
ATOM     82  C   UNL     1       1.129   0.769  12.044  1.00  0.00     0.012 A 
ATOM     83  C   UNL     1       0.897  -1.514  12.757  1.00  0.00     0.148 A 
ATOM     84  C   UNL     1       1.319   1.170  13.370  1.00  0.00     0.002 A 
ATOM     85  C   UNL     1       0.963  -1.095  14.083  1.00  0.00     0.091 A 
ATOM     86  F   UNL     1       0.805  -2.827  12.499  1.00  0.00    -0.205 F 
ATOM     87  C   UNL     1       1.210   0.242  14.394  1.00  0.00     0.022 A 
BRANCH  85  88
ATOM     88  S   UNL     1       0.563  -2.222  15.428  1.00  0.00     0.127 S 
ATOM     89  O   UNL     1       1.879  -2.741  15.792  1.00  0.00    -0.237 OA
ATOM     90  O   UNL     1      -0.035  -1.328  16.422  1.00  0.00    -0.237 OA
ATOM     91  O   UNL     1      -0.373  -3.178  14.851  1.00  0.00    -0.744 OA
ENDBRANCH  85  88
ENDBRANCH  58  81
ENDBRANCH  32  33
ENDBRANCH  24  27
ENDBRANCH  22  23
ENDBRANCH  21  22
ENDBRANCH   1  21
TORSDOF 17
