REMARK SMILES Cc1onc(-c2cccc(Br)c2)c1C(=O)NCCCCNC(=O)c1ccc(-c2c3nc(c(-c4cccc(S(=O)(=O)[O-])c4F)c4ccc([nH]4)c(-c4cccc(S(=O)(=O)[O-])c4F)c4nc(c(-c5cccc(S(=O)(=O)[O-])c5F)c5ccc2[nH]5)C=C4)C=C3)cc1
REMARK SMILES IDX 19 1 18 2 17 3 16 4 14 5 15 6 13 8 1 9 2 10 3 11 4 12 5 13
REMARK SMILES IDX 6 14 7 15 12 16 8 17 10 18 9 19 11 20 20 21 21 22 22 23
REMARK SMILES IDX 23 25 24 26 25 27 86 28 26 29 85 30 27 31 28 32 29 33 79 34
REMARK SMILES IDX 30 35 84 36 78 37 80 38 31 39 83 40 77 41 76 42 32 44 64 45
REMARK SMILES IDX 44 46 63 47 45 48 48 49 62 50 81 51 46 52 47 53 61 55 82 56
REMARK SMILES IDX 49 57 33 58 34 59 42 60 35 61 37 62 43 63 36 64 38 65 39 66
REMARK SMILES IDX 40 67 41 68 65 69 66 70 74 71 67 72 69 73 75 74 68 75 70 76
REMARK SMILES IDX 71 77 72 78 73 79 50 80 51 81 59 82 52 83 54 84 60 85 53 86
REMARK SMILES IDX 55 87 56 88 57 89 58 90
REMARK H PARENT 16 7 21 24 80 43 48 54
REMARK Flexibility Score: inf
ROOT
ATOM      1  C   UNL     1       4.309  -3.384   1.436  1.00  0.00     0.023 C 
ENDROOT
BRANCH   1   2
ATOM      2  C   UNL     1       3.593  -2.108   0.982  1.00  0.00     0.023 C 
BRANCH   2   3
ATOM      3  C   UNL     1       2.852  -2.225  -0.350  1.00  0.00     0.116 C 
BRANCH   3   4
ATOM      4  N   UNL     1       1.575  -2.863  -0.170  1.00  0.00    -0.352 N 
ATOM      5  C   UNL     1       0.292  -2.433   0.013  1.00  0.00     0.257 C 
ATOM      6  O   UNL     1      -0.513  -3.363   0.115  1.00  0.00    -0.269 OA
ATOM      7  H   UNL     1       1.642  -3.845  -0.183  1.00  0.00     0.163 HD
BRANCH   5   8
ATOM      8  C   UNL     1      -0.165  -1.044   0.061  1.00  0.00     0.110 A 
ATOM      9  C   UNL     1       1.819   0.755   0.299  1.00  0.00     0.092 C 
ATOM     10  C   UNL     1       0.464   0.193   0.151  1.00  0.00     0.147 A 
ATOM     11  O   UNL     1      -0.469   1.183   0.102  1.00  0.00    -0.360 OA
ATOM     12  N   UNL     1      -1.723   0.659   0.032  1.00  0.00    -0.079 NA
ATOM     13  C   UNL     1      -1.570  -0.670   0.046  1.00  0.00     0.126 A 
BRANCH  13  14
ATOM     14  C   UNL     1      -2.766  -1.506   0.042  1.00  0.00     0.006 A 
ATOM     15  C   UNL     1      -3.044  -2.358   1.119  1.00  0.00     0.010 A 
ATOM     16  C   UNL     1      -3.669  -1.428  -1.026  1.00  0.00     0.026 A 
ATOM     17  C   UNL     1      -4.190  -3.155   1.113  1.00  0.00     0.002 A 
ATOM     18  C   UNL     1      -4.816  -2.221  -1.021  1.00  0.00     0.018 A 
ATOM     19  C   UNL     1      -5.078  -3.088   0.040  1.00  0.00     0.016 A 
ATOM     20  Br  UNL     1      -6.030  -2.120  -2.467  1.00  0.00    -0.051 Br
ENDBRANCH  13  14
ENDBRANCH   5   8
ENDBRANCH   3   4
ENDBRANCH   2   3
ENDBRANCH   1   2
BRANCH   1  21
ATOM     21  C   UNL     1       5.405  -3.883   0.500  1.00  0.00     0.116 C 
BRANCH  21  22
ATOM     22  N   UNL     1       6.413  -2.876   0.193  1.00  0.00    -0.352 N 
ATOM     23  C   UNL     1       7.726  -3.070  -0.158  1.00  0.00     0.251 C 
ATOM     24  H   UNL     1       6.114  -1.939   0.243  1.00  0.00     0.163 HD
ATOM     25  O   UNL     1       8.477  -2.109  -0.302  1.00  0.00    -0.269 OA
BRANCH  23  26
ATOM     26  C   UNL     1       8.232  -4.448  -0.311  1.00  0.00     0.039 A 
ATOM     27  C   UNL     1       9.377  -4.828   0.395  1.00  0.00     0.014 A 
ATOM     28  C   UNL     1       7.546  -5.373  -1.101  1.00  0.00     0.014 A 
ATOM     29  C   UNL     1       9.793  -6.160   0.365  1.00  0.00     0.010 A 
ATOM     30  C   UNL     1       7.923  -6.711  -1.077  1.00  0.00     0.010 A 
ATOM     31  C   UNL     1       9.047  -7.118  -0.342  1.00  0.00    -0.014 A 
BRANCH  31  32
ATOM     32  C   UNL     1       9.408  -8.557  -0.307  1.00  0.00     0.031 A 
ATOM     33  C   UNL     1       9.821  -9.262  -1.569  1.00  0.00     0.074 A 
ATOM     34  C   UNL     1       9.258  -9.250   0.839  1.00  0.00     0.049 A 
ATOM     35  N   UNL     1      10.100 -10.526  -1.751  1.00  0.00    -0.248 NA
ATOM     36  C   UNL     1       9.902  -8.446  -2.792  1.00  0.00     0.031 C 
ATOM     37  C   UNL     1       8.776  -8.696   2.107  1.00  0.00     0.029 A 
ATOM     38  N   UNL     1       9.465 -10.578   1.116  1.00  0.00    -0.354 N 
ATOM     39  C   UNL     1      10.349 -10.666  -3.111  1.00  0.00     0.074 A 
ATOM     40  C   UNL     1      10.159  -9.364  -3.713  1.00  0.00     0.031 C 
ATOM     41  C   UNL     1       8.726  -9.675   3.024  1.00  0.00     0.029 A 
ATOM     42  C   UNL     1       9.150 -10.928   2.408  1.00  0.00     0.049 A 
ATOM     43  H   UNL     1       9.808 -11.219   0.452  1.00  0.00     0.167 HD
ATOM     44  C   UNL     1      10.734 -11.771  -3.792  1.00  0.00     0.034 A 
ATOM     45  C   UNL     1       9.198 -12.125   3.026  1.00  0.00     0.034 A 
ATOM     46  C   UNL     1      10.981 -13.047  -3.180  1.00  0.00     0.049 A 
ATOM     47  C   UNL     1       9.698 -13.321   2.263  1.00  0.00     0.074 A 
ATOM     48  C   UNL     1      11.468 -14.202  -3.765  1.00  0.00     0.029 A 
ATOM     49  N   UNL     1      10.762 -13.337  -1.842  1.00  0.00    -0.354 N 
ATOM     50  N   UNL     1      10.093 -13.395   1.015  1.00  0.00    -0.248 NA
ATOM     51  C   UNL     1       9.798 -14.589   3.001  1.00  0.00     0.031 C 
ATOM     52  C   UNL     1      11.539 -15.194  -2.781  1.00  0.00     0.029 A 
ATOM     53  C   UNL     1      11.105 -14.652  -1.581  1.00  0.00     0.049 A 
ATOM     54  H   UNL     1      10.415 -12.701  -1.176  1.00  0.00     0.167 HD
ATOM     55  C   UNL     1      10.523 -14.704   0.828  1.00  0.00     0.074 A 
ATOM     56  C   UNL     1      10.357 -15.383   2.097  1.00  0.00     0.031 C 
ATOM     57  C   UNL     1      10.997 -15.294  -0.296  1.00  0.00     0.034 A 
BRANCH  44  58
ATOM     58  C   UNL     1      10.983 -11.628  -5.270  1.00  0.00     0.023 A 
ATOM     59  C   UNL     1      12.132 -10.940  -5.712  1.00  0.00     0.012 A 
ATOM     60  C   UNL     1      10.121 -12.213  -6.216  1.00  0.00     0.148 A 
ATOM     61  C   UNL     1      12.403 -10.809  -7.072  1.00  0.00     0.002 A 
ATOM     62  C   UNL     1      10.419 -12.114  -7.571  1.00  0.00     0.091 A 
ATOM     63  F   UNL     1       9.020 -12.842  -5.779  1.00  0.00    -0.205 F 
ATOM     64  C   UNL     1      11.553 -11.404  -8.001  1.00  0.00     0.022 A 
BRANCH  62  65
ATOM     65  S   UNL     1       9.426 -12.909  -8.839  1.00  0.00     0.127 S 
ATOM     66  O   UNL     1       8.718 -11.768  -9.418  1.00  0.00    -0.237 OA
ATOM     67  O   UNL     1      10.445 -13.498  -9.708  1.00  0.00    -0.237 OA
ATOM     68  O   UNL     1       8.592 -13.878  -8.142  1.00  0.00    -0.744 OA
ENDBRANCH  62  65
ENDBRANCH  44  58
BRANCH  45  69
ATOM     69  C   UNL     1       8.846 -12.229   4.471  1.00  0.00     0.023 A 
ATOM     70  C   UNL     1       9.871 -12.445   5.412  1.00  0.00     0.012 A 
ATOM     71  C   UNL     1       7.520 -12.078   4.921  1.00  0.00     0.148 A 
ATOM     72  C   UNL     1       9.579 -12.539   6.774  1.00  0.00     0.002 A 
ATOM     73  C   UNL     1       7.244 -12.121   6.284  1.00  0.00     0.091 A 
ATOM     74  F   UNL     1       6.556 -11.887   4.010  1.00  0.00    -0.205 F 
ATOM     75  C   UNL     1       8.269 -12.366   7.210  1.00  0.00     0.022 A 
BRANCH  73  76
ATOM     76  S   UNL     1       5.606 -11.775   6.938  1.00  0.00     0.127 S 
ATOM     77  O   UNL     1       5.136 -13.112   7.291  1.00  0.00    -0.237 OA
ATOM     78  O   UNL     1       5.909 -10.907   8.078  1.00  0.00    -0.237 OA
ATOM     79  O   UNL     1       4.890 -11.110   5.858  1.00  0.00    -0.744 OA
ENDBRANCH  73  76
ENDBRANCH  45  69
BRANCH  57  80
ATOM     80  C   UNL     1      11.406 -16.740  -0.209  1.00  0.00     0.023 A 
ATOM     81  C   UNL     1      10.418 -17.741  -0.151  1.00  0.00     0.012 A 
ATOM     82  C   UNL     1      12.764 -17.108  -0.277  1.00  0.00     0.148 A 
ATOM     83  C   UNL     1      10.776 -19.088  -0.137  1.00  0.00     0.002 A 
ATOM     84  C   UNL     1      13.112 -18.453  -0.306  1.00  0.00     0.091 A 
ATOM     85  F   UNL     1      13.690 -16.138  -0.310  1.00  0.00    -0.205 F 
ATOM     86  C   UNL     1      12.120 -19.445  -0.227  1.00  0.00     0.022 A 
BRANCH  84  87
ATOM     87  S   UNL     1      14.811 -18.999  -0.515  1.00  0.00     0.127 S 
ATOM     88  O   UNL     1      15.157 -19.422   0.840  1.00  0.00    -0.237 OA
ATOM     89  O   UNL     1      14.672 -20.093  -1.478  1.00  0.00    -0.237 OA
ATOM     90  O   UNL     1      15.540 -17.843  -1.020  1.00  0.00    -0.744 OA
ENDBRANCH  84  87
ENDBRANCH  57  80
ENDBRANCH  31  32
ENDBRANCH  23  26
ENDBRANCH  21  22
ENDBRANCH   1  21
TORSDOF 15
