REMARK SMILES O=C1[NH+]=C(Nc2ccc(C(=O)NCCCCNC(=O)c3ccc(-c4c5nc(c(-c6cccc(S(=O)(=O)[O-])c6F)c6ccc([nH]6)c(-c6cccc(S(=O)(=O)[O-])c6F)c6nc(c(-c7cccc(S(=O)(=O)[O-])c7F)c7ccc4[nH]7)C=C6)C=C5)cc3)c(O)c2)S/C1=C\c1ccc[nH]1
REMARK SMILES IDX 15 1 14 2 13 3 12 4 10 5 11 6 9 8 6 9 7 10 85 11 8 12 83 13
REMARK SMILES IDX 5 14 1 15 2 16 3 17 87 18 4 19 86 21 88 22 89 24 90 25 93 26
REMARK SMILES IDX 91 27 92 28 84 30 16 32 17 33 18 34 19 36 20 37 21 38 82 39
REMARK SMILES IDX 22 40 81 41 23 42 24 43 25 44 75 45 26 46 80 47 74 48 76 49
REMARK SMILES IDX 27 50 79 51 73 52 72 53 28 55 60 56 40 57 59 58 41 59 44 60
REMARK SMILES IDX 58 61 77 62 42 63 43 64 57 66 78 67 45 68 29 69 30 70 38 71
REMARK SMILES IDX 31 72 33 73 39 74 32 75 34 76 35 77 36 78 37 79 61 80 62 81
REMARK SMILES IDX 70 82 63 83 65 84 71 85 64 86 66 87 67 88 68 89 69 90 46 91
REMARK SMILES IDX 47 92 55 93 48 94 50 95 56 96 49 97 51 98 52 99 53 100
REMARK SMILES IDX 54 101
REMARK H PARENT 12 7 3 20 5 23 93 29 84 31 17 35 76 54 44 65
REMARK Flexibility Score: inf
ROOT
ATOM      1  C   UNL     1      -1.561   9.979  -3.757  1.00  0.00     0.023 C 
ENDROOT
BRANCH   1   2
ATOM      2  C   UNL     1      -1.264   8.487  -3.622  1.00  0.00     0.023 C 
BRANCH   2   3
ATOM      3  C   UNL     1      -0.332   8.078  -2.486  1.00  0.00     0.116 C 
BRANCH   3   4
ATOM      4  N   UNL     1      -0.778   8.458  -1.155  1.00  0.00    -0.352 N 
ATOM      5  C   UNL     1      -0.611   7.815   0.050  1.00  0.00     0.255 C 
ATOM      6  O   UNL     1      -1.067   8.322   1.072  1.00  0.00    -0.269 OA
ATOM      7  H   UNL     1      -1.277   9.306  -1.109  1.00  0.00     0.163 HD
BRANCH   5   8
ATOM      8  C   UNL     1       0.057   6.494   0.145  1.00  0.00     0.081 A 
ATOM      9  C   UNL     1       1.028   3.843   0.256  1.00  0.00     0.129 A 
ATOM     10  C   UNL     1      -0.096   4.223   0.995  1.00  0.00     0.053 A 
ATOM     11  C   UNL     1       1.701   4.825  -0.480  1.00  0.00     0.098 A 
ATOM     12  C   UNL     1      -0.576   5.535   0.947  1.00  0.00     0.022 A 
ATOM     13  C   UNL     1       1.245   6.145  -0.499  1.00  0.00     0.132 A 
BRANCH   9  14
ATOM     14  N   UNL     1       1.448   2.511   0.161  1.00  0.00    -0.234 N 
ATOM     15  O   UNL     1      -2.275  -0.299  -0.023  1.00  0.00    -0.240 OA
ATOM     16  C   UNL     1      -1.097   0.027   0.056  1.00  0.00     0.346 C 
ATOM     17  N   UNL     1      -0.636   1.321   0.124  1.00  0.00    -0.199 N 
ATOM     18  C   UNL     1       0.021  -0.958   0.082  1.00  0.00     0.111 C 
ATOM     19  C   UNL     1       0.651   1.406   0.154  1.00  0.00     0.322 C 
ATOM     20  H   UNL     1      -1.230   2.105   0.148  1.00  0.00     0.316 HD
ATOM     21  S   UNL     1       1.517  -0.116   0.136  1.00  0.00     0.006 SA
ATOM     22  C   UNL     1      -0.195  -2.280   0.043  1.00  0.00     0.050 C 
ATOM     23  H   UNL     1       2.418   2.357   0.093  1.00  0.00     0.313 HD
BRANCH  22  24
ATOM     24  C   UNL     1       0.852  -3.227   0.136  1.00  0.00     0.039 A 
ATOM     25  C   UNL     1       1.854  -3.450   1.060  1.00  0.00     0.027 A 
ATOM     26  N   UNL     1       0.985  -4.168  -0.855  1.00  0.00    -0.362 N 
ATOM     27  C   UNL     1       2.634  -4.534   0.593  1.00  0.00     0.020 A 
ATOM     28  C   UNL     1       2.081  -4.953  -0.595  1.00  0.00     0.083 A 
ATOM     29  H   UNL     1       0.386  -4.266  -1.630  1.00  0.00     0.166 HD
ENDBRANCH  22  24
ENDBRANCH   9  14
BRANCH  13  30
ATOM     30  O   UNL     1       2.048   7.035  -1.157  1.00  0.00    -0.507 OA
ATOM     31  H   UNL     1       1.803   7.938  -1.208  1.00  0.00     0.293 HD
ENDBRANCH  13  30
ENDBRANCH   5   8
ENDBRANCH   3   4
ENDBRANCH   2   3
ENDBRANCH   1   2
BRANCH   1  32
ATOM     32  C   UNL     1      -0.362  10.917  -3.692  1.00  0.00     0.116 C 
BRANCH  32  33
ATOM     33  N   UNL     1       0.624  10.684  -4.740  1.00  0.00    -0.352 N 
ATOM     34  C   UNL     1       1.061  11.521  -5.742  1.00  0.00     0.251 C 
ATOM     35  H   UNL     1       1.040   9.792  -4.730  1.00  0.00     0.163 HD
ATOM     36  O   UNL     1       1.832  11.097  -6.599  1.00  0.00    -0.269 OA
BRANCH  34  37
ATOM     37  C   UNL     1       0.574  12.917  -5.810  1.00  0.00     0.039 A 
ATOM     38  C   UNL     1       0.121  13.418  -7.034  1.00  0.00     0.014 A 
ATOM     39  C   UNL     1       0.530  13.718  -4.668  1.00  0.00     0.014 A 
ATOM     40  C   UNL     1      -0.464  14.686  -7.088  1.00  0.00     0.010 A 
ATOM     41  C   UNL     1      -0.142  14.935  -4.705  1.00  0.00     0.010 A 
ATOM     42  C   UNL     1      -0.648  15.436  -5.914  1.00  0.00    -0.014 A 
BRANCH  42  43
ATOM     43  C   UNL     1      -1.383  16.730  -5.926  1.00  0.00     0.031 A 
ATOM     44  C   UNL     1      -0.706  17.993  -5.465  1.00  0.00     0.074 A 
ATOM     45  C   UNL     1      -2.689  16.754  -6.261  1.00  0.00     0.049 A 
ATOM     46  N   UNL     1      -1.202  19.198  -5.346  1.00  0.00    -0.248 NA
ATOM     47  C   UNL     1       0.705  17.885  -5.056  1.00  0.00     0.031 C 
ATOM     48  C   UNL     1      -3.487  15.587  -6.645  1.00  0.00     0.029 A 
ATOM     49  N   UNL     1      -3.585  17.795  -6.307  1.00  0.00    -0.354 N 
ATOM     50  C   UNL     1      -0.183  19.978  -4.812  1.00  0.00     0.074 A 
ATOM     51  C   UNL     1       0.948  19.103  -4.595  1.00  0.00     0.031 C 
ATOM     52  C   UNL     1      -4.748  15.976  -6.894  1.00  0.00     0.029 A 
ATOM     53  C   UNL     1      -4.861  17.411  -6.651  1.00  0.00     0.049 A 
ATOM     54  H   UNL     1      -3.338  18.727  -6.112  1.00  0.00     0.167 HD
ATOM     55  C   UNL     1      -0.176  21.307  -4.551  1.00  0.00     0.034 A 
ATOM     56  C   UNL     1      -6.000  18.127  -6.746  1.00  0.00     0.034 A 
ATOM     57  C   UNL     1      -1.290  22.181  -4.799  1.00  0.00     0.049 A 
ATOM     58  C   UNL     1      -5.958  19.607  -6.480  1.00  0.00     0.074 A 
ATOM     59  C   UNL     1      -1.350  23.556  -4.656  1.00  0.00     0.029 A 
ATOM     60  N   UNL     1      -2.543  21.768  -5.223  1.00  0.00    -0.354 N 
ATOM     61  N   UNL     1      -4.940  20.354  -6.130  1.00  0.00    -0.248 NA
ATOM     62  C   UNL     1      -7.215  20.351  -6.657  1.00  0.00     0.031 C 
ATOM     63  C   UNL     1      -2.653  23.969  -4.953  1.00  0.00     0.029 A 
ATOM     64  C   UNL     1      -3.389  22.858  -5.330  1.00  0.00     0.049 A 
ATOM     65  H   UNL     1      -2.794  20.836  -5.420  1.00  0.00     0.167 HD
ATOM     66  C   UNL     1      -5.421  21.658  -6.082  1.00  0.00     0.074 A 
ATOM     67  C   UNL     1      -6.819  21.600  -6.458  1.00  0.00     0.031 C 
ATOM     68  C   UNL     1      -4.766  22.797  -5.750  1.00  0.00     0.034 A 
BRANCH  55  69
ATOM     69  C   UNL     1       1.091  21.906  -3.995  1.00  0.00     0.023 A 
ATOM     70  C   UNL     1       2.240  21.998  -4.808  1.00  0.00     0.012 A 
ATOM     71  C   UNL     1       1.128  22.428  -2.687  1.00  0.00     0.148 A 
ATOM     72  C   UNL     1       3.416  22.561  -4.315  1.00  0.00     0.002 A 
ATOM     73  C   UNL     1       2.288  23.035  -2.221  1.00  0.00     0.091 A 
ATOM     74  F   UNL     1       0.033  22.315  -1.922  1.00  0.00    -0.205 F 
ATOM     75  C   UNL     1       3.437  23.089  -3.027  1.00  0.00     0.022 A 
BRANCH  73  76
ATOM     76  S   UNL     1       2.391  23.820  -0.609  1.00  0.00     0.127 S 
ATOM     77  O   UNL     1       3.302  22.921   0.099  1.00  0.00    -0.237 OA
ATOM     78  O   UNL     1       2.961  25.126  -0.942  1.00  0.00    -0.237 OA
ATOM     79  O   UNL     1       1.031  23.863  -0.093  1.00  0.00    -0.744 OA
ENDBRANCH  73  76
ENDBRANCH  55  69
BRANCH  56  80
ATOM     80  C   UNL     1      -7.269  17.460  -7.157  1.00  0.00     0.023 A 
ATOM     81  C   UNL     1      -7.832  17.749  -8.415  1.00  0.00     0.012 A 
ATOM     82  C   UNL     1      -7.907  16.528  -6.316  1.00  0.00     0.148 A 
ATOM     83  C   UNL     1      -9.028  17.149  -8.813  1.00  0.00     0.002 A 
ATOM     84  C   UNL     1      -9.066  15.890  -6.743  1.00  0.00     0.091 A 
ATOM     85  F   UNL     1      -7.359  16.273  -5.120  1.00  0.00    -0.205 F 
ATOM     86  C   UNL     1      -9.639  16.213  -7.983  1.00  0.00     0.022 A 
BRANCH  84  87
ATOM     87  S   UNL     1      -9.848  14.578  -5.799  1.00  0.00     0.127 S 
ATOM     88  O   UNL     1     -11.108  15.203  -5.406  1.00  0.00    -0.237 OA
ATOM     89  O   UNL     1      -9.971  13.520  -6.803  1.00  0.00    -0.237 OA
ATOM     90  O   UNL     1      -8.930  14.272  -4.711  1.00  0.00    -0.744 OA
ENDBRANCH  84  87
ENDBRANCH  56  80
BRANCH  68  91
ATOM     91  C   UNL     1      -5.530  24.094  -5.824  1.00  0.00     0.023 A 
ATOM     92  C   UNL     1      -6.535  24.382  -4.880  1.00  0.00     0.012 A 
ATOM     93  C   UNL     1      -5.193  25.062  -6.792  1.00  0.00     0.148 A 
ATOM     94  C   UNL     1      -7.217  25.598  -4.920  1.00  0.00     0.002 A 
ATOM     95  C   UNL     1      -5.838  26.292  -6.791  1.00  0.00     0.091 A 
ATOM     96  F   UNL     1      -4.246  24.763  -7.692  1.00  0.00    -0.205 F 
ATOM     97  C   UNL     1      -6.860  26.556  -5.865  1.00  0.00     0.022 A 
BRANCH  95  98
ATOM     98  S   UNL     1      -5.376  27.624  -7.904  1.00  0.00     0.127 S 
ATOM     99  O   UNL     1      -6.538  27.689  -8.789  1.00  0.00    -0.237 OA
ATOM    100  O   UNL     1      -5.241  28.758  -6.989  1.00  0.00    -0.237 OA
ATOM    101  O   UNL     1      -4.133  27.207  -8.539  1.00  0.00    -0.744 OA
ENDBRANCH  95  98
ENDBRANCH  68  91
ENDBRANCH  42  43
ENDBRANCH  34  37
ENDBRANCH  32  33
ENDBRANCH   1  32
TORSDOF 17
