REMARK SMILES O=C(/C=C/[C@@]12C=C(O)C(=O)C=C1C(=O)C1=Cc3cc(O)c(O)cc3O[C@@H](c3ccc(O)c(O)c3)[C@@H]12)NCCCCNC(=O)c1ccc(-c2c3nc(c(-c4cccc(S(=O)(=O)[O-])c4F)c4ccc([nH]4)c(-c4cccc(S(=O)(=O)[O-])c4F)c4nc(c(-c5cccc(S(=O)(=O)[O-])c5F)c5ccc2[nH]5)C=C4)C=C3)cc1
REMARK SMILES IDX 37 1 36 2 1 3 2 4 3 6 4 7 5 8 6 9 12 10 35 11 7 12 11 13
REMARK SMILES IDX 13 14 15 15 9 17 14 18 16 19 10 20 8 21 17 23 18 24 24 25
REMARK SMILES IDX 19 26 23 27 21 28 25 29 26 30 27 32 28 33 34 34 29 35 32 36
REMARK SMILES IDX 30 37 33 38 31 40 20 42 22 44 38 46 39 47 40 48 41 49 42 50
REMARK SMILES IDX 43 52 44 53 45 54 106 55 46 56 105 57 47 58 48 59 49 60
REMARK SMILES IDX 99 61 50 62 104 63 98 64 100 65 51 66 103 67 97 68 96 69
REMARK SMILES IDX 52 71 84 72 64 73 83 74 65 75 68 76 82 77 101 78 66 79 67 80
REMARK SMILES IDX 81 82 102 83 69 84 53 85 54 86 62 87 55 88 57 89 63 90 56 91
REMARK SMILES IDX 58 92 59 93 60 94 61 95 85 96 86 97 94 98 87 99 89 100
REMARK SMILES IDX 95 101 88 102 90 103 91 104 92 105 93 106 70 107 71 108
REMARK SMILES IDX 79 109 72 110 74 111 80 112 73 113 75 114 76 115 77 116
REMARK SMILES IDX 78 117
REMARK H PARENT 36 5 8 22 33 39 31 41 20 43 22 45 41 51 100 70 68 81
REMARK Flexibility Score: 90.00
ROOT
ATOM      1  C   UNL     1       1.832  -1.642   1.886  1.00  0.00     0.116 C 
ENDROOT
BRANCH   1   2
ATOM      2  N   UNL     1       2.456  -0.805   0.875  1.00  0.00    -0.353 N 
ATOM      3  O   UNL     1       0.586  -0.470  -0.423  1.00  0.00    -0.270 OA
ATOM      4  C   UNL     1       1.777  -0.284  -0.203  1.00  0.00     0.243 C 
ATOM      5  H   UNL     1       3.414  -0.601   0.966  1.00  0.00     0.163 HD
BRANCH   4   6
ATOM      6  C   UNL     1       2.554   0.622  -1.114  1.00  0.00     0.068 C 
ATOM      7  C   UNL     1       3.894   0.673  -1.155  1.00  0.00    -0.005 C 
BRANCH   7   8
ATOM      8  C   UNL     1       4.836   1.603  -1.956  1.00  0.00     0.051 C 
ATOM      9  C   UNL     1       4.784   2.936  -1.264  1.00  0.00     0.040 C 
ATOM     10  C   UNL     1       6.200   0.958  -1.837  1.00  0.00     0.018 C 
ATOM     11  C   UNL     1       4.678   1.592  -3.519  1.00  0.00     0.087 CG0
ATOM     12  C   UNL     1       5.752   3.374  -0.449  1.00  0.00     0.160 C 
ATOM     13  C   UNL     1       7.207   1.356  -1.054  1.00  0.00     0.065 C 
ATOM     14  C   UNL     1       6.219  -0.162  -2.817  1.00  0.00     0.186 C 
ATOM     15  C   UNL     1       5.203   0.206  -3.845  1.00  0.00     0.009 C 
ATOM     16  G   UNL     1       5.580   2.541  -4.397  1.00  0.00     0.000 G0
ATOM     17  C   UNL     1       7.015   2.590  -0.254  1.00  0.00     0.220 C 
ATOM     18  O   UNL     1       6.928  -1.137  -2.794  1.00  0.00    -0.289 OA
ATOM     19  C   UNL     1       4.940  -0.465  -4.969  1.00  0.00     0.020 C 
ATOM     20  O   UNL     1       7.873   3.021   0.508  1.00  0.00    -0.286 OA
BRANCH  12  21
ATOM     21  O   UNL     1       5.631   4.583   0.208  1.00  0.00    -0.504 OA
ATOM     22  H   UNL     1       4.853   5.096   0.105  1.00  0.00     0.293 HD
ENDBRANCH  12  21
BRANCH  19  23
ATOM     23  C   UNL     1       4.226   0.249  -6.037  1.00  0.00     0.021 A 
ATOM     24  C   UNL     1       3.180  -0.380  -6.727  1.00  0.00     0.062 A 
ATOM     25  C   UNL     1       4.622   1.551  -6.420  1.00  0.00     0.131 A 
ATOM     26  C   UNL     1       2.566   0.282  -7.789  1.00  0.00     0.158 A 
ATOM     27  C   UNL     1       4.052   2.165  -7.537  1.00  0.00     0.097 A 
ATOM     28  C   UNL     1       3.011   1.537  -8.197  1.00  0.00     0.161 A 
BRANCH  25  29
ATOM     29  O   UNL     1       5.634   2.256  -5.825  1.00  0.00    -0.484 OA
BRANCH  29  30
ATOM     30  C   UNL     1       5.580   2.541  -4.397  1.00  0.00     0.213 CG0
ATOM     31  G   UNL     1       4.678   1.592  -3.519  1.00  0.00     0.000 G0
BRANCH  30  32
ATOM     32  C   UNL     1       5.311   4.028  -4.236  1.00  0.00    -0.003 A 
ATOM     33  C   UNL     1       6.121   4.793  -3.379  1.00  0.00     0.011 A 
ATOM     34  C   UNL     1       4.271   4.676  -4.917  1.00  0.00     0.057 A 
ATOM     35  C   UNL     1       5.805   6.120  -3.084  1.00  0.00     0.050 A 
ATOM     36  C   UNL     1       4.012   6.026  -4.687  1.00  0.00     0.157 A 
ATOM     37  C   UNL     1       4.732   6.726  -3.724  1.00  0.00     0.157 A 
BRANCH  36  38
ATOM     38  O   UNL     1       3.033   6.659  -5.398  1.00  0.00    -0.504 OA
ATOM     39  H   UNL     1       2.856   7.567  -5.247  1.00  0.00     0.293 HD
ENDBRANCH  36  38
BRANCH  37  40
ATOM     40  O   UNL     1       4.383   8.008  -3.412  1.00  0.00    -0.504 OA
ATOM     41  H   UNL     1       4.867   8.480  -2.763  1.00  0.00     0.293 HD
ENDBRANCH  37  40
ENDBRANCH  30  32
ENDBRANCH  29  30
ENDBRANCH  25  29
BRANCH  26  42
ATOM     42  O   UNL     1       1.518  -0.264  -8.480  1.00  0.00    -0.504 OA
ATOM     43  H   UNL     1       1.187  -1.107  -8.238  1.00  0.00     0.293 HD
ENDBRANCH  26  42
BRANCH  28  44
ATOM     44  O   UNL     1       2.419   2.169  -9.253  1.00  0.00    -0.504 OA
ATOM     45  H   UNL     1       1.713   1.756  -9.710  1.00  0.00     0.293 HD
ENDBRANCH  28  44
ENDBRANCH  19  23
ENDBRANCH   7   8
ENDBRANCH   4   6
ENDBRANCH   1   2
BRANCH   1  46
ATOM     46  C   UNL     1       2.250  -3.112   1.794  1.00  0.00     0.023 C 
BRANCH  46  47
ATOM     47  C   UNL     1       3.746  -3.393   1.968  1.00  0.00     0.023 C 
BRANCH  47  48
ATOM     48  C   UNL     1       4.372  -2.939   3.284  1.00  0.00     0.116 C 
BRANCH  48  49
ATOM     49  N   UNL     1       3.839  -3.618   4.456  1.00  0.00    -0.352 N 
ATOM     50  C   UNL     1       4.502  -4.252   5.486  1.00  0.00     0.251 C 
ATOM     51  H   UNL     1       2.857  -3.627   4.523  1.00  0.00     0.163 HD
ATOM     52  O   UNL     1       3.857  -4.852   6.342  1.00  0.00    -0.269 OA
BRANCH  50  53
ATOM     53  C   UNL     1       5.984  -4.253   5.536  1.00  0.00     0.039 A 
ATOM     54  C   UNL     1       6.713  -3.092   5.283  1.00  0.00     0.014 A 
ATOM     55  C   UNL     1       6.655  -5.450   5.807  1.00  0.00     0.014 A 
ATOM     56  C   UNL     1       8.092  -3.168   5.099  1.00  0.00     0.010 A 
ATOM     57  C   UNL     1       8.051  -5.505   5.711  1.00  0.00     0.010 A 
ATOM     58  C   UNL     1       8.776  -4.381   5.287  1.00  0.00    -0.014 A 
BRANCH  58  59
ATOM     59  C   UNL     1      10.238  -4.453   5.011  1.00  0.00     0.031 A 
ATOM     60  C   UNL     1      10.776  -5.336   3.913  1.00  0.00     0.074 A 
ATOM     61  C   UNL     1      11.087  -3.680   5.717  1.00  0.00     0.049 A 
ATOM     62  N   UNL     1      12.011  -5.478   3.501  1.00  0.00    -0.248 NA
ATOM     63  C   UNL     1       9.807  -6.170   3.185  1.00  0.00     0.031 C 
ATOM     64  C   UNL     1      10.696  -2.792   6.813  1.00  0.00     0.029 A 
ATOM     65  N   UNL     1      12.444  -3.503   5.612  1.00  0.00    -0.354 N 
ATOM     66  C   UNL     1      11.972  -6.434   2.491  1.00  0.00     0.074 A 
ATOM     67  C   UNL     1      10.595  -6.859   2.371  1.00  0.00     0.031 C 
ATOM     68  C   UNL     1      11.778  -2.131   7.248  1.00  0.00     0.029 A 
ATOM     69  C   UNL     1      12.949  -2.586   6.502  1.00  0.00     0.049 A 
ATOM     70  H   UNL     1      13.002  -3.987   4.960  1.00  0.00     0.167 HD
ATOM     71  C   UNL     1      12.982  -6.896   1.713  1.00  0.00     0.034 A 
ATOM     72  C   UNL     1      14.210  -2.157   6.705  1.00  0.00     0.034 A 
ATOM     73  C   UNL     1      14.346  -6.448   1.808  1.00  0.00     0.049 A 
ATOM     74  C   UNL     1      15.317  -2.697   5.845  1.00  0.00     0.074 A 
ATOM     75  C   UNL     1      15.430  -6.827   1.036  1.00  0.00     0.029 A 
ATOM     76  N   UNL     1      14.818  -5.525   2.731  1.00  0.00    -0.354 N 
ATOM     77  N   UNL     1      15.244  -3.529   4.834  1.00  0.00    -0.248 NA
ATOM     78  C   UNL     1      16.679  -2.229   6.140  1.00  0.00     0.031 C 
ATOM     79  C   UNL     1      16.561  -6.152   1.507  1.00  0.00     0.029 A 
ATOM     80  C   UNL     1      16.179  -5.332   2.557  1.00  0.00     0.049 A 
ATOM     81  H   UNL     1      14.266  -5.074   3.409  1.00  0.00     0.167 HD
ATOM     82  C   UNL     1      16.543  -3.672   4.361  1.00  0.00     0.074 A 
ATOM     83  C   UNL     1      17.380  -2.818   5.180  1.00  0.00     0.031 C 
ATOM     84  C   UNL     1      17.001  -4.455   3.353  1.00  0.00     0.034 A 
BRANCH  71  85
ATOM     85  C   UNL     1      12.640  -7.911   0.649  1.00  0.00     0.023 A 
ATOM     86  C   UNL     1      11.910  -7.504  -0.487  1.00  0.00     0.012 A 
ATOM     87  C   UNL     1      13.088  -9.244   0.737  1.00  0.00     0.148 A 
ATOM     88  C   UNL     1      11.599  -8.413  -1.498  1.00  0.00     0.002 A 
ATOM     89  C   UNL     1      12.813 -10.133  -0.297  1.00  0.00     0.091 A 
ATOM     90  F   UNL     1      13.764  -9.622   1.831  1.00  0.00    -0.205 F 
ATOM     91  C   UNL     1      12.059  -9.723  -1.408  1.00  0.00     0.022 A 
BRANCH  89  92
ATOM     92  S   UNL     1      13.435 -11.820  -0.314  1.00  0.00     0.127 S 
ATOM     93  O   UNL     1      12.223 -12.583  -0.017  1.00  0.00    -0.237 OA
ATOM     94  O   UNL     1      13.919 -11.958  -1.688  1.00  0.00    -0.237 OA
ATOM     95  O   UNL     1      14.476 -11.872   0.703  1.00  0.00    -0.744 OA
ENDBRANCH  89  92
ENDBRANCH  71  85
BRANCH  72  96
ATOM     96  C   UNL     1      14.461  -1.103   7.729  1.00  0.00     0.023 A 
ATOM     97  C   UNL     1      14.803   0.196   7.310  1.00  0.00     0.012 A 
ATOM     98  C   UNL     1      14.264  -1.354   9.102  1.00  0.00     0.148 A 
ATOM     99  C   UNL     1      14.944   1.228   8.238  1.00  0.00     0.002 A 
ATOM    100  C   UNL     1      14.344  -0.309  10.014  1.00  0.00     0.091 A 
ATOM    101  F   UNL     1      13.950  -2.602   9.479  1.00  0.00    -0.205 F 
ATOM    102  C   UNL     1      14.698   0.980   9.586  1.00  0.00     0.022 A 
BRANCH 100 103
ATOM    103  S   UNL     1      13.893  -0.496  11.743  1.00  0.00     0.127 S 
ATOM    104  O   UNL     1      15.160  -0.214  12.415  1.00  0.00    -0.237 OA
ATOM    105  O   UNL     1      12.870   0.538  11.896  1.00  0.00    -0.237 OA
ATOM    106  O   UNL     1      13.401  -1.860  11.880  1.00  0.00    -0.744 OA
ENDBRANCH 100 103
ENDBRANCH  72  96
BRANCH  84 107
ATOM    107  C   UNL     1      18.481  -4.441   3.065  1.00  0.00     0.023 A 
ATOM    108  C   UNL     1      19.365  -5.082   3.954  1.00  0.00     0.012 A 
ATOM    109  C   UNL     1      18.983  -3.892   1.868  1.00  0.00     0.148 A 
ATOM    110  C   UNL     1      20.728  -5.159   3.669  1.00  0.00     0.002 A 
ATOM    111  C   UNL     1      20.335  -4.015   1.566  1.00  0.00     0.091 A 
ATOM    112  F   UNL     1      18.128  -3.271   1.042  1.00  0.00    -0.205 F 
ATOM    113  C   UNL     1      21.210  -4.639   2.470  1.00  0.00     0.022 A 
BRANCH 111 114
ATOM    114  S   UNL     1      21.032  -3.467   0.003  1.00  0.00     0.127 S 
ATOM    115  O   UNL     1      21.837  -2.321   0.421  1.00  0.00    -0.237 OA
ATOM    116  O   UNL     1      21.806  -4.635  -0.417  1.00  0.00    -0.237 OA
ATOM    117  O   UNL     1      19.898  -3.152  -0.855  1.00  0.00    -0.744 OA
ENDBRANCH 111 114
ENDBRANCH  84 107
ENDBRANCH  58  59
ENDBRANCH  50  53
ENDBRANCH  48  49
ENDBRANCH  47  48
ENDBRANCH  46  47
ENDBRANCH   1  46
TORSDOF 21
