REMARK SMILES Cc1ccccc1CNc1ccc(C(=O)NCCCCNC(=O)c2ccc(-c3c4nc(c(-c5cccc(S(=O)(=O)[O-])c5F)c5ccc([nH]5)c(-c5cccc(S(=O)(=O)[O-])c5F)c5nc(c(-c6cccc(S(=O)(=O)[O-])c6F)c6ccc3[nH]6)C=C5)C=C4)cc2)c(F)c1F
REMARK SMILES IDX 18 1 17 2 16 3 14 4 15 5 13 7 10 8 11 9 89 10 12 11 87 12
REMARK SMILES IDX 90 13 88 14 9 15 8 17 7 18 1 19 2 20 3 21 4 22 6 23 5 24
REMARK SMILES IDX 19 25 20 26 21 27 22 28 23 30 24 31 25 32 86 33 26 34 85 35
REMARK SMILES IDX 27 36 28 37 29 38 79 39 30 40 84 41 78 42 80 43 31 44 83 45
REMARK SMILES IDX 77 46 76 47 32 49 64 50 44 51 63 52 45 53 48 54 62 55 81 56
REMARK SMILES IDX 46 57 47 58 61 60 82 61 49 62 33 63 34 64 42 65 35 66 37 67
REMARK SMILES IDX 43 68 36 69 38 70 39 71 40 72 41 73 65 74 66 75 74 76 67 77
REMARK SMILES IDX 69 78 75 79 68 80 70 81 71 82 72 83 73 84 50 85 51 86 59 87
REMARK SMILES IDX 52 88 54 89 60 90 53 91 55 92 56 93 57 94 58 95
REMARK H PARENT 16 6 9 16 21 29 80 48 48 59
REMARK Flexibility Score: inf
ROOT
ATOM      1  C   UNL     1       1.234  10.226   0.058  1.00  0.00     0.023 C 
ENDROOT
BRANCH   1   2
ATOM      2  C   UNL     1       0.249   9.300   0.768  1.00  0.00     0.116 C 
BRANCH   2   3
ATOM      3  N   UNL     1      -1.062   9.225   0.131  1.00  0.00    -0.352 N 
ATOM      4  C   UNL     1      -1.716   8.239  -0.574  1.00  0.00     0.254 C 
ATOM      5  O   UNL     1      -2.817   8.500  -1.054  1.00  0.00    -0.269 OA
ATOM      6  H   UNL     1      -1.588  10.051   0.225  1.00  0.00     0.163 HD
BRANCH   4   7
ATOM      7  C   UNL     1      -1.134   6.893  -0.769  1.00  0.00     0.078 A 
ATOM      8  C   UNL     1       0.055   4.360  -1.173  1.00  0.00     0.074 A 
ATOM      9  C   UNL     1       0.362   5.133  -0.056  1.00  0.00     0.030 A 
ATOM     10  C   UNL     1      -0.863   4.887  -2.094  1.00  0.00     0.182 A 
ATOM     11  C   UNL     1      -0.310   6.320   0.195  1.00  0.00     0.019 A 
ATOM     12  C   UNL     1      -1.437   6.146  -1.909  1.00  0.00     0.173 A 
ATOM     13  F   UNL     1      -1.216   4.151  -3.162  1.00  0.00    -0.201 F 
ATOM     14  F   UNL     1      -2.293   6.599  -2.838  1.00  0.00    -0.203 F 
BRANCH   8  15
ATOM     15  N   UNL     1       0.582   3.088  -1.329  1.00  0.00    -0.379 N 
ATOM     16  H   UNL     1       0.651   2.698  -2.231  1.00  0.00     0.161 HD
BRANCH  15  17
ATOM     17  C   UNL     1       1.033   2.321  -0.179  1.00  0.00     0.149 C 
BRANCH  17  18
ATOM     18  C   UNL     1       0.345   0.981  -0.143  1.00  0.00    -0.026 A 
ATOM     19  C   UNL     1       2.530  -0.374  -0.069  1.00  0.00     0.044 C 
ATOM     20  C   UNL     1       1.031  -0.244  -0.076  1.00  0.00    -0.046 A 
ATOM     21  C   UNL     1       0.281  -1.432  -0.012  1.00  0.00     0.004 A 
ATOM     22  C   UNL     1      -1.115  -1.412   0.014  1.00  0.00     0.000 A 
ATOM     23  C   UNL     1      -1.068   0.983  -0.096  1.00  0.00     0.006 A 
ATOM     24  C   UNL     1      -1.792  -0.202  -0.022  1.00  0.00     0.000 A 
ENDBRANCH  17  18
ENDBRANCH  15  17
ENDBRANCH   8  15
ENDBRANCH   4   7
ENDBRANCH   2   3
ENDBRANCH   1   2
BRANCH   1  25
ATOM     25  C   UNL     1       0.852  11.703   0.007  1.00  0.00     0.023 C 
BRANCH  25  26
ATOM     26  C   UNL     1       0.498  12.262   1.368  1.00  0.00     0.116 C 
BRANCH  26  27
ATOM     27  N   UNL     1       1.640  12.330   2.250  1.00  0.00    -0.352 N 
ATOM     28  C   UNL     1       1.785  13.100   3.378  1.00  0.00     0.251 C 
ATOM     29  H   UNL     1       2.405  11.757   2.015  1.00  0.00     0.163 HD
ATOM     30  O   UNL     1       2.926  13.504   3.632  1.00  0.00    -0.269 OA
BRANCH  28  31
ATOM     31  C   UNL     1       0.675  13.258   4.353  1.00  0.00     0.039 A 
ATOM     32  C   UNL     1       1.014  13.665   5.652  1.00  0.00     0.014 A 
ATOM     33  C   UNL     1      -0.573  12.688   4.124  1.00  0.00     0.014 A 
ATOM     34  C   UNL     1       0.264  13.219   6.732  1.00  0.00     0.010 A 
ATOM     35  C   UNL     1      -1.279  12.190   5.175  1.00  0.00     0.010 A 
ATOM     36  C   UNL     1      -0.787  12.363   6.465  1.00  0.00    -0.014 A 
BRANCH  36  37
ATOM     37  C   UNL     1      -1.543  11.599   7.423  1.00  0.00     0.031 A 
ATOM     38  C   UNL     1      -2.711  12.251   8.019  1.00  0.00     0.074 A 
ATOM     39  C   UNL     1      -1.363  10.262   7.340  1.00  0.00     0.049 A 
ATOM     40  N   UNL     1      -3.464  11.711   8.901  1.00  0.00    -0.248 NA
ATOM     41  C   UNL     1      -3.123  13.601   7.646  1.00  0.00     0.031 C 
ATOM     42  C   UNL     1      -2.313   9.192   7.605  1.00  0.00     0.029 A 
ATOM     43  N   UNL     1      -0.237   9.555   6.956  1.00  0.00    -0.354 N 
ATOM     44  C   UNL     1      -4.606  12.480   8.985  1.00  0.00     0.074 A 
ATOM     45  C   UNL     1      -4.286  13.702   8.294  1.00  0.00     0.031 C 
ATOM     46  C   UNL     1      -1.646   8.021   7.657  1.00  0.00     0.029 A 
ATOM     47  C   UNL     1      -0.226   8.334   7.622  1.00  0.00     0.049 A 
ATOM     48  H   UNL     1       0.444   9.866   6.316  1.00  0.00     0.167 HD
ATOM     49  C   UNL     1      -5.726  11.893   9.491  1.00  0.00     0.034 A 
ATOM     50  C   UNL     1       0.636   8.121   8.671  1.00  0.00     0.034 A 
ATOM     51  C   UNL     1      -5.391  10.533   9.963  1.00  0.00     0.049 A 
ATOM     52  C   UNL     1      -0.088   8.069  10.016  1.00  0.00     0.074 A 
ATOM     53  C   UNL     1      -5.511   9.281   9.381  1.00  0.00     0.029 A 
ATOM     54  N   UNL     1      -4.488  10.388  11.013  1.00  0.00    -0.354 N 
ATOM     55  N   UNL     1      -1.339   8.403  10.191  1.00  0.00    -0.248 NA
ATOM     56  C   UNL     1       0.524   7.604  11.259  1.00  0.00     0.031 C 
ATOM     57  C   UNL     1      -4.571   8.414  10.016  1.00  0.00     0.029 A 
ATOM     58  C   UNL     1      -3.911   9.123  11.007  1.00  0.00     0.049 A 
ATOM     59  H   UNL     1      -4.285  11.089  11.673  1.00  0.00     0.167 HD
ATOM     60  C   UNL     1      -1.681   8.323  11.511  1.00  0.00     0.074 A 
ATOM     61  C   UNL     1      -0.496   7.742  12.127  1.00  0.00     0.031 C 
ATOM     62  C   UNL     1      -2.882   8.781  11.993  1.00  0.00     0.034 A 
BRANCH  49  63
ATOM     63  C   UNL     1      -7.159  12.389   9.343  1.00  0.00     0.023 A 
ATOM     64  C   UNL     1      -8.180  11.470   9.676  1.00  0.00     0.012 A 
ATOM     65  C   UNL     1      -7.605  13.647   8.865  1.00  0.00     0.148 A 
ATOM     66  C   UNL     1      -9.541  11.750   9.500  1.00  0.00     0.002 A 
ATOM     67  C   UNL     1      -8.964  13.927   8.675  1.00  0.00     0.091 A 
ATOM     68  F   UNL     1      -6.733  14.618   8.607  1.00  0.00    -0.205 F 
ATOM     69  C   UNL     1      -9.935  12.975   8.987  1.00  0.00     0.022 A 
BRANCH  67  70
ATOM     70  S   UNL     1      -9.560  15.497   8.008  1.00  0.00     0.127 S 
ATOM     71  O   UNL     1     -10.310  15.063   6.829  1.00  0.00    -0.237 OA
ATOM     72  O   UNL     1     -10.388  16.006   9.100  1.00  0.00    -0.237 OA
ATOM     73  O   UNL     1      -8.379  16.297   7.708  1.00  0.00    -0.744 OA
ENDBRANCH  67  70
ENDBRANCH  49  63
BRANCH  50  74
ATOM     74  C   UNL     1       1.986   8.732   8.412  1.00  0.00     0.023 A 
ATOM     75  C   UNL     1       2.675   8.247   7.270  1.00  0.00     0.012 A 
ATOM     76  C   UNL     1       2.321  10.004   8.909  1.00  0.00     0.148 A 
ATOM     77  C   UNL     1       3.486   9.094   6.511  1.00  0.00     0.002 A 
ATOM     78  C   UNL     1       3.152  10.837   8.156  1.00  0.00     0.091 A 
ATOM     79  F   UNL     1       1.779  10.408  10.064  1.00  0.00    -0.205 F 
ATOM     80  C   UNL     1       3.678  10.408   6.926  1.00  0.00     0.022 A 
BRANCH  78  81
ATOM     81  S   UNL     1       3.494  12.528   8.670  1.00  0.00     0.127 S 
ATOM     82  O   UNL     1       4.722  12.357   9.442  1.00  0.00    -0.237 OA
ATOM     83  O   UNL     1       3.671  13.228   7.399  1.00  0.00    -0.237 OA
ATOM     84  O   UNL     1       2.316  12.938   9.419  1.00  0.00    -0.744 OA
ENDBRANCH  78  81
ENDBRANCH  50  74
BRANCH  62  85
ATOM     85  C   UNL     1      -3.203   8.967  13.466  1.00  0.00     0.023 A 
ATOM     86  C   UNL     1      -2.200   9.099  14.444  1.00  0.00     0.012 A 
ATOM     87  C   UNL     1      -4.540   9.178  13.897  1.00  0.00     0.148 A 
ATOM     88  C   UNL     1      -2.503   9.342  15.787  1.00  0.00     0.002 A 
ATOM     89  C   UNL     1      -4.821   9.565  15.202  1.00  0.00     0.091 A 
ATOM     90  F   UNL     1      -5.559   8.985  13.047  1.00  0.00    -0.205 F 
ATOM     91  C   UNL     1      -3.812   9.603  16.163  1.00  0.00     0.022 A 
BRANCH  89  92
ATOM     92  S   UNL     1      -6.441  10.205  15.649  1.00  0.00     0.127 S 
ATOM     93  O   UNL     1      -7.084   9.026  16.224  1.00  0.00    -0.237 OA
ATOM     94  O   UNL     1      -6.106  11.251  16.618  1.00  0.00    -0.237 OA
ATOM     95  O   UNL     1      -7.010  10.706  14.405  1.00  0.00    -0.744 OA
ENDBRANCH  89  92
ENDBRANCH  62  85
ENDBRANCH  36  37
ENDBRANCH  28  31
ENDBRANCH  26  27
ENDBRANCH  25  26
ENDBRANCH   1  25
TORSDOF 17
