REMARK SMILES C[C@H]1SCCC[C@]1(Nc1ccc(Cl)cc1)C(=O)NCCCCNC(=O)c1ccc(-c2c3nc(c(-c4cccc(S(=O)(=O)[O-])c4F)c4ccc([nH]4)c(-c4cccc(S(=O)(=O)[O-])c4F)c4nc(c(-c5cccc(S(=O)(=O)[O-])c5F)c5ccc2[nH]5)C=C4)C=C3)cc1
REMARK SMILES IDX 21 1 20 2 19 3 18 4 16 5 17 6 7 8 1 9 2 10 3 11 4 12 6 13
REMARK SMILES IDX 5 14 8 15 9 17 10 18 15 19 11 20 14 21 12 22 13 23 22 24
REMARK SMILES IDX 23 25 24 26 25 28 26 29 27 30 88 31 28 32 87 33 29 34 30 35
REMARK SMILES IDX 31 36 81 37 32 38 86 39 80 40 82 41 33 42 85 43 79 44 78 45
REMARK SMILES IDX 34 47 66 48 46 49 65 50 47 51 50 52 64 53 83 54 48 55 49 56
REMARK SMILES IDX 63 58 84 59 51 60 35 61 36 62 44 63 37 64 39 65 45 66 38 67
REMARK SMILES IDX 40 68 41 69 42 70 43 71 67 72 68 73 76 74 69 75 71 76 77 77
REMARK SMILES IDX 70 78 72 79 73 80 74 81 75 82 52 83 53 84 61 85 54 86 56 87
REMARK SMILES IDX 62 88 55 89 57 90 58 91 59 92 60 93
REMARK H PARENT 18 7 8 16 23 27 82 46 50 57
REMARK Flexibility Score: inf
ROOT
ATOM      1  C   UNL     1       4.128  -1.362   4.301  1.00  0.00     0.023 C 
ENDROOT
BRANCH   1   2
ATOM      2  C   UNL     1       2.744  -0.970   3.803  1.00  0.00     0.023 C 
BRANCH   2   3
ATOM      3  C   UNL     1       2.562   0.527   3.562  1.00  0.00     0.116 C 
BRANCH   3   4
ATOM      4  N   UNL     1       3.096   0.930   2.276  1.00  0.00    -0.354 N 
ATOM      5  C   UNL     1       2.554   1.663   1.261  1.00  0.00     0.246 C 
ATOM      6  O   UNL     1       3.318   1.890   0.312  1.00  0.00    -0.272 OA
ATOM      7  H   UNL     1       4.014   0.619   2.104  1.00  0.00     0.163 HD
BRANCH   5   8
ATOM      8  C   UNL     1       1.060   2.165   1.222  1.00  0.00     0.128 C 
ATOM      9  C   UNL     1       0.068  -0.261   1.672  1.00  0.00     0.022 C 
ATOM     10  C   UNL     1       0.129   0.974   0.781  1.00  0.00     0.078 C 
ATOM     11  S   UNL     1      -1.635   1.489   0.589  1.00  0.00    -0.156 SA
ATOM     12  C   UNL     1      -1.382   2.711  -0.712  1.00  0.00     0.070 C 
ATOM     13  C   UNL     1       0.971   3.264   0.105  1.00  0.00     0.040 C 
ATOM     14  C   UNL     1      -0.427   3.789  -0.232  1.00  0.00     0.014 C 
BRANCH   8  15
ATOM     15  N   UNL     1       0.594   2.762   2.503  1.00  0.00    -0.370 N 
ATOM     16  H   UNL     1      -0.359   2.634   2.716  1.00  0.00     0.161 HD
BRANCH  15  17
ATOM     17  C   UNL     1       1.329   3.475   3.432  1.00  0.00     0.035 A 
ATOM     18  C   UNL     1       2.525   4.143   3.148  1.00  0.00     0.027 A 
ATOM     19  C   UNL     1       0.950   3.383   4.783  1.00  0.00     0.027 A 
ATOM     20  C   UNL     1       3.334   4.663   4.166  1.00  0.00     0.022 A 
ATOM     21  C   UNL     1       1.763   3.879   5.810  1.00  0.00     0.022 A 
ATOM     22  C   UNL     1       2.960   4.510   5.495  1.00  0.00     0.041 A 
ATOM     23  Cl  UNL     1       3.990   5.072   6.750  1.00  0.00    -0.084 Cl
ENDBRANCH  15  17
ENDBRANCH   8  15
ENDBRANCH   5   8
ENDBRANCH   3   4
ENDBRANCH   2   3
ENDBRANCH   1   2
BRANCH   1  24
ATOM     24  C   UNL     1       4.521  -0.751   5.638  1.00  0.00     0.116 C 
BRANCH  24  25
ATOM     25  N   UNL     1       3.561  -1.025   6.703  1.00  0.00    -0.352 N 
ATOM     26  C   UNL     1       3.803  -1.506   7.968  1.00  0.00     0.251 C 
ATOM     27  H   UNL     1       2.618  -0.841   6.487  1.00  0.00     0.163 HD
ATOM     28  O   UNL     1       2.875  -1.798   8.717  1.00  0.00    -0.269 OA
BRANCH  26  29
ATOM     29  C   UNL     1       5.202  -1.698   8.391  1.00  0.00     0.039 A 
ATOM     30  C   UNL     1       5.605  -2.941   8.882  1.00  0.00     0.014 A 
ATOM     31  C   UNL     1       6.129  -0.670   8.199  1.00  0.00     0.014 A 
ATOM     32  C   UNL     1       6.962  -3.179   9.104  1.00  0.00     0.010 A 
ATOM     33  C   UNL     1       7.483  -0.942   8.327  1.00  0.00     0.010 A 
ATOM     34  C   UNL     1       7.914  -2.197   8.786  1.00  0.00    -0.014 A 
BRANCH  34  35
ATOM     35  C   UNL     1       9.370  -2.449   8.923  1.00  0.00     0.031 A 
ATOM     36  C   UNL     1      10.190  -1.593   9.850  1.00  0.00     0.074 A 
ATOM     37  C   UNL     1       9.970  -3.363   8.134  1.00  0.00     0.049 A 
ATOM     38  N   UNL     1      11.482  -1.588  10.040  1.00  0.00    -0.248 NA
ATOM     39  C   UNL     1       9.464  -0.581  10.637  1.00  0.00     0.031 C 
ATOM     40  C   UNL     1       9.300  -4.181   7.121  1.00  0.00     0.029 A 
ATOM     41  N   UNL     1      11.288  -3.735   8.040  1.00  0.00    -0.354 N 
ATOM     42  C   UNL     1      11.729  -0.548  10.929  1.00  0.00     0.074 A 
ATOM     43  C   UNL     1      10.459   0.085  11.205  1.00  0.00     0.031 C 
ATOM     44  C   UNL     1      10.209  -4.961   6.512  1.00  0.00     0.029 A 
ATOM     45  C   UNL     1      11.527  -4.684   7.073  1.00  0.00     0.049 A 
ATOM     46  H   UNL     1      11.996  -3.357   8.611  1.00  0.00     0.167 HD
ATOM     47  C   UNL     1      12.899  -0.178  11.499  1.00  0.00     0.034 A 
ATOM     48  C   UNL     1      12.679  -5.265   6.685  1.00  0.00     0.034 A 
ATOM     49  C   UNL     1      14.146  -0.856  11.277  1.00  0.00     0.049 A 
ATOM     50  C   UNL     1      13.954  -4.898   7.397  1.00  0.00     0.074 A 
ATOM     51  C   UNL     1      15.369  -0.628  11.879  1.00  0.00     0.029 A 
ATOM     52  N   UNL     1      14.325  -1.901  10.384  1.00  0.00    -0.354 N 
ATOM     53  N   UNL     1      14.139  -4.026   8.359  1.00  0.00    -0.248 NA
ATOM     54  C   UNL     1      15.171  -5.622   7.001  1.00  0.00     0.031 C 
ATOM     55  C   UNL     1      16.292  -1.535  11.347  1.00  0.00     0.029 A 
ATOM     56  C   UNL     1      15.639  -2.334  10.421  1.00  0.00     0.049 A 
ATOM     57  H   UNL     1      13.622  -2.280   9.809  1.00  0.00     0.167 HD
ATOM     58  C   UNL     1      15.482  -4.118   8.705  1.00  0.00     0.074 A 
ATOM     59  C   UNL     1      16.059  -5.149   7.865  1.00  0.00     0.031 C 
ATOM     60  C   UNL     1      16.180  -3.402   9.621  1.00  0.00     0.034 A 
BRANCH  47  61
ATOM     61  C   UNL     1      12.862   0.963  12.481  1.00  0.00     0.023 A 
ATOM     62  C   UNL     1      12.255   0.769  13.740  1.00  0.00     0.012 A 
ATOM     63  C   UNL     1      13.449   2.206  12.182  1.00  0.00     0.148 A 
ATOM     64  C   UNL     1      12.197   1.806  14.669  1.00  0.00     0.002 A 
ATOM     65  C   UNL     1      13.427   3.222  13.131  1.00  0.00     0.091 A 
ATOM     66  F   UNL     1      13.999   2.381  10.972  1.00  0.00    -0.205 F 
ATOM     67  C   UNL     1      12.790   3.028  14.369  1.00  0.00     0.022 A 
BRANCH  65  68
ATOM     68  S   UNL     1      14.231   4.807  12.870  1.00  0.00     0.127 S 
ATOM     69  O   UNL     1      13.086   5.686  12.642  1.00  0.00    -0.237 OA
ATOM     70  O   UNL     1      14.918   5.019  14.145  1.00  0.00    -0.237 OA
ATOM     71  O   UNL     1      15.118   4.621  11.731  1.00  0.00    -0.744 OA
ENDBRANCH  65  68
ENDBRANCH  47  61
BRANCH  48  72
ATOM     72  C   UNL     1      12.662  -6.319   5.632  1.00  0.00     0.023 A 
ATOM     73  C   UNL     1      12.877  -7.662   5.999  1.00  0.00     0.012 A 
ATOM     74  C   UNL     1      12.393  -6.012   4.284  1.00  0.00     0.148 A 
ATOM     75  C   UNL     1      12.854  -8.676   5.041  1.00  0.00     0.002 A 
ATOM     76  C   UNL     1      12.321  -7.033   3.342  1.00  0.00     0.091 A 
ATOM     77  F   UNL     1      12.203  -4.728   3.950  1.00  0.00    -0.205 F 
ATOM     78  C   UNL     1      12.566  -8.363   3.715  1.00  0.00     0.022 A 
BRANCH  76  79
ATOM     79  S   UNL     1      11.824  -6.736   1.641  1.00  0.00     0.127 S 
ATOM     80  O   UNL     1      13.093  -6.871   0.930  1.00  0.00    -0.237 OA
ATOM     81  O   UNL     1      10.869  -7.821   1.408  1.00  0.00    -0.237 OA
ATOM     82  O   UNL     1      11.229  -5.407   1.635  1.00  0.00    -0.744 OA
ENDBRANCH  76  79
ENDBRANCH  48  72
BRANCH  60  83
ATOM     83  C   UNL     1      17.641  -3.720   9.790  1.00  0.00     0.023 A 
ATOM     84  C   UNL     1      18.561  -3.300   8.810  1.00  0.00     0.012 A 
ATOM     85  C   UNL     1      18.110  -4.353  10.957  1.00  0.00     0.148 A 
ATOM     86  C   UNL     1      19.926  -3.528   8.979  1.00  0.00     0.002 A 
ATOM     87  C   UNL     1      19.475  -4.537  11.139  1.00  0.00     0.091 A 
ATOM     88  F   UNL     1      17.215  -4.763  11.868  1.00  0.00    -0.205 F 
ATOM     89  C   UNL     1      20.384  -4.134  10.146  1.00  0.00     0.022 A 
BRANCH  87  90
ATOM     90  S   UNL     1      20.157  -5.223  12.652  1.00  0.00     0.127 S 
ATOM     91  O   UNL     1      20.512  -6.577  12.233  1.00  0.00    -0.237 OA
ATOM     92  O   UNL     1      21.300  -4.345  12.908  1.00  0.00    -0.237 OA
ATOM     93  O   UNL     1      19.095  -5.130  13.645  1.00  0.00    -0.744 OA
ENDBRANCH  87  90
ENDBRANCH  60  83
ENDBRANCH  34  35
ENDBRANCH  26  29
ENDBRANCH  24  25
ENDBRANCH   1  24
TORSDOF 16
