REMARK SMILES CCOc1ccc(-c2csc3ncn([C@H](C)C(=O)NCCCCNC(=O)c4ccc(-c5c6nc(c(-c7cccc(S(=O)(=O)[O-])c7F)c7ccc([nH]7)c(-c7cccc(S(=O)(=O)[O-])c7F)c7nc(c(-c8cccc(S(=O)(=O)[O-])c8F)c8ccc5[nH]8)C=C7)C=C6)cc4)c(=O)c23)cc1
REMARK SMILES IDX 21 1 20 2 19 3 17 4 18 5 15 7 16 8 14 9 8 10 9 11 92 12
REMARK SMILES IDX 10 13 11 14 90 15 12 16 91 17 13 18 7 19 4 20 5 21 94 22
REMARK SMILES IDX 6 23 93 24 3 25 2 26 1 27 22 28 23 29 24 30 25 31 26 33
REMARK SMILES IDX 27 34 28 35 89 36 29 37 88 38 30 39 31 40 32 41 82 42 33 43
REMARK SMILES IDX 87 44 81 45 83 46 34 47 86 48 80 49 79 50 35 52 67 53 47 54
REMARK SMILES IDX 66 55 48 56 51 57 65 58 84 59 49 60 50 61 64 63 85 64 52 65
REMARK SMILES IDX 36 66 37 67 45 68 38 69 40 70 46 71 39 72 41 73 42 74 43 75
REMARK SMILES IDX 44 76 68 77 69 78 77 79 70 80 72 81 78 82 71 83 73 84 74 85
REMARK SMILES IDX 75 86 76 87 53 88 54 89 62 90 55 91 57 92 63 93 56 94 58 95
REMARK SMILES IDX 59 96 60 97 61 98
REMARK H PARENT 19 6 24 32 83 51 51 62
REMARK Flexibility Score: inf
ROOT
ATOM      1  C   UNL     1       5.741   2.564   0.158  1.00  0.00     0.023 C 
ENDROOT
BRANCH   1   2
ATOM      2  C   UNL     1       5.788   4.078   0.360  1.00  0.00     0.116 C 
BRANCH   2   3
ATOM      3  N   UNL     1       6.580   4.469   1.516  1.00  0.00    -0.354 N 
ATOM      4  C   UNL     1       7.539   5.436   1.668  1.00  0.00     0.242 C 
ATOM      5  O   UNL     1       8.134   5.463   2.748  1.00  0.00    -0.273 OA
ATOM      6  H   UNL     1       6.394   3.949   2.331  1.00  0.00     0.163 HD
BRANCH   4   7
ATOM      7  C   UNL     1       7.942   6.383   0.516  1.00  0.00     0.177 C 
ATOM      8  C   UNL     1       8.491   5.581  -0.678  1.00  0.00     0.042 C 
BRANCH   7   9
ATOM      9  N   UNL     1       6.985   7.433   0.114  1.00  0.00    -0.286 N 
ATOM     10  C   UNL     1       6.566  10.755  -1.643  1.00  0.00     0.007 A 
ATOM     11  C   UNL     1       5.337  11.205  -2.096  1.00  0.00     0.076 A 
ATOM     12  C   UNL     1       6.472   9.423  -1.126  1.00  0.00     0.085 A 
ATOM     13  S   UNL     1       4.093  10.061  -1.859  1.00  0.00    -0.123 S 
ATOM     14  C   UNL     1       5.162   8.998  -1.069  1.00  0.00     0.131 A 
ATOM     15  C   UNL     1       7.491   8.529  -0.594  1.00  0.00     0.263 A 
ATOM     16  N   UNL     1       4.700   7.912  -0.413  1.00  0.00    -0.227 NA
ATOM     17  O   UNL     1       8.683   8.660  -0.868  1.00  0.00    -0.268 OA
ATOM     18  C   UNL     1       5.622   7.254   0.214  1.00  0.00     0.204 A 
BRANCH  10  19
ATOM     19  C   UNL     1       7.689  11.676  -1.575  1.00  0.00    -0.016 A 
ATOM     20  C   UNL     1       9.789  13.513  -1.377  1.00  0.00     0.119 A 
ATOM     21  C   UNL     1       9.947  12.348  -2.130  1.00  0.00     0.047 A 
ATOM     22  C   UNL     1       8.579  13.773  -0.745  1.00  0.00     0.047 A 
ATOM     23  C   UNL     1       8.898  11.426  -2.227  1.00  0.00     0.012 A 
ATOM     24  C   UNL     1       7.542  12.849  -0.822  1.00  0.00     0.012 A 
BRANCH  20  25
ATOM     25  O   UNL     1      10.808  14.425  -1.377  1.00  0.00    -0.494 OA
BRANCH  25  26
ATOM     26  C   UNL     1      11.371  14.653  -0.077  1.00  0.00     0.226 C 
ATOM     27  C   UNL     1      10.662  15.766   0.680  1.00  0.00     0.049 C 
ENDBRANCH  25  26
ENDBRANCH  20  25
ENDBRANCH  10  19
ENDBRANCH   7   9
ENDBRANCH   4   7
ENDBRANCH   2   3
ENDBRANCH   1   2
BRANCH   1  28
ATOM     28  C   UNL     1       4.960   1.773   1.217  1.00  0.00     0.023 C 
BRANCH  28  29
ATOM     29  C   UNL     1       3.514   2.209   1.397  1.00  0.00     0.116 C 
BRANCH  29  30
ATOM     30  N   UNL     1       2.692   2.051   0.189  1.00  0.00    -0.352 N 
ATOM     31  C   UNL     1       1.327   2.298   0.048  1.00  0.00     0.251 C 
ATOM     32  H   UNL     1       3.160   1.732  -0.616  1.00  0.00     0.163 HD
ATOM     33  O   UNL     1       0.680   1.813  -0.859  1.00  0.00    -0.269 OA
BRANCH  31  34
ATOM     34  C   UNL     1       0.703   3.211   1.025  1.00  0.00     0.039 A 
ATOM     35  C   UNL     1      -0.561   3.011   1.591  1.00  0.00     0.014 A 
ATOM     36  C   UNL     1       1.494   4.281   1.411  1.00  0.00     0.014 A 
ATOM     37  C   UNL     1      -0.986   3.894   2.584  1.00  0.00     0.010 A 
ATOM     38  C   UNL     1       1.216   4.918   2.575  1.00  0.00     0.010 A 
ATOM     39  C   UNL     1      -0.080   4.850   3.058  1.00  0.00    -0.014 A 
BRANCH  39  40
ATOM     40  C   UNL     1      -0.375   5.814   4.104  1.00  0.00     0.031 A 
ATOM     41  C   UNL     1      -0.601   5.202   5.435  1.00  0.00     0.074 A 
ATOM     42  C   UNL     1      -0.093   7.126   3.910  1.00  0.00     0.049 A 
ATOM     43  N   UNL     1      -1.704   5.156   6.106  1.00  0.00    -0.248 NA
ATOM     44  C   UNL     1       0.479   4.384   6.014  1.00  0.00     0.031 C 
ATOM     45  C   UNL     1       0.505   7.760   2.719  1.00  0.00     0.029 A 
ATOM     46  N   UNL     1      -0.095   8.146   4.804  1.00  0.00    -0.354 N 
ATOM     47  C   UNL     1      -1.365   4.553   7.314  1.00  0.00     0.074 A 
ATOM     48  C   UNL     1      -0.128   3.861   7.081  1.00  0.00     0.031 C 
ATOM     49  C   UNL     1       1.046   8.950   3.060  1.00  0.00     0.029 A 
ATOM     50  C   UNL     1       0.685   9.241   4.432  1.00  0.00     0.049 A 
ATOM     51  H   UNL     1      -0.605   8.117   5.646  1.00  0.00     0.167 HD
ATOM     52  C   UNL     1      -1.944   4.949   8.483  1.00  0.00     0.034 A 
ATOM     53  C   UNL     1       1.058  10.277   5.226  1.00  0.00     0.034 A 
ATOM     54  C   UNL     1      -3.097   5.782   8.233  1.00  0.00     0.049 A 
ATOM     55  C   UNL     1       0.128  10.286   6.380  1.00  0.00     0.074 A 
ATOM     56  C   UNL     1      -4.273   5.642   7.523  1.00  0.00     0.029 A 
ATOM     57  N   UNL     1      -2.928   7.134   8.416  1.00  0.00    -0.354 N 
ATOM     58  N   UNL     1      -1.153  10.506   6.263  1.00  0.00    -0.248 NA
ATOM     59  C   UNL     1       0.536   9.572   7.578  1.00  0.00     0.031 C 
ATOM     60  C   UNL     1      -4.475   6.910   6.901  1.00  0.00     0.029 A 
ATOM     61  C   UNL     1      -3.465   7.773   7.332  1.00  0.00     0.049 A 
ATOM     62  H   UNL     1      -2.497   7.566   9.189  1.00  0.00     0.167 HD
ATOM     63  C   UNL     1      -1.738   9.561   7.096  1.00  0.00     0.074 A 
ATOM     64  C   UNL     1      -0.652   9.092   7.959  1.00  0.00     0.031 C 
ATOM     65  C   UNL     1      -2.961   9.023   6.804  1.00  0.00     0.034 A 
BRANCH  52  66
ATOM     66  C   UNL     1      -1.262   4.959   9.837  1.00  0.00     0.023 A 
ATOM     67  C   UNL     1      -2.073   5.272  10.952  1.00  0.00     0.012 A 
ATOM     68  C   UNL     1       0.137   4.969  10.046  1.00  0.00     0.148 A 
ATOM     69  C   UNL     1      -1.522   5.649  12.181  1.00  0.00     0.002 A 
ATOM     70  C   UNL     1       0.679   5.268  11.291  1.00  0.00     0.091 A 
ATOM     71  F   UNL     1       0.976   4.825   9.019  1.00  0.00    -0.205 F 
ATOM     72  C   UNL     1      -0.144   5.644  12.352  1.00  0.00     0.022 A 
BRANCH  70  73
ATOM     73  S   UNL     1       2.454   5.240  11.574  1.00  0.00     0.127 S 
ATOM     74  O   UNL     1       2.758   6.666  11.642  1.00  0.00    -0.237 OA
ATOM     75  O   UNL     1       2.541   4.524  12.847  1.00  0.00    -0.237 OA
ATOM     76  O   UNL     1       3.019   4.515  10.443  1.00  0.00    -0.744 OA
ENDBRANCH  70  73
ENDBRANCH  52  66
BRANCH  53  77
ATOM     77  C   UNL     1       2.319  11.058   5.222  1.00  0.00     0.023 A 
ATOM     78  C   UNL     1       2.369  12.325   5.840  1.00  0.00     0.012 A 
ATOM     79  C   UNL     1       3.542  10.447   4.863  1.00  0.00     0.148 A 
ATOM     80  C   UNL     1       3.595  12.947   6.116  1.00  0.00     0.002 A 
ATOM     81  C   UNL     1       4.757  11.075   5.127  1.00  0.00     0.091 A 
ATOM     82  F   UNL     1       3.519   9.210   4.350  1.00  0.00    -0.205 F 
ATOM     83  C   UNL     1       4.788  12.320   5.768  1.00  0.00     0.022 A 
BRANCH  81  84
ATOM     84  S   UNL     1       6.334  10.315   4.712  1.00  0.00     0.127 S 
ATOM     85  O   UNL     1       7.027  11.412   4.034  1.00  0.00    -0.237 OA
ATOM     86  O   UNL     1       6.862   9.980   6.031  1.00  0.00    -0.237 OA
ATOM     87  O   UNL     1       6.017   9.185   3.845  1.00  0.00    -0.744 OA
ENDBRANCH  81  84
ENDBRANCH  53  77
BRANCH  65  88
ATOM     88  C   UNL     1      -3.753   9.634   5.672  1.00  0.00     0.023 A 
ATOM     89  C   UNL     1      -3.329   9.575   4.327  1.00  0.00     0.012 A 
ATOM     90  C   UNL     1      -5.042  10.112   5.951  1.00  0.00     0.148 A 
ATOM     91  C   UNL     1      -4.163   9.999   3.287  1.00  0.00     0.002 A 
ATOM     92  C   UNL     1      -5.885  10.494   4.914  1.00  0.00     0.091 A 
ATOM     93  F   UNL     1      -5.437  10.150   7.232  1.00  0.00    -0.205 F 
ATOM     94  C   UNL     1      -5.447  10.448   3.581  1.00  0.00     0.022 A 
BRANCH  92  95
ATOM     95  S   UNL     1      -7.588  10.965   5.215  1.00  0.00     0.127 S 
ATOM     96  O   UNL     1      -7.552  12.406   4.979  1.00  0.00    -0.237 OA
ATOM     97  O   UNL     1      -8.311  10.195   4.201  1.00  0.00    -0.237 OA
ATOM     98  O   UNL     1      -7.881  10.563   6.586  1.00  0.00    -0.744 OA
ENDBRANCH  92  95
ENDBRANCH  65  88
ENDBRANCH  39  40
ENDBRANCH  31  34
ENDBRANCH  29  30
ENDBRANCH  28  29
ENDBRANCH   1  28
TORSDOF 18
