REMARK SMILES COCCN(CC(=O)NCCCCNC(=O)c1ccc(-c2c3nc(c(-c4cccc(S(=O)(=O)[O-])c4F)c4ccc([nH]4)c(-c4cccc(S(=O)(=O)[O-])c4F)c4nc(c(-c5cccc(S(=O)(=O)[O-])c5F)c5ccc2[nH]5)C=C4)C=C3)cc1)C(=O)c1cccc(N)c1
REMARK SMILES IDX 11 1 10 2 9 3 7 4 8 5 6 7 5 8 4 9 3 10 2 11 1 12 80 13 81 14
REMARK SMILES IDX 82 15 83 16 88 17 84 18 86 19 85 20 87 21 12 24 13 25 14 26
REMARK SMILES IDX 15 27 16 29 17 30 18 31 79 32 19 33 78 34 20 35 21 36 22 37
REMARK SMILES IDX 72 38 23 39 77 40 71 41 73 42 24 43 76 44 70 45 69 46 25 48
REMARK SMILES IDX 57 49 37 50 56 51 38 52 41 53 55 54 74 55 39 56 40 57 54 59
REMARK SMILES IDX 75 60 42 61 26 62 27 63 35 64 28 65 30 66 36 67 29 68 31 69
REMARK SMILES IDX 32 70 33 71 34 72 58 73 59 74 67 75 60 76 62 77 68 78 61 79
REMARK SMILES IDX 63 80 64 81 65 82 66 83 43 84 44 85 52 86 45 87 47 88 53 89
REMARK SMILES IDX 46 90 48 91 49 92 50 93 51 94
REMARK H PARENT 9 6 87 22 87 23 14 28 73 47 41 58
REMARK Flexibility Score: inf
ROOT
ATOM      1  C   UNL     1      -1.998  -3.365   2.511  1.00  0.00     0.023 C 
ENDROOT
BRANCH   1   2
ATOM      2  C   UNL     1      -0.828  -3.905   3.330  1.00  0.00     0.116 C 
BRANCH   2   3
ATOM      3  N   UNL     1       0.099  -4.724   2.581  1.00  0.00    -0.355 N 
ATOM      4  C   UNL     1       1.294  -4.391   2.015  1.00  0.00     0.239 C 
ATOM      5  O   UNL     1       2.080  -5.318   1.790  1.00  0.00    -0.273 OA
ATOM      6  H   UNL     1      -0.173  -5.662   2.462  1.00  0.00     0.163 HD
BRANCH   4   7
ATOM      7  C   UNL     1       1.742  -2.931   1.792  1.00  0.00     0.219 C 
BRANCH   7   8
ATOM      8  N   UNL     1       0.745  -1.971   1.298  1.00  0.00    -0.327 N 
BRANCH   8   9
ATOM      9  C   UNL     1       0.339  -0.876   2.197  1.00  0.00     0.149 C 
BRANCH   9  10
ATOM     10  C   UNL     1       1.259   0.357   2.174  1.00  0.00     0.181 C 
BRANCH  10  11
ATOM     11  O   UNL     1       0.910   1.274   1.141  1.00  0.00    -0.383 OA
ATOM     12  C   UNL     1       1.693   1.131  -0.033  1.00  0.00     0.194 C 
ENDBRANCH  10  11
ENDBRANCH   9  10
ENDBRANCH   8   9
BRANCH   8  13
ATOM     13  C   UNL     1       0.284  -1.931  -0.025  1.00  0.00     0.254 C 
ATOM     14  O   UNL     1      -0.557  -1.125  -0.417  1.00  0.00    -0.269 OA
BRANCH  13  15
ATOM     15  C   UNL     1       0.892  -2.807  -1.051  1.00  0.00     0.042 A 
ATOM     16  C   UNL     1       1.609  -2.191  -2.082  1.00  0.00     0.014 A 
ATOM     17  C   UNL     1       0.716  -4.192  -1.053  1.00  0.00     0.039 A 
ATOM     18  C   UNL     1       2.200  -2.966  -3.076  1.00  0.00     0.003 A 
ATOM     19  C   UNL     1       1.357  -4.982  -2.012  1.00  0.00     0.032 A 
ATOM     20  C   UNL     1       2.075  -4.355  -3.034  1.00  0.00     0.025 A 
BRANCH  19  21
ATOM     21  N   UNL     1       1.184  -6.355  -2.021  1.00  0.00    -0.399 N 
ATOM     22  H   UNL     1       1.639  -6.904  -2.700  1.00  0.00     0.156 HD
ATOM     23  H   UNL     1       0.606  -6.783  -1.349  1.00  0.00     0.156 HD
ENDBRANCH  19  21
ENDBRANCH  13  15
ENDBRANCH   8  13
ENDBRANCH   7   8
ENDBRANCH   4   7
ENDBRANCH   2   3
ENDBRANCH   1   2
BRANCH   1  24
ATOM     24  C   UNL     1      -3.020  -4.403   2.054  1.00  0.00     0.023 C 
BRANCH  24  25
ATOM     25  C   UNL     1      -3.621  -5.262   3.156  1.00  0.00     0.116 C 
BRANCH  25  26
ATOM     26  N   UNL     1      -4.225  -4.493   4.235  1.00  0.00    -0.352 N 
ATOM     27  C   UNL     1      -5.328  -4.813   4.991  1.00  0.00     0.251 C 
ATOM     28  H   UNL     1      -3.788  -3.637   4.451  1.00  0.00     0.163 HD
ATOM     29  O   UNL     1      -5.766  -4.019   5.820  1.00  0.00    -0.269 OA
BRANCH  27  30
ATOM     30  C   UNL     1      -6.004  -6.107   4.765  1.00  0.00     0.039 A 
ATOM     31  C   UNL     1      -7.386  -6.125   4.561  1.00  0.00     0.014 A 
ATOM     32  C   UNL     1      -5.263  -7.289   4.700  1.00  0.00     0.014 A 
ATOM     33  C   UNL     1      -8.017  -7.325   4.222  1.00  0.00     0.010 A 
ATOM     34  C   UNL     1      -5.879  -8.464   4.288  1.00  0.00     0.010 A 
ATOM     35  C   UNL     1      -7.262  -8.496   4.051  1.00  0.00    -0.014 A 
BRANCH  35  36
ATOM     36  C   UNL     1      -7.885  -9.777   3.635  1.00  0.00     0.031 A 
ATOM     37  C   UNL     1      -7.827 -10.964   4.556  1.00  0.00     0.074 A 
ATOM     38  C   UNL     1      -8.389  -9.907   2.393  1.00  0.00     0.049 A 
ATOM     39  N   UNL     1      -8.193 -12.199   4.336  1.00  0.00    -0.248 NA
ATOM     40  C   UNL     1      -7.244 -10.738   5.890  1.00  0.00     0.031 C 
ATOM     41  C   UNL     1      -8.437  -8.850   1.381  1.00  0.00     0.029 A 
ATOM     42  N   UNL     1      -8.928 -10.998   1.758  1.00  0.00    -0.354 N 
ATOM     43  C   UNL     1      -7.838 -12.907   5.478  1.00  0.00     0.074 A 
ATOM     44  C   UNL     1      -7.199 -11.969   6.376  1.00  0.00     0.031 C 
ATOM     45  C   UNL     1      -8.979  -9.342   0.256  1.00  0.00     0.029 A 
ATOM     46  C   UNL     1      -9.289 -10.755   0.453  1.00  0.00     0.049 A 
ATOM     47  H   UNL     1      -9.046 -11.872   2.195  1.00  0.00     0.167 HD
ATOM     48  C   UNL     1      -8.051 -14.212   5.769  1.00  0.00     0.034 A 
ATOM     49  C   UNL     1      -9.806 -11.579  -0.479  1.00  0.00     0.034 A 
ATOM     50  C   UNL     1      -8.743 -15.123   4.900  1.00  0.00     0.049 A 
ATOM     51  C   UNL     1     -10.085 -13.013  -0.115  1.00  0.00     0.074 A 
ATOM     52  C   UNL     1      -9.099 -16.438   5.138  1.00  0.00     0.029 A 
ATOM     53  N   UNL     1      -9.187 -14.813   3.623  1.00  0.00    -0.354 N 
ATOM     54  N   UNL     1      -9.879 -13.629   1.025  1.00  0.00    -0.248 NA
ATOM     55  C   UNL     1     -10.698 -13.856  -1.151  1.00  0.00     0.031 C 
ATOM     56  C   UNL     1      -9.749 -16.927   3.999  1.00  0.00     0.029 A 
ATOM     57  C   UNL     1      -9.811 -15.911   3.059  1.00  0.00     0.049 A 
ATOM     58  H   UNL     1      -9.073 -13.940   3.182  1.00  0.00     0.167 HD
ATOM     59  C   UNL     1     -10.376 -14.916   0.858  1.00  0.00     0.074 A 
ATOM     60  C   UNL     1     -10.901 -14.989  -0.491  1.00  0.00     0.031 C 
ATOM     61  C   UNL     1     -10.386 -15.948   1.738  1.00  0.00     0.034 A 
BRANCH  48  62
ATOM     62  C   UNL     1      -7.577 -14.709   7.109  1.00  0.00     0.023 A 
ATOM     63  C   UNL     1      -8.242 -14.291   8.280  1.00  0.00     0.012 A 
ATOM     64  C   UNL     1      -6.495 -15.603   7.213  1.00  0.00     0.148 A 
ATOM     65  C   UNL     1      -7.808 -14.715   9.535  1.00  0.00     0.002 A 
ATOM     66  C   UNL     1      -6.097 -16.059   8.465  1.00  0.00     0.091 A 
ATOM     67  F   UNL     1      -5.856 -15.972   6.093  1.00  0.00    -0.205 F 
ATOM     68  C   UNL     1      -6.742 -15.606   9.627  1.00  0.00     0.022 A 
BRANCH  66  69
ATOM     69  S   UNL     1      -4.784 -17.267   8.671  1.00  0.00     0.127 S 
ATOM     70  O   UNL     1      -3.662 -16.421   9.074  1.00  0.00    -0.237 OA
ATOM     71  O   UNL     1      -5.311 -18.125   9.734  1.00  0.00    -0.237 OA
ATOM     72  O   UNL     1      -4.648 -17.926   7.380  1.00  0.00    -0.744 OA
ENDBRANCH  66  69
ENDBRANCH  48  62
BRANCH  49  73
ATOM     73  C   UNL     1     -10.180 -11.040  -1.817  1.00  0.00     0.023 A 
ATOM     74  C   UNL     1     -11.544 -10.877  -2.128  1.00  0.00     0.012 A 
ATOM     75  C   UNL     1      -9.209 -10.644  -2.756  1.00  0.00     0.148 A 
ATOM     76  C   UNL     1     -11.936 -10.351  -3.359  1.00  0.00     0.002 A 
ATOM     77  C   UNL     1      -9.605 -10.076  -3.961  1.00  0.00     0.091 A 
ATOM     78  F   UNL     1      -7.917 -10.814  -2.441  1.00  0.00    -0.205 F 
ATOM     79  C   UNL     1     -10.968  -9.941  -4.270  1.00  0.00     0.022 A 
BRANCH  77  80
ATOM     80  S   UNL     1      -8.434  -9.409  -5.149  1.00  0.00     0.127 S 
ATOM     81  O   UNL     1      -8.591 -10.330  -6.272  1.00  0.00    -0.237 OA
ATOM     82  O   UNL     1      -8.968  -8.065  -5.375  1.00  0.00    -0.237 OA
ATOM     83  O   UNL     1      -7.138  -9.439  -4.486  1.00  0.00    -0.744 OA
ENDBRANCH  77  80
ENDBRANCH  49  73
BRANCH  61  84
ATOM     84  C   UNL     1     -11.024 -17.239   1.300  1.00  0.00     0.023 A 
ATOM     85  C   UNL     1     -10.351 -18.080   0.392  1.00  0.00     0.012 A 
ATOM     86  C   UNL     1     -12.244 -17.662   1.863  1.00  0.00     0.148 A 
ATOM     87  C   UNL     1     -10.894 -19.314   0.036  1.00  0.00     0.002 A 
ATOM     88  C   UNL     1     -12.756 -18.913   1.539  1.00  0.00     0.091 A 
ATOM     89  F   UNL     1     -12.879 -16.837   2.709  1.00  0.00    -0.205 F 
ATOM     90  C   UNL     1     -12.088 -19.736   0.618  1.00  0.00     0.022 A 
BRANCH  88  91
ATOM     91  S   UNL     1     -14.234 -19.576   2.315  1.00  0.00     0.127 S 
ATOM     92  O   UNL     1     -15.214 -19.462   1.236  1.00  0.00    -0.237 OA
ATOM     93  O   UNL     1     -13.832 -20.947   2.631  1.00  0.00    -0.237 OA
ATOM     94  O   UNL     1     -14.484 -18.739   3.480  1.00  0.00    -0.744 OA
ENDBRANCH  88  91
ENDBRANCH  61  84
ENDBRANCH  35  36
ENDBRANCH  27  30
ENDBRANCH  25  26
ENDBRANCH  24  25
ENDBRANCH   1  24
TORSDOF 21
