REMARK SMILES CC(=O)NC(C)(C)C(=O)N1C[C@@H](C(=O)NCCCCNC(=O)c2ccc(-c3c4nc(c(-c5cccc(S(=O)(=O)[O-])c5F)c5ccc([nH]5)c(-c5cccc(S(=O)(=O)[O-])c5F)c5nc(c(-c6cccc(S(=O)(=O)[O-])c6F)c6ccc3[nH]6)C=C5)C=C4)cc2)[C@H](c2ccccc2C)C1
REMARK SMILES IDX 17 1 16 2 15 3 13 4 14 5 12 7 10 8 11 9 94 10 86 11 8 12
REMARK SMILES IDX 9 13 5 14 6 15 7 16 4 17 1 18 2 19 3 20 87 22 88 23 92 24
REMARK SMILES IDX 89 25 91 26 93 27 90 28 18 29 19 30 20 31 21 32 22 34 23 35
REMARK SMILES IDX 24 36 85 37 25 38 84 39 26 40 27 41 28 42 78 43 29 44 83 45
REMARK SMILES IDX 77 46 79 47 30 48 82 49 76 50 75 51 31 53 63 54 43 55 62 56
REMARK SMILES IDX 44 57 47 58 61 59 80 60 45 61 46 62 60 64 81 65 48 66 32 67
REMARK SMILES IDX 33 68 41 69 34 70 36 71 42 72 35 73 37 74 38 75 39 76 40 77
REMARK SMILES IDX 64 78 65 79 73 80 66 81 68 82 74 83 67 84 69 85 70 86 71 87
REMARK SMILES IDX 72 88 49 89 50 90 58 91 51 92 53 93 59 94 52 95 54 96 55 97
REMARK SMILES IDX 56 98 57 99
REMARK H PARENT 15 6 4 21 20 33 79 52 47 63
REMARK Flexibility Score: inf
ROOT
ATOM      1  C   UNL     1       7.627   3.544  -5.924  1.00  0.00     0.023 C 
ENDROOT
BRANCH   1   2
ATOM      2  C   UNL     1       6.384   4.134  -5.265  1.00  0.00     0.116 C 
BRANCH   2   3
ATOM      3  N   UNL     1       5.156   3.796  -5.955  1.00  0.00    -0.356 N 
ATOM      4  C   UNL     1       4.133   2.950  -5.690  1.00  0.00     0.225 C 
ATOM      5  O   UNL     1       3.164   3.040  -6.456  1.00  0.00    -0.275 OA
ATOM      6  H   UNL     1       5.040   4.288  -6.799  1.00  0.00     0.163 HD
BRANCH   4   7
ATOM      7  C   UNL     1       4.135   1.850  -4.632  1.00  0.00     0.107 C 
ATOM      8  N   UNL     1       2.769   0.829  -3.019  1.00  0.00    -0.339 N 
ATOM      9  C   UNL     1       2.674   1.608  -4.231  1.00  0.00     0.133 C 
ATOM     10  C   UNL     1       3.886   1.333  -2.251  1.00  0.00     0.128 C 
ATOM     11  C   UNL     1       4.830   2.024  -3.268  1.00  0.00     0.053 C 
BRANCH   8  12
ATOM     12  C   UNL     1       1.611   0.419  -2.373  1.00  0.00     0.247 C 
ATOM     13  O   UNL     1       0.848   1.228  -1.850  1.00  0.00    -0.272 OA
BRANCH  12  14
ATOM     14  C   UNL     1       1.297  -1.108  -2.527  1.00  0.00     0.113 C 
ATOM     15  C   UNL     1       2.581  -1.953  -2.470  1.00  0.00     0.045 C 
ATOM     16  C   UNL     1       0.661  -1.266  -3.924  1.00  0.00     0.045 C 
BRANCH  14  17
ATOM     17  N   UNL     1       0.317  -1.677  -1.567  1.00  0.00    -0.342 N 
ATOM     18  C   UNL     1       0.791  -0.484   0.554  1.00  0.00     0.114 C 
ATOM     19  C   UNL     1       0.266  -1.661  -0.210  1.00  0.00     0.217 C 
ATOM     20  O   UNL     1      -0.295  -2.596   0.364  1.00  0.00    -0.275 OA
ATOM     21  H   UNL     1      -0.433  -2.153  -1.992  1.00  0.00     0.164 HD
ENDBRANCH  14  17
ENDBRANCH  12  14
ENDBRANCH   8  12
BRANCH  11  22
ATOM     22  C   UNL     1       6.289   1.609  -3.036  1.00  0.00    -0.039 A 
ATOM     23  C   UNL     1       6.848   2.098  -1.825  1.00  0.00     0.004 A 
ATOM     24  C   UNL     1       7.145   0.887  -3.900  1.00  0.00    -0.048 A 
ATOM     25  C   UNL     1       8.199   1.954  -1.511  1.00  0.00     0.000 A 
ATOM     26  C   UNL     1       8.521   0.793  -3.581  1.00  0.00     0.004 A 
ATOM     27  C   UNL     1       6.729   0.175  -5.160  1.00  0.00     0.044 C 
ATOM     28  C   UNL     1       9.045   1.328  -2.409  1.00  0.00     0.000 A 
ENDBRANCH  11  22
ENDBRANCH   4   7
ENDBRANCH   2   3
ENDBRANCH   1   2
BRANCH   1  29
ATOM     29  C   UNL     1       8.116   4.279  -7.162  1.00  0.00     0.023 C 
BRANCH  29  30
ATOM     30  C   UNL     1       8.473   5.737  -6.935  1.00  0.00     0.116 C 
BRANCH  30  31
ATOM     31  N   UNL     1       9.433   5.946  -5.855  1.00  0.00    -0.352 N 
ATOM     32  C   UNL     1      10.508   6.804  -5.834  1.00  0.00     0.251 C 
ATOM     33  H   UNL     1       9.294   5.407  -5.043  1.00  0.00     0.163 HD
ATOM     34  O   UNL     1      11.298   6.808  -4.895  1.00  0.00    -0.269 OA
BRANCH  32  35
ATOM     35  C   UNL     1      10.705   7.695  -6.993  1.00  0.00     0.039 A 
ATOM     36  C   UNL     1      11.929   7.690  -7.663  1.00  0.00     0.014 A 
ATOM     37  C   UNL     1       9.621   8.426  -7.483  1.00  0.00     0.014 A 
ATOM     38  C   UNL     1      12.039   8.361  -8.882  1.00  0.00     0.010 A 
ATOM     39  C   UNL     1       9.701   8.990  -8.745  1.00  0.00     0.010 A 
ATOM     40  C   UNL     1      10.913   8.977  -9.453  1.00  0.00    -0.014 A 
BRANCH  40  41
ATOM     41  C   UNL     1      10.965   9.632 -10.783  1.00  0.00     0.031 A 
ATOM     42  C   UNL     1      10.608  11.090 -10.902  1.00  0.00     0.074 A 
ATOM     43  C   UNL     1      11.207   8.896 -11.887  1.00  0.00     0.049 A 
ATOM     44  N   UNL     1      10.475  11.822 -11.975  1.00  0.00    -0.248 NA
ATOM     45  C   UNL     1      10.307  11.806  -9.649  1.00  0.00     0.031 C 
ATOM     46  C   UNL     1      11.454   7.452 -11.908  1.00  0.00     0.029 A 
ATOM     47  N   UNL     1      11.253   9.258 -13.209  1.00  0.00    -0.354 N 
ATOM     48  C   UNL     1      10.017  13.058 -11.533  1.00  0.00     0.074 A 
ATOM     49  C   UNL     1       9.848  12.962 -10.102  1.00  0.00     0.031 C 
ATOM     50  C   UNL     1      11.639   7.055 -13.178  1.00  0.00     0.029 A 
ATOM     51  C   UNL     1      11.499   8.206 -14.062  1.00  0.00     0.049 A 
ATOM     52  H   UNL     1      11.122  10.183 -13.519  1.00  0.00     0.167 HD
ATOM     53  C   UNL     1       9.800  14.187 -12.247  1.00  0.00     0.034 A 
ATOM     54  C   UNL     1      11.603   8.179 -15.406  1.00  0.00     0.034 A 
ATOM     55  C   UNL     1      10.060  14.296 -13.655  1.00  0.00     0.049 A 
ATOM     56  C   UNL     1      11.466   9.471 -16.166  1.00  0.00     0.074 A 
ATOM     57  C   UNL     1      10.001  15.420 -14.457  1.00  0.00     0.029 A 
ATOM     58  N   UNL     1      10.441  13.239 -14.468  1.00  0.00    -0.354 N 
ATOM     59  N   UNL     1      11.205  10.672 -15.709  1.00  0.00    -0.248 NA
ATOM     60  C   UNL     1      11.679   9.415 -17.619  1.00  0.00     0.031 C 
ATOM     61  C   UNL     1      10.340  15.040 -15.760  1.00  0.00     0.029 A 
ATOM     62  C   UNL     1      10.622  13.682 -15.765  1.00  0.00     0.049 A 
ATOM     63  H   UNL     1      10.565  12.310 -14.166  1.00  0.00     0.167 HD
ATOM     64  C   UNL     1      11.250  11.519 -16.810  1.00  0.00     0.074 A 
ATOM     65  C   UNL     1      11.589  10.696 -17.953  1.00  0.00     0.031 C 
ATOM     66  C   UNL     1      11.015  12.853 -16.875  1.00  0.00     0.034 A 
BRANCH  53  67
ATOM     67  C   UNL     1       9.330  15.406 -11.498  1.00  0.00     0.023 A 
ATOM     68  C   UNL     1      10.212  16.060 -10.611  1.00  0.00     0.012 A 
ATOM     69  C   UNL     1       8.034  15.922 -11.686  1.00  0.00     0.148 A 
ATOM     70  C   UNL     1       9.798  17.178  -9.890  1.00  0.00     0.002 A 
ATOM     71  C   UNL     1       7.644  17.067 -10.998  1.00  0.00     0.091 A 
ATOM     72  F   UNL     1       7.200  15.276 -12.512  1.00  0.00    -0.205 F 
ATOM     73  C   UNL     1       8.519  17.686 -10.091  1.00  0.00     0.022 A 
BRANCH  71  74
ATOM     74  S   UNL     1       6.045  17.847 -11.247  1.00  0.00     0.127 S 
ATOM     75  O   UNL     1       5.355  17.506 -10.004  1.00  0.00    -0.237 OA
ATOM     76  O   UNL     1       6.408  19.259 -11.375  1.00  0.00    -0.237 OA
ATOM     77  O   UNL     1       5.493  17.251 -12.455  1.00  0.00    -0.744 OA
ENDBRANCH  71  74
ENDBRANCH  53  67
BRANCH  54  78
ATOM     78  C   UNL     1      11.947   6.905 -16.100  1.00  0.00     0.023 A 
ATOM     79  C   UNL     1      13.232   6.752 -16.657  1.00  0.00     0.012 A 
ATOM     80  C   UNL     1      11.036   5.833 -16.174  1.00  0.00     0.148 A 
ATOM     81  C   UNL     1      13.595   5.567 -17.299  1.00  0.00     0.002 A 
ATOM     82  C   UNL     1      11.423   4.636 -16.768  1.00  0.00     0.091 A 
ATOM     83  F   UNL     1       9.815   6.000 -15.648  1.00  0.00    -0.205 F 
ATOM     84  C   UNL     1      12.696   4.506 -17.345  1.00  0.00     0.022 A 
BRANCH  82  85
ATOM     85  S   UNL     1      10.379   3.173 -16.753  1.00  0.00     0.127 S 
ATOM     86  O   UNL     1       9.952   3.095 -18.148  1.00  0.00    -0.237 OA
ATOM     87  O   UNL     1      11.320   2.132 -16.337  1.00  0.00    -0.237 OA
ATOM     88  O   UNL     1       9.330   3.452 -15.781  1.00  0.00    -0.744 OA
ENDBRANCH  82  85
ENDBRANCH  54  78
BRANCH  66  89
ATOM     89  C   UNL     1      11.138  13.517 -18.219  1.00  0.00     0.023 A 
ATOM     90  C   UNL     1      10.134  13.320 -19.187  1.00  0.00     0.012 A 
ATOM     91  C   UNL     1      12.198  14.404 -18.488  1.00  0.00     0.148 A 
ATOM     92  C   UNL     1      10.198  13.977 -20.414  1.00  0.00     0.002 A 
ATOM     93  C   UNL     1      12.229  15.092 -19.694  1.00  0.00     0.091 A 
ATOM     94  F   UNL     1      13.153  14.562 -17.559  1.00  0.00    -0.205 F 
ATOM     95  C   UNL     1      11.236  14.872 -20.663  1.00  0.00     0.022 A 
BRANCH  93  96
ATOM     96  S   UNL     1      13.474  16.335 -20.056  1.00  0.00     0.127 S 
ATOM     97  O   UNL     1      14.334  15.629 -21.003  1.00  0.00    -0.237 OA
ATOM     98  O   UNL     1      12.677  17.414 -20.643  1.00  0.00    -0.237 OA
ATOM     99  O   UNL     1      14.089  16.669 -18.778  1.00  0.00    -0.744 OA
ENDBRANCH  93  96
ENDBRANCH  66  89
ENDBRANCH  40  41
ENDBRANCH  32  35
ENDBRANCH  30  31
ENDBRANCH  29  30
ENDBRANCH   1  29
TORSDOF 18
