REMARK SMILES O=CN[C@@H](CCS[C@@H]1CCO[C@]2(CCOC2)C1)C(=O)NCCCCNC(=O)c1ccc(-c2c3nc(c(-c4cccc(S(=O)(=O)[O-])c4F)c4ccc([nH]4)c(-c4cccc(S(=O)(=O)[O-])c4F)c4nc(c(-c5cccc(S(=O)(=O)[O-])c5F)c5ccc2[nH]5)C=C4)C=C3)cc1
REMARK SMILES IDX 22 1 21 2 20 3 18 4 19 5 4 7 3 8 1 9 2 10 5 12 6 13 7 14
REMARK SMILES IDX 8 15 9 16 17 17 10 18 12 19 11 20 13 21 16 22 14 23 15 24
REMARK SMILES IDX 23 25 24 26 25 27 26 28 27 30 28 31 29 32 90 33 30 34 89 35
REMARK SMILES IDX 31 36 32 37 33 38 83 39 34 40 88 41 82 42 84 43 35 44 87 45
REMARK SMILES IDX 81 46 80 47 36 49 68 50 48 51 67 52 49 53 52 54 66 55 85 56
REMARK SMILES IDX 50 57 51 58 65 60 86 61 53 62 37 63 38 64 46 65 39 66 41 67
REMARK SMILES IDX 47 68 40 69 42 70 43 71 44 72 45 73 69 74 70 75 78 76 71 77
REMARK SMILES IDX 73 78 79 79 72 80 74 81 75 82 76 83 77 84 54 85 55 86 63 87
REMARK SMILES IDX 56 88 58 89 64 90 57 91 59 92 60 93 61 94 62 95
REMARK H PARENT 20 6 3 11 25 29 84 48 52 59
REMARK Flexibility Score: inf
ROOT
ATOM      1  C   UNL     1       1.135   0.948  -4.508  1.00  0.00     0.023 C 
ENDROOT
BRANCH   1   2
ATOM      2  C   UNL     1       2.036   0.119  -3.602  1.00  0.00     0.116 C 
BRANCH   2   3
ATOM      3  N   UNL     1       2.706   0.897  -2.579  1.00  0.00    -0.354 N 
ATOM      4  C   UNL     1       3.398   0.482  -1.484  1.00  0.00     0.242 C 
ATOM      5  O   UNL     1       3.540   1.285  -0.554  1.00  0.00    -0.273 OA
ATOM      6  H   UNL     1       2.652   1.873  -2.695  1.00  0.00     0.163 HD
BRANCH   4   7
ATOM      7  C   UNL     1       3.879  -0.954  -1.298  1.00  0.00     0.171 C 
BRANCH   7   8
ATOM      8  N   UNL     1       2.662  -1.733  -1.078  1.00  0.00    -0.347 N 
ATOM      9  O   UNL     1       0.714  -1.870   0.104  1.00  0.00    -0.279 OA
ATOM     10  C   UNL     1       1.873  -1.493   0.024  1.00  0.00     0.337 C 
ATOM     11  H   UNL     1       2.406  -2.433  -1.721  1.00  0.00     0.164 HD
ENDBRANCH   7   8
BRANCH   7  12
ATOM     12  C   UNL     1       4.925  -1.554  -2.255  1.00  0.00     0.046 C 
BRANCH  12  13
ATOM     13  C   UNL     1       5.200  -1.087  -3.699  1.00  0.00     0.072 C 
BRANCH  13  14
ATOM     14  S   UNL     1       6.270   0.313  -4.246  1.00  0.00    -0.158 SA
BRANCH  14  15
ATOM     15  C   UNL     1       5.456   1.956  -3.912  1.00  0.00     0.052 C 
ATOM     16  C   UNL     1       6.026   3.001  -4.891  1.00  0.00     0.043 C 
ATOM     17  C   UNL     1       5.641   2.564  -2.519  1.00  0.00     0.052 C 
ATOM     18  C   UNL     1       7.438   3.453  -4.509  1.00  0.00     0.162 C 
ATOM     19  C   UNL     1       7.078   2.937  -2.161  1.00  0.00     0.095 C 
ATOM     20  O   UNL     1       7.563   3.858  -3.144  1.00  0.00    -0.372 OA
ATOM     21  C   UNL     1       7.983   1.727  -1.977  1.00  0.00     0.066 C 
ATOM     22  C   UNL     1       7.127   3.623  -0.782  1.00  0.00     0.195 C 
ATOM     23  C   UNL     1       8.467   1.751  -0.551  1.00  0.00     0.163 C 
ATOM     24  O   UNL     1       8.165   3.018   0.004  1.00  0.00    -0.378 OA
ENDBRANCH  14  15
ENDBRANCH  13  14
ENDBRANCH  12  13
ENDBRANCH   7  12
ENDBRANCH   4   7
ENDBRANCH   2   3
ENDBRANCH   1   2
BRANCH   1  25
ATOM     25  C   UNL     1       1.833   1.911  -5.481  1.00  0.00     0.023 C 
BRANCH  25  26
ATOM     26  C   UNL     1       2.847   1.322  -6.468  1.00  0.00     0.116 C 
BRANCH  26  27
ATOM     27  N   UNL     1       2.267   0.419  -7.445  1.00  0.00    -0.352 N 
ATOM     28  C   UNL     1       2.233   0.502  -8.818  1.00  0.00     0.251 C 
ATOM     29  H   UNL     1       1.829  -0.377  -7.066  1.00  0.00     0.163 HD
ATOM     30  O   UNL     1       1.623  -0.355  -9.454  1.00  0.00    -0.269 OA
BRANCH  28  31
ATOM     31  C   UNL     1       2.885   1.620  -9.542  1.00  0.00     0.039 A 
ATOM     32  C   UNL     1       2.142   2.310 -10.507  1.00  0.00     0.014 A 
ATOM     33  C   UNL     1       4.221   1.964  -9.325  1.00  0.00     0.014 A 
ATOM     34  C   UNL     1       2.713   3.384 -11.203  1.00  0.00     0.010 A 
ATOM     35  C   UNL     1       4.776   3.064  -9.989  1.00  0.00     0.010 A 
ATOM     36  C   UNL     1       4.028   3.792 -10.930  1.00  0.00    -0.014 A 
BRANCH  36  37
ATOM     37  C   UNL     1       4.632   4.979 -11.602  1.00  0.00     0.031 A 
ATOM     38  C   UNL     1       5.815   4.817 -12.521  1.00  0.00     0.074 A 
ATOM     39  C   UNL     1       4.173   6.218 -11.326  1.00  0.00     0.049 A 
ATOM     40  N   UNL     1       6.553   5.736 -13.091  1.00  0.00    -0.248 NA
ATOM     41  C   UNL     1       6.232   3.439 -12.827  1.00  0.00     0.031 C 
ATOM     42  C   UNL     1       3.051   6.527 -10.437  1.00  0.00     0.029 A 
ATOM     43  N   UNL     1       4.614   7.453 -11.740  1.00  0.00    -0.354 N 
ATOM     44  C   UNL     1       7.539   5.054 -13.795  1.00  0.00     0.074 A 
ATOM     45  C   UNL     1       7.318   3.642 -13.562  1.00  0.00     0.031 C 
ATOM     46  C   UNL     1       2.902   7.860 -10.361  1.00  0.00     0.029 A 
ATOM     47  C   UNL     1       3.938   8.505 -11.162  1.00  0.00     0.049 A 
ATOM     48  H   UNL     1       5.346   7.574 -12.388  1.00  0.00     0.167 HD
ATOM     49  C   UNL     1       8.526   5.551 -14.580  1.00  0.00     0.034 A 
ATOM     50  C   UNL     1       4.141   9.836 -11.247  1.00  0.00     0.034 A 
ATOM     51  C   UNL     1       8.730   6.952 -14.839  1.00  0.00     0.049 A 
ATOM     52  C   UNL     1       5.256  10.361 -12.115  1.00  0.00     0.074 A 
ATOM     53  C   UNL     1       9.679   7.546 -15.655  1.00  0.00     0.029 A 
ATOM     54  N   UNL     1       7.979   7.979 -14.291  1.00  0.00    -0.354 N 
ATOM     55  N   UNL     1       6.109   9.697 -12.855  1.00  0.00    -0.248 NA
ATOM     56  C   UNL     1       5.415  11.822 -12.186  1.00  0.00     0.031 C 
ATOM     57  C   UNL     1       9.514   8.932 -15.584  1.00  0.00     0.029 A 
ATOM     58  C   UNL     1       8.440   9.200 -14.751  1.00  0.00     0.049 A 
ATOM     59  H   UNL     1       7.228   7.857 -13.666  1.00  0.00     0.167 HD
ATOM     60  C   UNL     1       6.865  10.656 -13.520  1.00  0.00     0.074 A 
ATOM     61  C   UNL     1       6.367  11.949 -13.101  1.00  0.00     0.031 C 
ATOM     62  C   UNL     1       7.886  10.480 -14.394  1.00  0.00     0.034 A 
BRANCH  49  63
ATOM     63  C   UNL     1       9.442   4.569 -15.265  1.00  0.00     0.023 A 
ATOM     64  C   UNL     1       8.952   3.799 -16.339  1.00  0.00     0.012 A 
ATOM     65  C   UNL     1      10.800   4.465 -14.903  1.00  0.00     0.148 A 
ATOM     66  C   UNL     1       9.789   2.914 -17.020  1.00  0.00     0.002 A 
ATOM     67  C   UNL     1      11.639   3.614 -15.615  1.00  0.00     0.091 A 
ATOM     68  F   UNL     1      11.245   5.197 -13.872  1.00  0.00    -0.205 F 
ATOM     69  C   UNL     1      11.132   2.830 -16.665  1.00  0.00     0.022 A 
BRANCH  67  70
ATOM     70  S   UNL     1      13.402   3.491 -15.291  1.00  0.00     0.127 S 
ATOM     71  O   UNL     1      13.504   2.145 -14.729  1.00  0.00    -0.237 OA
ATOM     72  O   UNL     1      13.971   3.636 -16.631  1.00  0.00    -0.237 OA
ATOM     73  O   UNL     1      13.719   4.575 -14.373  1.00  0.00    -0.744 OA
ENDBRANCH  67  70
ENDBRANCH  49  63
BRANCH  50  74
ATOM     74  C   UNL     1       3.243  10.784 -10.525  1.00  0.00     0.023 A 
ATOM     75  C   UNL     1       2.385  11.621 -11.265  1.00  0.00     0.012 A 
ATOM     76  C   UNL     1       3.241  10.873  -9.120  1.00  0.00     0.148 A 
ATOM     77  C   UNL     1       1.575  12.559 -10.624  1.00  0.00     0.002 A 
ATOM     78  C   UNL     1       2.390  11.770  -8.484  1.00  0.00     0.091 A 
ATOM     79  F   UNL     1       4.075  10.081  -8.431  1.00  0.00    -0.205 F 
ATOM     80  C   UNL     1       1.571  12.628  -9.234  1.00  0.00     0.022 A 
BRANCH  78  81
ATOM     81  S   UNL     1       2.225  11.838  -6.696  1.00  0.00     0.127 S 
ATOM     82  O   UNL     1       2.893  13.097  -6.382  1.00  0.00    -0.237 OA
ATOM     83  O   UNL     1       0.773  11.849  -6.526  1.00  0.00    -0.237 OA
ATOM     84  O   UNL     1       2.876  10.631  -6.199  1.00  0.00    -0.744 OA
ENDBRANCH  78  81
ENDBRANCH  50  74
BRANCH  62  85
ATOM     85  C   UNL     1       8.493  11.702 -15.035  1.00  0.00     0.023 A 
ATOM     86  C   UNL     1       9.330  12.554 -14.289  1.00  0.00     0.012 A 
ATOM     87  C   UNL     1       8.309  11.944 -16.412  1.00  0.00     0.148 A 
ATOM     88  C   UNL     1       9.955  13.642 -14.897  1.00  0.00     0.002 A 
ATOM     89  C   UNL     1       8.975  13.000 -17.022  1.00  0.00     0.091 A 
ATOM     90  F   UNL     1       7.493  11.132 -17.099  1.00  0.00    -0.205 F 
ATOM     91  C   UNL     1       9.789  13.857 -16.264  1.00  0.00     0.022 A 
BRANCH  89  92
ATOM     92  S   UNL     1       8.902  13.294 -18.793  1.00  0.00     0.127 S 
ATOM     93  O   UNL     1       8.131  14.535 -18.857  1.00  0.00    -0.237 OA
ATOM     94  O   UNL     1      10.316  13.435 -19.141  1.00  0.00    -0.237 OA
ATOM     95  O   UNL     1       8.249  12.126 -19.369  1.00  0.00    -0.744 OA
ENDBRANCH  89  92
ENDBRANCH  62  85
ENDBRANCH  36  37
ENDBRANCH  28  31
ENDBRANCH  26  27
ENDBRANCH  25  26
ENDBRANCH   1  25
TORSDOF 19
