REMARK SMILES O=C(NCCCCNC(=O)c1cc(-c2ccc(Cl)cc2)nc2c3c(C4CC4)cc(C(F)(F)F)nc3nn12)c1ccc(-c2c3nc(c(-c4cccc(S(=O)(=O)[O-])c4F)c4ccc([nH]4)c(-c4cccc(S(=O)(=O)[O-])c4F)c4nc(c(-c5cccc(S(=O)(=O)[O-])c5F)c5ccc2[nH]5)C=C4)C=C3)cc1
REMARK SMILES IDX 4 1 3 2 1 3 2 4 38 6 39 7 100 8 40 9 99 10 41 11 42 12 43 13
REMARK SMILES IDX 93 14 44 15 98 16 92 17 94 18 45 19 97 20 91 21 90 22 46 24
REMARK SMILES IDX 78 25 58 26 77 27 59 28 62 29 76 30 95 31 60 32 61 33 75 35
REMARK SMILES IDX 96 36 63 37 47 38 48 39 56 40 49 41 51 42 57 43 50 44 52 45
REMARK SMILES IDX 53 46 54 47 55 48 79 49 80 50 88 51 81 52 83 53 89 54 82 55
REMARK SMILES IDX 84 56 85 57 86 58 87 59 64 60 65 61 73 62 66 63 68 64 74 65
REMARK SMILES IDX 67 66 69 67 70 68 71 69 72 70 5 71 6 72 7 73 8 74 9 75 10 77
REMARK SMILES IDX 11 78 12 79 37 80 13 81 22 82 36 83 21 84 23 85 35 86 24 87
REMARK SMILES IDX 34 88 28 89 29 90 14 91 15 92 20 93 16 94 19 95 17 96 18 97
REMARK SMILES IDX 25 98 26 99 27 100 30 101 31 102 32 103 33 104
REMARK H PARENT 3 5 94 23 62 34 8 76
REMARK Flexibility Score: inf
ROOT
ATOM      1  C   UNL     1       4.640   0.669   1.377  1.00  0.00     0.116 C 
ENDROOT
BRANCH   1   2
ATOM      2  N   UNL     1       3.267   0.255   1.126  1.00  0.00    -0.352 N 
ATOM      3  O   UNL     1       1.550  -0.472  -0.178  1.00  0.00    -0.269 OA
ATOM      4  C   UNL     1       2.724  -0.149  -0.075  1.00  0.00     0.251 C 
ATOM      5  H   UNL     1       2.658   0.266   1.900  1.00  0.00     0.163 HD
BRANCH   4   6
ATOM      6  C   UNL     1       3.630  -0.179  -1.236  1.00  0.00     0.039 A 
ATOM      7  C   UNL     1       4.629  -1.156  -1.285  1.00  0.00     0.014 A 
ATOM      8  C   UNL     1       3.608   0.890  -2.132  1.00  0.00     0.014 A 
ATOM      9  C   UNL     1       5.691  -0.991  -2.165  1.00  0.00     0.010 A 
ATOM     10  C   UNL     1       4.660   1.035  -3.033  1.00  0.00     0.010 A 
ATOM     11  C   UNL     1       5.723   0.120  -3.019  1.00  0.00    -0.014 A 
BRANCH  11  12
ATOM     12  C   UNL     1       6.906   0.308  -3.869  1.00  0.00     0.031 A 
ATOM     13  C   UNL     1       6.655   0.297  -5.333  1.00  0.00     0.074 A 
ATOM     14  C   UNL     1       8.009   0.940  -3.417  1.00  0.00     0.049 A 
ATOM     15  N   UNL     1       6.248   1.350  -5.974  1.00  0.00    -0.248 NA
ATOM     16  C   UNL     1       6.631  -0.933  -6.121  1.00  0.00     0.031 C 
ATOM     17  C   UNL     1       8.027   1.868  -2.277  1.00  0.00     0.029 A 
ATOM     18  N   UNL     1       9.254   1.075  -3.983  1.00  0.00    -0.354 N 
ATOM     19  C   UNL     1       5.835   0.929  -7.220  1.00  0.00     0.074 A 
ATOM     20  C   UNL     1       6.125  -0.489  -7.282  1.00  0.00     0.031 C 
ATOM     21  C   UNL     1       9.150   2.613  -2.346  1.00  0.00     0.029 A 
ATOM     22  C   UNL     1       9.998   2.105  -3.417  1.00  0.00     0.049 A 
ATOM     23  H   UNL     1       9.585   0.502  -4.712  1.00  0.00     0.167 HD
ATOM     24  C   UNL     1       5.245   1.754  -8.123  1.00  0.00     0.034 A 
ATOM     25  C   UNL     1      10.976   2.818  -4.039  1.00  0.00     0.034 A 
ATOM     26  C   UNL     1       5.054   3.109  -7.699  1.00  0.00     0.049 A 
ATOM     27  C   UNL     1      10.193   3.518  -5.124  1.00  0.00     0.074 A 
ATOM     28  C   UNL     1       4.056   3.817  -7.063  1.00  0.00     0.029 A 
ATOM     29  N   UNL     1       6.119   3.976  -7.758  1.00  0.00    -0.354 N 
ATOM     30  N   UNL     1       9.439   4.575  -4.961  1.00  0.00    -0.248 NA
ATOM     31  C   UNL     1       9.968   2.798  -6.378  1.00  0.00     0.031 C 
ATOM     32  C   UNL     1       4.714   4.894  -6.388  1.00  0.00     0.029 A 
ATOM     33  C   UNL     1       6.080   4.750  -6.623  1.00  0.00     0.049 A 
ATOM     34  H   UNL     1       6.786   4.032  -8.480  1.00  0.00     0.167 HD
ATOM     35  C   UNL     1       8.441   4.468  -5.934  1.00  0.00     0.074 A 
ATOM     36  C   UNL     1       8.844   3.369  -6.789  1.00  0.00     0.031 C 
ATOM     37  C   UNL     1       7.263   5.156  -5.893  1.00  0.00     0.034 A 
BRANCH  24  38
ATOM     38  C   UNL     1       4.919   1.323  -9.497  1.00  0.00     0.023 A 
ATOM     39  C   UNL     1       5.951   1.363 -10.453  1.00  0.00     0.012 A 
ATOM     40  C   UNL     1       3.611   0.995  -9.890  1.00  0.00     0.148 A 
ATOM     41  C   UNL     1       5.683   1.103 -11.794  1.00  0.00     0.002 A 
ATOM     42  C   UNL     1       3.351   0.735 -11.232  1.00  0.00     0.091 A 
ATOM     43  F   UNL     1       2.648   0.969  -8.959  1.00  0.00    -0.205 F 
ATOM     44  C   UNL     1       4.383   0.794 -12.184  1.00  0.00     0.022 A 
BRANCH  42  45
ATOM     45  S   UNL     1       1.714   0.321 -11.845  1.00  0.00     0.127 S 
ATOM     46  O   UNL     1       1.357   1.526 -12.591  1.00  0.00    -0.237 OA
ATOM     47  O   UNL     1       1.988  -0.853 -12.676  1.00  0.00    -0.237 OA
ATOM     48  O   UNL     1       0.903   0.046 -10.666  1.00  0.00    -0.744 OA
ENDBRANCH  42  45
ENDBRANCH  24  38
BRANCH  25  49
ATOM     49  C   UNL     1      12.235   2.035  -4.302  1.00  0.00     0.023 A 
ATOM     50  C   UNL     1      12.723   1.217  -3.251  1.00  0.00     0.012 A 
ATOM     51  C   UNL     1      12.972   2.051  -5.500  1.00  0.00     0.148 A 
ATOM     52  C   UNL     1      13.819   0.369  -3.419  1.00  0.00     0.002 A 
ATOM     53  C   UNL     1      14.033   1.164  -5.685  1.00  0.00     0.091 A 
ATOM     54  F   UNL     1      12.628   2.915  -6.463  1.00  0.00    -0.205 F 
ATOM     55  C   UNL     1      14.458   0.322  -4.648  1.00  0.00     0.022 A 
BRANCH  53  56
ATOM     56  S   UNL     1      14.869   0.978  -7.266  1.00  0.00     0.127 S 
ATOM     57  O   UNL     1      16.277   0.970  -6.873  1.00  0.00    -0.237 OA
ATOM     58  O   UNL     1      14.347  -0.311  -7.717  1.00  0.00    -0.237 OA
ATOM     59  O   UNL     1      14.465   2.128  -8.063  1.00  0.00    -0.744 OA
ENDBRANCH  53  56
ENDBRANCH  25  49
BRANCH  37  60
ATOM     60  C   UNL     1       7.167   6.257  -4.883  1.00  0.00     0.023 A 
ATOM     61  C   UNL     1       7.826   7.468  -5.166  1.00  0.00     0.012 A 
ATOM     62  C   UNL     1       6.383   6.155  -3.715  1.00  0.00     0.148 A 
ATOM     63  C   UNL     1       7.694   8.568  -4.319  1.00  0.00     0.002 A 
ATOM     64  C   UNL     1       6.239   7.262  -2.883  1.00  0.00     0.091 A 
ATOM     65  F   UNL     1       5.757   4.998  -3.453  1.00  0.00    -0.205 F 
ATOM     66  C   UNL     1       6.894   8.468  -3.184  1.00  0.00     0.022 A 
BRANCH  64  67
ATOM     67  S   UNL     1       5.204   7.245  -1.413  1.00  0.00     0.127 S 
ATOM     68  O   UNL     1       6.061   7.886  -0.413  1.00  0.00    -0.237 OA
ATOM     69  O   UNL     1       4.062   8.055  -1.835  1.00  0.00    -0.237 OA
ATOM     70  O   UNL     1       4.910   5.845  -1.131  1.00  0.00    -0.744 OA
ENDBRANCH  64  67
ENDBRANCH  37  60
ENDBRANCH  11  12
ENDBRANCH   4   6
ENDBRANCH   1   2
BRANCH   1  71
ATOM     71  C   UNL     1       4.850   2.175   1.244  1.00  0.00     0.023 C 
BRANCH  71  72
ATOM     72  C   UNL     1       4.349   2.990   2.434  1.00  0.00     0.023 C 
BRANCH  72  73
ATOM     73  C   UNL     1       4.818   2.499   3.800  1.00  0.00     0.116 C 
BRANCH  73  74
ATOM     74  N   UNL     1       6.264   2.342   3.909  1.00  0.00    -0.351 N 
ATOM     75  C   UNL     1       7.034   2.423   5.035  1.00  0.00     0.270 C 
ATOM     76  H   UNL     1       6.743   2.156   3.070  1.00  0.00     0.163 HD
ATOM     77  O   UNL     1       8.243   2.221   5.009  1.00  0.00    -0.268 OA
BRANCH  75  78
ATOM     78  C   UNL     1       6.374   2.889   6.262  1.00  0.00     0.134 A 
ATOM     79  C   UNL     1       6.670   4.142   6.630  1.00  0.00     0.063 A 
ATOM     80  N   UNL     1       5.417   2.145   6.938  1.00  0.00    -0.207 N 
ATOM     81  C   UNL     1       5.916   4.645   7.812  1.00  0.00     0.075 A 
ATOM     82  C   UNL     1       4.675   2.736   7.981  1.00  0.00     0.166 A 
ATOM     83  N   UNL     1       5.029   0.871   6.686  1.00  0.00    -0.145 NA
ATOM     84  N   UNL     1       4.992   3.989   8.457  1.00  0.00    -0.228 NA
ATOM     85  C   UNL     1       3.651   1.841   8.232  1.00  0.00     0.069 A 
ATOM     86  C   UNL     1       3.932   0.710   7.410  1.00  0.00     0.184 A 
ATOM     87  C   UNL     1       2.541   1.999   9.076  1.00  0.00    -0.028 A 
ATOM     88  N   UNL     1       3.137  -0.384   7.370  1.00  0.00    -0.222 NA
ATOM     89  C   UNL     1       1.722   0.852   8.983  1.00  0.00     0.038 A 
ATOM     90  C   UNL     1       2.030  -0.275   8.166  1.00  0.00     0.147 A 
BRANCH  81  91
ATOM     91  C   UNL     1       6.329   5.998   8.247  1.00  0.00     0.000 A 
ATOM     92  C   UNL     1       6.846   6.165   9.535  1.00  0.00     0.012 A 
ATOM     93  C   UNL     1       6.285   7.074   7.352  1.00  0.00     0.012 A 
ATOM     94  C   UNL     1       7.354   7.409   9.916  1.00  0.00     0.021 A 
ATOM     95  C   UNL     1       6.786   8.319   7.741  1.00  0.00     0.021 A 
ATOM     96  C   UNL     1       7.326   8.478   9.018  1.00  0.00     0.041 A 
ATOM     97  Cl  UNL     1       7.975  10.001   9.487  1.00  0.00    -0.084 Cl
ENDBRANCH  81  91
BRANCH  87  98
ATOM     98  C   UNL     1       2.296   3.227   9.892  1.00  0.00     0.020 C 
ATOM     99  C   UNL     1       1.080   3.387  10.776  1.00  0.00     0.009 C 
ATOM    100  C   UNL     1       2.422   3.137  11.395  1.00  0.00     0.009 C 
ENDBRANCH  87  98
BRANCH  90 101
ATOM    101  C   UNL     1       1.053  -1.448   8.144  1.00  0.00     0.433 C 
ATOM    102  F   UNL     1       0.422  -1.597   6.945  1.00  0.00    -0.165 F 
ATOM    103  F   UNL     1       1.646  -2.647   8.415  1.00  0.00    -0.165 F 
ATOM    104  F   UNL     1       0.050  -1.332   9.067  1.00  0.00    -0.165 F 
ENDBRANCH  90 101
ENDBRANCH  75  78
ENDBRANCH  73  74
ENDBRANCH  72  73
ENDBRANCH  71  72
ENDBRANCH   1  71
TORSDOF 17
