REMARK SMILES COCCN(CC(C)C)C(=O)N1CC[C@@H](C(=O)NCCCCNC(=O)c2ccc(-c3c4nc(c(-c5cccc(S(=O)(=O)[O-])c5F)c5ccc([nH]5)c(-c5cccc(S(=O)(=O)[O-])c5F)c5nc(c(-c6cccc(S(=O)(=O)[O-])c6F)c6ccc3[nH]6)C=C5)C=C4)cc2)[C@H]1C
REMARK SMILES IDX 19 1 18 2 16 3 17 4 15 6 12 7 13 8 89 9 14 10 90 11 10 12
REMARK SMILES IDX 11 13 5 14 4 15 3 16 2 17 1 18 6 19 7 20 8 21 9 22 20 23
REMARK SMILES IDX 21 24 22 25 23 26 24 27 25 29 26 30 27 31 88 32 28 33 87 34
REMARK SMILES IDX 29 35 30 36 31 37 81 38 32 39 86 40 80 41 82 42 33 43 85 44
REMARK SMILES IDX 79 45 78 46 34 48 66 49 46 50 65 51 47 52 50 53 64 54 83 55
REMARK SMILES IDX 48 56 49 57 63 59 84 60 51 61 35 62 36 63 44 64 37 65 39 66
REMARK SMILES IDX 45 67 38 68 40 69 41 70 42 71 43 72 67 73 68 74 76 75 69 76
REMARK SMILES IDX 71 77 77 78 70 79 72 80 73 81 74 82 75 83 52 84 53 85 61 86
REMARK SMILES IDX 54 87 56 88 62 89 55 90 57 91 58 92 59 93 60 94
REMARK H PARENT 18 5 23 28 82 47 50 58
REMARK Flexibility Score: inf
ROOT
ATOM      1  C   UNL     1       4.417  -0.130   5.900  1.00  0.00     0.116 C 
ENDROOT
BRANCH   1   2
ATOM      2  N   UNL     1       3.312  -0.912   6.473  1.00  0.00    -0.356 N 
ATOM      3  C   UNL     1       2.190  -1.542   6.024  1.00  0.00     0.225 C 
ATOM      4  O   UNL     1       1.557  -2.154   6.898  1.00  0.00    -0.275 OA
ATOM      5  H   UNL     1       3.410  -1.007   7.449  1.00  0.00     0.163 HD
BRANCH   3   6
ATOM      6  C   UNL     1       1.599  -1.540   4.597  1.00  0.00     0.102 C 
ATOM      7  N   UNL     1       1.109  -0.300   2.585  1.00  0.00    -0.321 N 
ATOM      8  C   UNL     1       1.668  -1.605   2.243  1.00  0.00     0.122 C 
ATOM      9  C   UNL     1       0.979  -0.227   4.050  1.00  0.00     0.096 C 
ATOM     10  C   UNL     1       2.479  -2.030   3.458  1.00  0.00     0.037 C 
ATOM     11  C   UNL     1       1.743   0.911   4.619  1.00  0.00     0.032 C 
BRANCH   7  12
ATOM     12  C   UNL     1       0.198   0.244   1.693  1.00  0.00     0.320 C 
ATOM     13  O   UNL     1      -0.490  -0.512   1.001  1.00  0.00    -0.248 OA
BRANCH  12  14
ATOM     14  N   UNL     1       0.210   1.617   1.457  1.00  0.00    -0.322 N 
BRANCH  14  15
ATOM     15  C   UNL     1      -0.429   2.072   0.209  1.00  0.00     0.149 C 
BRANCH  15  16
ATOM     16  C   UNL     1       0.567   2.160  -0.974  1.00  0.00     0.181 C 
BRANCH  16  17
ATOM     17  O   UNL     1       0.639   0.964  -1.751  1.00  0.00    -0.383 OA
ATOM     18  C   UNL     1       1.591   0.020  -1.279  1.00  0.00     0.194 C 
ENDBRANCH  16  17
ENDBRANCH  15  16
ENDBRANCH  14  15
BRANCH  14  19
ATOM     19  C   UNL     1       0.981   2.654   2.149  1.00  0.00     0.124 C 
BRANCH  19  20
ATOM     20  C   UNL     1       0.182   3.549   3.151  1.00  0.00     0.002 C 
ATOM     21  C   UNL     1      -0.869   2.854   4.036  1.00  0.00     0.009 C 
ATOM     22  C   UNL     1       1.153   4.378   4.021  1.00  0.00     0.009 C 
ENDBRANCH  19  20
ENDBRANCH  14  19
ENDBRANCH  12  14
ENDBRANCH   7  12
ENDBRANCH   3   6
ENDBRANCH   1   2
BRANCH   1  23
ATOM     23  C   UNL     1       4.252   1.402   6.033  1.00  0.00     0.023 C 
BRANCH  23  24
ATOM     24  C   UNL     1       5.076   2.163   7.046  1.00  0.00     0.023 C 
BRANCH  24  25
ATOM     25  C   UNL     1       6.567   2.112   6.835  1.00  0.00     0.116 C 
BRANCH  25  26
ATOM     26  N   UNL     1       7.038   2.614   5.549  1.00  0.00    -0.352 N 
ATOM     27  C   UNL     1       8.219   3.288   5.301  1.00  0.00     0.251 C 
ATOM     28  H   UNL     1       6.452   2.456   4.774  1.00  0.00     0.163 HD
ATOM     29  O   UNL     1       8.496   3.684   4.173  1.00  0.00    -0.269 OA
BRANCH  27  30
ATOM     30  C   UNL     1       9.109   3.577   6.448  1.00  0.00     0.039 A 
ATOM     31  C   UNL     1       9.519   4.890   6.684  1.00  0.00     0.014 A 
ATOM     32  C   UNL     1       9.376   2.574   7.380  1.00  0.00     0.014 A 
ATOM     33  C   UNL     1      10.105   5.212   7.912  1.00  0.00     0.010 A 
ATOM     34  C   UNL     1       9.811   2.927   8.647  1.00  0.00     0.010 A 
ATOM     35  C   UNL     1      10.202   4.244   8.925  1.00  0.00    -0.014 A 
BRANCH  35  36
ATOM     36  C   UNL     1      10.733   4.561  10.277  1.00  0.00     0.031 A 
ATOM     37  C   UNL     1      11.905   3.778  10.813  1.00  0.00     0.074 A 
ATOM     38  C   UNL     1      10.106   5.462  11.062  1.00  0.00     0.049 A 
ATOM     39  N   UNL     1      12.458   3.826  11.997  1.00  0.00    -0.248 NA
ATOM     40  C   UNL     1      12.501   2.767   9.920  1.00  0.00     0.031 C 
ATOM     41  C   UNL     1       8.893   6.205  10.709  1.00  0.00     0.029 A 
ATOM     42  N   UNL     1      10.393   5.891  12.334  1.00  0.00    -0.354 N 
ATOM     43  C   UNL     1      13.416   2.820  12.005  1.00  0.00     0.074 A 
ATOM     44  C   UNL     1      13.329   2.136  10.736  1.00  0.00     0.031 C 
ATOM     45  C   UNL     1       8.557   7.013  11.728  1.00  0.00     0.029 A 
ATOM     46  C   UNL     1       9.512   6.832  12.816  1.00  0.00     0.049 A 
ATOM     47  H   UNL     1      11.159   5.555  12.854  1.00  0.00     0.167 HD
ATOM     48  C   UNL     1      14.329   2.521  12.958  1.00  0.00     0.034 A 
ATOM     49  C   UNL     1       9.488   7.482  13.996  1.00  0.00     0.034 A 
ATOM     50  C   UNL     1      14.480   3.267  14.175  1.00  0.00     0.049 A 
ATOM     51  C   UNL     1      10.580   7.210  14.997  1.00  0.00     0.074 A 
ATOM     52  C   UNL     1      15.444   3.127  15.156  1.00  0.00     0.029 A 
ATOM     53  N   UNL     1      13.651   4.306  14.567  1.00  0.00    -0.354 N 
ATOM     54  N   UNL     1      11.584   6.370  14.914  1.00  0.00    -0.248 NA
ATOM     55  C   UNL     1      10.564   8.005  16.233  1.00  0.00     0.031 C 
ATOM     56  C   UNL     1      15.195   4.083  16.146  1.00  0.00     0.029 A 
ATOM     57  C   UNL     1      14.084   4.824  15.774  1.00  0.00     0.049 A 
ATOM     58  H   UNL     1      12.870   4.627  14.062  1.00  0.00     0.167 HD
ATOM     59  C   UNL     1      12.338   6.562  16.066  1.00  0.00     0.074 A 
ATOM     60  C   UNL     1      11.687   7.613  16.820  1.00  0.00     0.031 C 
ATOM     61  C   UNL     1      13.458   5.915  16.474  1.00  0.00     0.034 A 
BRANCH  48  62
ATOM     62  C   UNL     1      15.289   1.395  12.674  1.00  0.00     0.023 A 
ATOM     63  C   UNL     1      16.284   1.565  11.689  1.00  0.00     0.012 A 
ATOM     64  C   UNL     1      15.228   0.187  13.393  1.00  0.00     0.148 A 
ATOM     65  C   UNL     1      17.175   0.536  11.392  1.00  0.00     0.002 A 
ATOM     66  C   UNL     1      16.151  -0.818  13.125  1.00  0.00     0.091 A 
ATOM     67  F   UNL     1      14.260   0.033  14.307  1.00  0.00    -0.205 F 
ATOM     68  C   UNL     1      17.115  -0.650  12.116  1.00  0.00     0.022 A 
BRANCH  66  69
ATOM     69  S   UNL     1      16.208  -2.352  14.056  1.00  0.00     0.127 S 
ATOM     70  O   UNL     1      15.684  -3.308  13.082  1.00  0.00    -0.237 OA
ATOM     71  O   UNL     1      17.638  -2.489  14.337  1.00  0.00    -0.237 OA
ATOM     72  O   UNL     1      15.378  -2.137  15.232  1.00  0.00    -0.744 OA
ENDBRANCH  66  69
ENDBRANCH  48  62
BRANCH  49  73
ATOM     73  C   UNL     1       8.457   8.528  14.254  1.00  0.00     0.023 A 
ATOM     74  C   UNL     1       8.846   9.883  14.278  1.00  0.00     0.012 A 
ATOM     75  C   UNL     1       7.101   8.203  14.448  1.00  0.00     0.148 A 
ATOM     76  C   UNL     1       7.912  10.890  14.523  1.00  0.00     0.002 A 
ATOM     77  C   UNL     1       6.166   9.215  14.640  1.00  0.00     0.091 A 
ATOM     78  F   UNL     1       6.750   6.909  14.434  1.00  0.00    -0.205 F 
ATOM     79  C   UNL     1       6.571  10.558  14.695  1.00  0.00     0.022 A 
BRANCH  77  80
ATOM     80  S   UNL     1       4.402   8.888  14.739  1.00  0.00     0.127 S 
ATOM     81  O   UNL     1       4.140   9.085  16.162  1.00  0.00    -0.237 OA
ATOM     82  O   UNL     1       3.850   9.921  13.861  1.00  0.00    -0.237 OA
ATOM     83  O   UNL     1       4.231   7.529  14.241  1.00  0.00    -0.744 OA
ENDBRANCH  77  80
ENDBRANCH  49  73
BRANCH  61  84
ATOM     84  C   UNL     1      14.080   6.345  17.774  1.00  0.00     0.023 A 
ATOM     85  C   UNL     1      13.465   5.992  18.991  1.00  0.00     0.012 A 
ATOM     86  C   UNL     1      15.315   7.021  17.791  1.00  0.00     0.148 A 
ATOM     87  C   UNL     1      14.058   6.331  20.207  1.00  0.00     0.002 A 
ATOM     88  C   UNL     1      15.923   7.313  19.005  1.00  0.00     0.091 A 
ATOM     89  F   UNL     1      15.873   7.365  16.621  1.00  0.00    -0.205 F 
ATOM     90  C   UNL     1      15.291   6.979  20.214  1.00  0.00     0.022 A 
BRANCH  88  91
ATOM     91  S   UNL     1      17.555   8.057  19.102  1.00  0.00     0.127 S 
ATOM     92  O   UNL     1      17.233   9.440  19.445  1.00  0.00    -0.237 OA
ATOM     93  O   UNL     1      18.185   7.292  20.179  1.00  0.00    -0.237 OA
ATOM     94  O   UNL     1      18.160   7.857  17.791  1.00  0.00    -0.744 OA
ENDBRANCH  88  91
ENDBRANCH  61  84
ENDBRANCH  35  36
ENDBRANCH  27  30
ENDBRANCH  25  26
ENDBRANCH  24  25
ENDBRANCH  23  24
ENDBRANCH   1  23
TORSDOF 21
