REMARK SMILES Cc1cc(C(=O)NCCCCNC(=O)c2ccc(-c3c4nc(c(-c5cccc(S(=O)(=O)[O-])c5F)c5ccc([nH]5)c(-c5cccc(S(=O)(=O)[O-])c5F)c5nc(c(-c6cccc(S(=O)(=O)[O-])c6F)c6ccc3[nH]6)C=C5)C=C4)cc2)c(O)c(S(=O)(=O)N2CCCc3cc(F)cc(F)c32)c1
REMARK SMILES IDX 10 1 9 2 8 3 7 4 5 5 6 6 4 8 1 9 2 10 3 11 96 12 80 13 78 14
REMARK SMILES IDX 81 15 82 16 83 17 84 18 85 19 95 20 86 21 88 22 93 23 87 24
REMARK SMILES IDX 89 25 92 26 94 27 90 28 91 29 79 30 11 32 12 33 13 34 14 36
REMARK SMILES IDX 15 37 16 38 77 39 17 40 76 41 18 42 19 43 20 44 70 45 21 46
REMARK SMILES IDX 75 47 69 48 71 49 22 50 74 51 68 52 67 53 23 55 55 56 35 57
REMARK SMILES IDX 54 58 36 59 39 60 53 61 72 62 37 63 38 64 52 66 73 67 40 68
REMARK SMILES IDX 24 69 25 70 33 71 26 72 28 73 34 74 27 75 29 76 30 77 31 78
REMARK SMILES IDX 32 79 56 80 57 81 65 82 58 83 60 84 66 85 59 86 61 87 62 88
REMARK SMILES IDX 63 89 64 90 41 91 42 92 50 93 43 94 45 95 51 96 44 97 46 98
REMARK SMILES IDX 47 99 48 100 49 101
REMARK H PARENT 7 7 79 31 12 35 71 54 39 65
REMARK Flexibility Score: inf
ROOT
ATOM      1  C   UNL     1      -5.404   2.358   1.223  1.00  0.00     0.023 C 
ENDROOT
BRANCH   1   2
ATOM      2  C   UNL     1      -4.313   1.360   0.856  1.00  0.00     0.023 C 
BRANCH   2   3
ATOM      3  C   UNL     1      -3.481   1.705  -0.390  1.00  0.00     0.116 C 
BRANCH   3   4
ATOM      4  N   UNL     1      -2.311   2.507  -0.046  1.00  0.00    -0.352 N 
ATOM      5  C   UNL     1      -0.989   2.191   0.198  1.00  0.00     0.255 C 
ATOM      6  O   UNL     1      -0.224   3.122   0.458  1.00  0.00    -0.269 OA
ATOM      7  H   UNL     1      -2.503   3.470   0.028  1.00  0.00     0.163 HD
BRANCH   5   8
ATOM      8  C   UNL     1      -0.403   0.818   0.070  1.00  0.00     0.083 A 
ATOM      9  C   UNL     1       3.069  -0.612  -0.444  1.00  0.00     0.044 C 
ATOM     10  C   UNL     1       1.569  -0.564  -0.395  1.00  0.00    -0.049 A 
ATOM     11  C   UNL     1       0.963   0.698  -0.202  1.00  0.00     0.021 A 
ATOM     12  C   UNL     1       0.766  -1.713  -0.532  1.00  0.00     0.029 A 
ATOM     13  C   UNL     1      -0.584  -1.596  -0.230  1.00  0.00     0.130 A 
ATOM     14  C   UNL     1      -1.093  -0.368   0.247  1.00  0.00     0.148 A 
BRANCH  13  15
ATOM     15  S   UNL     1      -1.854  -2.745  -0.664  1.00  0.00     0.268 S 
ATOM     16  O   UNL     1      -2.785  -2.622   0.449  1.00  0.00    -0.201 OA
ATOM     17  O   UNL     1      -2.277  -2.348  -1.991  1.00  0.00    -0.201 OA
BRANCH  15  18
ATOM     18  N   UNL     1      -1.421  -4.444  -0.725  1.00  0.00    -0.263 N 
ATOM     19  C   UNL     1      -0.710  -4.996   0.462  1.00  0.00     0.136 C 
ATOM     20  C   UNL     1      -2.705  -5.135  -1.015  1.00  0.00     0.091 A 
ATOM     21  C   UNL     1      -1.583  -5.824   1.411  1.00  0.00     0.028 C 
ATOM     22  C   UNL     1      -3.594  -5.275   0.073  1.00  0.00    -0.018 A 
ATOM     23  C   UNL     1      -3.220  -5.122  -2.320  1.00  0.00     0.150 A 
ATOM     24  C   UNL     1      -3.039  -5.374   1.469  1.00  0.00     0.040 C 
ATOM     25  C   UNL     1      -4.968  -5.125  -0.150  1.00  0.00     0.045 A 
ATOM     26  C   UNL     1      -4.591  -5.054  -2.544  1.00  0.00     0.080 A 
ATOM     27  F   UNL     1      -2.387  -5.078  -3.370  1.00  0.00    -0.205 F 
ATOM     28  C   UNL     1      -5.445  -4.983  -1.451  1.00  0.00     0.126 A 
ATOM     29  F   UNL     1      -6.749  -4.750  -1.649  1.00  0.00    -0.207 F 
ENDBRANCH  15  18
ENDBRANCH  13  15
BRANCH  14  30
ATOM     30  O   UNL     1      -2.206  -0.324   1.038  1.00  0.00    -0.506 OA
ATOM     31  H   UNL     1      -2.530   0.500   1.345  1.00  0.00     0.293 HD
ENDBRANCH  14  30
ENDBRANCH   5   8
ENDBRANCH   3   4
ENDBRANCH   2   3
ENDBRANCH   1   2
BRANCH   1  32
ATOM     32  C   UNL     1      -6.561   2.429   0.239  1.00  0.00     0.116 C 
BRANCH  32  33
ATOM     33  N   UNL     1      -7.274   1.170   0.075  1.00  0.00    -0.352 N 
ATOM     34  C   UNL     1      -8.620   0.975  -0.165  1.00  0.00     0.251 C 
ATOM     35  H   UNL     1      -6.727   0.354   0.144  1.00  0.00     0.163 HD
ATOM     36  O   UNL     1      -9.096  -0.141  -0.186  1.00  0.00    -0.269 OA
BRANCH  34  37
ATOM     37  C   UNL     1      -9.481   2.168  -0.348  1.00  0.00     0.039 A 
ATOM     38  C   UNL     1     -10.653   2.274   0.403  1.00  0.00     0.014 A 
ATOM     39  C   UNL     1      -9.092   3.200  -1.204  1.00  0.00     0.014 A 
ATOM     40  C   UNL     1     -11.396   3.455   0.352  1.00  0.00     0.010 A 
ATOM     41  C   UNL     1      -9.785   4.405  -1.187  1.00  0.00     0.010 A 
ATOM     42  C   UNL     1     -10.946   4.545  -0.411  1.00  0.00    -0.014 A 
BRANCH  42  43
ATOM     43  C   UNL     1     -11.665   5.843  -0.404  1.00  0.00     0.031 A 
ATOM     44  C   UNL     1     -12.251   6.387  -1.679  1.00  0.00     0.074 A 
ATOM     45  C   UNL     1     -11.708   6.575   0.727  1.00  0.00     0.049 A 
ATOM     46  N   UNL     1     -12.862   7.525  -1.885  1.00  0.00    -0.248 NA
ATOM     47  C   UNL     1     -12.107   5.559  -2.888  1.00  0.00     0.031 C 
ATOM     48  C   UNL     1     -11.100   6.197   2.006  1.00  0.00     0.029 A 
ATOM     49  N   UNL     1     -12.266   7.804   0.979  1.00  0.00    -0.354 N 
ATOM     50  C   UNL     1     -13.140   7.565  -3.245  1.00  0.00     0.074 A 
ATOM     51  C   UNL     1     -12.600   6.356  -3.825  1.00  0.00     0.031 C 
ATOM     52  C   UNL     1     -11.323   7.169   2.905  1.00  0.00     0.029 A 
ATOM     53  C   UNL     1     -12.062   8.252   2.264  1.00  0.00     0.049 A 
ATOM     54  H   UNL     1     -12.766   8.317   0.303  1.00  0.00     0.167 HD
ATOM     55  C   UNL     1     -13.813   8.508  -3.946  1.00  0.00     0.034 A 
ATOM     56  C   UNL     1     -12.423   9.407   2.856  1.00  0.00     0.034 A 
ATOM     57  C   UNL     1     -14.390   9.686  -3.357  1.00  0.00     0.049 A 
ATOM     58  C   UNL     1     -13.211  10.417   2.065  1.00  0.00     0.074 A 
ATOM     59  C   UNL     1     -15.171  10.655  -3.963  1.00  0.00     0.029 A 
ATOM     60  N   UNL     1     -14.244  10.060  -2.031  1.00  0.00    -0.354 N 
ATOM     61  N   UNL     1     -13.610  10.359   0.817  1.00  0.00    -0.248 NA
ATOM     62  C   UNL     1     -13.632  11.635   2.772  1.00  0.00     0.031 C 
ATOM     63  C   UNL     1     -15.476  11.629  -3.007  1.00  0.00     0.029 A 
ATOM     64  C   UNL     1     -14.912  11.250  -1.799  1.00  0.00     0.049 A 
ATOM     65  H   UNL     1     -13.739   9.555  -1.353  1.00  0.00     0.167 HD
ATOM     66  C   UNL     1     -14.361  11.509   0.603  1.00  0.00     0.074 A 
ATOM     67  C   UNL     1     -14.378  12.236   1.855  1.00  0.00     0.031 C 
ATOM     68  C   UNL     1     -14.970  11.932  -0.532  1.00  0.00     0.034 A 
BRANCH  55  69
ATOM     69  C   UNL     1     -14.013   8.279  -5.421  1.00  0.00     0.023 A 
ATOM     70  C   UNL     1     -14.899   7.271  -5.854  1.00  0.00     0.012 A 
ATOM     71  C   UNL     1     -13.380   9.099  -6.375  1.00  0.00     0.148 A 
ATOM     72  C   UNL     1     -15.127   7.060  -7.213  1.00  0.00     0.002 A 
ATOM     73  C   UNL     1     -13.649   8.914  -7.726  1.00  0.00     0.091 A 
ATOM     74  F   UNL     1     -12.526  10.038  -5.945  1.00  0.00    -0.205 F 
ATOM     75  C   UNL     1     -14.511   7.888  -8.147  1.00  0.00     0.022 A 
BRANCH  73  76
ATOM     76  S   UNL     1     -12.972   9.979  -9.005  1.00  0.00     0.127 S 
ATOM     77  O   UNL     1     -12.048   9.073  -9.685  1.00  0.00    -0.237 OA
ATOM     78  O   UNL     1     -14.165  10.325  -9.778  1.00  0.00    -0.237 OA
ATOM     79  O   UNL     1     -12.351  11.098  -8.311  1.00  0.00    -0.744 OA
ENDBRANCH  73  76
ENDBRANCH  55  69
BRANCH  56  80
ATOM     80  C   UNL     1     -12.103   9.646   4.293  1.00  0.00     0.023 A 
ATOM     81  C   UNL     1     -13.145   9.663   5.240  1.00  0.00     0.012 A 
ATOM     82  C   UNL     1     -10.777   9.841   4.727  1.00  0.00     0.148 A 
ATOM     83  C   UNL     1     -12.878   9.909   6.588  1.00  0.00     0.002 A 
ATOM     84  C   UNL     1     -10.513  10.030   6.079  1.00  0.00     0.091 A 
ATOM     85  F   UNL     1      -9.800   9.832   3.809  1.00  0.00    -0.205 F 
ATOM     86  C   UNL     1     -11.563  10.083   7.008  1.00  0.00     0.022 A 
BRANCH  84  87
ATOM     87  S   UNL     1      -8.841  10.134   6.726  1.00  0.00     0.127 S 
ATOM     88  O   UNL     1      -8.748  11.545   7.089  1.00  0.00    -0.237 OA
ATOM     89  O   UNL     1      -8.897   9.209   7.859  1.00  0.00    -0.237 OA
ATOM     90  O   UNL     1      -7.972   9.699   5.641  1.00  0.00    -0.744 OA
ENDBRANCH  84  87
ENDBRANCH  56  80
BRANCH  68  91
ATOM     91  C   UNL     1     -15.751  13.219  -0.471  1.00  0.00     0.023 A 
ATOM     92  C   UNL     1     -15.072  14.450  -0.379  1.00  0.00     0.012 A 
ATOM     93  C   UNL     1     -17.155  13.209  -0.587  1.00  0.00     0.148 A 
ATOM     94  C   UNL     1     -15.781  15.650  -0.370  1.00  0.00     0.002 A 
ATOM     95  C   UNL     1     -17.851  14.410  -0.629  1.00  0.00     0.091 A 
ATOM     96  F   UNL     1     -17.783  12.026  -0.655  1.00  0.00    -0.205 F 
ATOM     97  C   UNL     1     -17.168  15.631  -0.508  1.00  0.00     0.022 A 
BRANCH  95  98
ATOM     98  S   UNL     1     -19.625  14.486  -0.904  1.00  0.00     0.127 S 
ATOM     99  O   UNL     1     -20.113  14.888   0.414  1.00  0.00    -0.237 OA
ATOM    100  O   UNL     1     -19.735  15.518  -1.936  1.00  0.00    -0.237 OA
ATOM    101  O   UNL     1     -20.022  13.153  -1.338  1.00  0.00    -0.744 OA
ENDBRANCH  95  98
ENDBRANCH  68  91
ENDBRANCH  42  43
ENDBRANCH  34  37
ENDBRANCH  32  33
ENDBRANCH   1  32
TORSDOF 17
