REMARK SMILES O=C(NCCCCNC(=O)c1ccc(-c2c3nc(c(-c4cccc(S(=O)(=O)[O-])c4F)c4ccc([nH]4)c(-c4cccc(S(=O)(=O)[O-])c4F)c4nc(c(-c5cccc(S(=O)(=O)[O-])c5F)c5ccc2[nH]5)C=C4)C=C3)cc1)C1=Cc2c(ccc(Cl)c2Oc2ccccc2)O[C@H]1C(F)(F)F
REMARK SMILES IDX 6 1 5 2 4 3 3 4 1 5 2 6 74 8 75 9 91 10 76 11 90 12 77 13
REMARK SMILES IDX 82 14 78 15 80 16 79 17 81 18 92 19 93 20 94 21 95 22 83 23
REMARK SMILES IDX 84 24 85 25 89 26 86 27 88 28 87 29 7 30 8 31 9 32 10 34
REMARK SMILES IDX 11 35 12 36 73 37 13 38 72 39 14 40 15 41 16 42 66 43 17 44
REMARK SMILES IDX 71 45 65 46 67 47 18 48 70 49 64 50 63 51 19 53 51 54 31 55
REMARK SMILES IDX 50 56 32 57 35 58 49 59 68 60 33 61 34 62 48 64 69 65 36 66
REMARK SMILES IDX 20 67 21 68 29 69 22 70 24 71 30 72 23 73 25 74 26 75 27 76
REMARK SMILES IDX 28 77 52 78 53 79 61 80 54 81 56 82 62 83 55 84 57 85 58 86
REMARK SMILES IDX 59 87 60 88 37 89 38 90 46 91 39 92 41 93 47 94 40 95 42 96
REMARK SMILES IDX 43 97 44 98 45 99
REMARK H PARENT 3 7 8 33 67 52 35 63
REMARK Flexibility Score: inf
ROOT
ATOM      1  C   UNL     1       4.026   2.105   3.911  1.00  0.00     0.023 C 
ENDROOT
BRANCH   1   2
ATOM      2  C   UNL     1       4.316   2.358   2.434  1.00  0.00     0.023 C 
BRANCH   2   3
ATOM      3  C   UNL     1       3.835   1.265   1.483  1.00  0.00     0.116 C 
BRANCH   3   4
ATOM      4  N   UNL     1       2.688   1.650   0.677  1.00  0.00    -0.352 N 
ATOM      5  O   UNL     1       1.458   1.915  -1.196  1.00  0.00    -0.270 OA
ATOM      6  C   UNL     1       2.453   1.444  -0.653  1.00  0.00     0.251 C 
ATOM      7  H   UNL     1       1.977   2.129   1.160  1.00  0.00     0.163 HD
BRANCH   6   8
ATOM      8  C   UNL     1       3.418   0.683  -1.472  1.00  0.00     0.067 C 
ATOM      9  C   UNL     1       3.578  -0.630  -1.280  1.00  0.00     0.029 C 
ATOM     10  C   UNL     1       4.447   1.438  -2.245  1.00  0.00     0.314 C 
ATOM     11  C   UNL     1       4.908  -0.929  -0.695  1.00  0.00     0.061 A 
ATOM     12  O   UNL     1       5.807   1.043  -1.875  1.00  0.00    -0.475 OA
ATOM     13  C   UNL     1       5.954  -0.031  -1.020  1.00  0.00     0.131 A 
ATOM     14  C   UNL     1       5.101  -1.931   0.287  1.00  0.00     0.156 A 
ATOM     15  C   UNL     1       7.179  -0.114  -0.364  1.00  0.00     0.049 A 
ATOM     16  C   UNL     1       6.333  -1.960   0.964  1.00  0.00     0.084 A 
ATOM     17  C   UNL     1       7.359  -1.061   0.643  1.00  0.00     0.028 A 
ATOM     18  Cl  UNL     1       6.616  -3.060   2.270  1.00  0.00    -0.080 Cl
BRANCH  10  19
ATOM     19  C   UNL     1       4.240   1.280  -3.762  1.00  0.00     0.429 C 
ATOM     20  F   UNL     1       2.937   1.164  -4.107  1.00  0.00    -0.167 F 
ATOM     21  F   UNL     1       4.732   2.348  -4.435  1.00  0.00    -0.167 F 
ATOM     22  F   UNL     1       4.870   0.179  -4.245  1.00  0.00    -0.167 F 
ENDBRANCH  10  19
BRANCH  14  23
ATOM     23  O   UNL     1       4.149  -2.834   0.749  1.00  0.00    -0.455 OA
BRANCH  23  24
ATOM     24  C   UNL     1       3.029  -3.072  -0.005  1.00  0.00     0.127 A 
ATOM     25  C   UNL     1       1.823  -2.490   0.395  1.00  0.00     0.047 A 
ATOM     26  C   UNL     1       3.102  -3.829  -1.176  1.00  0.00     0.047 A 
ATOM     27  C   UNL     1       0.717  -2.556  -0.451  1.00  0.00     0.004 A 
ATOM     28  C   UNL     1       1.988  -3.901  -2.014  1.00  0.00     0.004 A 
ATOM     29  C   UNL     1       0.806  -3.244  -1.663  1.00  0.00     0.000 A 
ENDBRANCH  23  24
ENDBRANCH  14  23
ENDBRANCH   6   8
ENDBRANCH   3   4
ENDBRANCH   2   3
ENDBRANCH   1   2
BRANCH   1  30
ATOM     30  C   UNL     1       4.584   0.811   4.507  1.00  0.00     0.116 C 
BRANCH  30  31
ATOM     31  N   UNL     1       6.028   0.656   4.383  1.00  0.00    -0.352 N 
ATOM     32  C   UNL     1       6.946   0.262   5.336  1.00  0.00     0.251 C 
ATOM     33  H   UNL     1       6.401   0.862   3.495  1.00  0.00     0.163 HD
ATOM     34  O   UNL     1       8.138   0.221   5.062  1.00  0.00    -0.269 OA
BRANCH  32  35
ATOM     35  C   UNL     1       6.483  -0.049   6.710  1.00  0.00     0.039 A 
ATOM     36  C   UNL     1       7.084   0.607   7.788  1.00  0.00     0.014 A 
ATOM     37  C   UNL     1       5.408  -0.914   6.927  1.00  0.00     0.014 A 
ATOM     38  C   UNL     1       6.528   0.491   9.066  1.00  0.00     0.010 A 
ATOM     39  C   UNL     1       4.813  -0.971   8.186  1.00  0.00     0.010 A 
ATOM     40  C   UNL     1       5.349  -0.246   9.262  1.00  0.00    -0.014 A 
BRANCH  40  41
ATOM     41  C   UNL     1       4.615  -0.205  10.557  1.00  0.00     0.031 A 
ATOM     42  C   UNL     1       4.404  -1.456  11.363  1.00  0.00     0.074 A 
ATOM     43  C   UNL     1       4.033   0.948  10.948  1.00  0.00     0.049 A 
ATOM     44  N   UNL     1       3.732  -1.616  12.474  1.00  0.00    -0.248 NA
ATOM     45  C   UNL     1       5.002  -2.695  10.840  1.00  0.00     0.031 C 
ATOM     46  C   UNL     1       4.076   2.212  10.209  1.00  0.00     0.029 A 
ATOM     47  N   UNL     1       3.263   1.238  12.049  1.00  0.00    -0.354 N 
ATOM     48  C   UNL     1       3.793  -2.973  12.764  1.00  0.00     0.074 A 
ATOM     49  C   UNL     1       4.545  -3.598  11.697  1.00  0.00     0.031 C 
ATOM     50  C   UNL     1       3.371   3.139  10.877  1.00  0.00     0.029 A 
ATOM     51  C   UNL     1       2.804   2.535  12.078  1.00  0.00     0.049 A 
ATOM     52  H   UNL     1       3.058   0.579  12.751  1.00  0.00     0.167 HD
ATOM     53  C   UNL     1       3.297  -3.636  13.837  1.00  0.00     0.034 A 
ATOM     54  C   UNL     1       2.017   3.170  12.970  1.00  0.00     0.034 A 
ATOM     55  C   UNL     1       2.598  -3.009  14.925  1.00  0.00     0.049 A 
ATOM     56  C   UNL     1       1.535   2.425  14.185  1.00  0.00     0.074 A 
ATOM     57  C   UNL     1       2.145  -3.581  16.101  1.00  0.00     0.029 A 
ATOM     58  N   UNL     1       2.248  -1.669  14.974  1.00  0.00    -0.354 N 
ATOM     59  N   UNL     1       1.757   1.180  14.529  1.00  0.00    -0.248 NA
ATOM     60  C   UNL     1       0.725   3.180  15.152  1.00  0.00     0.031 C 
ATOM     61  C   UNL     1       1.516  -2.587  16.859  1.00  0.00     0.029 A 
ATOM     62  C   UNL     1       1.583  -1.395  16.157  1.00  0.00     0.049 A 
ATOM     63  H   UNL     1       2.443  -1.008  14.270  1.00  0.00     0.167 HD
ATOM     64  C   UNL     1       1.146   1.012  15.766  1.00  0.00     0.074 A 
ATOM     65  C   UNL     1       0.561   2.288  16.121  1.00  0.00     0.031 C 
ATOM     66  C   UNL     1       1.060  -0.105  16.530  1.00  0.00     0.034 A 
BRANCH  53  67
ATOM     67  C   UNL     1       3.562  -5.116  13.922  1.00  0.00     0.023 A 
ATOM     68  C   UNL     1       4.860  -5.563  14.242  1.00  0.00     0.012 A 
ATOM     69  C   UNL     1       2.531  -6.057  13.742  1.00  0.00     0.148 A 
ATOM     70  C   UNL     1       5.137  -6.925  14.349  1.00  0.00     0.002 A 
ATOM     71  C   UNL     1       2.806  -7.413  13.888  1.00  0.00     0.091 A 
ATOM     72  F   UNL     1       1.308  -5.615  13.414  1.00  0.00    -0.205 F 
ATOM     73  C   UNL     1       4.109  -7.848  14.182  1.00  0.00     0.022 A 
BRANCH  71  74
ATOM     74  S   UNL     1       1.532  -8.673  13.761  1.00  0.00     0.127 S 
ATOM     75  O   UNL     1       1.799  -9.231  12.437  1.00  0.00    -0.237 OA
ATOM     76  O   UNL     1       1.861  -9.564  14.875  1.00  0.00    -0.237 OA
ATOM     77  O   UNL     1       0.264  -7.971  13.906  1.00  0.00    -0.744 OA
ENDBRANCH  71  74
ENDBRANCH  53  67
BRANCH  54  78
ATOM     78  C   UNL     1       1.712   4.618  12.793  1.00  0.00     0.023 A 
ATOM     79  C   UNL     1       2.316   5.555  13.654  1.00  0.00     0.012 A 
ATOM     80  C   UNL     1       0.864   5.077  11.767  1.00  0.00     0.148 A 
ATOM     81  C   UNL     1       2.060   6.920  13.515  1.00  0.00     0.002 A 
ATOM     82  C   UNL     1       0.653   6.442  11.601  1.00  0.00     0.091 A 
ATOM     83  F   UNL     1       0.284   4.170  10.967  1.00  0.00    -0.205 F 
ATOM     84  C   UNL     1       1.238   7.364  12.483  1.00  0.00     0.022 A 
BRANCH  82  85
ATOM     85  S   UNL     1      -0.283   7.103  10.217  1.00  0.00     0.127 S 
ATOM     86  O   UNL     1      -1.550   7.455  10.853  1.00  0.00    -0.237 OA
ATOM     87  O   UNL     1       0.538   8.243   9.807  1.00  0.00    -0.237 OA
ATOM     88  O   UNL     1      -0.336   6.026   9.238  1.00  0.00    -0.744 OA
ENDBRANCH  82  85
ENDBRANCH  54  78
BRANCH  66  89
ATOM     89  C   UNL     1       0.331  -0.002  17.842  1.00  0.00     0.023 A 
ATOM     90  C   UNL     1      -1.076   0.062  17.851  1.00  0.00     0.012 A 
ATOM     91  C   UNL     1       1.030  -0.050  19.064  1.00  0.00     0.148 A 
ATOM     92  C   UNL     1      -1.776   0.099  19.057  1.00  0.00     0.002 A 
ATOM     93  C   UNL     1       0.323  -0.055  20.262  1.00  0.00     0.091 A 
ATOM     94  F   UNL     1       2.370  -0.087  19.036  1.00  0.00    -0.205 F 
ATOM     95  C   UNL     1      -1.079   0.028  20.260  1.00  0.00     0.022 A 
BRANCH  93  96
ATOM     96  S   UNL     1       1.140  -0.234  21.853  1.00  0.00     0.127 S 
ATOM     97  O   UNL     1       1.126   1.140  22.352  1.00  0.00    -0.237 OA
ATOM     98  O   UNL     1       0.247  -1.150  22.564  1.00  0.00    -0.237 OA
ATOM     99  O   UNL     1       2.456  -0.785  21.561  1.00  0.00    -0.744 OA
ENDBRANCH  93  96
ENDBRANCH  66  89
ENDBRANCH  40  41
ENDBRANCH  32  35
ENDBRANCH  30  31
ENDBRANCH   1  30
TORSDOF 17
