REMARK SMILES Cc1c[nH]c(C[N@H+]2C[C@@H]3CN(S(C)(=O)=O)C[C@]3(C(=O)NCCCCNC(=O)c3ccc(-c4c5nc(c(-c6cccc(S(=O)(=O)[O-])c6F)c6ccc([nH]6)c(-c6cccc(S(=O)(=O)[O-])c6F)c6nc(c(-c7cccc(S(=O)(=O)[O-])c7F)c7ccc4[nH]7)C=C6)C=C5)cc3)C2)n1
REMARK SMILES IDX 23 1 22 2 21 3 20 4 18 5 19 6 17 8 7 9 8 10 91 11 9 13 10 14
REMARK SMILES IDX 16 15 11 16 6 17 5 18 1 19 2 20 3 21 92 22 4 23 12 25 13 26
REMARK SMILES IDX 14 27 15 28 24 29 25 30 26 31 27 33 28 34 29 35 90 36 30 37
REMARK SMILES IDX 89 38 31 39 32 40 33 41 83 42 34 43 88 44 82 45 84 46 35 47
REMARK SMILES IDX 87 48 81 49 80 50 36 52 68 53 48 54 67 55 49 56 52 57 66 58
REMARK SMILES IDX 85 59 50 60 51 61 65 63 86 64 53 65 37 66 38 67 46 68 39 69
REMARK SMILES IDX 41 70 47 71 40 72 42 73 43 74 44 75 45 76 69 77 70 78 78 79
REMARK SMILES IDX 71 80 73 81 79 82 72 83 74 84 75 85 76 86 77 87 54 88 55 89
REMARK SMILES IDX 63 90 56 91 58 92 64 93 57 94 59 95 60 96 61 97 62 98
REMARK H PARENT 20 7 7 12 4 24 25 32 84 51 52 62
REMARK Flexibility Score: inf
ROOT
ATOM      1  C   UNL     1       0.225   8.482   4.887  1.00  0.00     0.023 C 
ENDROOT
BRANCH   1   2
ATOM      2  C   UNL     1      -0.052   6.991   4.935  1.00  0.00     0.023 C 
BRANCH   2   3
ATOM      3  C   UNL     1      -1.071   6.500   3.899  1.00  0.00     0.116 C 
BRANCH   3   4
ATOM      4  N   UNL     1      -0.382   6.041   2.707  1.00  0.00    -0.355 N 
ATOM      5  C   UNL     1       0.011   4.747   2.433  1.00  0.00     0.233 C 
ATOM      6  O   UNL     1       1.033   4.584   1.766  1.00  0.00    -0.274 OA
ATOM      7  H   UNL     1      -0.175   6.721   2.025  1.00  0.00     0.163 HD
BRANCH   5   8
ATOM      8  C   UNL     1      -0.909   3.580   2.978  1.00  0.00     0.121 C 
ATOM      9  N   UNL     1      -2.374   2.362   1.294  1.00  0.00    -0.327 N 
ATOM     10  C   UNL     1      -2.227   1.513   2.448  1.00  0.00     0.268 C 
ATOM     11  C   UNL     1      -1.314   3.389   1.434  1.00  0.00     0.281 C 
ATOM     12  H   UNL     1      -3.305   2.778   1.268  1.00  0.00     0.348 HD
ATOM     13  C   UNL     1      -0.913   1.971   3.049  1.00  0.00     0.082 C 
ATOM     14  C   UNL     1      -0.855   1.460   4.487  1.00  0.00     0.113 C 
ATOM     15  C   UNL     1       0.116   3.526   4.172  1.00  0.00     0.125 C 
ATOM     16  N   UNL     1      -0.477   2.650   5.212  1.00  0.00    -0.200 NA
BRANCH   9  17
ATOM     17  C   UNL     1      -2.307   1.638   0.004  1.00  0.00     0.338 C 
BRANCH  17  18
ATOM     18  C   UNL     1      -1.157   0.676  -0.137  1.00  0.00     0.161 A 
ATOM     19  C   UNL     1       2.283  -0.221  -0.102  1.00  0.00     0.068 C 
ATOM     20  C   UNL     1       0.805  -0.217  -0.144  1.00  0.00     0.056 A 
ATOM     21  C   UNL     1      -0.084  -1.267  -0.111  1.00  0.00     0.107 A 
ATOM     22  N   UNL     1       0.126   0.973  -0.189  1.00  0.00    -0.233 NA
ATOM     23  N   UNL     1      -1.325  -0.689  -0.140  1.00  0.00    -0.344 N 
ATOM     24  H   UNL     1      -2.185  -1.167  -0.161  1.00  0.00     0.167 HD
ENDBRANCH  17  18
ENDBRANCH   9  17
BRANCH  16  25
ATOM     25  S   UNL     1      -1.532   3.253   6.380  1.00  0.00     0.211 S 
ATOM     26  C   UNL     1      -3.074   3.534   5.514  1.00  0.00     0.176 C 
ATOM     27  O   UNL     1      -1.777   2.190   7.328  1.00  0.00    -0.213 OA
ATOM     28  O   UNL     1      -1.031   4.539   6.818  1.00  0.00    -0.213 OA
ENDBRANCH  16  25
ENDBRANCH   5   8
ENDBRANCH   3   4
ENDBRANCH   2   3
ENDBRANCH   1   2
BRANCH   1  29
ATOM     29  C   UNL     1      -1.000   9.338   5.146  1.00  0.00     0.116 C 
BRANCH  29  30
ATOM     30  N   UNL     1      -1.702   9.028   6.391  1.00  0.00    -0.352 N 
ATOM     31  C   UNL     1      -2.380   9.920   7.193  1.00  0.00     0.251 C 
ATOM     32  H   UNL     1      -1.690   8.088   6.685  1.00  0.00     0.163 HD
ATOM     33  O   UNL     1      -2.901   9.585   8.249  1.00  0.00    -0.269 OA
BRANCH  31  34
ATOM     34  C   UNL     1      -2.408  11.320   6.738  1.00  0.00     0.039 A 
ATOM     35  C   UNL     1      -1.740  12.288   7.489  1.00  0.00     0.014 A 
ATOM     36  C   UNL     1      -2.879  11.591   5.452  1.00  0.00     0.014 A 
ATOM     37  C   UNL     1      -1.471  13.527   6.908  1.00  0.00     0.010 A 
ATOM     38  C   UNL     1      -2.505  12.777   4.842  1.00  0.00     0.010 A 
ATOM     39  C   UNL     1      -1.808  13.761   5.565  1.00  0.00    -0.014 A 
BRANCH  39  40
ATOM     40  C   UNL     1      -1.484  15.036   4.879  1.00  0.00     0.031 A 
ATOM     41  C   UNL     1      -2.609  15.845   4.294  1.00  0.00     0.074 A 
ATOM     42  C   UNL     1      -0.202  15.402   4.677  1.00  0.00     0.049 A 
ATOM     43  N   UNL     1      -2.557  16.889   3.512  1.00  0.00    -0.248 NA
ATOM     44  C   UNL     1      -3.979  15.386   4.590  1.00  0.00     0.031 C 
ATOM     45  C   UNL     1       0.978  14.668   5.140  1.00  0.00     0.029 A 
ATOM     46  N   UNL     1       0.322  16.471   3.993  1.00  0.00    -0.354 N 
ATOM     47  C   UNL     1      -3.875  17.173   3.180  1.00  0.00     0.074 A 
ATOM     48  C   UNL     1      -4.702  16.167   3.804  1.00  0.00     0.031 C 
ATOM     49  C   UNL     1       2.085  15.310   4.731  1.00  0.00     0.029 A 
ATOM     50  C   UNL     1       1.698  16.473   3.938  1.00  0.00     0.049 A 
ATOM     51  H   UNL     1      -0.234  17.172   3.581  1.00  0.00     0.167 HD
ATOM     52  C   UNL     1      -4.360  18.200   2.446  1.00  0.00     0.034 A 
ATOM     53  C   UNL     1       2.546  17.305   3.302  1.00  0.00     0.034 A 
ATOM     54  C   UNL     1      -3.537  19.227   1.875  1.00  0.00     0.049 A 
ATOM     55  C   UNL     1       1.982  18.459   2.514  1.00  0.00     0.074 A 
ATOM     56  C   UNL     1      -3.932  20.360   1.188  1.00  0.00     0.029 A 
ATOM     57  N   UNL     1      -2.152  19.244   1.921  1.00  0.00    -0.354 N 
ATOM     58  N   UNL     1       0.728  18.787   2.316  1.00  0.00    -0.248 NA
ATOM     59  C   UNL     1       2.946  19.377   1.889  1.00  0.00     0.031 C 
ATOM     60  C   UNL     1      -2.783  21.044   0.787  1.00  0.00     0.029 A 
ATOM     61  C   UNL     1      -1.675  20.364   1.268  1.00  0.00     0.049 A 
ATOM     62  H   UNL     1      -1.593  18.560   2.354  1.00  0.00     0.167 HD
ATOM     63  C   UNL     1       0.752  19.973   1.592  1.00  0.00     0.074 A 
ATOM     64  C   UNL     1       2.146  20.308   1.387  1.00  0.00     0.031 C 
ATOM     65  C   UNL     1      -0.285  20.716   1.134  1.00  0.00     0.034 A 
BRANCH  52  66
ATOM     66  C   UNL     1      -5.851  18.280   2.254  1.00  0.00     0.023 A 
ATOM     67  C   UNL     1      -6.687  18.577   3.350  1.00  0.00     0.012 A 
ATOM     68  C   UNL     1      -6.421  18.102   0.979  1.00  0.00     0.148 A 
ATOM     69  C   UNL     1      -8.069  18.653   3.190  1.00  0.00     0.002 A 
ATOM     70  C   UNL     1      -7.794  18.234   0.816  1.00  0.00     0.091 A 
ATOM     71  F   UNL     1      -5.613  17.797  -0.046  1.00  0.00    -0.205 F 
ATOM     72  C   UNL     1      -8.621  18.493   1.922  1.00  0.00     0.022 A 
BRANCH  70  73
ATOM     73  S   UNL     1      -8.592  18.133  -0.789  1.00  0.00     0.127 S 
ATOM     74  O   UNL     1      -9.348  16.887  -0.664  1.00  0.00    -0.237 OA
ATOM     75  O   UNL     1      -9.411  19.345  -0.799  1.00  0.00    -0.237 OA
ATOM     76  O   UNL     1      -7.519  18.114  -1.773  1.00  0.00    -0.744 OA
ENDBRANCH  70  73
ENDBRANCH  52  66
BRANCH  53  77
ATOM     77  C   UNL     1       4.020  17.111   3.419  1.00  0.00     0.023 A 
ATOM     78  C   UNL     1       4.788  18.048   4.139  1.00  0.00     0.012 A 
ATOM     79  C   UNL     1       4.664  16.006   2.831  1.00  0.00     0.148 A 
ATOM     80  C   UNL     1       6.173  17.909   4.240  1.00  0.00     0.002 A 
ATOM     81  C   UNL     1       6.037  15.843   2.981  1.00  0.00     0.091 A 
ATOM     82  F   UNL     1       3.919  15.130   2.143  1.00  0.00    -0.205 F 
ATOM     83  C   UNL     1       6.796  16.803   3.668  1.00  0.00     0.022 A 
BRANCH  81  84
ATOM     84  S   UNL     1       6.909  14.390   2.385  1.00  0.00     0.127 S 
ATOM     85  O   UNL     1       7.735  14.953   1.321  1.00  0.00    -0.237 OA
ATOM     86  O   UNL     1       7.642  13.971   3.580  1.00  0.00    -0.237 OA
ATOM     87  O   UNL     1       5.875  13.459   1.956  1.00  0.00    -0.744 OA
ENDBRANCH  81  84
ENDBRANCH  53  77
BRANCH  65  88
ATOM     88  C   UNL     1       0.023  22.013   0.436  1.00  0.00     0.023 A 
ATOM     89  C   UNL     1       0.540  22.013  -0.873  1.00  0.00     0.012 A 
ATOM     90  C   UNL     1      -0.322  23.235   1.048  1.00  0.00     0.148 A 
ATOM     91  C   UNL     1       0.727  23.214  -1.556  1.00  0.00     0.002 A 
ATOM     92  C   UNL     1      -0.185  24.422   0.341  1.00  0.00     0.091 A 
ATOM     93  F   UNL     1      -0.798  23.210   2.301  1.00  0.00    -0.205 F 
ATOM     94  C   UNL     1       0.351  24.415  -0.957  1.00  0.00     0.022 A 
BRANCH  92  95
ATOM     95  S   UNL     1      -0.744  26.000   0.990  1.00  0.00     0.127 S 
ATOM     96  O   UNL     1       0.520  26.710   1.175  1.00  0.00    -0.237 OA
ATOM     97  O   UNL     1      -1.573  26.505  -0.104  1.00  0.00    -0.237 OA
ATOM     98  O   UNL     1      -1.472  25.700   2.215  1.00  0.00    -0.744 OA
ENDBRANCH  92  95
ENDBRANCH  65  88
ENDBRANCH  39  40
ENDBRANCH  31  34
ENDBRANCH  29  30
ENDBRANCH   1  29
TORSDOF 17
