REMARK SMILES [NH3+][C@@H]1C(=O)N2C(C(=O)NCCCCNC(=O)c3ccc(-c4c5nc(c(-c6cccc(S(=O)(=O)[O-])c6F)c6ccc([nH]6)c(-c6cccc(S(=O)(=O)[O-])c6F)c6nc(c(-c7cccc(S(=O)(=O)[O-])c7F)c7ccc4[nH]7)C=C6)C=C5)cc3)=CCS[C@@H]12
REMARK SMILES IDX 12 1 11 2 10 3 9 4 7 5 8 6 6 8 2 9 3 10 83 11 4 12 5 13
REMARK SMILES IDX 82 14 81 15 80 16 1 17 13 21 14 22 15 23 16 25 17 26 18 27
REMARK SMILES IDX 79 28 19 29 78 30 20 31 21 32 22 33 72 34 23 35 77 36 71 37
REMARK SMILES IDX 73 38 24 39 76 40 70 41 69 42 25 44 57 45 37 46 56 47 38 48
REMARK SMILES IDX 41 49 55 50 74 51 39 52 40 53 54 55 75 56 42 57 26 58 27 59
REMARK SMILES IDX 35 60 28 61 30 62 36 63 29 64 31 65 32 66 33 67 34 68 58 69
REMARK SMILES IDX 59 70 67 71 60 72 62 73 68 74 61 75 63 76 64 77 65 78 66 79
REMARK SMILES IDX 43 80 44 81 52 82 45 83 47 84 53 85 46 86 48 87 49 88 50 89
REMARK SMILES IDX 51 90
REMARK H PARENT 9 7 1 18 1 19 1 20 14 24 73 43 41 54
REMARK Flexibility Score: inf
ROOT
ATOM      1  C   UNL     1      -5.573   4.902  -4.997  1.00  0.00     0.023 C 
ENDROOT
BRANCH   1   2
ATOM      2  C   UNL     1      -5.069   3.479  -4.728  1.00  0.00     0.023 C 
BRANCH   2   3
ATOM      3  C   UNL     1      -3.640   3.212  -5.214  1.00  0.00     0.116 C 
BRANCH   3   4
ATOM      4  N   UNL     1      -2.680   3.756  -4.272  1.00  0.00    -0.351 N 
ATOM      5  C   UNL     1      -1.994   3.221  -3.223  1.00  0.00     0.267 C 
ATOM      6  O   UNL     1      -1.366   4.007  -2.511  1.00  0.00    -0.268 OA
ATOM      7  H   UNL     1      -2.483   4.709  -4.422  1.00  0.00     0.163 HD
BRANCH   5   8
ATOM      8  C   UNL     1      -1.976   1.743  -2.913  1.00  0.00     0.107 C 
ATOM      9  C   UNL     1       0.635   0.151  -1.378  1.00  0.00     0.305 C 
ATOM     10  C   UNL     1       0.405   1.573  -2.008  1.00  0.00     0.289 C 
ATOM     11  C   UNL     1      -0.902   0.002  -1.539  1.00  0.00     0.217 C 
ATOM     12  O   UNL     1       1.111   2.524  -2.235  1.00  0.00    -0.267 OA
ATOM     13  N   UNL     1      -0.867   1.230  -2.311  1.00  0.00    -0.283 N 
ATOM     14  S   UNL     1      -1.446  -1.334  -2.635  1.00  0.00    -0.126 SA
ATOM     15  C   UNL     1      -3.068  -0.571  -2.923  1.00  0.00     0.101 C 
ATOM     16  C   UNL     1      -3.028   0.922  -3.114  1.00  0.00     0.016 C 
BRANCH   9  17
ATOM     17  N   UNL     1       0.982   0.128   0.061  1.00  0.00    -0.345 N 
ATOM     18  H   UNL     1       1.992   0.225   0.169  1.00  0.00     0.345 HD
ATOM     19  H   UNL     1       0.680  -0.757   0.470  1.00  0.00     0.345 HD
ATOM     20  H   UNL     1       0.514   0.899   0.536  1.00  0.00     0.345 HD
ENDBRANCH   9  17
ENDBRANCH   5   8
ENDBRANCH   3   4
ENDBRANCH   2   3
ENDBRANCH   1   2
BRANCH   1  21
ATOM     21  C   UNL     1      -5.700   5.276  -6.471  1.00  0.00     0.116 C 
BRANCH  21  22
ATOM     22  N   UNL     1      -6.573   4.381  -7.218  1.00  0.00    -0.352 N 
ATOM     23  C   UNL     1      -7.411   4.678  -8.266  1.00  0.00     0.251 C 
ATOM     24  H   UNL     1      -6.561   3.438  -6.934  1.00  0.00     0.163 HD
ATOM     25  O   UNL     1      -8.162   3.818  -8.716  1.00  0.00    -0.269 OA
BRANCH  23  26
ATOM     26  C   UNL     1      -7.426   6.048  -8.818  1.00  0.00     0.039 A 
ATOM     27  C   UNL     1      -8.653   6.694  -8.991  1.00  0.00     0.014 A 
ATOM     28  C   UNL     1      -6.232   6.704  -9.129  1.00  0.00     0.014 A 
ATOM     29  C   UNL     1      -8.679   8.025  -9.410  1.00  0.00     0.010 A 
ATOM     30  C   UNL     1      -6.258   8.050  -9.480  1.00  0.00     0.010 A 
ATOM     31  C   UNL     1      -7.480   8.726  -9.623  1.00  0.00    -0.014 A 
BRANCH  31  32
ATOM     32  C   UNL     1      -7.476  10.168  -9.978  1.00  0.00     0.031 A 
ATOM     33  C   UNL     1      -6.905  10.620 -11.294  1.00  0.00     0.074 A 
ATOM     34  C   UNL     1      -7.896  11.076  -9.074  1.00  0.00     0.049 A 
ATOM     35  N   UNL     1      -6.734  11.836 -11.744  1.00  0.00    -0.248 NA
ATOM     36  C   UNL     1      -6.438   9.570 -12.215  1.00  0.00     0.031 C 
ATOM     37  C   UNL     1      -8.399  10.768  -7.734  1.00  0.00     0.029 A 
ATOM     38  N   UNL     1      -7.935  12.447  -9.134  1.00  0.00    -0.354 N 
ATOM     39  C   UNL     1      -6.110  11.700 -12.978  1.00  0.00     0.074 A 
ATOM     40  C   UNL     1      -5.901  10.285 -13.193  1.00  0.00     0.031 C 
ATOM     41  C   UNL     1      -8.696  11.914  -7.099  1.00  0.00     0.029 A 
ATOM     42  C   UNL     1      -8.376  13.039  -7.972  1.00  0.00     0.049 A 
ATOM     43  H   UNL     1      -7.673  12.960  -9.933  1.00  0.00     0.167 HD
ATOM     44  C   UNL     1      -5.768  12.663 -13.867  1.00  0.00     0.034 A 
ATOM     45  C   UNL     1      -8.498  14.340  -7.644  1.00  0.00     0.034 A 
ATOM     46  C   UNL     1      -6.019  14.065 -13.670  1.00  0.00     0.049 A 
ATOM     47  C   UNL     1      -8.148  15.387  -8.667  1.00  0.00     0.074 A 
ATOM     48  C   UNL     1      -5.784  15.111 -14.544  1.00  0.00     0.029 A 
ATOM     49  N   UNL     1      -6.559  14.618 -12.520  1.00  0.00    -0.354 N 
ATOM     50  N   UNL     1      -7.702  15.230  -9.890  1.00  0.00    -0.248 NA
ATOM     51  C   UNL     1      -8.352  16.791  -8.280  1.00  0.00     0.031 C 
ATOM     52  C   UNL     1      -6.166  16.300 -13.915  1.00  0.00     0.029 A 
ATOM     53  C   UNL     1      -6.663  15.991 -12.660  1.00  0.00     0.049 A 
ATOM     54  H   UNL     1      -6.828  14.110 -11.721  1.00  0.00     0.167 HD
ATOM     55  C   UNL     1      -7.615  16.507 -10.431  1.00  0.00     0.074 A 
ATOM     56  C   UNL     1      -8.071  17.427  -9.409  1.00  0.00     0.031 C 
ATOM     57  C   UNL     1      -7.183  16.887 -11.659  1.00  0.00     0.034 A 
BRANCH  44  58
ATOM     58  C   UNL     1      -5.140  12.230 -15.165  1.00  0.00     0.023 A 
ATOM     59  C   UNL     1      -5.932  11.581 -16.135  1.00  0.00     0.012 A 
ATOM     60  C   UNL     1      -3.794  12.526 -15.458  1.00  0.00     0.148 A 
ATOM     61  C   UNL     1      -5.388  11.204 -17.362  1.00  0.00     0.002 A 
ATOM     62  C   UNL     1      -3.271  12.188 -16.701  1.00  0.00     0.091 A 
ATOM     63  F   UNL     1      -3.052  13.127 -14.517  1.00  0.00    -0.205 F 
ATOM     64  C   UNL     1      -4.062  11.518 -17.648  1.00  0.00     0.022 A 
BRANCH  62  65
ATOM     65  S   UNL     1      -1.599  12.617 -17.201  1.00  0.00     0.127 S 
ATOM     66  O   UNL     1      -0.959  11.303 -17.244  1.00  0.00    -0.237 OA
ATOM     67  O   UNL     1      -1.819  13.231 -18.510  1.00  0.00    -0.237 OA
ATOM     68  O   UNL     1      -1.094  13.524 -16.180  1.00  0.00    -0.744 OA
ENDBRANCH  62  65
ENDBRANCH  44  58
BRANCH  45  69
ATOM     69  C   UNL     1      -9.038  14.730  -6.310  1.00  0.00     0.023 A 
ATOM     70  C   UNL     1     -10.312  15.326  -6.228  1.00  0.00     0.012 A 
ATOM     71  C   UNL     1      -8.308  14.508  -5.126  1.00  0.00     0.148 A 
ATOM     72  C   UNL     1     -10.833  15.729  -4.998  1.00  0.00     0.002 A 
ATOM     73  C   UNL     1      -8.857  14.861  -3.898  1.00  0.00     0.091 A 
ATOM     74  F   UNL     1      -7.093  13.952  -5.224  1.00  0.00    -0.205 F 
ATOM     75  C   UNL     1     -10.110  15.489  -3.833  1.00  0.00     0.022 A 
BRANCH  73  76
ATOM     76  S   UNL     1      -8.053  14.469  -2.340  1.00  0.00     0.127 S 
ATOM     77  O   UNL     1      -7.575  15.781  -1.912  1.00  0.00    -0.237 OA
ATOM     78  O   UNL     1      -9.164  13.931  -1.553  1.00  0.00    -0.237 OA
ATOM     79  O   UNL     1      -7.025  13.491  -2.668  1.00  0.00    -0.744 OA
ENDBRANCH  73  76
ENDBRANCH  45  69
BRANCH  57  80
ATOM     80  C   UNL     1      -7.229  18.354 -11.997  1.00  0.00     0.023 A 
ATOM     81  C   UNL     1      -6.302  19.239 -11.414  1.00  0.00     0.012 A 
ATOM     82  C   UNL     1      -8.140  18.837 -12.957  1.00  0.00     0.148 A 
ATOM     83  C   UNL     1      -6.301  20.590 -11.759  1.00  0.00     0.002 A 
ATOM     84  C   UNL     1      -8.100  20.174 -13.333  1.00  0.00     0.091 A 
ATOM     85  F   UNL     1      -9.026  17.981 -13.486  1.00  0.00    -0.205 F 
ATOM     86  C   UNL     1      -7.189  21.054 -12.726  1.00  0.00     0.022 A 
BRANCH  84  87
ATOM     87  S   UNL     1      -9.138  20.838 -14.640  1.00  0.00     0.127 S 
ATOM     88  O   UNL     1     -10.096  21.640 -13.881  1.00  0.00    -0.237 OA
ATOM     89  O   UNL     1      -8.183  21.614 -15.431  1.00  0.00    -0.237 OA
ATOM     90  O   UNL     1      -9.699  19.685 -15.332  1.00  0.00    -0.744 OA
ENDBRANCH  84  87
ENDBRANCH  57  80
ENDBRANCH  31  32
ENDBRANCH  23  26
ENDBRANCH  21  22
ENDBRANCH   1  21
TORSDOF 15
