REMARK SMILES C[C@](Nc1ccc(S(N)(=O)=O)cc1)(C(=O)NCCCCNC(=O)c1ccc(-c2c3nc(c(-c4cccc(S(=O)(=O)[O-])c4F)c4ccc([nH]4)c(-c4cccc(S(=O)(=O)[O-])c4F)c4nc(c(-c5cccc(S(=O)(=O)[O-])c5F)c5ccc2[nH]5)C=C4)C=C3)cc1)C(F)(F)F
REMARK SMILES IDX 18 1 17 2 16 3 14 4 15 5 2 7 1 8 87 9 88 10 89 11 90 12 3 13
REMARK SMILES IDX 4 15 5 16 13 17 6 18 12 19 7 20 8 21 10 22 11 23 9 24 19 27
REMARK SMILES IDX 20 28 21 29 22 30 23 32 24 33 25 34 86 35 26 36 85 37 27 38
REMARK SMILES IDX 28 39 29 40 79 41 30 42 84 43 78 44 80 45 31 46 83 47 77 48
REMARK SMILES IDX 76 49 32 51 64 52 44 53 63 54 45 55 48 56 62 57 81 58 46 59
REMARK SMILES IDX 47 60 61 62 82 63 49 64 33 65 34 66 42 67 35 68 37 69 43 70
REMARK SMILES IDX 36 71 38 72 39 73 40 74 41 75 65 76 66 77 74 78 67 79 69 80
REMARK SMILES IDX 75 81 68 82 70 83 71 84 72 85 73 86 50 87 51 88 59 89 52 90
REMARK SMILES IDX 54 91 60 92 53 93 55 94 56 95 57 96 58 97
REMARK H PARENT 16 6 3 14 9 25 9 26 21 31 80 50 48 61
REMARK Flexibility Score: inf
ROOT
ATOM      1  C   UNL     1      -1.291  -2.562   0.545  1.00  0.00     0.023 C 
ENDROOT
BRANCH   1   2
ATOM      2  C   UNL     1      -0.969  -2.050  -0.856  1.00  0.00     0.116 C 
BRANCH   2   3
ATOM      3  N   UNL     1      -1.498  -0.714  -1.070  1.00  0.00    -0.354 N 
ATOM      4  C   UNL     1      -0.853   0.483  -1.252  1.00  0.00     0.254 C 
ATOM      5  O   UNL     1      -1.575   1.475  -1.367  1.00  0.00    -0.272 OA
ATOM      6  H   UNL     1      -2.481  -0.659  -1.087  1.00  0.00     0.163 HD
BRANCH   4   7
ATOM      7  C   UNL     1       0.695   0.548  -1.331  1.00  0.00     0.210 C 
ATOM      8  C   UNL     1       1.123  -0.198  -2.613  1.00  0.00     0.055 C 
BRANCH   7   9
ATOM      9  C   UNL     1       1.057   2.047  -1.478  1.00  0.00     0.420 C 
ATOM     10  F   UNL     1       0.665   2.792  -0.419  1.00  0.00    -0.168 F 
ATOM     11  F   UNL     1       2.406   2.210  -1.577  1.00  0.00    -0.168 F 
ATOM     12  F   UNL     1       0.542   2.599  -2.603  1.00  0.00    -0.168 F 
ENDBRANCH   7   9
BRANCH   7  13
ATOM     13  N   UNL     1       1.245  -0.056  -0.066  1.00  0.00    -0.364 N 
ATOM     14  H   UNL     1       0.715   0.094   0.750  1.00  0.00     0.161 HD
BRANCH  13  15
ATOM     15  C   UNL     1       2.398  -0.793   0.091  1.00  0.00     0.035 A 
ATOM     16  C   UNL     1       2.381  -1.883   0.978  1.00  0.00     0.027 A 
ATOM     17  C   UNL     1       3.546  -0.602  -0.681  1.00  0.00     0.027 A 
ATOM     18  C   UNL     1       3.441  -2.792   1.040  1.00  0.00     0.024 A 
ATOM     19  C   UNL     1       4.623  -1.490  -0.618  1.00  0.00     0.024 A 
ATOM     20  C   UNL     1       4.556  -2.594   0.229  1.00  0.00     0.082 A 
BRANCH  20  21
ATOM     21  S   UNL     1       5.867  -3.774   0.238  1.00  0.00     0.238 S 
ATOM     22  O   UNL     1       5.302  -5.099   0.107  1.00  0.00    -0.207 OA
ATOM     23  O   UNL     1       6.945  -3.305  -0.597  1.00  0.00    -0.207 OA
BRANCH  21  24
ATOM     24  N   UNL     1       6.442  -3.664   1.811  1.00  0.00    -0.225 NA
ATOM     25  H   UNL     1       5.723  -3.983   2.459  1.00  0.00     0.137 HD
ATOM     26  H   UNL     1       6.681  -2.695   2.018  1.00  0.00     0.137 HD
ENDBRANCH  21  24
ENDBRANCH  20  21
ENDBRANCH  13  15
ENDBRANCH   7  13
ENDBRANCH   4   7
ENDBRANCH   2   3
ENDBRANCH   1   2
BRANCH   1  27
ATOM     27  C   UNL     1      -2.769  -2.870   0.779  1.00  0.00     0.023 C 
BRANCH  27  28
ATOM     28  C   UNL     1      -3.384  -3.855  -0.208  1.00  0.00     0.116 C 
BRANCH  28  29
ATOM     29  N   UNL     1      -2.698  -5.140  -0.229  1.00  0.00    -0.352 N 
ATOM     30  C   UNL     1      -3.241  -6.403  -0.200  1.00  0.00     0.251 C 
ATOM     31  H   UNL     1      -1.715  -5.098  -0.270  1.00  0.00     0.163 HD
ATOM     32  O   UNL     1      -2.514  -7.384  -0.078  1.00  0.00    -0.269 OA
BRANCH  30  33
ATOM     33  C   UNL     1      -4.707  -6.563  -0.286  1.00  0.00     0.039 A 
ATOM     34  C   UNL     1      -5.352  -7.395   0.630  1.00  0.00     0.014 A 
ATOM     35  C   UNL     1      -5.444  -5.859  -1.242  1.00  0.00     0.014 A 
ATOM     36  C   UNL     1      -6.747  -7.468   0.631  1.00  0.00     0.010 A 
ATOM     37  C   UNL     1      -6.834  -5.867  -1.184  1.00  0.00     0.010 A 
ATOM     38  C   UNL     1      -7.501  -6.674  -0.250  1.00  0.00    -0.014 A 
BRANCH  38  39
ATOM     39  C   UNL     1      -8.986  -6.663  -0.200  1.00  0.00     0.031 A 
ATOM     40  C   UNL     1      -9.788  -7.104  -1.395  1.00  0.00     0.074 A 
ATOM     41  C   UNL     1      -9.612  -6.175   0.890  1.00  0.00     0.049 A 
ATOM     42  N   UNL     1     -11.085  -7.117  -1.556  1.00  0.00    -0.248 NA
ATOM     43  C   UNL     1      -9.035  -7.566  -2.573  1.00  0.00     0.031 C 
ATOM     44  C   UNL     1      -8.947  -5.645   2.083  1.00  0.00     0.029 A 
ATOM     45  N   UNL     1     -10.949  -6.023   1.163  1.00  0.00    -0.354 N 
ATOM     46  C   UNL     1     -11.303  -7.548  -2.859  1.00  0.00     0.074 A 
ATOM     47  C   UNL     1     -10.003  -7.755  -3.458  1.00  0.00     0.031 C 
ATOM     48  C   UNL     1      -9.877  -5.236   2.961  1.00  0.00     0.029 A 
ATOM     49  C   UNL     1     -11.201  -5.440   2.383  1.00  0.00     0.049 A 
ATOM     50  H   UNL     1     -11.660  -6.304   0.543  1.00  0.00     0.167 HD
ATOM     51  C   UNL     1     -12.477  -7.776  -3.493  1.00  0.00     0.034 A 
ATOM     52  C   UNL     1     -12.366  -5.098   2.967  1.00  0.00     0.034 A 
ATOM     53  C   UNL     1     -13.768  -7.607  -2.882  1.00  0.00     0.049 A 
ATOM     54  C   UNL     1     -13.657  -5.391   2.251  1.00  0.00     0.074 A 
ATOM     55  C   UNL     1     -15.013  -7.903  -3.408  1.00  0.00     0.029 A 
ATOM     56  N   UNL     1     -13.983  -7.084  -1.616  1.00  0.00    -0.354 N 
ATOM     57  N   UNL     1     -13.843  -5.952   1.081  1.00  0.00    -0.248 NA
ATOM     58  C   UNL     1     -14.901  -5.035   2.950  1.00  0.00     0.031 C 
ATOM     59  C   UNL     1     -15.983  -7.524  -2.475  1.00  0.00     0.029 A 
ATOM     60  C   UNL     1     -15.340  -7.032  -1.351  1.00  0.00     0.049 A 
ATOM     61  H   UNL     1     -13.275  -6.793  -0.998  1.00  0.00     0.167 HD
ATOM     62  C   UNL     1     -15.220  -6.054   0.922  1.00  0.00     0.074 A 
ATOM     63  C   UNL     1     -15.821  -5.514   2.124  1.00  0.00     0.031 C 
ATOM     64  C   UNL     1     -15.925  -6.541  -0.130  1.00  0.00     0.034 A 
BRANCH  51  65
ATOM     65  C   UNL     1     -12.424  -8.274  -4.914  1.00  0.00     0.023 A 
ATOM     66  C   UNL     1     -11.978  -9.585  -5.181  1.00  0.00     0.012 A 
ATOM     67  C   UNL     1     -12.877  -7.470  -5.978  1.00  0.00     0.148 A 
ATOM     68  C   UNL     1     -11.950 -10.075  -6.486  1.00  0.00     0.002 A 
ATOM     69  C   UNL     1     -12.893  -7.982  -7.269  1.00  0.00     0.091 A 
ATOM     70  F   UNL     1     -13.279  -6.220  -5.707  1.00  0.00    -0.205 F 
ATOM     71  C   UNL     1     -12.417  -9.278  -7.527  1.00  0.00     0.022 A 
BRANCH  69  72
ATOM     72  S   UNL     1     -13.553  -7.068  -8.667  1.00  0.00     0.127 S 
ATOM     73  O   UNL     1     -12.341  -6.796  -9.440  1.00  0.00    -0.237 OA
ATOM     74  O   UNL     1     -14.457  -8.046  -9.273  1.00  0.00    -0.237 OA
ATOM     75  O   UNL     1     -14.210  -5.895  -8.108  1.00  0.00    -0.744 OA
ENDBRANCH  69  72
ENDBRANCH  51  65
BRANCH  52  76
ATOM     76  C   UNL     1     -12.373  -4.493   4.330  1.00  0.00     0.023 A 
ATOM     77  C   UNL     1     -12.884  -5.233   5.414  1.00  0.00     0.012 A 
ATOM     78  C   UNL     1     -11.869  -3.199   4.561  1.00  0.00     0.148 A 
ATOM     79  C   UNL     1     -12.929  -4.682   6.695  1.00  0.00     0.002 A 
ATOM     80  C   UNL     1     -11.864  -2.677   5.849  1.00  0.00     0.091 A 
ATOM     81  F   UNL     1     -11.395  -2.506   3.515  1.00  0.00    -0.205 F 
ATOM     82  C   UNL     1     -12.412  -3.408   6.914  1.00  0.00     0.022 A 
BRANCH  80  83
ATOM     83  S   UNL     1     -11.101  -1.101   6.248  1.00  0.00     0.127 S 
ATOM     84  O   UNL     1     -12.263  -0.280   6.574  1.00  0.00    -0.237 OA
ATOM     85  O   UNL     1     -10.256  -1.456   7.388  1.00  0.00    -0.237 OA
ATOM     86  O   UNL     1     -10.363  -0.707   5.054  1.00  0.00    -0.744 OA
ENDBRANCH  80  83
ENDBRANCH  52  76
BRANCH  64  87
ATOM     87  C   UNL     1     -17.427  -6.562  -0.017  1.00  0.00     0.023 A 
ATOM     88  C   UNL     1     -18.157  -5.358  -0.070  1.00  0.00     0.012 A 
ATOM     89  C   UNL     1     -18.119  -7.787   0.066  1.00  0.00     0.148 A 
ATOM     90  C   UNL     1     -19.550  -5.371  -0.004  1.00  0.00     0.002 A 
ATOM     91  C   UNL     1     -19.508  -7.795   0.076  1.00  0.00     0.091 A 
ATOM     92  F   UNL     1     -17.406  -8.921   0.132  1.00  0.00    -0.205 F 
ATOM     93  C   UNL     1     -20.225  -6.588   0.056  1.00  0.00     0.022 A 
BRANCH  91  94
ATOM     94  S   UNL     1     -20.463  -9.316   0.050  1.00  0.00     0.127 S 
ATOM     95  O   UNL     1     -21.030  -9.335   1.398  1.00  0.00    -0.237 OA
ATOM     96  O   UNL     1     -21.431  -9.055  -1.016  1.00  0.00    -0.237 OA
ATOM     97  O   UNL     1     -19.515 -10.383  -0.241  1.00  0.00    -0.744 OA
ENDBRANCH  91  94
ENDBRANCH  64  87
ENDBRANCH  38  39
ENDBRANCH  30  33
ENDBRANCH  28  29
ENDBRANCH  27  28
ENDBRANCH   1  27
TORSDOF 19
