REMARK SMILES O=C(NCCCCNC(=O)C1(C/C=C/c2ccccc2)CCCCC1)c1ccc(-c2c3nc(c(-c4cccc(S(=O)(=O)[O-])c4F)c4ccc([nH]4)c(-c4cccc(S(=O)(=O)[O-])c4F)c4nc(c(-c5cccc(S(=O)(=O)[O-])c5F)c5ccc2[nH]5)C=C4)C=C3)cc1
REMARK SMILES IDX 5 1 4 2 3 3 1 4 2 5 26 7 27 8 88 9 28 10 87 11 29 12 30 13
REMARK SMILES IDX 31 14 81 15 32 16 86 17 80 18 82 19 33 20 85 21 79 22 78 23
REMARK SMILES IDX 34 25 66 26 46 27 65 28 47 29 50 30 64 31 83 32 48 33 49 34
REMARK SMILES IDX 63 36 84 37 51 38 35 39 36 40 44 41 37 42 39 43 45 44 38 45
REMARK SMILES IDX 40 46 41 47 42 48 43 49 67 50 68 51 76 52 69 53 71 54 77 55
REMARK SMILES IDX 70 56 72 57 73 58 74 59 75 60 52 61 53 62 61 63 54 64 56 65
REMARK SMILES IDX 62 66 55 67 57 68 58 69 59 70 60 71 6 72 7 73 8 74 9 75
REMARK SMILES IDX 10 77 11 78 21 79 25 80 22 81 24 82 23 83 12 84 13 85 14 86
REMARK SMILES IDX 15 87 16 88 20 89 17 90 19 91 18 92
REMARK H PARENT 3 6 82 24 50 35 8 76
REMARK Flexibility Score: inf
ROOT
ATOM      1  C   UNL     1       4.617  -0.278  -2.867  1.00  0.00     0.023 C 
ENDROOT
BRANCH   1   2
ATOM      2  C   UNL     1       4.332  -0.117  -1.382  1.00  0.00     0.116 C 
BRANCH   2   3
ATOM      3  N   UNL     1       2.928   0.124  -1.088  1.00  0.00    -0.352 N 
ATOM      4  O   UNL     1       1.031  -0.015   0.124  1.00  0.00    -0.269 OA
ATOM      5  C   UNL     1       2.237  -0.184   0.064  1.00  0.00     0.251 C 
ATOM      6  H   UNL     1       2.407   0.562  -1.799  1.00  0.00     0.163 HD
BRANCH   5   7
ATOM      7  C   UNL     1       2.985  -0.767   1.200  1.00  0.00     0.039 A 
ATOM      8  C   UNL     1       4.177  -0.183   1.631  1.00  0.00     0.014 A 
ATOM      9  C   UNL     1       2.512  -1.937   1.800  1.00  0.00     0.014 A 
ATOM     10  C   UNL     1       4.970  -0.848   2.555  1.00  0.00     0.010 A 
ATOM     11  C   UNL     1       3.272  -2.559   2.794  1.00  0.00     0.010 A 
ATOM     12  C   UNL     1       4.525  -2.039   3.153  1.00  0.00    -0.014 A 
BRANCH  12  13
ATOM     13  C   UNL     1       5.369  -2.670   4.199  1.00  0.00     0.031 A 
ATOM     14  C   UNL     1       5.992  -4.023   3.998  1.00  0.00     0.074 A 
ATOM     15  C   UNL     1       5.602  -1.975   5.329  1.00  0.00     0.049 A 
ATOM     16  N   UNL     1       6.816  -4.668   4.784  1.00  0.00    -0.248 NA
ATOM     17  C   UNL     1       5.643  -4.753   2.769  1.00  0.00     0.031 C 
ATOM     18  C   UNL     1       5.002  -0.677   5.653  1.00  0.00     0.029 A 
ATOM     19  N   UNL     1       6.409  -2.245   6.403  1.00  0.00    -0.354 N 
ATOM     20  C   UNL     1       7.064  -5.887   4.165  1.00  0.00     0.074 A 
ATOM     21  C   UNL     1       6.291  -5.899   2.941  1.00  0.00     0.031 C 
ATOM     22  C   UNL     1       5.492  -0.247   6.824  1.00  0.00     0.029 A 
ATOM     23  C   UNL     1       6.404  -1.253   7.355  1.00  0.00     0.049 A 
ATOM     24  H   UNL     1       6.940  -3.070   6.486  1.00  0.00     0.167 HD
ATOM     25  C   UNL     1       7.877  -6.892   4.569  1.00  0.00     0.034 A 
ATOM     26  C   UNL     1       7.059  -1.160   8.527  1.00  0.00     0.034 A 
ATOM     27  C   UNL     1       8.669  -6.857   5.771  1.00  0.00     0.049 A 
ATOM     28  C   UNL     1       8.001  -2.261   8.916  1.00  0.00     0.074 A 
ATOM     29  C   UNL     1       9.546  -7.813   6.254  1.00  0.00     0.029 A 
ATOM     30  N   UNL     1       8.687  -5.808   6.679  1.00  0.00    -0.354 N 
ATOM     31  N   UNL     1       8.305  -3.354   8.259  1.00  0.00    -0.248 NA
ATOM     32  C   UNL     1       8.714  -2.104  10.191  1.00  0.00     0.031 C 
ATOM     33  C   UNL     1      10.093  -7.342   7.453  1.00  0.00     0.029 A 
ATOM     34  C   UNL     1       9.563  -6.089   7.714  1.00  0.00     0.049 A 
ATOM     35  H   UNL     1       8.155  -4.983   6.598  1.00  0.00     0.167 HD
ATOM     36  C   UNL     1       9.248  -4.014   9.036  1.00  0.00     0.074 A 
ATOM     37  C   UNL     1       9.499  -3.173  10.190  1.00  0.00     0.031 C 
ATOM     38  C   UNL     1       9.830  -5.221   8.832  1.00  0.00     0.034 A 
BRANCH  25  39
ATOM     39  C   UNL     1       8.003  -8.099   3.676  1.00  0.00     0.023 A 
ATOM     40  C   UNL     1       8.775  -8.006   2.501  1.00  0.00     0.012 A 
ATOM     41  C   UNL     1       7.434  -9.338   4.032  1.00  0.00     0.148 A 
ATOM     42  C   UNL     1       8.965  -9.120   1.684  1.00  0.00     0.002 A 
ATOM     43  C   UNL     1       7.656 -10.454   3.230  1.00  0.00     0.091 A 
ATOM     44  F   UNL     1       6.685  -9.403   5.142  1.00  0.00    -0.205 F 
ATOM     45  C   UNL     1       8.416 -10.345   2.054  1.00  0.00     0.022 A 
BRANCH  43  46
ATOM     46  S   UNL     1       7.049 -12.091   3.656  1.00  0.00     0.127 S 
ATOM     47  O   UNL     1       5.967 -12.265   2.688  1.00  0.00    -0.237 OA
ATOM     48  O   UNL     1       8.223 -12.930   3.415  1.00  0.00    -0.237 OA
ATOM     49  O   UNL     1       6.636 -12.014   5.051  1.00  0.00    -0.744 OA
ENDBRANCH  43  46
ENDBRANCH  25  39
BRANCH  26  50
ATOM     50  C   UNL     1       6.877   0.051   9.374  1.00  0.00     0.023 A 
ATOM     51  C   UNL     1       7.935   0.969   9.513  1.00  0.00     0.012 A 
ATOM     52  C   UNL     1       5.639   0.335   9.981  1.00  0.00     0.148 A 
ATOM     53  C   UNL     1       7.768   2.138  10.256  1.00  0.00     0.002 A 
ATOM     54  C   UNL     1       5.459   1.531  10.665  1.00  0.00     0.091 A 
ATOM     55  F   UNL     1       4.647  -0.560   9.859  1.00  0.00    -0.205 F 
ATOM     56  C   UNL     1       6.526   2.427  10.818  1.00  0.00     0.022 A 
BRANCH  54  57
ATOM     57  S   UNL     1       3.839   2.030  11.258  1.00  0.00     0.127 S 
ATOM     58  O   UNL     1       3.875   1.584  12.647  1.00  0.00    -0.237 OA
ATOM     59  O   UNL     1       3.871   3.483  11.076  1.00  0.00    -0.237 OA
ATOM     60  O   UNL     1       2.894   1.347  10.383  1.00  0.00    -0.744 OA
ENDBRANCH  54  57
ENDBRANCH  26  50
BRANCH  38  61
ATOM     61  C   UNL     1      10.788  -5.704   9.886  1.00  0.00     0.023 A 
ATOM     62  C   UNL     1      10.282  -6.168  11.116  1.00  0.00     0.012 A 
ATOM     63  C   UNL     1      12.175  -5.737   9.650  1.00  0.00     0.148 A 
ATOM     64  C   UNL     1      11.145  -6.626  12.110  1.00  0.00     0.002 A 
ATOM     65  C   UNL     1      13.027  -6.233  10.631  1.00  0.00     0.091 A 
ATOM     66  F   UNL     1      12.641  -5.268   8.483  1.00  0.00    -0.205 F 
ATOM     67  C   UNL     1      12.515  -6.668  11.864  1.00  0.00     0.022 A 
BRANCH  65  68
ATOM     68  S   UNL     1      14.795  -6.393  10.360  1.00  0.00     0.127 S 
ATOM     69  O   UNL     1      15.309  -5.199  11.029  1.00  0.00    -0.237 OA
ATOM     70  O   UNL     1      15.108  -7.652  11.037  1.00  0.00    -0.237 OA
ATOM     71  O   UNL     1      14.968  -6.432   8.914  1.00  0.00    -0.744 OA
ENDBRANCH  65  68
ENDBRANCH  38  61
ENDBRANCH  12  13
ENDBRANCH   5   7
ENDBRANCH   2   3
ENDBRANCH   1   2
BRANCH   1  72
ATOM     72  C   UNL     1       4.177   0.903  -3.738  1.00  0.00     0.023 C 
BRANCH  72  73
ATOM     73  C   UNL     1       4.851   2.237  -3.396  1.00  0.00     0.116 C 
BRANCH  73  74
ATOM     74  N   UNL     1       6.246   2.208  -3.773  1.00  0.00    -0.356 N 
ATOM     75  C   UNL     1       6.888   2.381  -4.956  1.00  0.00     0.226 C 
ATOM     76  H   UNL     1       6.853   2.028  -3.019  1.00  0.00     0.163 HD
ATOM     77  O   UNL     1       8.054   1.973  -4.942  1.00  0.00    -0.274 OA
BRANCH  75  78
ATOM     78  C   UNL     1       6.289   3.124  -6.192  1.00  0.00     0.053 C 
ATOM     79  C   UNL     1       4.883   2.616  -6.616  1.00  0.00     0.017 C 
ATOM     80  C   UNL     1       6.202   4.630  -5.840  1.00  0.00     0.017 C 
ATOM     81  C   UNL     1       4.191   3.474  -7.681  1.00  0.00     0.001 C 
ATOM     82  C   UNL     1       5.546   5.473  -6.934  1.00  0.00     0.001 C 
ATOM     83  C   UNL     1       4.160   4.947  -7.288  1.00  0.00     0.000 C 
BRANCH  78  84
ATOM     84  C   UNL     1       7.233   2.861  -7.425  1.00  0.00     0.044 C 
BRANCH  84  85
ATOM     85  C   UNL     1       8.640   3.401  -7.372  1.00  0.00    -0.025 C 
ATOM     86  C   UNL     1       9.718   2.602  -7.424  1.00  0.00     0.004 C 
BRANCH  86  87
ATOM     87  C   UNL     1      11.098   3.076  -7.298  1.00  0.00    -0.026 A 
ATOM     88  C   UNL     1      12.088   2.535  -8.127  1.00  0.00     0.008 A 
ATOM     89  C   UNL     1      11.466   3.990  -6.303  1.00  0.00     0.008 A 
ATOM     90  C   UNL     1      13.421   2.925  -7.981  1.00  0.00     0.001 A 
ATOM     91  C   UNL     1      12.799   4.378  -6.157  1.00  0.00     0.001 A 
ATOM     92  C   UNL     1      13.775   3.847  -6.998  1.00  0.00     0.000 A 
ENDBRANCH  86  87
ENDBRANCH  84  85
ENDBRANCH  78  84
ENDBRANCH  75  78
ENDBRANCH  73  74
ENDBRANCH  72  73
ENDBRANCH   1  72
TORSDOF 17
