REMARK SMILES COc1cccc(CSc2nc3ccccc3c(=O)n2CCC(=O)NCCCCNC(=O)c2ccc(-c3c4nc(c(-c5cccc(S(=O)(=O)[O-])c5F)c5ccc([nH]5)c(-c5cccc(S(=O)(=O)[O-])c5F)c5nc(c(-c6cccc(S(=O)(=O)[O-])c6F)c6ccc3[nH]6)C=C5)C=C4)cc2)c1
REMARK SMILES IDX 26 1 25 2 23 3 24 4 22 6 21 7 20 8 10 9 11 10 12 11 18 12
REMARK SMILES IDX 13 13 17 14 19 15 14 16 16 17 15 18 9 19 8 20 7 21 3 22 4 23
REMARK SMILES IDX 96 24 5 25 6 26 2 27 1 28 27 29 28 30 29 31 30 32 31 33
REMARK SMILES IDX 32 35 33 36 34 37 95 38 35 39 94 40 36 41 37 42 38 43 88 44
REMARK SMILES IDX 39 45 93 46 87 47 89 48 40 49 92 50 86 51 85 52 41 54 73 55
REMARK SMILES IDX 53 56 72 57 54 58 57 59 71 60 90 61 55 62 56 63 70 65 91 66
REMARK SMILES IDX 58 67 42 68 43 69 51 70 44 71 46 72 52 73 45 74 47 75 48 76
REMARK SMILES IDX 49 77 50 78 74 79 75 80 83 81 76 82 78 83 84 84 77 85 79 86
REMARK SMILES IDX 80 87 81 88 82 89 59 90 60 91 68 92 61 93 63 94 69 95 62 96
REMARK SMILES IDX 64 97 65 98 66 99 67 100
REMARK H PARENT 25 5 30 34 89 53 57 64
REMARK Flexibility Score: inf
ROOT
ATOM      1  C   UNL     1       7.539  -0.706   4.316  1.00  0.00     0.116 C 
ENDROOT
BRANCH   1   2
ATOM      2  N   UNL     1       7.003  -1.546   3.253  1.00  0.00    -0.356 N 
ATOM      3  C   UNL     1       5.952  -1.289   2.418  1.00  0.00     0.221 C 
ATOM      4  O   UNL     1       5.551  -2.183   1.671  1.00  0.00    -0.275 OA
ATOM      5  H   UNL     1       7.456  -2.410   3.118  1.00  0.00     0.163 HD
BRANCH   3   6
ATOM      6  C   UNL     1       5.301   0.084   2.409  1.00  0.00     0.122 C 
BRANCH   6   7
ATOM      7  C   UNL     1       3.769  -0.035   2.491  1.00  0.00     0.138 C 
BRANCH   7   8
ATOM      8  N   UNL     1       3.221   0.582   3.700  1.00  0.00    -0.287 N 
ATOM      9  C   UNL     1       3.264   0.055   4.979  1.00  0.00     0.171 A 
ATOM     10  N   UNL     1       3.480   0.815   6.011  1.00  0.00    -0.224 NA
ATOM     11  C   UNL     1       3.646   2.191   5.823  1.00  0.00     0.079 A 
ATOM     12  C   UNL     1       2.856   1.924   3.544  1.00  0.00     0.262 A 
ATOM     13  C   UNL     1       4.279   2.970   6.792  1.00  0.00     0.029 A 
ATOM     14  C   UNL     1       3.195   2.811   4.666  1.00  0.00     0.066 A 
ATOM     15  O   UNL     1       2.389   2.401   2.513  1.00  0.00    -0.269 OA
ATOM     16  C   UNL     1       4.421   4.351   6.612  1.00  0.00     0.002 A 
ATOM     17  C   UNL     1       3.260   4.199   4.503  1.00  0.00     0.016 A 
ATOM     18  C   UNL     1       3.878   4.971   5.485  1.00  0.00     0.001 A 
BRANCH   9  19
ATOM     19  S   UNL     1       3.138  -1.638   5.414  1.00  0.00    -0.083 SA
BRANCH  19  20
ATOM     20  C   UNL     1       2.584  -2.705   4.090  1.00  0.00     0.113 C 
BRANCH  20  21
ATOM     21  C   UNL     1       1.188  -2.422   3.615  1.00  0.00    -0.034 A 
ATOM     22  C   UNL     1      -0.325  -1.559   1.921  1.00  0.00     0.119 A 
ATOM     23  C   UNL     1      -1.387  -1.696   2.814  1.00  0.00     0.046 A 
ATOM     24  C   UNL     1       0.946  -1.980   2.305  1.00  0.00     0.051 A 
ATOM     25  C   UNL     1      -1.179  -2.225   4.088  1.00  0.00     0.004 A 
ATOM     26  C   UNL     1       0.105  -2.577   4.490  1.00  0.00     0.005 A 
BRANCH  22  27
ATOM     27  O   UNL     1      -0.638  -1.003   0.711  1.00  0.00    -0.497 OA
ATOM     28  C   UNL     1       0.457  -0.503  -0.053  1.00  0.00     0.278 C 
ENDBRANCH  22  27
ENDBRANCH  20  21
ENDBRANCH  19  20
ENDBRANCH   9  19
ENDBRANCH   7   8
ENDBRANCH   6   7
ENDBRANCH   3   6
ENDBRANCH   1   2
BRANCH   1  29
ATOM     29  C   UNL     1       6.501  -0.543   5.415  1.00  0.00     0.023 C 
BRANCH  29  30
ATOM     30  C   UNL     1       6.746  -1.269   6.730  1.00  0.00     0.023 C 
BRANCH  30  31
ATOM     31  C   UNL     1       7.733  -0.556   7.631  1.00  0.00     0.116 C 
BRANCH  31  32
ATOM     32  N   UNL     1       7.394   0.839   7.884  1.00  0.00    -0.352 N 
ATOM     33  C   UNL     1       7.909   1.724   8.808  1.00  0.00     0.251 C 
ATOM     34  H   UNL     1       6.688   1.207   7.306  1.00  0.00     0.163 HD
ATOM     35  O   UNL     1       7.502   2.871   8.841  1.00  0.00    -0.269 OA
BRANCH  33  36
ATOM     36  C   UNL     1       8.860   1.224   9.831  1.00  0.00     0.039 A 
ATOM     37  C   UNL     1       8.668   1.631  11.153  1.00  0.00     0.014 A 
ATOM     38  C   UNL     1       9.817   0.259   9.531  1.00  0.00     0.014 A 
ATOM     39  C   UNL     1       9.345   0.972  12.179  1.00  0.00     0.010 A 
ATOM     40  C   UNL     1      10.371  -0.493  10.554  1.00  0.00     0.010 A 
ATOM     41  C   UNL     1      10.141  -0.148  11.890  1.00  0.00    -0.014 A 
BRANCH  41  42
ATOM     42  C   UNL     1      10.713  -0.988  12.968  1.00  0.00     0.031 A 
ATOM     43  C   UNL     1      12.198  -1.226  13.035  1.00  0.00     0.074 A 
ATOM     44  C   UNL     1       9.881  -1.625  13.817  1.00  0.00     0.049 A 
ATOM     45  N   UNL     1      12.876  -1.959  13.877  1.00  0.00    -0.248 NA
ATOM     46  C   UNL     1      13.027  -0.607  11.985  1.00  0.00     0.031 C 
ATOM     47  C   UNL     1       8.415  -1.594  13.757  1.00  0.00     0.029 A 
ATOM     48  N   UNL     1      10.146  -2.435  14.892  1.00  0.00    -0.354 N 
ATOM     49  C   UNL     1      14.190  -1.931  13.429  1.00  0.00     0.074 A 
ATOM     50  C   UNL     1      14.207  -1.163  12.206  1.00  0.00     0.031 C 
ATOM     51  C   UNL     1       7.914  -2.312  14.775  1.00  0.00     0.029 A 
ATOM     52  C   UNL     1       9.017  -2.868  15.550  1.00  0.00     0.049 A 
ATOM     53  H   UNL     1      11.058  -2.683  15.168  1.00  0.00     0.167 HD
ATOM     54  C   UNL     1      15.296  -2.448  14.012  1.00  0.00     0.034 A 
ATOM     55  C   UNL     1       8.892  -3.605  16.670  1.00  0.00     0.034 A 
ATOM     56  C   UNL     1      15.279  -3.120  15.281  1.00  0.00     0.049 A 
ATOM     57  C   UNL     1      10.144  -4.032  17.386  1.00  0.00     0.074 A 
ATOM     58  C   UNL     1      16.346  -3.581  16.029  1.00  0.00     0.029 A 
ATOM     59  N   UNL     1      14.128  -3.408  15.999  1.00  0.00    -0.354 N 
ATOM     60  N   UNL     1      11.396  -3.836  17.045  1.00  0.00    -0.248 NA
ATOM     61  C   UNL     1       9.972  -4.737  18.663  1.00  0.00     0.031 C 
ATOM     62  C   UNL     1      15.838  -4.141  17.207  1.00  0.00     0.029 A 
ATOM     63  C   UNL     1      14.456  -4.027  17.191  1.00  0.00     0.049 A 
ATOM     64  H   UNL     1      13.212  -3.202  15.703  1.00  0.00     0.167 HD
ATOM     65  C   UNL     1      12.160  -4.365  18.077  1.00  0.00     0.074 A 
ATOM     66  C   UNL     1      11.228  -4.863  19.070  1.00  0.00     0.031 C 
ATOM     67  C   UNL     1      13.508  -4.457  18.186  1.00  0.00     0.034 A 
BRANCH  54  68
ATOM     68  C   UNL     1      16.615  -2.214  13.325  1.00  0.00     0.023 A 
ATOM     69  C   UNL     1      17.160  -0.912  13.304  1.00  0.00     0.012 A 
ATOM     70  C   UNL     1      17.321  -3.265  12.711  1.00  0.00     0.148 A 
ATOM     71  C   UNL     1      18.359  -0.650  12.644  1.00  0.00     0.002 A 
ATOM     72  C   UNL     1      18.540  -3.005  12.093  1.00  0.00     0.091 A 
ATOM     73  F   UNL     1      16.778  -4.491  12.717  1.00  0.00    -0.205 F 
ATOM     74  C   UNL     1      19.052  -1.698  12.047  1.00  0.00     0.022 A 
BRANCH  72  75
ATOM     75  S   UNL     1      19.546  -4.297  11.354  1.00  0.00     0.127 S 
ATOM     76  O   UNL     1      19.352  -4.042   9.928  1.00  0.00    -0.237 OA
ATOM     77  O   UNL     1      20.882  -3.973  11.856  1.00  0.00    -0.237 OA
ATOM     78  O   UNL     1      19.003  -5.556  11.847  1.00  0.00    -0.744 OA
ENDBRANCH  72  75
ENDBRANCH  54  68
BRANCH  55  79
ATOM     79  C   UNL     1       7.543  -3.860  17.250  1.00  0.00     0.023 A 
ATOM     80  C   UNL     1       7.163  -3.177  18.423  1.00  0.00     0.012 A 
ATOM     81  C   UNL     1       6.622  -4.732  16.639  1.00  0.00     0.148 A 
ATOM     82  C   UNL     1       5.908  -3.382  18.995  1.00  0.00     0.002 A 
ATOM     83  C   UNL     1       5.353  -4.896  17.188  1.00  0.00     0.091 A 
ATOM     84  F   UNL     1       7.001  -5.382  15.529  1.00  0.00    -0.205 F 
ATOM     85  C   UNL     1       5.000  -4.234  18.373  1.00  0.00     0.022 A 
BRANCH  83  86
ATOM     86  S   UNL     1       4.081  -5.875  16.380  1.00  0.00     0.127 S 
ATOM     87  O   UNL     1       4.101  -7.102  17.171  1.00  0.00    -0.237 OA
ATOM     88  O   UNL     1       2.890  -5.044  16.561  1.00  0.00    -0.237 OA
ATOM     89  O   UNL     1       4.515  -6.000  14.994  1.00  0.00    -0.744 OA
ENDBRANCH  83  86
ENDBRANCH  55  79
BRANCH  67  90
ATOM     90  C   UNL     1      14.057  -5.103  19.427  1.00  0.00     0.023 A 
ATOM     91  C   UNL     1      13.969  -6.501  19.576  1.00  0.00     0.012 A 
ATOM     92  C   UNL     1      14.721  -4.341  20.406  1.00  0.00     0.148 A 
ATOM     93  C   UNL     1      14.509  -7.128  20.697  1.00  0.00     0.002 A 
ATOM     94  C   UNL     1      15.295  -4.978  21.499  1.00  0.00     0.091 A 
ATOM     95  F   UNL     1      14.772  -3.008  20.259  1.00  0.00    -0.205 F 
ATOM     96  C   UNL     1      15.181  -6.369  21.652  1.00  0.00     0.022 A 
BRANCH  94  97
ATOM     97  S   UNL     1      16.259  -4.075  22.716  1.00  0.00     0.127 S 
ATOM     98  O   UNL     1      15.275  -3.850  23.773  1.00  0.00    -0.237 OA
ATOM     99  O   UNL     1      17.314  -5.030  23.059  1.00  0.00    -0.237 OA
ATOM    100  O   UNL     1      16.736  -2.882  22.028  1.00  0.00    -0.744 OA
ENDBRANCH  94  97
ENDBRANCH  67  90
ENDBRANCH  41  42
ENDBRANCH  33  36
ENDBRANCH  31  32
ENDBRANCH  30  31
ENDBRANCH  29  30
ENDBRANCH   1  29
TORSDOF 20
