REMARK SMILES Cc1ccccc1[C@@H]1[NH2+][C@@H](C(=O)NCCCCNC(=O)c2ccc(-c3c4nc(c(-c5cccc(S(=O)(=O)[O-])c5F)c5ccc([nH]5)c(-c5cccc(S(=O)(=O)[O-])c5F)c5nc(c(-c6cccc(S(=O)(=O)[O-])c6F)c6ccc3[nH]6)C=C5)C=C4)cc2)CC2=c3ccccc3=N[C@@H]21
REMARK SMILES IDX 16 1 15 2 14 3 13 4 11 5 12 6 10 8 8 9 9 10 93 11 85 14
REMARK SMILES IDX 92 15 84 16 86 17 91 18 87 19 90 20 88 21 89 22 7 23 1 24
REMARK SMILES IDX 2 25 3 26 4 27 6 28 5 29 17 30 18 31 19 32 20 34 21 35 22 36
REMARK SMILES IDX 83 37 23 38 82 39 24 40 25 41 26 42 76 43 27 44 81 45 75 46
REMARK SMILES IDX 77 47 28 48 80 49 74 50 73 51 29 53 61 54 41 55 60 56 42 57
REMARK SMILES IDX 45 58 59 59 78 60 43 61 44 62 58 64 79 65 46 66 30 67 31 68
REMARK SMILES IDX 39 69 32 70 34 71 40 72 33 73 35 74 36 75 37 76 38 77 62 78
REMARK SMILES IDX 63 79 71 80 64 81 66 82 72 83 65 84 67 85 68 86 69 87 70 88
REMARK SMILES IDX 47 89 48 90 56 91 49 92 51 93 57 94 50 95 52 96 53 97 54 98
REMARK SMILES IDX 55 99
REMARK H PARENT 13 7 9 12 9 13 18 33 77 52 45 63
REMARK Flexibility Score: inf
ROOT
ATOM      1  C   UNL     1       3.424   2.726  -1.685  1.00  0.00     0.023 C 
ENDROOT
BRANCH   1   2
ATOM      2  C   UNL     1       3.536   4.150  -1.062  1.00  0.00     0.023 C 
BRANCH   2   3
ATOM      3  C   UNL     1       2.853   5.486  -1.518  1.00  0.00     0.116 C 
BRANCH   3   4
ATOM      4  N   UNL     1       1.567   6.089  -1.028  1.00  0.00    -0.351 N 
ATOM      5  C   UNL     1       0.998   6.268   0.260  1.00  0.00     0.278 C 
ATOM      6  O   UNL     1       0.213   7.173   0.518  1.00  0.00    -0.268 OA
ATOM      7  H   UNL     1       0.999   6.433  -1.754  1.00  0.00     0.163 HD
BRANCH   5   8
ATOM      8  C   UNL     1       1.281   5.085   1.175  1.00  0.00     0.277 C 
ATOM      9  C   UNL     1       0.352   2.720   0.806  1.00  0.00     0.243 C 
ATOM     10  N   UNL     1       0.690   4.050   0.364  1.00  0.00    -0.327 N 
ATOM     11  C   UNL     1       1.450   2.242   1.879  1.00  0.00     0.196 C 
ATOM     12  H   UNL     1      -0.184   4.447   0.018  1.00  0.00     0.347 HD
ATOM     13  H   UNL     1       1.477   3.836  -0.248  1.00  0.00     0.347 HD
ATOM     14  C   UNL     1       1.917   3.465   2.734  1.00  0.00    -0.024 C 
ATOM     15  N   UNL     1       2.736   1.713   1.322  1.00  0.00    -0.270 NA
ATOM     16  C   UNL     1       1.070   4.753   2.643  1.00  0.00     0.109 C 
ATOM     17  C   UNL     1       3.259   3.529   2.795  1.00  0.00     0.002 A 
ATOM     18  C   UNL     1       3.667   2.434   1.883  1.00  0.00     0.066 A 
ATOM     19  C   UNL     1       4.139   4.657   3.015  1.00  0.00     0.010 A 
ATOM     20  C   UNL     1       5.123   2.390   1.552  1.00  0.00     0.028 A 
ATOM     21  C   UNL     1       5.388   4.629   2.522  1.00  0.00     0.001 A 
ATOM     22  C   UNL     1       5.900   3.449   1.853  1.00  0.00     0.002 A 
BRANCH   9  23
ATOM     23  C   UNL     1      -0.226   2.080  -0.522  1.00  0.00     0.015 A 
ATOM     24  C   UNL     1      -1.888   0.578   0.694  1.00  0.00     0.045 C 
ATOM     25  C   UNL     1      -1.324   1.205  -0.543  1.00  0.00    -0.042 A 
ATOM     26  C   UNL     1      -2.067   1.022  -1.748  1.00  0.00     0.004 A 
ATOM     27  C   UNL     1      -1.756   1.678  -2.941  1.00  0.00     0.000 A 
ATOM     28  C   UNL     1       0.062   2.689  -1.798  1.00  0.00     0.010 A 
ATOM     29  C   UNL     1      -0.671   2.513  -2.969  1.00  0.00     0.001 A 
ENDBRANCH   9  23
ENDBRANCH   5   8
ENDBRANCH   3   4
ENDBRANCH   2   3
ENDBRANCH   1   2
BRANCH   1  30
ATOM     30  C   UNL     1       3.583   2.655  -3.188  1.00  0.00     0.116 C 
BRANCH  30  31
ATOM     31  N   UNL     1       4.300   1.484  -3.714  1.00  0.00    -0.352 N 
ATOM     32  C   UNL     1       4.783   1.331  -5.014  1.00  0.00     0.251 C 
ATOM     33  H   UNL     1       4.454   0.738  -3.091  1.00  0.00     0.163 HD
ATOM     34  O   UNL     1       5.323   0.295  -5.390  1.00  0.00    -0.269 OA
BRANCH  32  35
ATOM     35  C   UNL     1       4.658   2.507  -5.905  1.00  0.00     0.039 A 
ATOM     36  C   UNL     1       5.823   3.238  -6.151  1.00  0.00     0.014 A 
ATOM     37  C   UNL     1       3.397   3.098  -5.994  1.00  0.00     0.014 A 
ATOM     38  C   UNL     1       5.745   4.624  -6.188  1.00  0.00     0.010 A 
ATOM     39  C   UNL     1       3.330   4.474  -5.923  1.00  0.00     0.010 A 
ATOM     40  C   UNL     1       4.511   5.228  -5.946  1.00  0.00    -0.014 A 
BRANCH  40  41
ATOM     41  C   UNL     1       4.346   6.666  -5.835  1.00  0.00     0.031 A 
ATOM     42  C   UNL     1       4.145   7.392  -7.095  1.00  0.00     0.074 A 
ATOM     43  C   UNL     1       4.395   7.319  -4.655  1.00  0.00     0.049 A 
ATOM     44  N   UNL     1       4.507   8.607  -7.306  1.00  0.00    -0.248 NA
ATOM     45  C   UNL     1       3.587   6.725  -8.264  1.00  0.00     0.031 C 
ATOM     46  C   UNL     1       4.047   8.713  -4.398  1.00  0.00     0.029 A 
ATOM     47  N   UNL     1       5.010   6.897  -3.476  1.00  0.00    -0.354 N 
ATOM     48  C   UNL     1       4.000   8.966  -8.537  1.00  0.00     0.074 A 
ATOM     49  C   UNL     1       3.532   7.737  -9.128  1.00  0.00     0.031 C 
ATOM     50  C   UNL     1       4.678   9.117  -3.282  1.00  0.00     0.029 A 
ATOM     51  C   UNL     1       5.576   8.043  -2.886  1.00  0.00     0.049 A 
ATOM     52  H   UNL     1       5.041   5.978  -3.124  1.00  0.00     0.167 HD
ATOM     53  C   UNL     1       3.881  10.287  -8.841  1.00  0.00     0.034 A 
ATOM     54  C   UNL     1       6.906   8.172  -2.601  1.00  0.00     0.034 A 
ATOM     55  C   UNL     1       4.487  11.116  -7.786  1.00  0.00     0.049 A 
ATOM     56  C   UNL     1       7.533   9.382  -3.267  1.00  0.00     0.074 A 
ATOM     57  C   UNL     1       3.953  11.738  -6.668  1.00  0.00     0.029 A 
ATOM     58  N   UNL     1       5.868  11.107  -7.607  1.00  0.00    -0.354 N 
ATOM     59  N   UNL     1       6.945  10.099  -4.184  1.00  0.00    -0.248 NA
ATOM     60  C   UNL     1       8.895   9.835  -2.995  1.00  0.00     0.031 C 
ATOM     61  C   UNL     1       5.019  12.024  -5.774  1.00  0.00     0.029 A 
ATOM     62  C   UNL     1       6.205  11.608  -6.356  1.00  0.00     0.049 A 
ATOM     63  H   UNL     1       6.516  10.789  -8.276  1.00  0.00     0.167 HD
ATOM     64  C   UNL     1       7.856  10.955  -4.746  1.00  0.00     0.074 A 
ATOM     65  C   UNL     1       9.030  10.820  -3.899  1.00  0.00     0.031 C 
ATOM     66  C   UNL     1       7.596  11.633  -5.908  1.00  0.00     0.034 A 
BRANCH  53  67
ATOM     67  C   UNL     1       2.888  10.816  -9.867  1.00  0.00     0.023 A 
ATOM     68  C   UNL     1       2.392  12.123  -9.664  1.00  0.00     0.012 A 
ATOM     69  C   UNL     1       2.325  10.109 -10.956  1.00  0.00     0.148 A 
ATOM     70  C   UNL     1       1.331  12.650 -10.408  1.00  0.00     0.002 A 
ATOM     71  C   UNL     1       1.213  10.600 -11.648  1.00  0.00     0.091 A 
ATOM     72  F   UNL     1       2.916   9.000 -11.406  1.00  0.00    -0.205 F 
ATOM     73  C   UNL     1       0.711  11.872 -11.372  1.00  0.00     0.022 A 
BRANCH  71  74
ATOM     74  S   UNL     1       0.311   9.611 -12.857  1.00  0.00     0.127 S 
ATOM     75  O   UNL     1      -1.073   9.746 -12.396  1.00  0.00    -0.237 OA
ATOM     76  O   UNL     1       0.603  10.303 -14.109  1.00  0.00    -0.237 OA
ATOM     77  O   UNL     1       0.841   8.257 -12.746  1.00  0.00    -0.744 OA
ENDBRANCH  71  74
ENDBRANCH  53  67
BRANCH  54  78
ATOM     78  C   UNL     1       7.605   6.864  -2.405  1.00  0.00     0.023 A 
ATOM     79  C   UNL     1       7.096   6.008  -1.401  1.00  0.00     0.012 A 
ATOM     80  C   UNL     1       8.413   6.312  -3.413  1.00  0.00     0.148 A 
ATOM     81  C   UNL     1       7.198   4.623  -1.537  1.00  0.00     0.002 A 
ATOM     82  C   UNL     1       8.526   4.928  -3.521  1.00  0.00     0.091 A 
ATOM     83  F   UNL     1       9.004   7.129  -4.294  1.00  0.00    -0.205 F 
ATOM     84  C   UNL     1       7.853   4.081  -2.633  1.00  0.00     0.022 A 
BRANCH  82  85
ATOM     85  S   UNL     1       9.486   4.188  -4.841  1.00  0.00     0.127 S 
ATOM     86  O   UNL     1      10.834   4.249  -4.284  1.00  0.00    -0.237 OA
ATOM     87  O   UNL     1       8.924   2.841  -4.935  1.00  0.00    -0.237 OA
ATOM     88  O   UNL     1       9.212   5.033  -5.994  1.00  0.00    -0.744 OA
ENDBRANCH  82  85
ENDBRANCH  54  78
BRANCH  66  89
ATOM     89  C   UNL     1       8.639  12.379  -6.722  1.00  0.00     0.023 A 
ATOM     90  C   UNL     1      10.016  12.089  -6.628  1.00  0.00     0.012 A 
ATOM     91  C   UNL     1       8.258  13.316  -7.716  1.00  0.00     0.148 A 
ATOM     92  C   UNL     1      10.973  12.760  -7.397  1.00  0.00     0.002 A 
ATOM     93  C   UNL     1       9.204  13.890  -8.564  1.00  0.00     0.091 A 
ATOM     94  F   UNL     1       6.973  13.676  -7.836  1.00  0.00    -0.205 F 
ATOM     95  C   UNL     1      10.566  13.649  -8.380  1.00  0.00     0.022 A 
BRANCH  93  96
ATOM     96  S   UNL     1       8.702  14.828 -10.014  1.00  0.00     0.127 S 
ATOM     97  O   UNL     1       8.723  16.200  -9.512  1.00  0.00    -0.237 OA
ATOM     98  O   UNL     1       9.762  14.516 -10.975  1.00  0.00    -0.237 OA
ATOM     99  O   UNL     1       7.396  14.293 -10.376  1.00  0.00    -0.744 OA
ENDBRANCH  93  96
ENDBRANCH  66  89
ENDBRANCH  40  41
ENDBRANCH  32  35
ENDBRANCH  30  31
ENDBRANCH   1  30
TORSDOF 15
