REMARK SMILES COc1ccccc1[C@@H]1C[N@@H+](Cc2cc(C(C)=O)cn2C)C[C@H]1C(=O)NCCCCNC(=O)c1ccc(-c2c3nc(c(-c4cccc(S(=O)(=O)[O-])c4F)c4ccc([nH]4)c(-c4cccc(S(=O)(=O)[O-])c4F)c4nc(c(-c5cccc(S(=O)(=O)[O-])c5F)c5ccc2[nH]5)C=C4)C=C3)cc1
REMARK SMILES IDX 28 1 27 2 26 3 24 4 25 5 23 7 9 8 10 9 11 10 22 11 8 13 3 14
REMARK SMILES IDX 4 15 5 16 7 17 6 18 2 19 1 20 12 21 13 22 14 23 20 24 15 25
REMARK SMILES IDX 19 26 21 27 16 28 17 29 18 30 29 31 30 32 31 33 32 34 33 36
REMARK SMILES IDX 34 37 35 38 96 39 36 40 95 41 37 42 38 43 39 44 89 45 40 46
REMARK SMILES IDX 94 47 88 48 90 49 41 50 93 51 87 52 86 53 42 55 74 56 54 57
REMARK SMILES IDX 73 58 55 59 58 60 72 61 91 62 56 63 57 64 71 66 92 67 59 68
REMARK SMILES IDX 43 69 44 70 52 71 45 72 47 73 53 74 46 75 48 76 49 77 50 78
REMARK SMILES IDX 51 79 75 80 76 81 84 82 77 83 79 84 85 85 78 86 80 87 81 88
REMARK SMILES IDX 82 89 83 90 60 91 61 92 69 93 62 94 64 95 70 96 63 97 65 98
REMARK SMILES IDX 66 99 67 100 68 101
REMARK H PARENT 26 6 11 12 31 35 90 54 58 65
REMARK Flexibility Score: inf
ROOT
ATOM      1  C   UNL     1       5.526   4.179   1.428  1.00  0.00     0.023 C 
ENDROOT
BRANCH   1   2
ATOM      2  C   UNL     1       4.814   3.019   2.146  1.00  0.00     0.116 C 
BRANCH   2   3
ATOM      3  N   UNL     1       3.393   2.913   1.799  1.00  0.00    -0.356 N 
ATOM      4  C   UNL     1       2.454   2.080   1.317  1.00  0.00     0.229 C 
ATOM      5  O   UNL     1       1.318   2.463   1.673  1.00  0.00    -0.275 OA
ATOM      6  H   UNL     1       2.966   3.778   1.993  1.00  0.00     0.163 HD
BRANCH   4   7
ATOM      7  C   UNL     1       2.464   0.843   0.389  1.00  0.00     0.146 C 
ATOM      8  C   UNL     1       2.716   1.068  -1.102  1.00  0.00     0.096 C 
ATOM      9  C   UNL     1       2.868  -0.356  -1.669  1.00  0.00     0.272 C 
ATOM     10  N   UNL     1       3.385  -1.199  -0.580  1.00  0.00    -0.329 N 
ATOM     11  C   UNL     1       3.094  -0.514   0.697  1.00  0.00     0.276 C 
ATOM     12  H   UNL     1       2.895  -2.093  -0.532  1.00  0.00     0.348 HD
BRANCH   8  13
ATOM     13  C   UNL     1       1.661   1.913  -1.801  1.00  0.00     0.004 A 
ATOM     14  C   UNL     1       0.351   1.499  -2.114  1.00  0.00     0.122 A 
ATOM     15  C   UNL     1      -0.540   2.361  -2.765  1.00  0.00     0.047 A 
ATOM     16  C   UNL     1      -0.149   3.654  -3.102  1.00  0.00     0.004 A 
ATOM     17  C   UNL     1       2.029   3.227  -2.151  1.00  0.00     0.008 A 
ATOM     18  C   UNL     1       1.137   4.085  -2.799  1.00  0.00     0.001 A 
BRANCH  14  19
ATOM     19  O   UNL     1      -0.074   0.207  -1.954  1.00  0.00    -0.496 OA
ATOM     20  C   UNL     1      -0.721  -0.025  -0.705  1.00  0.00     0.278 C 
ENDBRANCH  14  19
ENDBRANCH   8  13
BRANCH  10  21
ATOM     21  C   UNL     1       4.735  -1.728  -0.816  1.00  0.00     0.317 C 
BRANCH  21  22
ATOM     22  C   UNL     1       5.741  -0.641  -0.974  1.00  0.00     0.073 A 
ATOM     23  C   UNL     1       6.188   0.016  -2.119  1.00  0.00     0.041 A 
ATOM     24  N   UNL     1       6.263   0.044   0.090  1.00  0.00    -0.349 N 
ATOM     25  C   UNL     1       6.484   1.345  -1.711  1.00  0.00     0.035 A 
ATOM     26  C   UNL     1       6.473   1.316  -0.338  1.00  0.00     0.097 A 
ATOM     27  C   UNL     1       6.413  -0.396   1.459  1.00  0.00     0.149 C 
BRANCH  25  28
ATOM     28  C   UNL     1       6.617   2.574  -2.478  1.00  0.00     0.161 C 
ATOM     29  C   UNL     1       7.845   2.755  -3.320  1.00  0.00     0.093 C 
ATOM     30  O   UNL     1       5.801   3.487  -2.348  1.00  0.00    -0.294 OA
ENDBRANCH  25  28
ENDBRANCH  21  22
ENDBRANCH  10  21
ENDBRANCH   4   7
ENDBRANCH   2   3
ENDBRANCH   1   2
BRANCH   1  31
ATOM     31  C   UNL     1       6.852   4.679   2.034  1.00  0.00     0.023 C 
BRANCH  31  32
ATOM     32  C   UNL     1       7.819   3.697   2.688  1.00  0.00     0.116 C 
BRANCH  32  33
ATOM     33  N   UNL     1       8.670   2.909   1.802  1.00  0.00    -0.352 N 
ATOM     34  C   UNL     1      10.029   2.644   1.885  1.00  0.00     0.251 C 
ATOM     35  H   UNL     1       8.211   2.506   1.029  1.00  0.00     0.163 HD
ATOM     36  O   UNL     1      10.576   1.933   1.070  1.00  0.00    -0.269 OA
BRANCH  34  37
ATOM     37  C   UNL     1      10.803   3.307   2.959  1.00  0.00     0.039 A 
ATOM     38  C   UNL     1      11.888   4.115   2.614  1.00  0.00     0.014 A 
ATOM     39  C   UNL     1      10.331   3.272   4.267  1.00  0.00     0.014 A 
ATOM     40  C   UNL     1      12.419   4.989   3.568  1.00  0.00     0.010 A 
ATOM     41  C   UNL     1      10.759   4.245   5.159  1.00  0.00     0.010 A 
ATOM     42  C   UNL     1      11.815   5.112   4.831  1.00  0.00    -0.014 A 
BRANCH  42  43
ATOM     43  C   UNL     1      12.266   6.123   5.830  1.00  0.00     0.031 A 
ATOM     44  C   UNL     1      12.642   5.682   7.225  1.00  0.00     0.074 A 
ATOM     45  C   UNL     1      12.236   7.441   5.535  1.00  0.00     0.049 A 
ATOM     46  N   UNL     1      12.986   6.407   8.258  1.00  0.00    -0.248 NA
ATOM     47  C   UNL     1      12.553   4.241   7.521  1.00  0.00     0.031 C 
ATOM     48  C   UNL     1      11.767   8.027   4.276  1.00  0.00     0.029 A 
ATOM     49  N   UNL     1      12.600   8.534   6.285  1.00  0.00    -0.354 N 
ATOM     50  C   UNL     1      13.076   5.523   9.327  1.00  0.00     0.074 A 
ATOM     51  C   UNL     1      12.679   4.224   8.837  1.00  0.00     0.031 C 
ATOM     52  C   UNL     1      11.917   9.362   4.324  1.00  0.00     0.029 A 
ATOM     53  C   UNL     1      12.476   9.733   5.619  1.00  0.00     0.049 A 
ATOM     54  H   UNL     1      12.919   8.466   7.214  1.00  0.00     0.167 HD
ATOM     55  C   UNL     1      13.512   5.747  10.589  1.00  0.00     0.034 A 
ATOM     56  C   UNL     1      12.808  10.984   6.000  1.00  0.00     0.034 A 
ATOM     57  C   UNL     1      14.032   7.008  11.035  1.00  0.00     0.049 A 
ATOM     58  C   UNL     1      13.440  11.187   7.354  1.00  0.00     0.074 A 
ATOM     59  C   UNL     1      14.634   7.316  12.241  1.00  0.00     0.029 A 
ATOM     60  N   UNL     1      14.035   8.166  10.275  1.00  0.00    -0.354 N 
ATOM     61  N   UNL     1      13.693  10.302   8.288  1.00  0.00    -0.248 NA
ATOM     62  C   UNL     1      13.881  12.550   7.685  1.00  0.00     0.031 C 
ATOM     63  C   UNL     1      15.004   8.665  12.208  1.00  0.00     0.029 A 
ATOM     64  C   UNL     1      14.641   9.190  10.977  1.00  0.00     0.049 A 
ATOM     65  H   UNL     1      13.660   8.247   9.368  1.00  0.00     0.167 HD
ATOM     66  C   UNL     1      14.368  10.988   9.291  1.00  0.00     0.074 A 
ATOM     67  C   UNL     1      14.496  12.360   8.844  1.00  0.00     0.031 C 
ATOM     68  C   UNL     1      14.829  10.529  10.481  1.00  0.00     0.034 A 
BRANCH  55  69
ATOM     69  C   UNL     1      13.527   4.574  11.537  1.00  0.00     0.023 A 
ATOM     70  C   UNL     1      14.431   3.513  11.317  1.00  0.00     0.012 A 
ATOM     71  C   UNL     1      12.656   4.518  12.641  1.00  0.00     0.148 A 
ATOM     72  C   UNL     1      14.425   2.388  12.140  1.00  0.00     0.002 A 
ATOM     73  C   UNL     1      12.693   3.416  13.489  1.00  0.00     0.091 A 
ATOM     74  F   UNL     1      11.788   5.523  12.826  1.00  0.00    -0.205 F 
ATOM     75  C   UNL     1      13.562   2.344  13.230  1.00  0.00     0.022 A 
BRANCH  73  76
ATOM     76  S   UNL     1      11.680   3.304  14.968  1.00  0.00     0.127 S 
ATOM     77  O   UNL     1      10.657   2.345  14.553  1.00  0.00    -0.237 OA
ATOM     78  O   UNL     1      12.630   2.792  15.956  1.00  0.00    -0.237 OA
ATOM     79  O   UNL     1      11.207   4.656  15.230  1.00  0.00    -0.744 OA
ENDBRANCH  73  76
ENDBRANCH  55  69
BRANCH  56  80
ATOM     80  C   UNL     1      12.698  12.119   5.036  1.00  0.00     0.023 A 
ATOM     81  C   UNL     1      13.881  12.661   4.491  1.00  0.00     0.012 A 
ATOM     82  C   UNL     1      11.458  12.655   4.643  1.00  0.00     0.148 A 
ATOM     83  C   UNL     1      13.834  13.737   3.604  1.00  0.00     0.002 A 
ATOM     84  C   UNL     1      11.415  13.697   3.721  1.00  0.00     0.091 A 
ATOM     85  F   UNL     1      10.344  12.134   5.176  1.00  0.00    -0.205 F 
ATOM     86  C   UNL     1      12.602  14.250   3.213  1.00  0.00     0.022 A 
BRANCH  84  87
ATOM     87  S   UNL     1       9.873  14.349   3.067  1.00  0.00     0.127 S 
ATOM     88  O   UNL     1       9.812  15.664   3.700  1.00  0.00    -0.237 OA
ATOM     89  O   UNL     1      10.140  14.370   1.628  1.00  0.00    -0.237 OA
ATOM     90  O   UNL     1       8.845  13.400   3.473  1.00  0.00    -0.744 OA
ENDBRANCH  84  87
ENDBRANCH  56  80
BRANCH  68  91
ATOM     91  C   UNL     1      15.571  11.493  11.366  1.00  0.00     0.023 A 
ATOM     92  C   UNL     1      14.867  12.499  12.055  1.00  0.00     0.012 A 
ATOM     93  C   UNL     1      16.955  11.343  11.581  1.00  0.00     0.148 A 
ATOM     94  C   UNL     1      15.536  13.362  12.922  1.00  0.00     0.002 A 
ATOM     95  C   UNL     1      17.606  12.176  12.484  1.00  0.00     0.091 A 
ATOM     96  F   UNL     1      17.613  10.395  10.899  1.00  0.00    -0.205 F 
ATOM     97  C   UNL     1      16.900  13.192  13.147  1.00  0.00     0.022 A 
BRANCH  95  98
ATOM     98  S   UNL     1      19.337  11.947  12.904  1.00  0.00     0.127 S 
ATOM     99  O   UNL     1      19.984  12.959  12.072  1.00  0.00    -0.237 OA
ATOM    100  O   UNL     1      19.356  12.235  14.339  1.00  0.00    -0.237 OA
ATOM    101  O   UNL     1      19.642  10.562  12.569  1.00  0.00    -0.744 OA
ENDBRANCH  95  98
ENDBRANCH  68  91
ENDBRANCH  42  43
ENDBRANCH  34  37
ENDBRANCH  32  33
ENDBRANCH  31  32
ENDBRANCH   1  31
TORSDOF 19
