REMARK SMILES COC(=O)[C@H]1CN(C(=O)[C@@H]2CC=CC[C@@H]2C(=O)NCCCCNC(=O)c2ccc(-c3c4nc(c(-c5cccc(S(=O)(=O)[O-])c5F)c5ccc([nH]5)c(-c5cccc(S(=O)(=O)[O-])c5F)c5nc(c(-c6cccc(S(=O)(=O)[O-])c6F)c6ccc3[nH]6)C=C5)C=C4)cc2)C[C@H]1C
REMARK SMILES IDX 20 1 19 2 18 3 16 4 17 5 15 7 10 8 11 9 12 10 14 11 13 12
REMARK SMILES IDX 8 13 9 14 7 15 5 16 6 17 90 18 89 19 91 20 3 21 4 22 2 23
REMARK SMILES IDX 1 24 21 25 22 26 23 27 24 28 25 30 26 31 27 32 88 33 28 34
REMARK SMILES IDX 87 35 29 36 30 37 31 38 81 39 32 40 86 41 80 42 82 43 33 44
REMARK SMILES IDX 85 45 79 46 78 47 34 49 66 50 46 51 65 52 47 53 50 54 64 55
REMARK SMILES IDX 83 56 48 57 49 58 63 60 84 61 51 62 35 63 36 64 44 65 37 66
REMARK SMILES IDX 39 67 45 68 38 69 40 70 41 71 42 72 43 73 67 74 68 75 76 76
REMARK SMILES IDX 69 77 71 78 77 79 70 80 72 81 73 82 74 83 75 84 52 85 53 86
REMARK SMILES IDX 61 87 54 88 56 89 62 90 55 91 57 92 58 93 59 94 60 95
REMARK H PARENT 18 6 23 29 82 48 50 59
REMARK Flexibility Score: inf
ROOT
ATOM      1  C   UNL     1      -2.618  -5.236   9.879  1.00  0.00     0.023 C 
ENDROOT
BRANCH   1   2
ATOM      2  C   UNL     1      -2.919  -3.932   9.143  1.00  0.00     0.116 C 
BRANCH   2   3
ATOM      3  N   UNL     1      -2.152  -2.789   9.613  1.00  0.00    -0.356 N 
ATOM      4  C   UNL     1      -1.124  -2.087   9.057  1.00  0.00     0.224 C 
ATOM      5  O   UNL     1      -0.761  -1.062   9.640  1.00  0.00    -0.275 OA
ATOM      6  H   UNL     1      -2.426  -2.461  10.499  1.00  0.00     0.163 HD
BRANCH   4   7
ATOM      7  C   UNL     1      -0.452  -2.551   7.777  1.00  0.00     0.095 C 
ATOM      8  C   UNL     1       0.790  -3.460   7.930  1.00  0.00     0.095 C 
ATOM      9  C   UNL     1       2.183  -2.804   7.928  1.00  0.00     0.041 C 
ATOM     10  C   UNL     1       2.240  -1.393   7.450  1.00  0.00    -0.030 C 
ATOM     11  C   UNL     1      -0.189  -1.317   6.882  1.00  0.00     0.041 C 
ATOM     12  C   UNL     1       1.182  -0.726   6.979  1.00  0.00    -0.030 C 
BRANCH   8  13
ATOM     13  C   UNL     1       0.745  -4.589   8.968  1.00  0.00     0.226 C 
ATOM     14  O   UNL     1       0.561  -5.740   8.551  1.00  0.00    -0.275 OA
BRANCH  13  15
ATOM     15  N   UNL     1       0.964  -4.362  10.310  1.00  0.00    -0.341 N 
ATOM     16  C   UNL     1       1.498  -4.912  12.588  1.00  0.00     0.123 C 
ATOM     17  C   UNL     1       0.996  -5.472  11.253  1.00  0.00     0.135 C 
ATOM     18  C   UNL     1       1.582  -3.380  12.395  1.00  0.00     0.021 C 
ATOM     19  C   UNL     1       0.955  -3.111  11.033  1.00  0.00     0.123 C 
ATOM     20  C   UNL     1       0.900  -2.497  13.441  1.00  0.00     0.010 C 
BRANCH  16  21
ATOM     21  C   UNL     1       0.657  -5.372  13.765  1.00  0.00     0.310 C 
ATOM     22  O   UNL     1      -0.406  -5.964  13.688  1.00  0.00    -0.252 OA
BRANCH  21  23
ATOM     23  O   UNL     1       1.269  -5.006  14.925  1.00  0.00    -0.469 OA
ATOM     24  C   UNL     1       0.492  -5.191  16.115  1.00  0.00     0.282 C 
ENDBRANCH  21  23
ENDBRANCH  16  21
ENDBRANCH  13  15
ENDBRANCH   8  13
ENDBRANCH   4   7
ENDBRANCH   2   3
ENDBRANCH   1   2
BRANCH   1  25
ATOM     25  C   UNL     1      -2.645  -5.160  11.405  1.00  0.00     0.023 C 
BRANCH  25  26
ATOM     26  C   UNL     1      -4.017  -4.915  12.006  1.00  0.00     0.116 C 
BRANCH  26  27
ATOM     27  N   UNL     1      -4.892  -6.064  11.826  1.00  0.00    -0.352 N 
ATOM     28  C   UNL     1      -5.450  -6.899  12.765  1.00  0.00     0.251 C 
ATOM     29  H   UNL     1      -5.119  -6.276  10.892  1.00  0.00     0.163 HD
ATOM     30  O   UNL     1      -5.943  -7.965  12.405  1.00  0.00    -0.269 OA
BRANCH  28  31
ATOM     31  C   UNL     1      -5.469  -6.521  14.198  1.00  0.00     0.039 A 
ATOM     32  C   UNL     1      -5.328  -7.518  15.169  1.00  0.00     0.014 A 
ATOM     33  C   UNL     1      -5.675  -5.197  14.592  1.00  0.00     0.014 A 
ATOM     34  C   UNL     1      -5.355  -7.178  16.525  1.00  0.00     0.010 A 
ATOM     35  C   UNL     1      -5.594  -4.847  15.935  1.00  0.00     0.010 A 
ATOM     36  C   UNL     1      -5.463  -5.836  16.920  1.00  0.00    -0.014 A 
BRANCH  36  37
ATOM     37  C   UNL     1      -5.488  -5.439  18.353  1.00  0.00     0.031 A 
ATOM     38  C   UNL     1      -6.686  -4.708  18.907  1.00  0.00     0.074 A 
ATOM     39  C   UNL     1      -4.412  -5.664  19.133  1.00  0.00     0.049 A 
ATOM     40  N   UNL     1      -6.859  -4.184  20.093  1.00  0.00    -0.248 NA
ATOM     41  C   UNL     1      -7.828  -4.509  17.997  1.00  0.00     0.031 C 
ATOM     42  C   UNL     1      -3.166  -6.301  18.697  1.00  0.00     0.029 A 
ATOM     43  N   UNL     1      -4.182  -5.356  20.451  1.00  0.00    -0.354 N 
ATOM     44  C   UNL     1      -8.108  -3.574  20.061  1.00  0.00     0.074 A 
ATOM     45  C   UNL     1      -8.628  -3.743  18.723  1.00  0.00     0.031 C 
ATOM     46  C   UNL     1      -2.307  -6.338  19.728  1.00  0.00     0.029 A 
ATOM     47  C   UNL     1      -2.921  -5.694  20.885  1.00  0.00     0.049 A 
ATOM     48  H   UNL     1      -4.856  -4.934  21.031  1.00  0.00     0.167 HD
ATOM     49  C   UNL     1      -8.784  -2.963  21.063  1.00  0.00     0.034 A 
ATOM     50  C   UNL     1      -2.322  -5.489  22.075  1.00  0.00     0.034 A 
ATOM     51  C   UNL     1      -8.282  -2.834  22.404  1.00  0.00     0.049 A 
ATOM     52  C   UNL     1      -3.101  -4.820  23.177  1.00  0.00     0.074 A 
ATOM     53  C   UNL     1      -8.908  -2.281  23.507  1.00  0.00     0.029 A 
ATOM     54  N   UNL     1      -7.036  -3.268  22.825  1.00  0.00    -0.354 N 
ATOM     55  N   UNL     1      -4.329  -4.361  23.159  1.00  0.00    -0.248 NA
ATOM     56  C   UNL     1      -2.426  -4.673  24.474  1.00  0.00     0.031 C 
ATOM     57  C   UNL     1      -8.030  -2.363  24.592  1.00  0.00     0.029 A 
ATOM     58  C   UNL     1      -6.873  -2.999  24.172  1.00  0.00     0.049 A 
ATOM     59  H   UNL     1      -6.365  -3.704  22.251  1.00  0.00     0.167 HD
ATOM     60  C   UNL     1      -4.588  -3.915  24.450  1.00  0.00     0.074 A 
ATOM     61  C   UNL     1      -3.396  -4.177  25.229  1.00  0.00     0.031 C 
ATOM     62  C   UNL     1      -5.704  -3.328  24.945  1.00  0.00     0.034 A 
BRANCH  49  63
ATOM     63  C   UNL     1     -10.169  -2.448  20.767  1.00  0.00     0.023 A 
ATOM     64  C   UNL     1     -11.216  -3.368  20.548  1.00  0.00     0.012 A 
ATOM     65  C   UNL     1     -10.453  -1.069  20.772  1.00  0.00     0.148 A 
ATOM     66  C   UNL     1     -12.515  -2.924  20.305  1.00  0.00     0.002 A 
ATOM     67  C   UNL     1     -11.760  -0.635  20.577  1.00  0.00     0.091 A 
ATOM     68  F   UNL     1      -9.443  -0.209  20.967  1.00  0.00    -0.205 F 
ATOM     69  C   UNL     1     -12.788  -1.560  20.331  1.00  0.00     0.022 A 
BRANCH  67  70
ATOM     70  S   UNL     1     -12.236   1.095  20.670  1.00  0.00     0.127 S 
ATOM     71  O   UNL     1     -12.645   1.362  19.291  1.00  0.00    -0.237 OA
ATOM     72  O   UNL     1     -13.335   1.057  21.635  1.00  0.00    -0.237 OA
ATOM     73  O   UNL     1     -11.054   1.817  21.117  1.00  0.00    -0.744 OA
ENDBRANCH  67  70
ENDBRANCH  49  63
BRANCH  50  74
ATOM     74  C   UNL     1      -0.921  -5.947  22.304  1.00  0.00     0.023 A 
ATOM     75  C   UNL     1      -0.666  -6.984  23.223  1.00  0.00     0.012 A 
ATOM     76  C   UNL     1       0.159  -5.355  21.624  1.00  0.00     0.148 A 
ATOM     77  C   UNL     1       0.642  -7.384  23.500  1.00  0.00     0.002 A 
ATOM     78  C   UNL     1       1.455  -5.802  21.857  1.00  0.00     0.091 A 
ATOM     79  F   UNL     1      -0.098  -4.362  20.760  1.00  0.00    -0.205 F 
ATOM     80  C   UNL     1       1.702  -6.800  22.811  1.00  0.00     0.022 A 
BRANCH  78  81
ATOM     81  S   UNL     1       2.852  -5.200  20.904  1.00  0.00     0.127 S 
ATOM     82  O   UNL     1       3.505  -4.308  21.858  1.00  0.00    -0.237 OA
ATOM     83  O   UNL     1       3.580  -6.436  20.615  1.00  0.00    -0.237 OA
ATOM     84  O   UNL     1       2.272  -4.565  19.727  1.00  0.00    -0.744 OA
ENDBRANCH  78  81
ENDBRANCH  50  74
BRANCH  62  85
ATOM     85  C   UNL     1      -5.723  -2.984  26.411  1.00  0.00     0.023 A 
ATOM     86  C   UNL     1      -4.943  -1.916  26.897  1.00  0.00     0.012 A 
ATOM     87  C   UNL     1      -6.577  -3.676  27.292  1.00  0.00     0.148 A 
ATOM     88  C   UNL     1      -4.986  -1.567  28.246  1.00  0.00     0.002 A 
ATOM     89  C   UNL     1      -6.655  -3.287  28.623  1.00  0.00     0.091 A 
ATOM     90  F   UNL     1      -7.298  -4.699  26.811  1.00  0.00    -0.205 F 
ATOM     91  C   UNL     1      -5.850  -2.243  29.105  1.00  0.00     0.022 A 
BRANCH  89  92
ATOM     92  S   UNL     1      -7.811  -4.031  29.779  1.00  0.00     0.127 S 
ATOM     93  O   UNL     1      -6.911  -4.764  30.669  1.00  0.00    -0.237 OA
ATOM     94  O   UNL     1      -8.442  -2.857  30.381  1.00  0.00    -0.237 OA
ATOM     95  O   UNL     1      -8.705  -4.858  28.980  1.00  0.00    -0.744 OA
ENDBRANCH  89  92
ENDBRANCH  62  85
ENDBRANCH  36  37
ENDBRANCH  28  31
ENDBRANCH  26  27
ENDBRANCH  25  26
ENDBRANCH   1  25
TORSDOF 18
