REMARK SMILES O=C(C[NH+]1CCC(C(=O)NCCCCNC(=O)c2ccc(-c3c4nc(c(-c5cccc(S(=O)(=O)[O-])c5F)c5ccc([nH]5)c(-c5cccc(S(=O)(=O)[O-])c5F)c5nc(c(-c6cccc(S(=O)(=O)[O-])c6F)c6ccc3[nH]6)C=C5)C=C4)cc2)CC1)Nc1ccccc1Oc1ccccc1
REMARK SMILES IDX 11 1 10 2 8 3 9 4 7 6 4 7 5 8 82 9 6 11 81 12 3 13 2 14 1 15
REMARK SMILES IDX 83 16 84 18 85 19 89 20 86 21 88 22 87 23 90 24 91 25 92 26
REMARK SMILES IDX 96 27 93 28 95 29 94 30 12 31 13 32 14 33 15 34 16 35 17 37
REMARK SMILES IDX 18 38 19 39 80 40 20 41 79 42 21 43 22 44 23 45 73 46 24 47
REMARK SMILES IDX 78 48 72 49 74 50 25 51 77 52 71 53 70 54 26 56 58 57 38 58
REMARK SMILES IDX 57 59 39 60 42 61 56 62 75 63 40 64 41 65 55 67 76 68 43 69
REMARK SMILES IDX 27 70 28 71 36 72 29 73 31 74 37 75 30 76 32 77 33 78 34 79
REMARK SMILES IDX 35 80 59 81 60 82 68 83 61 84 63 85 69 86 62 87 64 88 65 89
REMARK SMILES IDX 66 90 67 91 44 92 45 93 53 94 46 95 48 96 54 97 47 98 49 99
REMARK SMILES IDX 50 100 51 101 52 102
REMARK H PARENT 10 5 4 10 83 17 15 36 74 55 42 66
REMARK Flexibility Score: inf
ROOT
ATOM      1  C   UNL     1       5.002  -1.788   5.488  1.00  0.00     0.116 C 
ENDROOT
BRANCH   1   2
ATOM      2  N   UNL     1       6.196  -2.563   5.177  1.00  0.00    -0.356 N 
ATOM      3  C   UNL     1       6.827  -2.773   3.986  1.00  0.00     0.223 C 
ATOM      4  O   UNL     1       7.866  -3.436   3.972  1.00  0.00    -0.275 OA
ATOM      5  H   UNL     1       6.615  -3.006   5.951  1.00  0.00     0.163 HD
BRANCH   3   6
ATOM      6  C   UNL     1       6.263  -2.204   2.694  1.00  0.00     0.089 C 
ATOM      7  N   UNL     1       3.979  -0.601   1.970  1.00  0.00    -0.327 N 
ATOM      8  C   UNL     1       3.997  -1.996   1.540  1.00  0.00     0.263 C 
ATOM      9  C   UNL     1       5.299   0.013   1.824  1.00  0.00     0.263 C 
ATOM     10  H   UNL     1       3.727  -0.661   2.956  1.00  0.00     0.348 HD
ATOM     11  C   UNL     1       4.896  -2.835   2.419  1.00  0.00     0.075 C 
ATOM     12  C   UNL     1       6.338  -0.671   2.700  1.00  0.00     0.075 C 
BRANCH   7  13
ATOM     13  C   UNL     1       2.922   0.264   1.393  1.00  0.00     0.363 C 
BRANCH  13  14
ATOM     14  C   UNL     1       1.982  -0.404   0.392  1.00  0.00     0.279 C 
ATOM     15  O   UNL     1       0.794  -0.601   0.631  1.00  0.00    -0.268 OA
ATOM     16  N   UNL     1       2.630  -0.750  -0.786  1.00  0.00    -0.318 N 
ATOM     17  H   UNL     1       3.596  -0.575  -0.861  1.00  0.00     0.170 HD
BRANCH  16  18
ATOM     18  C   UNL     1       1.971  -1.337  -1.870  1.00  0.00     0.084 A 
ATOM     19  C   UNL     1       2.390  -2.631  -2.216  1.00  0.00     0.030 A 
ATOM     20  C   UNL     1       0.947  -0.706  -2.593  1.00  0.00     0.150 A 
ATOM     21  C   UNL     1       1.723  -3.345  -3.208  1.00  0.00     0.002 A 
ATOM     22  C   UNL     1       0.287  -1.440  -3.589  1.00  0.00     0.049 A 
ATOM     23  C   UNL     1       0.661  -2.754  -3.886  1.00  0.00     0.004 A 
BRANCH  20  24
ATOM     24  O   UNL     1       0.485   0.590  -2.463  1.00  0.00    -0.455 OA
BRANCH  24  25
ATOM     25  C   UNL     1       1.267   1.564  -1.888  1.00  0.00     0.127 A 
ATOM     26  C   UNL     1       0.685   2.287  -0.843  1.00  0.00     0.047 A 
ATOM     27  C   UNL     1       2.570   1.858  -2.298  1.00  0.00     0.047 A 
ATOM     28  C   UNL     1       1.430   3.239  -0.147  1.00  0.00     0.004 A 
ATOM     29  C   UNL     1       3.319   2.807  -1.594  1.00  0.00     0.004 A 
ATOM     30  C   UNL     1       2.752   3.489  -0.515  1.00  0.00     0.000 A 
ENDBRANCH  24  25
ENDBRANCH  20  24
ENDBRANCH  16  18
ENDBRANCH  13  14
ENDBRANCH   7  13
ENDBRANCH   3   6
ENDBRANCH   1   2
BRANCH   1  31
ATOM     31  C   UNL     1       3.838  -2.648   5.977  1.00  0.00     0.023 C 
BRANCH  31  32
ATOM     32  C   UNL     1       4.110  -3.415   7.264  1.00  0.00     0.023 C 
BRANCH  32  33
ATOM     33  C   UNL     1       4.630  -2.561   8.409  1.00  0.00     0.116 C 
BRANCH  33  34
ATOM     34  N   UNL     1       3.745  -1.450   8.730  1.00  0.00    -0.352 N 
ATOM     35  C   UNL     1       3.336  -1.009   9.963  1.00  0.00     0.251 C 
ATOM     36  H   UNL     1       3.393  -0.949   7.960  1.00  0.00     0.163 HD
ATOM     37  O   UNL     1       2.470  -0.141  10.050  1.00  0.00    -0.269 OA
BRANCH  35  38
ATOM     38  C   UNL     1       3.921  -1.607  11.180  1.00  0.00     0.039 A 
ATOM     39  C   UNL     1       3.070  -1.972  12.224  1.00  0.00     0.014 A 
ATOM     40  C   UNL     1       5.297  -1.836  11.277  1.00  0.00     0.014 A 
ATOM     41  C   UNL     1       3.597  -2.613  13.344  1.00  0.00     0.010 A 
ATOM     42  C   UNL     1       5.803  -2.562  12.349  1.00  0.00     0.010 A 
ATOM     43  C   UNL     1       4.963  -2.943  13.403  1.00  0.00    -0.014 A 
BRANCH  43  44
ATOM     44  C   UNL     1       5.506  -3.695  14.562  1.00  0.00     0.031 A 
ATOM     45  C   UNL     1       6.561  -3.087  15.446  1.00  0.00     0.074 A 
ATOM     46  C   UNL     1       5.075  -4.951  14.792  1.00  0.00     0.049 A 
ATOM     47  N   UNL     1       7.103  -3.574  16.532  1.00  0.00    -0.248 NA
ATOM     48  C   UNL     1       7.098  -1.774  15.049  1.00  0.00     0.031 C 
ATOM     49  C   UNL     1       4.135  -5.691  13.946  1.00  0.00     0.029 A 
ATOM     50  N   UNL     1       5.377  -5.832  15.799  1.00  0.00    -0.354 N 
ATOM     51  C   UNL     1       8.059  -2.648  16.930  1.00  0.00     0.074 A 
ATOM     52  C   UNL     1       8.055  -1.589  15.946  1.00  0.00     0.031 C 
ATOM     53  C   UNL     1       3.918  -6.901  14.483  1.00  0.00     0.029 A 
ATOM     54  C   UNL     1       4.721  -7.035  15.694  1.00  0.00     0.049 A 
ATOM     55  H   UNL     1       6.005  -5.622  16.528  1.00  0.00     0.167 HD
ATOM     56  C   UNL     1       8.847  -2.660  18.031  1.00  0.00     0.034 A 
ATOM     57  C   UNL     1       4.756  -8.123  16.487  1.00  0.00     0.034 A 
ATOM     58  C   UNL     1       8.825  -3.702  19.023  1.00  0.00     0.049 A 
ATOM     59  C   UNL     1       5.591  -8.085  17.737  1.00  0.00     0.074 A 
ATOM     60  C   UNL     1       9.514  -3.764  20.221  1.00  0.00     0.029 A 
ATOM     61  N   UNL     1       8.088  -4.872  18.926  1.00  0.00    -0.354 N 
ATOM     62  N   UNL     1       6.355  -7.120  18.191  1.00  0.00    -0.248 NA
ATOM     63  C   UNL     1       5.533  -9.266  18.608  1.00  0.00     0.031 C 
ATOM     64  C   UNL     1       9.221  -4.989  20.831  1.00  0.00     0.029 A 
ATOM     65  C   UNL     1       8.315  -5.670  20.034  1.00  0.00     0.049 A 
ATOM     66  H   UNL     1       7.490  -5.101  18.178  1.00  0.00     0.167 HD
ATOM     67  C   UNL     1       6.842  -7.565  19.415  1.00  0.00     0.074 A 
ATOM     68  C   UNL     1       6.260  -8.872  19.643  1.00  0.00     0.031 C 
ATOM     69  C   UNL     1       7.703  -6.954  20.267  1.00  0.00     0.034 A 
BRANCH  56  70
ATOM     70  C   UNL     1       9.772  -1.488  18.244  1.00  0.00     0.023 A 
ATOM     71  C   UNL     1       9.238  -0.223  18.565  1.00  0.00     0.012 A 
ATOM     72  C   UNL     1      11.170  -1.649  18.179  1.00  0.00     0.148 A 
ATOM     73  C   UNL     1      10.076   0.871  18.780  1.00  0.00     0.002 A 
ATOM     74  C   UNL     1      12.001  -0.567  18.445  1.00  0.00     0.091 A 
ATOM     75  F   UNL     1      11.660  -2.853  17.851  1.00  0.00    -0.205 F 
ATOM     76  C   UNL     1      11.456   0.696  18.732  1.00  0.00     0.022 A 
BRANCH  74  77
ATOM     77  S   UNL     1      13.791  -0.707  18.491  1.00  0.00     0.127 S 
ATOM     78  O   UNL     1      14.177   0.053  17.303  1.00  0.00    -0.237 OA
ATOM     79  O   UNL     1      14.116  -0.059  19.762  1.00  0.00    -0.237 OA
ATOM     80  O   UNL     1      14.085  -2.132  18.443  1.00  0.00    -0.744 OA
ENDBRANCH  74  77
ENDBRANCH  56  70
BRANCH  57  81
ATOM     81  C   UNL     1       3.923  -9.313  16.156  1.00  0.00     0.023 A 
ATOM     82  C   UNL     1       2.817  -9.639  16.965  1.00  0.00     0.012 A 
ATOM     83  C   UNL     1       4.205 -10.105  15.027  1.00  0.00     0.148 A 
ATOM     84  C   UNL     1       2.031 -10.755  16.677  1.00  0.00     0.002 A 
ATOM     85  C   UNL     1       3.383 -11.179  14.711  1.00  0.00     0.091 A 
ATOM     86  F   UNL     1       5.267  -9.781  14.274  1.00  0.00    -0.205 F 
ATOM     87  C   UNL     1       2.307 -11.518  15.546  1.00  0.00     0.022 A 
BRANCH  85  88
ATOM     88  S   UNL     1       3.581 -12.131  13.202  1.00  0.00     0.127 S 
ATOM     89  O   UNL     1       4.037 -13.419  13.719  1.00  0.00    -0.237 OA
ATOM     90  O   UNL     1       2.220 -12.129  12.664  1.00  0.00    -0.237 OA
ATOM     91  O   UNL     1       4.546 -11.396  12.396  1.00  0.00    -0.744 OA
ENDBRANCH  85  88
ENDBRANCH  57  81
BRANCH  69  92
ATOM     92  C   UNL     1       8.042  -7.678  21.545  1.00  0.00     0.023 A 
ATOM     93  C   UNL     1       8.820  -8.853  21.507  1.00  0.00     0.012 A 
ATOM     94  C   UNL     1       7.615  -7.174  22.789  1.00  0.00     0.148 A 
ATOM     95  C   UNL     1       9.119  -9.544  22.680  1.00  0.00     0.002 A 
ATOM     96  C   UNL     1       7.965  -7.837  23.959  1.00  0.00     0.091 A 
ATOM     97  F   UNL     1       6.862  -6.064  22.807  1.00  0.00    -0.205 F 
ATOM     98  C   UNL     1       8.701  -9.032  23.905  1.00  0.00     0.022 A 
BRANCH  96  99
ATOM     99  S   UNL     1       7.556  -7.192  25.584  1.00  0.00     0.127 S 
ATOM    100  O   UNL     1       6.463  -8.075  25.988  1.00  0.00    -0.237 OA
ATOM    101  O   UNL     1       8.804  -7.391  26.322  1.00  0.00    -0.237 OA
ATOM    102  O   UNL     1       7.194  -5.796  25.381  1.00  0.00    -0.744 OA
ENDBRANCH  96  99
ENDBRANCH  69  92
ENDBRANCH  43  44
ENDBRANCH  35  38
ENDBRANCH  33  34
ENDBRANCH  32  33
ENDBRANCH  31  32
ENDBRANCH   1  31
TORSDOF 19
