REMARK SMILES CC(C)Cc1cc2c(cc1Cl)C=C(C(=O)NCCCCNC(=O)c1ccc(-c3c4nc(c(-c5cccc(S(=O)(=O)[O-])c5F)c5ccc([nH]5)c(-c5cccc(S(=O)(=O)[O-])c5F)c5nc(c(-c6cccc(S(=O)(=O)[O-])c6F)c6ccc3[nH]6)C=C5)C=C4)cc1)[C@@H](C(F)(F)F)O2
REMARK SMILES IDX 19 1 18 2 17 3 16 4 14 5 15 6 13 8 5 9 6 10 10 11 7 12 9 13
REMARK SMILES IDX 11 14 8 15 92 16 12 17 87 18 4 19 2 20 1 21 3 22 88 23 89 24
REMARK SMILES IDX 90 25 91 26 20 27 21 28 22 29 23 31 24 32 25 33 86 34 26 35
REMARK SMILES IDX 85 36 27 37 28 38 29 39 79 40 30 41 84 42 78 43 80 44 31 45
REMARK SMILES IDX 83 46 77 47 76 48 32 50 64 51 44 52 63 53 45 54 48 55 62 56
REMARK SMILES IDX 81 57 46 58 47 59 61 61 82 62 49 63 33 64 34 65 42 66 35 67
REMARK SMILES IDX 37 68 43 69 36 70 38 71 39 72 40 73 41 74 65 75 66 76 74 77
REMARK SMILES IDX 67 78 69 79 75 80 68 81 70 82 71 83 72 84 73 85 50 86 51 87
REMARK SMILES IDX 59 88 52 89 54 90 60 91 53 92 55 93 56 94 57 95 58 96
REMARK H PARENT 16 7 21 30 80 49 48 60
REMARK Flexibility Score: inf
ROOT
ATOM      1  C   UNL     1      -0.812  -5.825   7.937  1.00  0.00     0.023 C 
ENDROOT
BRANCH   1   2
ATOM      2  C   UNL     1      -0.956  -5.069   6.613  1.00  0.00     0.023 C 
BRANCH   2   3
ATOM      3  C   UNL     1      -2.385  -4.645   6.282  1.00  0.00     0.116 C 
BRANCH   3   4
ATOM      4  N   UNL     1      -2.726  -3.353   6.855  1.00  0.00    -0.352 N 
ATOM      5  C   UNL     1      -2.838  -2.076   6.418  1.00  0.00     0.251 C 
ATOM      6  O   UNL     1      -3.173  -1.250   7.273  1.00  0.00    -0.270 OA
ATOM      7  H   UNL     1      -2.929  -3.426   7.815  1.00  0.00     0.163 HD
BRANCH   5   8
ATOM      8  C   UNL     1      -2.580  -1.617   5.020  1.00  0.00     0.067 C 
ATOM      9  C   UNL     1      -1.483   1.224   0.981  1.00  0.00    -0.025 A 
ATOM     10  C   UNL     1      -1.555  -0.152   1.238  1.00  0.00     0.052 A 
ATOM     11  C   UNL     1      -1.835   2.110   2.011  1.00  0.00     0.045 A 
ATOM     12  C   UNL     1      -1.902  -0.629   2.498  1.00  0.00     0.128 A 
ATOM     13  C   UNL     1      -2.218   1.625   3.270  1.00  0.00     0.032 A 
ATOM     14  Cl  UNL     1      -1.783   3.823   1.796  1.00  0.00    -0.084 Cl
ATOM     15  C   UNL     1      -2.231   0.250   3.523  1.00  0.00     0.019 A 
ATOM     16  O   UNL     1      -1.812  -1.977   2.664  1.00  0.00    -0.475 OA
ATOM     17  C   UNL     1      -2.506  -0.283   4.851  1.00  0.00     0.025 C 
ATOM     18  C   UNL     1      -2.436  -2.544   3.845  1.00  0.00     0.314 C 
BRANCH   9  19
ATOM     19  C   UNL     1      -0.954   1.662  -0.367  1.00  0.00     0.040 C 
BRANCH  19  20
ATOM     20  C   UNL     1       0.587   1.775  -0.414  1.00  0.00    -0.013 C 
ATOM     21  C   UNL     1       1.296   0.435  -0.178  1.00  0.00     0.008 C 
ATOM     22  C   UNL     1       1.021   2.335  -1.770  1.00  0.00     0.008 C 
ENDBRANCH  19  20
ENDBRANCH   9  19
BRANCH  18  23
ATOM     23  C   UNL     1      -3.771  -3.182   3.421  1.00  0.00     0.429 C 
ATOM     24  F   UNL     1      -3.547  -4.222   2.578  1.00  0.00    -0.167 F 
ATOM     25  F   UNL     1      -4.472  -3.676   4.465  1.00  0.00    -0.167 F 
ATOM     26  F   UNL     1      -4.578  -2.308   2.778  1.00  0.00    -0.167 F 
ENDBRANCH  18  23
ENDBRANCH   5   8
ENDBRANCH   3   4
ENDBRANCH   2   3
ENDBRANCH   1   2
BRANCH   1  27
ATOM     27  C   UNL     1      -1.689  -7.067   8.084  1.00  0.00     0.116 C 
BRANCH  27  28
ATOM     28  N   UNL     1      -1.572  -8.021   6.988  1.00  0.00    -0.352 N 
ATOM     29  C   UNL     1      -1.871  -9.366   7.013  1.00  0.00     0.251 C 
ATOM     30  H   UNL     1      -1.243  -7.663   6.132  1.00  0.00     0.163 HD
ATOM     31  O   UNL     1      -1.656 -10.072   6.033  1.00  0.00    -0.269 OA
BRANCH  29  32
ATOM     32  C   UNL     1      -2.395  -9.946   8.267  1.00  0.00     0.039 A 
ATOM     33  C   UNL     1      -3.493  -9.362   8.899  1.00  0.00     0.014 A 
ATOM     34  C   UNL     1      -1.708 -11.003   8.868  1.00  0.00     0.014 A 
ATOM     35  C   UNL     1      -3.788  -9.711  10.211  1.00  0.00     0.010 A 
ATOM     36  C   UNL     1      -2.059 -11.406  10.159  1.00  0.00     0.010 A 
ATOM     37  C   UNL     1      -3.059 -10.719  10.865  1.00  0.00    -0.014 A 
BRANCH  37  38
ATOM     38  C   UNL     1      -3.351 -11.010  12.292  1.00  0.00     0.031 A 
ATOM     39  C   UNL     1      -2.328 -10.733  13.363  1.00  0.00     0.074 A 
ATOM     40  C   UNL     1      -4.575 -11.458  12.631  1.00  0.00     0.049 A 
ATOM     41  N   UNL     1      -2.448 -10.857  14.661  1.00  0.00    -0.248 NA
ATOM     42  C   UNL     1      -1.002 -10.258  12.932  1.00  0.00     0.031 C 
ATOM     43  C   UNL     1      -5.643 -11.779  11.683  1.00  0.00     0.029 A 
ATOM     44  N   UNL     1      -5.137 -11.693  13.860  1.00  0.00    -0.354 N 
ATOM     45  C   UNL     1      -1.210 -10.521  15.194  1.00  0.00     0.074 A 
ATOM     46  C   UNL     1      -0.347 -10.185  14.084  1.00  0.00     0.031 C 
ATOM     47  C   UNL     1      -6.749 -12.111  12.364  1.00  0.00     0.029 A 
ATOM     48  C   UNL     1      -6.457 -12.071  13.794  1.00  0.00     0.049 A 
ATOM     49  H   UNL     1      -4.644 -11.600  14.706  1.00  0.00     0.167 HD
ATOM     50  C   UNL     1      -0.832 -10.474  16.493  1.00  0.00     0.034 A 
ATOM     51  C   UNL     1      -7.341 -12.347  14.773  1.00  0.00     0.034 A 
ATOM     52  C   UNL     1      -1.706 -10.740  17.603  1.00  0.00     0.049 A 
ATOM     53  C   UNL     1      -6.906 -12.252  16.205  1.00  0.00     0.074 A 
ATOM     54  C   UNL     1      -1.420 -10.667  18.955  1.00  0.00     0.029 A 
ATOM     55  N   UNL     1      -3.034 -11.115  17.492  1.00  0.00    -0.354 N 
ATOM     56  N   UNL     1      -5.752 -11.859  16.687  1.00  0.00    -0.248 NA
ATOM     57  C   UNL     1      -7.892 -12.627  17.228  1.00  0.00     0.031 C 
ATOM     58  C   UNL     1      -2.579 -10.995  19.664  1.00  0.00     0.029 A 
ATOM     59  C   UNL     1      -3.584 -11.276  18.752  1.00  0.00     0.049 A 
ATOM     60  H   UNL     1      -3.516 -11.248  16.644  1.00  0.00     0.167 HD
ATOM     61  C   UNL     1      -5.872 -11.938  18.068  1.00  0.00     0.074 A 
ATOM     62  C   UNL     1      -7.220 -12.388  18.349  1.00  0.00     0.031 C 
ATOM     63  C   UNL     1      -4.939 -11.683  19.016  1.00  0.00     0.034 A 
BRANCH  50  64
ATOM     64  C   UNL     1       0.579 -10.059  16.806  1.00  0.00     0.023 A 
ATOM     65  C   UNL     1       0.897  -8.687  16.836  1.00  0.00     0.012 A 
ATOM     66  C   UNL     1       1.552 -11.008  17.173  1.00  0.00     0.148 A 
ATOM     67  C   UNL     1       2.169  -8.265  17.221  1.00  0.00     0.002 A 
ATOM     68  C   UNL     1       2.810 -10.579  17.579  1.00  0.00     0.091 A 
ATOM     69  F   UNL     1       1.226 -12.308  17.122  1.00  0.00    -0.205 F 
ATOM     70  C   UNL     1       3.120  -9.208  17.602  1.00  0.00     0.022 A 
BRANCH  68  71
ATOM     71  S   UNL     1       4.092 -11.707  18.137  1.00  0.00     0.127 S 
ATOM     72  O   UNL     1       5.083 -11.575  17.070  1.00  0.00    -0.237 OA
ATOM     73  O   UNL     1       4.488 -11.114  19.415  1.00  0.00    -0.237 OA
ATOM     74  O   UNL     1       3.461 -13.015  18.240  1.00  0.00    -0.744 OA
ENDBRANCH  68  71
ENDBRANCH  50  64
BRANCH  51  75
ATOM     75  C   UNL     1      -8.745 -12.673  14.407  1.00  0.00     0.023 A 
ATOM     76  C   UNL     1      -9.746 -11.703  14.601  1.00  0.00     0.012 A 
ATOM     77  C   UNL     1      -9.073 -13.891  13.782  1.00  0.00     0.148 A 
ATOM     78  C   UNL     1     -11.053 -11.940  14.176  1.00  0.00     0.002 A 
ATOM     79  C   UNL     1     -10.366 -14.102  13.320  1.00  0.00     0.091 A 
ATOM     80  F   UNL     1      -8.102 -14.801  13.622  1.00  0.00    -0.205 F 
ATOM     81  C   UNL     1     -11.360 -13.132  13.524  1.00  0.00     0.022 A 
BRANCH  79  82
ATOM     82  S   UNL     1     -10.820 -15.549  12.357  1.00  0.00     0.127 S 
ATOM     83  O   UNL     1     -11.696 -16.261  13.284  1.00  0.00    -0.237 OA
ATOM     84  O   UNL     1     -11.496 -14.945  11.208  1.00  0.00    -0.237 OA
ATOM     85  O   UNL     1      -9.566 -16.216  12.034  1.00  0.00    -0.744 OA
ENDBRANCH  79  82
ENDBRANCH  51  75
BRANCH  63  86
ATOM     86  C   UNL     1      -5.320 -11.893  20.453  1.00  0.00     0.023 A 
ATOM     87  C   UNL     1      -5.280 -13.197  20.983  1.00  0.00     0.012 A 
ATOM     88  C   UNL     1      -5.591 -10.802  21.300  1.00  0.00     0.148 A 
ATOM     89  C   UNL     1      -5.510 -13.414  22.340  1.00  0.00     0.002 A 
ATOM     90  C   UNL     1      -5.791 -11.023  22.657  1.00  0.00     0.091 A 
ATOM     91  F   UNL     1      -5.630  -9.574  20.765  1.00  0.00    -0.205 F 
ATOM     92  C   UNL     1      -5.754 -12.328  23.178  1.00  0.00     0.022 A 
BRANCH  90  93
ATOM     93  S   UNL     1      -6.044  -9.686  23.830  1.00  0.00     0.127 S 
ATOM     94  O   UNL     1      -7.429  -9.911  24.242  1.00  0.00    -0.237 OA
ATOM     95  O   UNL     1      -5.045  -9.983  24.857  1.00  0.00    -0.237 OA
ATOM     96  O   UNL     1      -5.809  -8.452  23.092  1.00  0.00    -0.744 OA
ENDBRANCH  90  93
ENDBRANCH  63  86
ENDBRANCH  37  38
ENDBRANCH  29  32
ENDBRANCH  27  28
ENDBRANCH   1  27
TORSDOF 17
