REMARK SMILES C[N@H+]1[C@H]2CC[C@@H]1c1sc(=O)n(CCCC(=O)NCCCCNC(=O)c3ccc(-c4c5nc(c(-c6cccc(S(=O)(=O)[O-])c6F)c6ccc([nH]6)c(-c6cccc(S(=O)(=O)[O-])c6F)c6nc(c(-c7cccc(S(=O)(=O)[O-])c7F)c7ccc4[nH]7)C=C6)C=C5)cc3)c1C2
REMARK SMILES IDX 19 1 18 2 17 3 15 4 16 5 14 7 13 8 12 9 11 10 1 11 2 12 3 13
REMARK SMILES IDX 6 14 4 16 89 17 5 18 7 19 88 20 8 21 9 22 10 23 20 24 21 25
REMARK SMILES IDX 22 26 23 27 24 29 25 30 26 31 87 32 27 33 86 34 28 35 29 36
REMARK SMILES IDX 30 37 80 38 31 39 85 40 79 41 81 42 32 43 84 44 78 45 77 46
REMARK SMILES IDX 33 48 65 49 45 50 64 51 46 52 49 53 63 54 82 55 47 56 48 57
REMARK SMILES IDX 62 59 83 60 50 61 34 62 35 63 43 64 36 65 38 66 44 67 37 68
REMARK SMILES IDX 39 69 40 70 41 71 42 72 66 73 67 74 75 75 68 76 70 77 76 78
REMARK SMILES IDX 69 79 71 80 72 81 73 82 74 83 51 84 52 85 60 86 53 87 55 88
REMARK SMILES IDX 61 89 54 90 56 91 57 92 58 93 59 94
REMARK H PARENT 17 6 2 15 22 28 81 47 49 58
REMARK Flexibility Score: inf
ROOT
ATOM      1  C   UNL     1       2.100   6.087   1.946  1.00  0.00     0.023 C 
ENDROOT
BRANCH   1   2
ATOM      2  C   UNL     1       2.417   6.552   3.376  1.00  0.00     0.116 C 
BRANCH   2   3
ATOM      3  N   UNL     1       1.763   7.818   3.645  1.00  0.00    -0.356 N 
ATOM      4  C   UNL     1       0.679   8.099   4.419  1.00  0.00     0.220 C 
ATOM      5  O   UNL     1       0.155   9.210   4.311  1.00  0.00    -0.275 OA
ATOM      6  H   UNL     1       2.167   8.597   3.197  1.00  0.00     0.163 HD
BRANCH   4   7
ATOM      7  C   UNL     1       0.156   7.087   5.419  1.00  0.00     0.102 C 
BRANCH   7   8
ATOM      8  C   UNL     1      -0.933   6.117   4.952  1.00  0.00     0.032 C 
BRANCH   8   9
ATOM      9  C   UNL     1      -0.591   4.939   4.035  1.00  0.00     0.127 C 
BRANCH   9  10
ATOM     10  N   UNL     1       0.274   3.840   4.470  1.00  0.00    -0.302 N 
ATOM     11  C   UNL     1       2.180  -0.059   1.000  1.00  0.00     0.333 C 
ATOM     12  N   UNL     1       1.587   0.942   1.877  1.00  0.00    -0.328 N 
ATOM     13  C   UNL     1       0.117   1.042   1.774  1.00  0.00     0.190 C 
ATOM     14  C   UNL     1       1.786   0.646   3.324  1.00  0.00     0.227 C 
ATOM     15  H   UNL     1       2.058   1.792   1.567  1.00  0.00     0.348 HD
ATOM     16  C   UNL     1      -0.376  -0.165   2.589  1.00  0.00     0.072 C 
ATOM     17  C   UNL     1      -0.305   2.413   2.405  1.00  0.00     0.120 C 
ATOM     18  C   UNL     1       0.713  -0.406   3.641  1.00  0.00     0.077 C 
ATOM     19  C   UNL     1       1.437   1.897   4.082  1.00  0.00     0.087 A 
ATOM     20  C   UNL     1       0.482   2.735   3.652  1.00  0.00     0.047 A 
ATOM     21  S   UNL     1       2.123   2.401   5.575  1.00  0.00    -0.073 S 
ATOM     22  C   UNL     1       1.010   3.791   5.656  1.00  0.00     0.307 A 
ATOM     23  O   UNL     1       0.943   4.506   6.633  1.00  0.00    -0.257 OA
ENDBRANCH   9  10
ENDBRANCH   8   9
ENDBRANCH   7   8
ENDBRANCH   4   7
ENDBRANCH   2   3
ENDBRANCH   1   2
BRANCH   1  24
ATOM     24  C   UNL     1       2.947   6.744   0.850  1.00  0.00     0.023 C 
BRANCH  24  25
ATOM     25  C   UNL     1       4.384   6.242   0.797  1.00  0.00     0.116 C 
BRANCH  25  26
ATOM     26  N   UNL     1       4.479   4.848   0.363  1.00  0.00    -0.352 N 
ATOM     27  C   UNL     1       5.598   4.041   0.402  1.00  0.00     0.251 C 
ATOM     28  H   UNL     1       3.657   4.442   0.004  1.00  0.00     0.163 HD
ATOM     29  O   UNL     1       5.700   3.051  -0.314  1.00  0.00    -0.269 OA
BRANCH  27  30
ATOM     30  C   UNL     1       6.676   4.409   1.332  1.00  0.00     0.039 A 
ATOM     31  C   UNL     1       7.985   4.573   0.874  1.00  0.00     0.014 A 
ATOM     32  C   UNL     1       6.326   4.696   2.652  1.00  0.00     0.014 A 
ATOM     33  C   UNL     1       8.927   5.133   1.732  1.00  0.00     0.010 A 
ATOM     34  C   UNL     1       7.234   5.339   3.464  1.00  0.00     0.010 A 
ATOM     35  C   UNL     1       8.539   5.554   3.016  1.00  0.00    -0.014 A 
BRANCH  35  36
ATOM     36  C   UNL     1       9.434   6.421   3.793  1.00  0.00     0.031 A 
ATOM     37  C   UNL     1       9.884   7.637   3.054  1.00  0.00     0.074 A 
ATOM     38  C   UNL     1       9.633   6.290   5.124  1.00  0.00     0.049 A 
ATOM     39  N   UNL     1      11.085   7.936   2.676  1.00  0.00    -0.248 NA
ATOM     40  C   UNL     1       8.858   8.561   2.539  1.00  0.00     0.031 C 
ATOM     41  C   UNL     1       8.970   5.325   6.010  1.00  0.00     0.029 A 
ATOM     42  N   UNL     1      10.322   7.083   6.002  1.00  0.00    -0.354 N 
ATOM     43  C   UNL     1      10.991   9.223   2.145  1.00  0.00     0.074 A 
ATOM     44  C   UNL     1       9.600   9.440   1.861  1.00  0.00     0.031 C 
ATOM     45  C   UNL     1       9.049   5.760   7.285  1.00  0.00     0.029 A 
ATOM     46  C   UNL     1       9.917   6.921   7.327  1.00  0.00     0.049 A 
ATOM     47  H   UNL     1      11.033   7.706   5.726  1.00  0.00     0.167 HD
ATOM     48  C   UNL     1      12.001  10.119   2.329  1.00  0.00     0.034 A 
ATOM     49  C   UNL     1      10.232   7.695   8.392  1.00  0.00     0.034 A 
ATOM     50  C   UNL     1      13.186   9.461   2.814  1.00  0.00     0.049 A 
ATOM     51  C   UNL     1      11.478   8.416   8.070  1.00  0.00     0.074 A 
ATOM     52  C   UNL     1      14.166   8.626   2.334  1.00  0.00     0.029 A 
ATOM     53  N   UNL     1      13.240   9.423   4.180  1.00  0.00    -0.354 N 
ATOM     54  N   UNL     1      12.630   7.822   7.920  1.00  0.00    -0.248 NA
ATOM     55  C   UNL     1      11.420   9.800   7.617  1.00  0.00     0.031 C 
ATOM     56  C   UNL     1      14.722   7.974   3.476  1.00  0.00     0.029 A 
ATOM     57  C   UNL     1      14.089   8.453   4.622  1.00  0.00     0.049 A 
ATOM     58  H   UNL     1      12.728  10.022   4.771  1.00  0.00     0.167 HD
ATOM     59  C   UNL     1      13.261   8.578   6.952  1.00  0.00     0.074 A 
ATOM     60  C   UNL     1      12.582   9.866   6.963  1.00  0.00     0.031 C 
ATOM     61  C   UNL     1      14.013   7.979   5.986  1.00  0.00     0.034 A 
BRANCH  48  62
ATOM     62  C   UNL     1      11.829  11.608   2.622  1.00  0.00     0.023 A 
ATOM     63  C   UNL     1      13.018  12.367   2.763  1.00  0.00     0.012 A 
ATOM     64  C   UNL     1      10.641  12.208   3.100  1.00  0.00     0.148 A 
ATOM     65  C   UNL     1      13.035  13.610   3.408  1.00  0.00     0.002 A 
ATOM     66  C   UNL     1      10.652  13.475   3.678  1.00  0.00     0.091 A 
ATOM     67  F   UNL     1       9.503  11.514   3.132  1.00  0.00    -0.205 F 
ATOM     68  C   UNL     1      11.849  14.166   3.866  1.00  0.00     0.022 A 
BRANCH  66  69
ATOM     69  S   UNL     1       9.141  14.251   4.269  1.00  0.00     0.127 S 
ATOM     70  O   UNL     1       9.319  14.165   5.715  1.00  0.00    -0.237 OA
ATOM     71  O   UNL     1       9.259  15.595   3.705  1.00  0.00    -0.237 OA
ATOM     72  O   UNL     1       8.051  13.462   3.709  1.00  0.00    -0.744 OA
ENDBRANCH  66  69
ENDBRANCH  48  62
BRANCH  49  73
ATOM     73  C   UNL     1       9.491   7.954   9.647  1.00  0.00     0.023 A 
ATOM     74  C   UNL     1      10.190   8.395  10.790  1.00  0.00     0.012 A 
ATOM     75  C   UNL     1       8.081   8.035   9.655  1.00  0.00     0.148 A 
ATOM     76  C   UNL     1       9.512   8.942  11.885  1.00  0.00     0.002 A 
ATOM     77  C   UNL     1       7.411   8.575  10.749  1.00  0.00     0.091 A 
ATOM     78  F   UNL     1       7.409   7.664   8.557  1.00  0.00    -0.205 F 
ATOM     79  C   UNL     1       8.124   9.044  11.860  1.00  0.00     0.022 A 
BRANCH  77  80
ATOM     80  S   UNL     1       5.622   8.760  10.789  1.00  0.00     0.127 S 
ATOM     81  O   UNL     1       5.287   8.167  12.084  1.00  0.00    -0.237 OA
ATOM     82  O   UNL     1       5.468  10.211  10.723  1.00  0.00    -0.237 OA
ATOM     83  O   UNL     1       5.123   8.017   9.639  1.00  0.00    -0.744 OA
ENDBRANCH  77  80
ENDBRANCH  49  73
BRANCH  61  84
ATOM     84  C   UNL     1      14.639   6.656   6.299  1.00  0.00     0.023 A 
ATOM     85  C   UNL     1      13.896   5.481   6.513  1.00  0.00     0.012 A 
ATOM     86  C   UNL     1      16.042   6.588   6.270  1.00  0.00     0.148 A 
ATOM     87  C   UNL     1      14.546   4.261   6.713  1.00  0.00     0.002 A 
ATOM     88  C   UNL     1      16.682   5.368   6.419  1.00  0.00     0.091 A 
ATOM     89  F   UNL     1      16.728   7.725   6.078  1.00  0.00    -0.205 F 
ATOM     90  C   UNL     1      15.939   4.201   6.652  1.00  0.00     0.022 A 
BRANCH  88  91
ATOM     91  S   UNL     1      18.459   5.223   6.226  1.00  0.00     0.127 S 
ATOM     92  O   UNL     1      18.908   5.095   7.611  1.00  0.00    -0.237 OA
ATOM     93  O   UNL     1      18.590   4.006   5.424  1.00  0.00    -0.237 OA
ATOM     94  O   UNL     1      18.885   6.436   5.537  1.00  0.00    -0.744 OA
ENDBRANCH  88  91
ENDBRANCH  61  84
ENDBRANCH  35  36
ENDBRANCH  27  30
ENDBRANCH  25  26
ENDBRANCH  24  25
ENDBRANCH   1  24
TORSDOF 17
