REMARK SMILES C[C@H](CC[NH+](C)C)[NH2+][C@H](C)[C@@H](C)C(=O)NCCCNC(=O)c1ccc(-c2c3nc(c(-c4cccc(S(=O)(=O)[O-])c4F)c4ccc([nH]4)c(-c4cccc(S(=O)(=O)[O-])c4F)c4nc(c(-c5cccc(S(=O)(=O)[O-])c5F)c5ccc2[nH]5)C=C4)C=C3)cc1
REMARK SMILES IDX 13 1 14 2 15 3 11 5 12 6 9 7 10 8 8 9 2 12 1 13 3 14 4 15
REMARK SMILES IDX 5 16 6 17 7 18 16 20 17 21 18 22 19 23 20 24 21 26 22 27
REMARK SMILES IDX 23 28 84 29 24 30 83 31 25 32 26 33 27 34 77 35 28 36 82 37
REMARK SMILES IDX 76 38 78 39 29 40 81 41 75 42 74 43 30 45 62 46 42 47 61 48
REMARK SMILES IDX 43 49 46 50 60 51 79 52 44 53 45 54 59 56 80 57 47 58 31 59
REMARK SMILES IDX 32 60 40 61 33 62 35 63 41 64 34 65 36 66 37 67 38 68 39 69
REMARK SMILES IDX 63 70 64 71 72 72 65 73 67 74 73 75 66 76 68 77 69 78 70 79
REMARK SMILES IDX 71 80 48 81 49 82 57 83 50 84 52 85 58 86 51 87 53 88 54 89
REMARK SMILES IDX 55 90 56 91
REMARK H PARENT 15 4 8 10 8 11 5 19 19 25 78 44 46 55
REMARK Flexibility Score: inf
ROOT
ATOM      1  C   UNL     1      -3.777  -2.036   3.505  1.00  0.00     0.228 C 
ATOM      2  O   UNL     1      -4.798  -1.654   4.088  1.00  0.00    -0.275 OA
ATOM      3  N   UNL     1      -3.238  -3.200   3.949  1.00  0.00    -0.356 N 
ATOM      4  H   UNL     1      -3.630  -3.527   4.790  1.00  0.00     0.163 HD
ENDROOT
BRANCH   1   5
ATOM      5  C   UNL     1      -3.232  -1.268   2.304  1.00  0.00     0.133 C 
ATOM      6  C   UNL     1      -3.582  -2.064   1.037  1.00  0.00     0.024 C 
BRANCH   5   7
ATOM      7  C   UNL     1      -1.749  -0.833   2.460  1.00  0.00     0.191 C 
ATOM      8  C   UNL     1      -1.069  -0.591   1.099  1.00  0.00     0.076 C 
BRANCH   7   9
ATOM      9  N   UNL     1      -1.426   0.402   3.197  1.00  0.00    -0.341 N 
ATOM     10  H   UNL     1      -0.441   0.329   3.453  1.00  0.00     0.346 HD
ATOM     11  H   UNL     1      -1.724   1.120   2.536  1.00  0.00     0.346 HD
BRANCH   9  12
ATOM     12  C   UNL     1      -2.131   0.807   4.412  1.00  0.00     0.185 C 
ATOM     13  C   UNL     1      -3.547   1.343   4.189  1.00  0.00     0.075 C 
BRANCH  12  14
ATOM     14  C   UNL     1      -1.280   1.873   5.155  1.00  0.00     0.126 C 
BRANCH  14  15
ATOM     15  C   UNL     1      -0.607   3.015   4.354  1.00  0.00     0.268 C 
BRANCH  15  16
ATOM     16  N   UNL     1      -1.458   4.076   3.773  1.00  0.00    -0.340 N 
ATOM     17  C   UNL     1      -0.652   5.284   3.562  1.00  0.00     0.332 C 
ATOM     18  C   UNL     1      -2.048   3.677   2.490  1.00  0.00     0.332 C 
ATOM     19  H   UNL     1      -2.218   4.250   4.430  1.00  0.00     0.347 HD
ENDBRANCH  15  16
ENDBRANCH  14  15
ENDBRANCH  12  14
ENDBRANCH   9  12
ENDBRANCH   7   9
ENDBRANCH   5   7
ENDBRANCH   1   5
BRANCH   3  20
ATOM     20  C   UNL     1      -2.191  -4.052   3.416  1.00  0.00     0.117 C 
BRANCH  20  21
ATOM     21  C   UNL     1      -1.005  -4.194   4.360  1.00  0.00     0.042 C 
BRANCH  21  22
ATOM     22  C   UNL     1      -1.361  -4.704   5.751  1.00  0.00     0.118 C 
BRANCH  22  23
ATOM     23  N   UNL     1      -2.041  -5.993   5.724  1.00  0.00    -0.352 N 
ATOM     24  C   UNL     1      -1.614  -7.235   6.126  1.00  0.00     0.251 C 
ATOM     25  H   UNL     1      -2.955  -5.969   5.359  1.00  0.00     0.163 HD
ATOM     26  O   UNL     1      -2.272  -8.226   5.822  1.00  0.00    -0.269 OA
BRANCH  24  27
ATOM     27  C   UNL     1      -0.366  -7.386   6.904  1.00  0.00     0.039 A 
ATOM     28  C   UNL     1       0.495  -8.446   6.605  1.00  0.00     0.014 A 
ATOM     29  C   UNL     1      -0.053  -6.505   7.941  1.00  0.00     0.014 A 
ATOM     30  C   UNL     1       1.700  -8.579   7.302  1.00  0.00     0.010 A 
ATOM     31  C   UNL     1       1.185  -6.583   8.568  1.00  0.00     0.010 A 
ATOM     32  C   UNL     1       2.071  -7.627   8.264  1.00  0.00    -0.014 A 
BRANCH  32  33
ATOM     33  C   UNL     1       3.378  -7.699   8.966  1.00  0.00     0.031 A 
ATOM     34  C   UNL     1       3.426  -7.848  10.464  1.00  0.00     0.074 A 
ATOM     35  C   UNL     1       4.518  -7.528   8.268  1.00  0.00     0.049 A 
ATOM     36  N   UNL     1       4.464  -7.850  11.259  1.00  0.00    -0.248 NA
ATOM     37  C   UNL     1       2.137  -7.979  11.164  1.00  0.00     0.031 C 
ATOM     38  C   UNL     1       4.599  -7.288   6.825  1.00  0.00     0.029 A 
ATOM     39  N   UNL     1       5.827  -7.499   8.682  1.00  0.00    -0.354 N 
ATOM     40  C   UNL     1       3.954  -7.938  12.549  1.00  0.00     0.074 A 
ATOM     41  C   UNL     1       2.513  -7.951  12.434  1.00  0.00     0.031 C 
ATOM     42  C   UNL     1       5.886  -7.140   6.474  1.00  0.00     0.029 A 
ATOM     43  C   UNL     1       6.721  -7.244   7.667  1.00  0.00     0.049 A 
ATOM     44  H   UNL     1       6.100  -7.646   9.616  1.00  0.00     0.167 HD
ATOM     45  C   UNL     1       4.623  -8.032  13.723  1.00  0.00     0.034 A 
ATOM     46  C   UNL     1       8.060  -7.103   7.696  1.00  0.00     0.034 A 
ATOM     47  C   UNL     1       6.056  -8.074  13.828  1.00  0.00     0.049 A 
ATOM     48  C   UNL     1       8.784  -7.268   9.005  1.00  0.00     0.074 A 
ATOM     49  C   UNL     1       6.831  -8.268  14.958  1.00  0.00     0.029 A 
ATOM     50  N   UNL     1       6.932  -7.914  12.766  1.00  0.00    -0.354 N 
ATOM     51  N   UNL     1       8.290  -7.516  10.194  1.00  0.00    -0.248 NA
ATOM     52  C   UNL     1      10.250  -7.171   8.971  1.00  0.00     0.031 C 
ATOM     53  C   UNL     1       8.176  -8.204  14.581  1.00  0.00     0.029 A 
ATOM     54  C   UNL     1       8.239  -7.996  13.212  1.00  0.00     0.049 A 
ATOM     55  H   UNL     1       6.663  -7.764  11.830  1.00  0.00     0.167 HD
ATOM     56  C   UNL     1       9.384  -7.641  11.042  1.00  0.00     0.074 A 
ATOM     57  C   UNL     1      10.567  -7.461  10.226  1.00  0.00     0.031 C 
ATOM     58  C   UNL     1       9.407  -7.868  12.379  1.00  0.00     0.034 A 
BRANCH  45  59
ATOM     59  C   UNL     1       3.809  -8.156  14.985  1.00  0.00     0.023 A 
ATOM     60  C   UNL     1       3.101  -9.348  15.243  1.00  0.00     0.012 A 
ATOM     61  C   UNL     1       3.784  -7.119  15.939  1.00  0.00     0.148 A 
ATOM     62  C   UNL     1       2.351  -9.493  16.409  1.00  0.00     0.002 A 
ATOM     63  C   UNL     1       3.070  -7.289  17.121  1.00  0.00     0.091 A 
ATOM     64  F   UNL     1       4.444  -5.984  15.669  1.00  0.00    -0.205 F 
ATOM     65  C   UNL     1       2.344  -8.469  17.351  1.00  0.00     0.022 A 
BRANCH  63  66
ATOM     66  S   UNL     1       3.064  -6.063  18.433  1.00  0.00     0.127 S 
ATOM     67  O   UNL     1       1.707  -5.530  18.332  1.00  0.00    -0.237 OA
ATOM     68  O   UNL     1       3.311  -6.881  19.621  1.00  0.00    -0.237 OA
ATOM     69  O   UNL     1       4.131  -5.125  18.110  1.00  0.00    -0.744 OA
ENDBRANCH  63  66
ENDBRANCH  45  59
BRANCH  46  70
ATOM     70  C   UNL     1       8.809  -6.864   6.429  1.00  0.00     0.023 A 
ATOM     71  C   UNL     1       9.614  -7.890   5.899  1.00  0.00     0.012 A 
ATOM     72  C   UNL     1       8.700  -5.646   5.729  1.00  0.00     0.148 A 
ATOM     73  C   UNL     1      10.322  -7.699   4.712  1.00  0.00     0.002 A 
ATOM     74  C   UNL     1       9.363  -5.482   4.519  1.00  0.00     0.091 A 
ATOM     75  F   UNL     1       7.936  -4.678   6.255  1.00  0.00    -0.205 F 
ATOM     76  C   UNL     1      10.188  -6.500   4.017  1.00  0.00     0.022 A 
BRANCH  74  77
ATOM     77  S   UNL     1       9.142  -4.027   3.489  1.00  0.00     0.127 S 
ATOM     78  O   UNL     1      10.435  -3.363   3.627  1.00  0.00    -0.237 OA
ATOM     79  O   UNL     1       8.889  -4.621   2.176  1.00  0.00    -0.237 OA
ATOM     80  O   UNL     1       8.001  -3.316   4.053  1.00  0.00    -0.744 OA
ENDBRANCH  74  77
ENDBRANCH  46  70
BRANCH  58  81
ATOM     81  C   UNL     1      10.753  -7.972  13.047  1.00  0.00     0.023 A 
ATOM     82  C   UNL     1      11.531  -6.814  13.239  1.00  0.00     0.012 A 
ATOM     83  C   UNL     1      11.209  -9.205  13.554  1.00  0.00     0.148 A 
ATOM     84  C   UNL     1      12.758  -6.886  13.897  1.00  0.00     0.002 A 
ATOM     85  C   UNL     1      12.409  -9.261  14.252  1.00  0.00     0.091 A 
ATOM     86  F   UNL     1      10.462 -10.299  13.344  1.00  0.00    -0.205 F 
ATOM     87  C   UNL     1      13.190  -8.105  14.415  1.00  0.00     0.022 A 
BRANCH  85  88
ATOM     88  S   UNL     1      12.996 -10.766  15.037  1.00  0.00     0.127 S 
ATOM     89  O   UNL     1      14.100 -11.149  14.158  1.00  0.00    -0.237 OA
ATOM     90  O   UNL     1      13.405 -10.290  16.358  1.00  0.00    -0.237 OA
ATOM     91  O   UNL     1      11.861 -11.680  15.049  1.00  0.00    -0.744 OA
ENDBRANCH  85  88
ENDBRANCH  58  81
ENDBRANCH  32  33
ENDBRANCH  24  27
ENDBRANCH  22  23
ENDBRANCH  21  22
ENDBRANCH  20  21
ENDBRANCH   3  20
TORSDOF 19
