REMARK SMILES CC(C)C[N@@H+](Cc1ccc(C(=O)NCCCNC(=O)c2ccc(-c3c4nc(c(-c5cccc(S(=O)(=O)[O-])c5F)c5ccc([nH]5)c(-c5cccc(S(=O)(=O)[O-])c5F)c5nc(c(-c6cccc(S(=O)(=O)[O-])c6F)c6ccc3[nH]6)C=C5)C=C4)cc2)cn1)C1CC1
REMARK SMILES IDX 14 1 13 2 11 3 12 4 10 6 7 7 8 8 84 9 9 10 83 11 6 12 5 13
REMARK SMILES IDX 4 15 2 16 1 17 3 18 85 19 86 20 87 21 15 22 16 23 17 24
REMARK SMILES IDX 18 25 19 27 20 28 21 29 82 30 22 31 81 32 23 33 24 34 25 35
REMARK SMILES IDX 75 36 26 37 80 38 74 39 76 40 27 41 79 42 73 43 72 44 28 46
REMARK SMILES IDX 60 47 40 48 59 49 41 50 44 51 58 52 77 53 42 54 43 55 57 57
REMARK SMILES IDX 78 58 45 59 29 60 30 61 38 62 31 63 33 64 39 65 32 66 34 67
REMARK SMILES IDX 35 68 36 69 37 70 61 71 62 72 70 73 63 74 65 75 71 76 64 77
REMARK SMILES IDX 66 78 67 79 68 80 69 81 46 82 47 83 55 84 48 85 50 86 56 87
REMARK SMILES IDX 49 88 51 89 52 90 53 91 54 92
REMARK H PARENT 13 5 5 14 17 26 76 45 44 56
REMARK Flexibility Score: inf
ROOT
ATOM      1  C   UNL     1      -5.574   2.769  -3.782  1.00  0.00     0.118 C 
ENDROOT
BRANCH   1   2
ATOM      2  N   UNL     1      -5.127   3.733  -2.796  1.00  0.00    -0.352 N 
ATOM      3  C   UNL     1      -4.728   3.614  -1.492  1.00  0.00     0.252 C 
ATOM      4  O   UNL     1      -4.421   4.652  -0.905  1.00  0.00    -0.269 OA
ATOM      5  H   UNL     1      -5.106   4.659  -3.131  1.00  0.00     0.163 HD
BRANCH   3   6
ATOM      6  C   UNL     1      -4.554   2.316  -0.796  1.00  0.00     0.058 A 
ATOM      7  C   UNL     1      -3.678   0.001   0.445  1.00  0.00     0.095 A 
ATOM      8  C   UNL     1      -4.687  -0.080  -0.508  1.00  0.00     0.030 A 
ATOM      9  N   UNL     1      -3.252   1.199   0.914  1.00  0.00    -0.255 NA
ATOM     10  C   UNL     1      -5.136   1.094  -1.122  1.00  0.00     0.017 A 
ATOM     11  C   UNL     1      -3.674   2.315   0.276  1.00  0.00     0.125 A 
BRANCH   7  12
ATOM     12  C   UNL     1      -2.940  -1.246   0.920  1.00  0.00     0.319 C 
BRANCH  12  13
ATOM     13  N   UNL     1      -1.479  -1.306   0.624  1.00  0.00    -0.327 N 
ATOM     14  H   UNL     1      -1.171  -2.169   1.072  1.00  0.00     0.348 HD
BRANCH  13  15
ATOM     15  C   UNL     1      -0.759  -0.183   1.261  1.00  0.00     0.265 C 
BRANCH  15  16
ATOM     16  C   UNL     1       0.777  -0.280   1.421  1.00  0.00     0.038 C 
ATOM     17  C   UNL     1       1.541   0.007   0.124  1.00  0.00     0.013 C 
ATOM     18  C   UNL     1       1.216   0.756   2.470  1.00  0.00     0.013 C 
ENDBRANCH  15  16
ENDBRANCH  13  15
BRANCH  13  19
ATOM     19  C   UNL     1      -1.065  -1.612  -0.756  1.00  0.00     0.184 C 
ATOM     20  C   UNL     1      -1.978  -1.913  -1.911  1.00  0.00     0.071 C 
ATOM     21  C   UNL     1      -1.242  -0.608  -1.866  1.00  0.00     0.071 C 
ENDBRANCH  13  19
ENDBRANCH  12  13
ENDBRANCH   7  12
ENDBRANCH   3   6
ENDBRANCH   1   2
BRANCH   1  22
ATOM     22  C   UNL     1      -7.093   2.624  -3.748  1.00  0.00     0.042 C 
BRANCH  22  23
ATOM     23  C   UNL     1      -7.823   3.862  -4.264  1.00  0.00     0.118 C 
BRANCH  23  24
ATOM     24  N   UNL     1      -7.623   4.052  -5.694  1.00  0.00    -0.352 N 
ATOM     25  C   UNL     1      -8.542   4.074  -6.713  1.00  0.00     0.251 C 
ATOM     26  H   UNL     1      -6.688   4.183  -5.971  1.00  0.00     0.163 HD
ATOM     27  O   UNL     1      -8.152   4.001  -7.875  1.00  0.00    -0.269 OA
BRANCH  25  28
ATOM     28  C   UNL     1      -9.988   4.184  -6.420  1.00  0.00     0.039 A 
ATOM     29  C   UNL     1     -10.889   3.432  -7.179  1.00  0.00     0.014 A 
ATOM     30  C   UNL     1     -10.460   5.057  -5.436  1.00  0.00     0.014 A 
ATOM     31  C   UNL     1     -12.259   3.521  -6.919  1.00  0.00     0.010 A 
ATOM     32  C   UNL     1     -11.818   5.089  -5.129  1.00  0.00     0.010 A 
ATOM     33  C   UNL     1     -12.733   4.333  -5.876  1.00  0.00    -0.014 A 
BRANCH  33  34
ATOM     34  C   UNL     1     -14.179   4.403  -5.547  1.00  0.00     0.031 A 
ATOM     35  C   UNL     1     -14.926   5.703  -5.684  1.00  0.00     0.074 A 
ATOM     36  C   UNL     1     -14.796   3.319  -5.037  1.00  0.00     0.049 A 
ATOM     37  N   UNL     1     -16.168   5.976  -5.380  1.00  0.00    -0.248 NA
ATOM     38  C   UNL     1     -14.170   6.855  -6.204  1.00  0.00     0.031 C 
ATOM     39  C   UNL     1     -14.158   2.026  -4.782  1.00  0.00     0.029 A 
ATOM     40  N   UNL     1     -16.089   3.140  -4.614  1.00  0.00    -0.354 N 
ATOM     41  C   UNL     1     -16.333   7.332  -5.633  1.00  0.00     0.074 A 
ATOM     42  C   UNL     1     -15.055   7.835  -6.087  1.00  0.00     0.031 C 
ATOM     43  C   UNL     1     -15.060   1.188  -4.246  1.00  0.00     0.029 A 
ATOM     44  C   UNL     1     -16.331   1.890  -4.093  1.00  0.00     0.049 A 
ATOM     45  H   UNL     1     -16.779   3.840  -4.677  1.00  0.00     0.167 HD
ATOM     46  C   UNL     1     -17.453   8.086  -5.528  1.00  0.00     0.034 A 
ATOM     47  C   UNL     1     -17.448   1.370  -3.547  1.00  0.00     0.034 A 
ATOM     48  C   UNL     1     -18.734   7.570  -5.124  1.00  0.00     0.049 A 
ATOM     49  C   UNL     1     -18.692   2.213  -3.490  1.00  0.00     0.074 A 
ATOM     50  C   UNL     1     -19.950   8.228  -5.072  1.00  0.00     0.029 A 
ATOM     51  N   UNL     1     -18.964   6.271  -4.698  1.00  0.00    -0.354 N 
ATOM     52  N   UNL     1     -18.869   3.450  -3.887  1.00  0.00    -0.248 NA
ATOM     53  C   UNL     1     -19.901   1.579  -2.946  1.00  0.00     0.031 C 
ATOM     54  C   UNL     1     -20.912   7.330  -4.598  1.00  0.00     0.029 A 
ATOM     55  C   UNL     1     -20.300   6.107  -4.376  1.00  0.00     0.049 A 
ATOM     56  H   UNL     1     -18.277   5.568  -4.633  1.00  0.00     0.167 HD
ATOM     57  C   UNL     1     -20.213   3.731  -3.674  1.00  0.00     0.074 A 
ATOM     58  C   UNL     1     -20.810   2.527  -3.134  1.00  0.00     0.031 C 
ATOM     59  C   UNL     1     -20.890   4.886  -3.892  1.00  0.00     0.034 A 
BRANCH  46  60
ATOM     60  C   UNL     1     -17.359   9.540  -5.912  1.00  0.00     0.023 A 
ATOM     61  C   UNL     1     -17.213   9.890  -7.270  1.00  0.00     0.012 A 
ATOM     62  C   UNL     1     -17.473  10.559  -4.946  1.00  0.00     0.148 A 
ATOM     63  C   UNL     1     -17.145  11.228  -7.658  1.00  0.00     0.002 A 
ATOM     64  C   UNL     1     -17.448  11.891  -5.345  1.00  0.00     0.091 A 
ATOM     65  F   UNL     1     -17.591  10.209  -3.657  1.00  0.00    -0.205 F 
ATOM     66  C   UNL     1     -17.273  12.227  -6.697  1.00  0.00     0.022 A 
BRANCH  64  67
ATOM     67  S   UNL     1     -17.683  13.252  -4.195  1.00  0.00     0.127 S 
ATOM     68  O   UNL     1     -16.337  13.818  -4.129  1.00  0.00    -0.237 OA
ATOM     69  O   UNL     1     -18.661  14.084  -4.897  1.00  0.00    -0.237 OA
ATOM     70  O   UNL     1     -18.172  12.654  -2.960  1.00  0.00    -0.744 OA
ENDBRANCH  64  67
ENDBRANCH  46  60
BRANCH  47  71
ATOM     71  C   UNL     1     -17.455  -0.045  -3.080  1.00  0.00     0.023 A 
ATOM     72  C   UNL     1     -18.186  -1.006  -3.805  1.00  0.00     0.012 A 
ATOM     73  C   UNL     1     -16.717  -0.452  -1.952  1.00  0.00     0.148 A 
ATOM     74  C   UNL     1     -18.207  -2.341  -3.397  1.00  0.00     0.002 A 
ATOM     75  C   UNL     1     -16.697  -1.792  -1.584  1.00  0.00     0.091 A 
ATOM     76  F   UNL     1     -16.036   0.480  -1.268  1.00  0.00    -0.205 F 
ATOM     77  C   UNL     1     -17.455  -2.735  -2.295  1.00  0.00     0.022 A 
BRANCH  75  78
ATOM     78  S   UNL     1     -15.647  -2.411  -0.264  1.00  0.00     0.127 S 
ATOM     79  O   UNL     1     -16.622  -2.706   0.781  1.00  0.00    -0.237 OA
ATOM     80  O   UNL     1     -15.036  -3.585  -0.888  1.00  0.00    -0.237 OA
ATOM     81  O   UNL     1     -14.709  -1.334   0.027  1.00  0.00    -0.744 OA
ENDBRANCH  75  78
ENDBRANCH  47  71
BRANCH  59  82
ATOM     82  C   UNL     1     -22.363   4.901  -3.579  1.00  0.00     0.023 A 
ATOM     83  C   UNL     1     -22.793   4.915  -2.237  1.00  0.00     0.012 A 
ATOM     84  C   UNL     1     -23.317   4.980  -4.613  1.00  0.00     0.148 A 
ATOM     85  C   UNL     1     -24.152   4.976  -1.930  1.00  0.00     0.002 A 
ATOM     86  C   UNL     1     -24.666   5.089  -4.299  1.00  0.00     0.091 A 
ATOM     87  F   UNL     1     -22.888   4.945  -5.883  1.00  0.00    -0.205 F 
ATOM     88  C   UNL     1     -25.086   5.076  -2.959  1.00  0.00     0.022 A 
BRANCH  86  89
ATOM     89  S   UNL     1     -25.930   5.317  -5.555  1.00  0.00     0.127 S 
ATOM     90  O   UNL     1     -26.571   4.004  -5.574  1.00  0.00    -0.237 OA
ATOM     91  O   UNL     1     -26.747   6.388  -4.982  1.00  0.00    -0.237 OA
ATOM     92  O   UNL     1     -25.221   5.686  -6.773  1.00  0.00    -0.744 OA
ENDBRANCH  86  89
ENDBRANCH  59  82
ENDBRANCH  33  34
ENDBRANCH  25  28
ENDBRANCH  23  24
ENDBRANCH  22  23
ENDBRANCH   1  22
TORSDOF 18
