REMARK SMILES COc1ncccc1C(=O)N[C@@](C)(C(=O)NCCCNC(=O)c1ccc(-c2c3nc(c(-c4cccc(S(=O)(=O)[O-])c4F)c4ccc([nH]4)c(-c4cccc(S(=O)(=O)[O-])c4F)c4nc(c(-c5cccc(S(=O)(=O)[O-])c5F)c5ccc2[nH]5)C=C4)C=C3)cc1)C(F)(F)F
REMARK SMILES IDX 18 1 17 2 16 3 14 4 15 5 12 7 13 8 11 9 9 10 10 11 8 13 3 14
REMARK SMILES IDX 4 15 5 16 7 17 6 18 2 19 1 20 86 21 87 22 88 23 89 24 19 25
REMARK SMILES IDX 20 26 21 27 22 29 23 30 24 31 85 32 25 33 84 34 26 35 27 36
REMARK SMILES IDX 28 37 78 38 29 39 83 40 77 41 79 42 30 43 82 44 76 45 75 46
REMARK SMILES IDX 31 48 63 49 43 50 62 51 44 52 47 53 61 54 80 55 45 56 46 57
REMARK SMILES IDX 60 59 81 60 48 61 32 62 33 63 41 64 34 65 36 66 42 67 35 68
REMARK SMILES IDX 37 69 38 70 39 71 40 72 64 73 65 74 73 75 66 76 68 77 74 78
REMARK SMILES IDX 67 79 69 80 70 81 71 82 72 83 49 84 50 85 58 86 51 87 53 88
REMARK SMILES IDX 59 89 52 90 54 91 55 92 56 93 57 94
REMARK H PARENT 16 6 11 12 20 28 79 47 47 58
REMARK Flexibility Score: inf
ROOT
ATOM      1  C   UNL     1       7.724  -0.078   0.539  1.00  0.00     0.042 C 
ENDROOT
BRANCH   1   2
ATOM      2  C   UNL     1       7.494  -1.159  -0.505  1.00  0.00     0.117 C 
BRANCH   2   3
ATOM      3  N   UNL     1       7.379  -2.486   0.078  1.00  0.00    -0.354 N 
ATOM      4  C   UNL     1       6.520  -3.529  -0.081  1.00  0.00     0.254 C 
ATOM      5  O   UNL     1       6.776  -4.506   0.631  1.00  0.00    -0.272 OA
ATOM      6  H   UNL     1       8.084  -2.672   0.740  1.00  0.00     0.163 HD
BRANCH   4   7
ATOM      7  C   UNL     1       5.265  -3.474  -0.988  1.00  0.00     0.212 C 
ATOM      8  C   UNL     1       5.594  -3.020  -2.423  1.00  0.00     0.056 C 
BRANCH   7   9
ATOM      9  N   UNL     1       4.400  -2.451  -0.295  1.00  0.00    -0.330 N 
ATOM     10  C   UNL     1       3.194  -2.162   0.273  1.00  0.00     0.257 C 
ATOM     11  O   UNL     1       3.255  -1.101   0.903  1.00  0.00    -0.269 OA
ATOM     12  H   UNL     1       4.944  -1.634  -0.220  1.00  0.00     0.165 HD
BRANCH  10  13
ATOM     13  C   UNL     1       1.888  -2.877   0.208  1.00  0.00     0.101 A 
ATOM     14  C   UNL     1       0.698  -2.202   0.535  1.00  0.00     0.226 A 
ATOM     15  N   UNL     1      -0.544  -2.763   0.528  1.00  0.00    -0.221 NA
ATOM     16  C   UNL     1      -0.637  -4.059   0.198  1.00  0.00     0.115 A 
ATOM     17  C   UNL     1       1.720  -4.217  -0.119  1.00  0.00     0.021 A 
ATOM     18  C   UNL     1       0.460  -4.822  -0.134  1.00  0.00     0.021 A 
BRANCH  14  19
ATOM     19  O   UNL     1       0.683  -0.913   0.992  1.00  0.00    -0.480 OA
ATOM     20  C   UNL     1       0.489  -0.011  -0.091  1.00  0.00     0.280 C 
ENDBRANCH  14  19
ENDBRANCH  10  13
ENDBRANCH   7   9
BRANCH   7  21
ATOM     21  C   UNL     1       4.836  -4.946  -1.103  1.00  0.00     0.420 C 
ATOM     22  F   UNL     1       4.436  -5.499   0.060  1.00  0.00    -0.168 F 
ATOM     23  F   UNL     1       3.809  -5.068  -1.988  1.00  0.00    -0.168 F 
ATOM     24  F   UNL     1       5.827  -5.726  -1.606  1.00  0.00    -0.168 F 
ENDBRANCH   7  21
ENDBRANCH   4   7
ENDBRANCH   2   3
ENDBRANCH   1   2
BRANCH   1  25
ATOM     25  C   UNL     1       8.897  -0.325   1.475  1.00  0.00     0.118 C 
BRANCH  25  26
ATOM     26  N   UNL     1      10.166  -0.486   0.778  1.00  0.00    -0.352 N 
ATOM     27  C   UNL     1      11.321   0.258   0.881  1.00  0.00     0.251 C 
ATOM     28  H   UNL     1      10.204  -1.236   0.141  1.00  0.00     0.163 HD
ATOM     29  O   UNL     1      12.239   0.071   0.095  1.00  0.00    -0.269 OA
BRANCH  27  30
ATOM     30  C   UNL     1      11.427   1.297   1.929  1.00  0.00     0.039 A 
ATOM     31  C   UNL     1      11.940   2.551   1.595  1.00  0.00     0.014 A 
ATOM     32  C   UNL     1      10.989   1.039   3.229  1.00  0.00     0.014 A 
ATOM     33  C   UNL     1      11.943   3.569   2.551  1.00  0.00     0.010 A 
ATOM     34  C   UNL     1      10.888   2.082   4.141  1.00  0.00     0.010 A 
ATOM     35  C   UNL     1      11.380   3.354   3.820  1.00  0.00    -0.014 A 
BRANCH  35  36
ATOM     36  C   UNL     1      11.303   4.440   4.830  1.00  0.00     0.031 A 
ATOM     37  C   UNL     1      11.992   4.283   6.160  1.00  0.00     0.074 A 
ATOM     38  C   UNL     1      10.549   5.530   4.585  1.00  0.00     0.049 A 
ATOM     39  N   UNL     1      12.014   5.102   7.180  1.00  0.00    -0.248 NA
ATOM     40  C   UNL     1      12.725   3.026   6.388  1.00  0.00     0.031 C 
ATOM     41  C   UNL     1       9.764   5.761   3.370  1.00  0.00     0.029 A 
ATOM     42  N   UNL     1      10.305   6.641   5.351  1.00  0.00    -0.354 N 
ATOM     43  C   UNL     1      12.727   4.447   8.176  1.00  0.00     0.074 A 
ATOM     44  C   UNL     1      13.072   3.141   7.661  1.00  0.00     0.031 C 
ATOM     45  C   UNL     1       9.150   6.951   3.462  1.00  0.00     0.029 A 
ATOM     46  C   UNL     1       9.467   7.553   4.753  1.00  0.00     0.049 A 
ATOM     47  H   UNL     1      10.694   6.774   6.246  1.00  0.00     0.167 HD
ATOM     48  C   UNL     1      13.099   4.901   9.397  1.00  0.00     0.034 A 
ATOM     49  C   UNL     1       9.010   8.741   5.193  1.00  0.00     0.034 A 
ATOM     50  C   UNL     1      12.784   6.213   9.890  1.00  0.00     0.049 A 
ATOM     51  C   UNL     1       9.455   9.237   6.542  1.00  0.00     0.074 A 
ATOM     52  C   UNL     1      13.180   6.806  11.075  1.00  0.00     0.029 A 
ATOM     53  N   UNL     1      11.986   7.134   9.228  1.00  0.00    -0.354 N 
ATOM     54  N   UNL     1      10.261   8.669   7.406  1.00  0.00    -0.248 NA
ATOM     55  C   UNL     1       8.957  10.555   6.961  1.00  0.00     0.031 C 
ATOM     56  C   UNL     1      12.595   8.075  11.144  1.00  0.00     0.029 A 
ATOM     57  C   UNL     1      11.866   8.287   9.984  1.00  0.00     0.049 A 
ATOM     58  H   UNL     1      11.567   6.989   8.349  1.00  0.00     0.167 HD
ATOM     59  C   UNL     1      10.399   9.575   8.452  1.00  0.00     0.074 A 
ATOM     60  C   UNL     1       9.605  10.736   8.103  1.00  0.00     0.031 C 
ATOM     61  C   UNL     1      11.109   9.453   9.601  1.00  0.00     0.034 A 
BRANCH  48  62
ATOM     62  C   UNL     1      13.931   3.980  10.255  1.00  0.00     0.023 A 
ATOM     63  C   UNL     1      15.250   3.664   9.864  1.00  0.00     0.012 A 
ATOM     64  C   UNL     1      13.422   3.442  11.453  1.00  0.00     0.148 A 
ATOM     65  C   UNL     1      16.027   2.786  10.619  1.00  0.00     0.002 A 
ATOM     66  C   UNL     1      14.221   2.609  12.228  1.00  0.00     0.091 A 
ATOM     67  F   UNL     1      12.161   3.735  11.802  1.00  0.00    -0.205 F 
ATOM     68  C   UNL     1      15.516   2.267  11.804  1.00  0.00     0.022 A 
BRANCH  66  69
ATOM     69  S   UNL     1      13.687   1.956  13.813  1.00  0.00     0.127 S 
ATOM     70  O   UNL     1      13.463   0.548  13.492  1.00  0.00    -0.237 OA
ATOM     71  O   UNL     1      14.854   2.210  14.659  1.00  0.00    -0.237 OA
ATOM     72  O   UNL     1      12.498   2.714  14.178  1.00  0.00    -0.744 OA
ENDBRANCH  66  69
ENDBRANCH  48  62
BRANCH  49  73
ATOM     73  C   UNL     1       8.152   9.582   4.310  1.00  0.00     0.023 A 
ATOM     74  C   UNL     1       8.685  10.765   3.760  1.00  0.00     0.012 A 
ATOM     75  C   UNL     1       6.836   9.204   3.981  1.00  0.00     0.148 A 
ATOM     76  C   UNL     1       7.915  11.572   2.923  1.00  0.00     0.002 A 
ATOM     77  C   UNL     1       6.092   9.985   3.103  1.00  0.00     0.091 A 
ATOM     78  F   UNL     1       6.347   8.078   4.518  1.00  0.00    -0.205 F 
ATOM     79  C   UNL     1       6.623  11.177   2.587  1.00  0.00     0.022 A 
BRANCH  77  80
ATOM     80  S   UNL     1       4.468   9.496   2.510  1.00  0.00     0.127 S 
ATOM     81  O   UNL     1       3.615  10.529   3.091  1.00  0.00    -0.237 OA
ATOM     82  O   UNL     1       4.642   9.583   1.060  1.00  0.00    -0.237 OA
ATOM     83  O   UNL     1       4.254   8.146   3.012  1.00  0.00    -0.744 OA
ENDBRANCH  77  80
ENDBRANCH  49  73
BRANCH  61  84
ATOM     84  C   UNL     1      11.101  10.620  10.554  1.00  0.00     0.023 A 
ATOM     85  C   UNL     1       9.940  10.920  11.293  1.00  0.00     0.012 A 
ATOM     86  C   UNL     1      12.273  11.373  10.771  1.00  0.00     0.148 A 
ATOM     87  C   UNL     1       9.934  11.973  12.207  1.00  0.00     0.002 A 
ATOM     88  C   UNL     1      12.275  12.386  11.722  1.00  0.00     0.091 A 
ATOM     89  F   UNL     1      13.362  11.084  10.045  1.00  0.00    -0.205 F 
ATOM     90  C   UNL     1      11.103  12.696  12.431  1.00  0.00     0.022 A 
BRANCH  88  91
ATOM     91  S   UNL     1      13.759  13.303  12.149  1.00  0.00     0.127 S 
ATOM     92  O   UNL     1      13.467  14.621  11.586  1.00  0.00    -0.237 OA
ATOM     93  O   UNL     1      13.746  13.248  13.611  1.00  0.00    -0.237 OA
ATOM     94  O   UNL     1      14.867  12.591  11.526  1.00  0.00    -0.744 OA
ENDBRANCH  88  91
ENDBRANCH  61  84
ENDBRANCH  35  36
ENDBRANCH  27  30
ENDBRANCH  25  26
ENDBRANCH   1  25
TORSDOF 17
