REMARK SMILES CSc1nc2nnc(C(=O)NCCCNC(=O)c3ccc(-c4c5nc(c(-c6cccc(S(=O)(=O)[O-])c6F)c6ccc([nH]6)c(-c6cccc(S(=O)(=O)[O-])c6F)c6nc(c(-c7cccc(S(=O)(=O)[O-])c7F)c7ccc4[nH]7)C=C6)C=C5)cc3)c(O)n2n1
REMARK SMILES IDX 14 1 13 2 12 3 11 4 9 5 10 6 8 8 3 9 4 10 84 11 5 12 83 13
REMARK SMILES IDX 6 14 81 15 7 16 2 17 1 18 82 19 15 21 16 22 17 24 18 25
REMARK SMILES IDX 19 26 80 27 20 28 79 29 21 30 22 31 23 32 73 33 24 34 78 35
REMARK SMILES IDX 72 36 74 37 25 38 77 39 71 40 70 41 26 43 58 44 38 45 57 46
REMARK SMILES IDX 39 47 42 48 56 49 75 50 40 51 41 52 55 54 76 55 43 56 27 57
REMARK SMILES IDX 28 58 36 59 29 60 31 61 37 62 30 63 32 64 33 65 34 66 35 67
REMARK SMILES IDX 59 68 60 69 68 70 61 71 63 72 69 73 62 74 64 75 65 76 66 77
REMARK SMILES IDX 67 78 44 79 45 80 53 81 46 82 48 83 54 84 47 85 49 86 50 87
REMARK SMILES IDX 51 88 52 89
REMARK H PARENT 11 7 82 20 15 23 74 42 42 53
REMARK Flexibility Score: inf
ROOT
ATOM      1  C   UNL     1       2.268   5.448  10.374  1.00  0.00     0.118 C 
ENDROOT
BRANCH   1   2
ATOM      2  C   UNL     1       1.965   5.538   8.884  1.00  0.00     0.042 C 
BRANCH   2   3
ATOM      3  C   UNL     1       3.138   5.048   8.031  1.00  0.00     0.118 C 
BRANCH   3   4
ATOM      4  N   UNL     1       3.274   3.598   8.045  1.00  0.00    -0.350 N 
ATOM      5  C   UNL     1       2.992   2.631   7.131  1.00  0.00     0.277 C 
ATOM      6  O   UNL     1       3.315   1.473   7.412  1.00  0.00    -0.267 OA
ATOM      7  H   UNL     1       3.645   3.247   8.886  1.00  0.00     0.163 HD
BRANCH   5   8
ATOM      8  C   UNL     1       2.352   2.916   5.803  1.00  0.00     0.212 A 
ATOM      9  C   UNL     1       0.977   2.348   1.709  1.00  0.00     0.210 A 
ATOM     10  N   UNL     1       0.844   3.620   2.175  1.00  0.00    -0.182 NA
ATOM     11  N   UNL     1       1.512   1.475   2.560  1.00  0.00    -0.134 NA
ATOM     12  C   UNL     1       1.298   3.537   3.408  1.00  0.00     0.275 A 
ATOM     13  N   UNL     1       1.712   2.236   3.665  1.00  0.00    -0.159 N 
ATOM     14  N   UNL     1       1.409   4.484   4.381  1.00  0.00    -0.108 NA
ATOM     15  C   UNL     1       2.260   1.904   4.906  1.00  0.00     0.249 A 
ATOM     16  N   UNL     1       1.887   4.185   5.508  1.00  0.00    -0.136 NA
BRANCH   9  17
ATOM     17  S   UNL     1       0.480   1.909   0.095  1.00  0.00    -0.088 SA
ATOM     18  C   UNL     1       0.932   0.162   0.052  1.00  0.00     0.094 C 
ENDBRANCH   9  17
BRANCH  15  19
ATOM     19  O   UNL     1       2.678   0.597   5.113  1.00  0.00    -0.491 OA
ATOM     20  H   UNL     1       3.049   0.348   5.937  1.00  0.00     0.295 HD
ENDBRANCH  15  19
ENDBRANCH   5   8
ENDBRANCH   3   4
ENDBRANCH   2   3
ENDBRANCH   1   2
BRANCH   1  21
ATOM     21  N   UNL     1       3.302   6.396  10.797  1.00  0.00    -0.352 N 
ATOM     22  C   UNL     1       3.765   6.651  12.076  1.00  0.00     0.251 C 
ATOM     23  H   UNL     1       3.723   6.921  10.078  1.00  0.00     0.163 HD
ATOM     24  O   UNL     1       4.417   7.652  12.314  1.00  0.00    -0.269 OA
BRANCH  22  25
ATOM     25  C   UNL     1       3.443   5.689  13.148  1.00  0.00     0.039 A 
ATOM     26  C   UNL     1       3.034   6.133  14.409  1.00  0.00     0.014 A 
ATOM     27  C   UNL     1       3.518   4.330  12.860  1.00  0.00     0.014 A 
ATOM     28  C   UNL     1       2.617   5.195  15.351  1.00  0.00     0.010 A 
ATOM     29  C   UNL     1       2.972   3.422  13.732  1.00  0.00     0.010 A 
ATOM     30  C   UNL     1       2.566   3.840  14.997  1.00  0.00    -0.014 A 
BRANCH  30  31
ATOM     31  C   UNL     1       1.972   2.853  15.895  1.00  0.00     0.031 A 
ATOM     32  C   UNL     1       0.568   3.139  16.311  1.00  0.00     0.074 A 
ATOM     33  C   UNL     1       2.550   1.652  16.125  1.00  0.00     0.049 A 
ATOM     34  N   UNL     1       0.118   3.306  17.512  1.00  0.00    -0.248 NA
ATOM     35  C   UNL     1      -0.438   3.380  15.264  1.00  0.00     0.031 C 
ATOM     36  C   UNL     1       3.781   1.118  15.525  1.00  0.00     0.029 A 
ATOM     37  N   UNL     1       2.062   0.580  16.806  1.00  0.00    -0.354 N 
ATOM     38  C   UNL     1      -1.263   3.456  17.387  1.00  0.00     0.074 A 
ATOM     39  C   UNL     1      -1.520   3.674  15.988  1.00  0.00     0.031 C 
ATOM     40  C   UNL     1       3.782  -0.228  15.628  1.00  0.00     0.029 A 
ATOM     41  C   UNL     1       2.658  -0.628  16.451  1.00  0.00     0.049 A 
ATOM     42  H   UNL     1       1.354   0.651  17.487  1.00  0.00     0.167 HD
ATOM     43  C   UNL     1      -2.110   3.163  18.414  1.00  0.00     0.034 A 
ATOM     44  C   UNL     1       2.228  -1.874  16.764  1.00  0.00     0.034 A 
ATOM     45  C   UNL     1      -1.400   3.034  19.660  1.00  0.00     0.049 A 
ATOM     46  C   UNL     1       1.321  -1.742  17.926  1.00  0.00     0.074 A 
ATOM     47  C   UNL     1      -0.595   3.863  20.413  1.00  0.00     0.029 A 
ATOM     48  N   UNL     1      -1.166   1.759  20.116  1.00  0.00    -0.354 N 
ATOM     49  N   UNL     1       1.720  -1.363  19.108  1.00  0.00    -0.248 NA
ATOM     50  C   UNL     1      -0.103  -1.608  17.670  1.00  0.00     0.031 C 
ATOM     51  C   UNL     1       0.424   3.009  20.925  1.00  0.00     0.029 A 
ATOM     52  C   UNL     1       0.143   1.704  20.512  1.00  0.00     0.049 A 
ATOM     53  H   UNL     1      -1.818   1.022  20.151  1.00  0.00     0.167 HD
ATOM     54  C   UNL     1       0.708  -0.524  19.557  1.00  0.00     0.074 A 
ATOM     55  C   UNL     1      -0.433  -0.809  18.688  1.00  0.00     0.031 C 
ATOM     56  C   UNL     1       0.977   0.528  20.386  1.00  0.00     0.034 A 
BRANCH  43  57
ATOM     57  C   UNL     1      -3.526   2.654  18.270  1.00  0.00     0.023 A 
ATOM     58  C   UNL     1      -4.308   2.568  19.446  1.00  0.00     0.012 A 
ATOM     59  C   UNL     1      -4.032   2.011  17.119  1.00  0.00     0.148 A 
ATOM     60  C   UNL     1      -5.500   1.836  19.487  1.00  0.00     0.002 A 
ATOM     61  C   UNL     1      -5.259   1.356  17.142  1.00  0.00     0.091 A 
ATOM     62  F   UNL     1      -3.275   1.907  16.024  1.00  0.00    -0.205 F 
ATOM     63  C   UNL     1      -5.981   1.236  18.331  1.00  0.00     0.022 A 
BRANCH  61  64
ATOM     64  S   UNL     1      -5.958   0.616  15.661  1.00  0.00     0.127 S 
ATOM     65  O   UNL     1      -5.757  -0.807  15.920  1.00  0.00    -0.237 OA
ATOM     66  O   UNL     1      -7.348   1.069  15.728  1.00  0.00    -0.237 OA
ATOM     67  O   UNL     1      -5.202   1.180  14.551  1.00  0.00    -0.744 OA
ENDBRANCH  61  64
ENDBRANCH  43  57
BRANCH  44  68
ATOM     68  C   UNL     1       2.370  -3.141  16.012  1.00  0.00     0.023 A 
ATOM     69  C   UNL     1       2.268  -4.372  16.688  1.00  0.00     0.012 A 
ATOM     70  C   UNL     1       2.339  -3.151  14.598  1.00  0.00     0.148 A 
ATOM     71  C   UNL     1       2.112  -5.572  15.982  1.00  0.00     0.002 A 
ATOM     72  C   UNL     1       2.187  -4.346  13.901  1.00  0.00     0.091 A 
ATOM     73  F   UNL     1       2.372  -1.982  13.945  1.00  0.00    -0.205 F 
ATOM     74  C   UNL     1       2.062  -5.559  14.591  1.00  0.00     0.022 A 
BRANCH  72  75
ATOM     75  S   UNL     1       2.078  -4.408  12.106  1.00  0.00     0.127 S 
ATOM     76  O   UNL     1       3.087  -5.415  11.777  1.00  0.00    -0.237 OA
ATOM     77  O   UNL     1       0.696  -4.836  11.903  1.00  0.00    -0.237 OA
ATOM     78  O   UNL     1       2.395  -3.064  11.641  1.00  0.00    -0.744 OA
ENDBRANCH  72  75
ENDBRANCH  44  68
BRANCH  56  79
ATOM     79  C   UNL     1       2.356   0.636  20.997  1.00  0.00     0.023 A 
ATOM     80  C   UNL     1       3.516   0.794  20.209  1.00  0.00     0.012 A 
ATOM     81  C   UNL     1       2.455   0.808  22.388  1.00  0.00     0.148 A 
ATOM     82  C   UNL     1       4.746   1.106  20.796  1.00  0.00     0.002 A 
ATOM     83  C   UNL     1       3.667   1.173  22.962  1.00  0.00     0.091 A 
ATOM     84  F   UNL     1       1.344   0.657  23.125  1.00  0.00    -0.205 F 
ATOM     85  C   UNL     1       4.818   1.314  22.171  1.00  0.00     0.022 A 
BRANCH  83  86
ATOM     86  S   UNL     1       3.791   1.605  24.699  1.00  0.00     0.127 S 
ATOM     87  O   UNL     1       4.477   0.440  25.255  1.00  0.00    -0.237 OA
ATOM     88  O   UNL     1       4.593   2.829  24.663  1.00  0.00    -0.237 OA
ATOM     89  O   UNL     1       2.422   1.806  25.161  1.00  0.00    -0.744 OA
ENDBRANCH  83  86
ENDBRANCH  56  79
ENDBRANCH  30  31
ENDBRANCH  22  25
ENDBRANCH   1  21
TORSDOF 15
