REMARK SMILES COc1ccccc1S(=O)(=O)[C@@H](C)[C@H](C)C(=O)NCCCNC(=O)c1ccc(-c2c3nc(c(-c4cccc(S(=O)(=O)[O-])c4F)c4ccc([nH]4)c(-c4cccc(S(=O)(=O)[O-])c4F)c4nc(c(-c5cccc(S(=O)(=O)[O-])c5F)c5ccc2[nH]5)C=C4)C=C3)cc1
REMARK SMILES IDX 19 1 18 2 16 3 17 4 14 6 15 7 12 8 13 9 9 10 10 11 11 12
REMARK SMILES IDX 8 13 3 14 4 15 5 16 7 17 6 18 2 19 1 20 20 21 21 22 22 23
REMARK SMILES IDX 23 24 24 26 25 27 26 28 87 29 27 30 86 31 28 32 29 33 30 34
REMARK SMILES IDX 80 35 31 36 85 37 79 38 81 39 32 40 84 41 78 42 77 43 33 45
REMARK SMILES IDX 65 46 45 47 64 48 46 49 49 50 63 51 82 52 47 53 48 54 62 56
REMARK SMILES IDX 83 57 50 58 34 59 35 60 43 61 36 62 38 63 44 64 37 65 39 66
REMARK SMILES IDX 40 67 41 68 42 69 66 70 67 71 75 72 68 73 70 74 76 75 69 76
REMARK SMILES IDX 71 77 72 78 73 79 74 80 51 81 52 82 60 83 53 84 55 85 61 86
REMARK SMILES IDX 54 87 56 88 57 89 58 90 59 91
REMARK H PARENT 18 5 22 25 81 44 49 55
REMARK Flexibility Score: inf
ROOT
ATOM      1  C   UNL     1       3.391  -2.394   2.803  1.00  0.00     0.117 C 
ENDROOT
BRANCH   1   2
ATOM      2  N   UNL     1       1.995  -2.705   2.568  1.00  0.00    -0.356 N 
ATOM      3  C   UNL     1       1.236  -2.558   1.445  1.00  0.00     0.224 C 
ATOM      4  O   UNL     1       0.058  -2.911   1.492  1.00  0.00    -0.275 OA
ATOM      5  H   UNL     1       1.519  -3.083   3.343  1.00  0.00     0.163 HD
BRANCH   3   6
ATOM      6  C   UNL     1       1.836  -1.964   0.171  1.00  0.00     0.093 C 
ATOM      7  C   UNL     1       2.222  -0.509   0.469  1.00  0.00     0.019 C 
BRANCH   6   8
ATOM      8  C   UNL     1       2.853  -2.977  -0.442  1.00  0.00     0.122 C 
ATOM      9  C   UNL     1       4.361  -2.695  -0.451  1.00  0.00     0.026 C 
BRANCH   8  10
ATOM     10  S   UNL     1       2.317  -3.720  -1.980  1.00  0.00     0.185 S 
ATOM     11  O   UNL     1       0.941  -4.151  -1.801  1.00  0.00    -0.223 OA
ATOM     12  O   UNL     1       3.318  -4.716  -2.335  1.00  0.00    -0.223 OA
BRANCH  10  13
ATOM     13  C   UNL     1       2.286  -2.601  -3.355  1.00  0.00     0.109 A 
ATOM     14  C   UNL     1       2.665  -1.264  -3.322  1.00  0.00     0.137 A 
ATOM     15  C   UNL     1       2.454  -0.461  -4.451  1.00  0.00     0.048 A 
ATOM     16  C   UNL     1       1.972  -1.012  -5.638  1.00  0.00     0.004 A 
ATOM     17  C   UNL     1       1.827  -3.158  -4.562  1.00  0.00     0.024 A 
ATOM     18  C   UNL     1       1.685  -2.370  -5.703  1.00  0.00     0.002 A 
BRANCH  14  19
ATOM     19  O   UNL     1       3.179  -0.713  -2.193  1.00  0.00    -0.495 OA
ATOM     20  C   UNL     1       4.454  -0.095  -2.383  1.00  0.00     0.278 C 
ENDBRANCH  14  19
ENDBRANCH  10  13
ENDBRANCH   8  10
ENDBRANCH   6   8
ENDBRANCH   3   6
ENDBRANCH   1   2
BRANCH   1  21
ATOM     21  C   UNL     1       3.599  -1.176   3.684  1.00  0.00     0.042 C 
BRANCH  21  22
ATOM     22  C   UNL     1       3.128  -1.387   5.111  1.00  0.00     0.118 C 
BRANCH  22  23
ATOM     23  N   UNL     1       3.804  -2.511   5.748  1.00  0.00    -0.352 N 
ATOM     24  C   UNL     1       4.678  -2.536   6.805  1.00  0.00     0.251 C 
ATOM     25  H   UNL     1       3.600  -3.392   5.358  1.00  0.00     0.163 HD
ATOM     26  O   UNL     1       5.331  -3.551   7.022  1.00  0.00    -0.269 OA
BRANCH  24  27
ATOM     27  C   UNL     1       4.833  -1.348   7.669  1.00  0.00     0.039 A 
ATOM     28  C   UNL     1       6.096  -1.038   8.177  1.00  0.00     0.014 A 
ATOM     29  C   UNL     1       3.732  -0.554   8.001  1.00  0.00     0.014 A 
ATOM     30  C   UNL     1       6.258   0.094   8.975  1.00  0.00     0.010 A 
ATOM     31  C   UNL     1       3.916   0.633   8.696  1.00  0.00     0.010 A 
ATOM     32  C   UNL     1       5.175   0.956   9.216  1.00  0.00    -0.014 A 
BRANCH  32  33
ATOM     33  C   UNL     1       5.341   2.189  10.022  1.00  0.00     0.031 A 
ATOM     34  C   UNL     1       4.558   2.378  11.294  1.00  0.00     0.074 A 
ATOM     35  C   UNL     1       6.148   3.169   9.571  1.00  0.00     0.049 A 
ATOM     36  N   UNL     1       4.572   3.387  12.125  1.00  0.00    -0.248 NA
ATOM     37  C   UNL     1       3.611   1.313  11.665  1.00  0.00     0.031 C 
ATOM     38  C   UNL     1       6.882   3.144   8.304  1.00  0.00     0.029 A 
ATOM     39  N   UNL     1       6.470   4.384  10.118  1.00  0.00    -0.354 N 
ATOM     40  C   UNL     1       3.615   3.097  13.091  1.00  0.00     0.074 A 
ATOM     41  C   UNL     1       3.006   1.840  12.718  1.00  0.00     0.031 C 
ATOM     42  C   UNL     1       7.583   4.282   8.180  1.00  0.00     0.029 A 
ATOM     43  C   UNL     1       7.325   5.128   9.340  1.00  0.00     0.049 A 
ATOM     44  H   UNL     1       6.123   4.694  10.986  1.00  0.00     0.167 HD
ATOM     45  C   UNL     1       3.293   3.795  14.205  1.00  0.00     0.034 A 
ATOM     46  C   UNL     1       7.842   6.356   9.538  1.00  0.00     0.034 A 
ATOM     47  C   UNL     1       3.929   5.026  14.590  1.00  0.00     0.049 A 
ATOM     48  C   UNL     1       7.514   7.085  10.811  1.00  0.00     0.074 A 
ATOM     49  C   UNL     1       3.751   5.762  15.747  1.00  0.00     0.029 A 
ATOM     50  N   UNL     1       4.854   5.713  13.818  1.00  0.00    -0.354 N 
ATOM     51  N   UNL     1       6.739   6.713  11.801  1.00  0.00    -0.248 NA
ATOM     52  C   UNL     1       8.166   8.386  11.014  1.00  0.00     0.031 C 
ATOM     53  C   UNL     1       4.540   6.914  15.658  1.00  0.00     0.029 A 
ATOM     54  C   UNL     1       5.243   6.874  14.464  1.00  0.00     0.049 A 
ATOM     55  H   UNL     1       5.185   5.418  12.939  1.00  0.00     0.167 HD
ATOM     56  C   UNL     1       6.831   7.718  12.756  1.00  0.00     0.074 A 
ATOM     57  C   UNL     1       7.762   8.699  12.237  1.00  0.00     0.031 C 
ATOM     58  C   UNL     1       6.193   7.827  13.949  1.00  0.00     0.034 A 
BRANCH  45  59
ATOM     59  C   UNL     1       2.230   3.220  15.106  1.00  0.00     0.023 A 
ATOM     60  C   UNL     1       2.487   2.038  15.832  1.00  0.00     0.012 A 
ATOM     61  C   UNL     1       0.989   3.867  15.262  1.00  0.00     0.148 A 
ATOM     62  C   UNL     1       1.512   1.485  16.662  1.00  0.00     0.002 A 
ATOM     63  C   UNL     1       0.041   3.338  16.131  1.00  0.00     0.091 A 
ATOM     64  F   UNL     1       0.750   4.976  14.548  1.00  0.00    -0.205 F 
ATOM     65  C   UNL     1       0.294   2.140  16.819  1.00  0.00     0.022 A 
BRANCH  63  66
ATOM     66  S   UNL     1      -1.524   4.152  16.468  1.00  0.00     0.127 S 
ATOM     67  O   UNL     1      -2.471   3.257  15.803  1.00  0.00    -0.237 OA
ATOM     68  O   UNL     1      -1.578   4.120  17.929  1.00  0.00    -0.237 OA
ATOM     69  O   UNL     1      -1.416   5.485  15.893  1.00  0.00    -0.744 OA
ENDBRANCH  63  66
ENDBRANCH  45  59
BRANCH  46  70
ATOM     70  C   UNL     1       8.774   6.936   8.532  1.00  0.00     0.023 A 
ATOM     71  C   UNL     1      10.141   7.072   8.845  1.00  0.00     0.012 A 
ATOM     72  C   UNL     1       8.321   7.314   7.254  1.00  0.00     0.148 A 
ATOM     73  C   UNL     1      11.033   7.604   7.915  1.00  0.00     0.002 A 
ATOM     74  C   UNL     1       9.225   7.787   6.311  1.00  0.00     0.091 A 
ATOM     75  F   UNL     1       7.016   7.180   6.979  1.00  0.00    -0.205 F 
ATOM     76  C   UNL     1      10.579   7.951   6.645  1.00  0.00     0.022 A 
BRANCH  74  77
ATOM     77  S   UNL     1       8.757   8.126   4.611  1.00  0.00     0.127 S 
ATOM     78  O   UNL     1       8.917   9.576   4.539  1.00  0.00    -0.237 OA
ATOM     79  O   UNL     1       9.755   7.357   3.866  1.00  0.00    -0.237 OA
ATOM     80  O   UNL     1       7.393   7.635   4.470  1.00  0.00    -0.744 OA
ENDBRANCH  74  77
ENDBRANCH  46  70
BRANCH  58  81
ATOM     81  C   UNL     1       6.500   9.041  14.788  1.00  0.00     0.023 A 
ATOM     82  C   UNL     1       6.056  10.314  14.375  1.00  0.00     0.012 A 
ATOM     83  C   UNL     1       7.192   8.914  16.008  1.00  0.00     0.148 A 
ATOM     84  C   UNL     1       6.341  11.446  15.137  1.00  0.00     0.002 A 
ATOM     85  C   UNL     1       7.423  10.039  16.791  1.00  0.00     0.091 A 
ATOM     86  F   UNL     1       7.622   7.699  16.378  1.00  0.00    -0.205 F 
ATOM     87  C   UNL     1       7.014  11.308  16.349  1.00  0.00     0.022 A 
BRANCH  85  88
ATOM     88  S   UNL     1       8.192   9.941  18.410  1.00  0.00     0.127 S 
ATOM     89  O   UNL     1       9.523  10.482  18.141  1.00  0.00    -0.237 OA
ATOM     90  O   UNL     1       7.332  10.808  19.216  1.00  0.00    -0.237 OA
ATOM     91  O   UNL     1       8.152   8.534  18.787  1.00  0.00    -0.744 OA
ENDBRANCH  85  88
ENDBRANCH  58  81
ENDBRANCH  32  33
ENDBRANCH  24  27
ENDBRANCH  22  23
ENDBRANCH  21  22
ENDBRANCH   1  21
TORSDOF 17
