REMARK SMILES O=C(COc1ccccc1/C=C1/SC(=O)N(c2ccc(F)cc2)C1=O)NCCCNC(=O)c1ccc(-c2c3nc(c(-c4cccc(S(=O)(=O)[O-])c4F)c4ccc([nH]4)c(-c4cccc(S(=O)(=O)[O-])c4F)c4nc(c(-c5cccc(S(=O)(=O)[O-])c5F)c5ccc2[nH]5)C=C4)C=C3)cc1
REMARK SMILES IDX 27 1 26 2 1 3 2 4 3 6 4 7 5 8 6 9 10 10 7 11 9 12 8 13 11 14
REMARK SMILES IDX 12 15 13 16 24 17 14 18 16 19 25 20 15 21 17 22 18 23 23 24
REMARK SMILES IDX 19 25 22 26 20 27 21 28 28 29 29 30 30 31 31 32 32 34 33 35
REMARK SMILES IDX 34 36 95 37 35 38 94 39 36 40 37 41 38 42 88 43 39 44 93 45
REMARK SMILES IDX 87 46 89 47 40 48 92 49 86 50 85 51 41 53 73 54 53 55 72 56
REMARK SMILES IDX 54 57 57 58 71 59 90 60 55 61 56 62 70 64 91 65 58 66 42 67
REMARK SMILES IDX 43 68 51 69 44 70 46 71 52 72 45 73 47 74 48 75 49 76 50 77
REMARK SMILES IDX 74 78 75 79 83 80 76 81 78 82 84 83 77 84 79 85 80 86 81 87
REMARK SMILES IDX 82 88 59 89 60 90 68 91 61 92 63 93 69 94 62 95 64 96 65 97
REMARK SMILES IDX 66 98 67 99
REMARK H PARENT 26 5 30 33 89 52 57 63
REMARK Flexibility Score: inf
ROOT
ATOM      1  C   UNL     1       0.946   2.483   0.378  1.00  0.00     0.117 C 
ENDROOT
BRANCH   1   2
ATOM      2  N   UNL     1       1.523   1.222   0.871  1.00  0.00    -0.353 N 
ATOM      3  O   UNL     1      -0.007  -0.133  -0.184  1.00  0.00    -0.271 OA
ATOM      4  C   UNL     1       1.082  -0.013   0.380  1.00  0.00     0.257 C 
ATOM      5  H   UNL     1       2.230   1.247   1.556  1.00  0.00     0.163 HD
BRANCH   4   6
ATOM      6  C   UNL     1       2.068  -1.234   0.488  1.00  0.00     0.329 C 
BRANCH   6   7
ATOM      7  O   UNL     1       3.152  -1.462  -0.429  1.00  0.00    -0.483 OA
BRANCH   7   8
ATOM      8  C   UNL     1       2.819  -1.800  -1.724  1.00  0.00     0.127 A 
ATOM      9  C   UNL     1       3.018  -3.112  -2.153  1.00  0.00     0.047 A 
ATOM     10  C   UNL     1       2.520  -0.815  -2.688  1.00  0.00     0.018 A 
ATOM     11  C   UNL     1       2.767  -3.457  -3.489  1.00  0.00     0.004 A 
ATOM     12  C   UNL     1       2.171  -1.174  -3.991  1.00  0.00     0.012 A 
ATOM     13  C   UNL     1       2.292  -2.502  -4.390  1.00  0.00     0.001 A 
BRANCH  10  14
ATOM     14  C   UNL     1       2.614   0.600  -2.315  1.00  0.00     0.033 C 
ATOM     15  C   UNL     1       3.816   1.083  -1.961  1.00  0.00     0.084 C 
ATOM     16  S   UNL     1       4.121   1.630  -0.368  1.00  0.00    -0.022 SA
ATOM     17  C   UNL     1       5.110   1.010  -2.691  1.00  0.00     0.272 C 
ATOM     18  C   UNL     1       5.753   2.058  -0.678  1.00  0.00     0.298 C 
ATOM     19  N   UNL     1       6.108   1.627  -1.933  1.00  0.00    -0.236 N 
ATOM     20  O   UNL     1       5.203   0.512  -3.805  1.00  0.00    -0.268 OA
ATOM     21  O   UNL     1       6.377   2.692   0.161  1.00  0.00    -0.260 OA
BRANCH  19  22
ATOM     22  C   UNL     1       7.410   1.890  -2.425  1.00  0.00     0.053 A 
ATOM     23  C   UNL     1       7.629   2.144  -3.784  1.00  0.00     0.030 A 
ATOM     24  C   UNL     1       8.499   1.964  -1.538  1.00  0.00     0.030 A 
ATOM     25  C   UNL     1       8.904   2.478  -4.238  1.00  0.00     0.041 A 
ATOM     26  C   UNL     1       9.772   2.290  -1.992  1.00  0.00     0.041 A 
ATOM     27  C   UNL     1       9.963   2.545  -3.340  1.00  0.00     0.123 A 
ATOM     28  F   UNL     1      11.185   2.859  -3.783  1.00  0.00    -0.207 F 
ENDBRANCH  19  22
ENDBRANCH  10  14
ENDBRANCH   7   8
ENDBRANCH   6   7
ENDBRANCH   4   6
ENDBRANCH   1   2
BRANCH   1  29
ATOM     29  C   UNL     1       1.382   3.821   1.015  1.00  0.00     0.042 C 
BRANCH  29  30
ATOM     30  C   UNL     1       2.813   4.384   0.870  1.00  0.00     0.118 C 
BRANCH  30  31
ATOM     31  N   UNL     1       3.282   4.644  -0.490  1.00  0.00    -0.352 N 
ATOM     32  C   UNL     1       4.307   5.464  -0.928  1.00  0.00     0.251 C 
ATOM     33  H   UNL     1       2.796   4.163  -1.199  1.00  0.00     0.163 HD
ATOM     34  O   UNL     1       4.601   5.453  -2.123  1.00  0.00    -0.269 OA
BRANCH  32  35
ATOM     35  C   UNL     1       5.021   6.390  -0.006  1.00  0.00     0.039 A 
ATOM     36  C   UNL     1       5.182   7.728  -0.393  1.00  0.00     0.014 A 
ATOM     37  C   UNL     1       5.551   5.969   1.215  1.00  0.00     0.014 A 
ATOM     38  C   UNL     1       5.781   8.652   0.478  1.00  0.00     0.010 A 
ATOM     39  C   UNL     1       6.108   6.902   2.102  1.00  0.00     0.010 A 
ATOM     40  C   UNL     1       6.212   8.260   1.757  1.00  0.00    -0.014 A 
BRANCH  40  41
ATOM     41  C   UNL     1       6.691   9.271   2.749  1.00  0.00     0.031 A 
ATOM     42  C   UNL     1       8.104   9.261   3.275  1.00  0.00     0.074 A 
ATOM     43  C   UNL     1       5.819  10.177   3.242  1.00  0.00     0.049 A 
ATOM     44  N   UNL     1       8.675  10.081   4.125  1.00  0.00    -0.248 NA
ATOM     45  C   UNL     1       8.986   8.183   2.804  1.00  0.00     0.031 C 
ATOM     46  C   UNL     1       4.398  10.254   2.895  1.00  0.00     0.029 A 
ATOM     47  N   UNL     1       5.989  11.192   4.155  1.00  0.00    -0.354 N 
ATOM     48  C   UNL     1       9.971   9.608   4.309  1.00  0.00     0.074 A 
ATOM     49  C   UNL     1      10.090   8.409   3.504  1.00  0.00     0.031 C 
ATOM     50  C   UNL     1       3.830  11.262   3.576  1.00  0.00     0.029 A 
ATOM     51  C   UNL     1       4.834  11.891   4.428  1.00  0.00     0.049 A 
ATOM     52  H   UNL     1       6.855  11.399   4.574  1.00  0.00     0.167 HD
ATOM     53  C   UNL     1      10.976  10.130   5.057  1.00  0.00     0.034 A 
ATOM     54  C   UNL     1       4.602  12.922   5.267  1.00  0.00     0.034 A 
ATOM     55  C   UNL     1      10.866  11.329   5.849  1.00  0.00     0.049 A 
ATOM     56  C   UNL     1       5.744  13.508   6.053  1.00  0.00     0.074 A 
ATOM     57  C   UNL     1      11.852  11.974   6.578  1.00  0.00     0.029 A 
ATOM     58  N   UNL     1       9.701  12.056   6.035  1.00  0.00    -0.354 N 
ATOM     59  N   UNL     1       7.001  13.141   6.083  1.00  0.00    -0.248 NA
ATOM     60  C   UNL     1       5.443  14.683   6.885  1.00  0.00     0.031 C 
ATOM     61  C   UNL     1      11.275  13.069   7.231  1.00  0.00     0.029 A 
ATOM     62  C   UNL     1       9.940  13.137   6.870  1.00  0.00     0.049 A 
ATOM     63  H   UNL     1       8.829  11.838   5.632  1.00  0.00     0.167 HD
ATOM     64  C   UNL     1       7.650  14.067   6.894  1.00  0.00     0.074 A 
ATOM     65  C   UNL     1       6.648  15.022   7.320  1.00  0.00     0.031 C 
ATOM     66  C   UNL     1       8.956  14.116   7.255  1.00  0.00     0.034 A 
BRANCH  53  67
ATOM     67  C   UNL     1      12.313   9.426   5.027  1.00  0.00     0.023 A 
ATOM     68  C   UNL     1      13.091   9.458   3.851  1.00  0.00     0.012 A 
ATOM     69  C   UNL     1      12.831   8.795   6.177  1.00  0.00     0.148 A 
ATOM     70  C   UNL     1      14.340   8.838   3.805  1.00  0.00     0.002 A 
ATOM     71  C   UNL     1      14.097   8.222   6.138  1.00  0.00     0.091 A 
ATOM     72  F   UNL     1      12.076   8.765   7.284  1.00  0.00    -0.205 F 
ATOM     73  C   UNL     1      14.846   8.229   4.950  1.00  0.00     0.022 A 
BRANCH  71  74
ATOM     74  S   UNL     1      14.877   7.487   7.580  1.00  0.00     0.127 S 
ATOM     75  O   UNL     1      14.881   6.069   7.223  1.00  0.00    -0.237 OA
ATOM     76  O   UNL     1      16.196   8.120   7.574  1.00  0.00    -0.237 OA
ATOM     77  O   UNL     1      14.038   7.840   8.717  1.00  0.00    -0.744 OA
ENDBRANCH  71  74
ENDBRANCH  53  67
BRANCH  54  78
ATOM     78  C   UNL     1       3.237  13.519   5.357  1.00  0.00     0.023 A 
ATOM     79  C   UNL     1       3.010  14.815   4.852  1.00  0.00     0.012 A 
ATOM     80  C   UNL     1       2.166  12.810   5.932  1.00  0.00     0.148 A 
ATOM     81  C   UNL     1       1.751  15.409   4.955  1.00  0.00     0.002 A 
ATOM     82  C   UNL     1       0.901  13.384   5.978  1.00  0.00     0.091 A 
ATOM     83  F   UNL     1       2.405  11.582   6.414  1.00  0.00    -0.205 F 
ATOM     84  C   UNL     1       0.696  14.691   5.509  1.00  0.00     0.022 A 
BRANCH  82  85
ATOM     85  S   UNL     1      -0.545  12.487   6.552  1.00  0.00     0.127 S 
ATOM     86  O   UNL     1      -0.867  13.197   7.787  1.00  0.00    -0.237 OA
ATOM     87  O   UNL     1      -1.487  12.701   5.454  1.00  0.00    -0.237 OA
ATOM     88  O   UNL     1      -0.114  11.105   6.713  1.00  0.00    -0.744 OA
ENDBRANCH  82  85
ENDBRANCH  54  78
BRANCH  66  89
ATOM     89  C   UNL     1       9.403  15.279   8.107  1.00  0.00     0.023 A 
ATOM     90  C   UNL     1       8.976  15.393   9.445  1.00  0.00     0.012 A 
ATOM     91  C   UNL     1      10.281  16.249   7.581  1.00  0.00     0.148 A 
ATOM     92  C   UNL     1       9.372  16.478  10.228  1.00  0.00     0.002 A 
ATOM     93  C   UNL     1      10.716  17.297   8.384  1.00  0.00     0.091 A 
ATOM     94  F   UNL     1      10.663  16.141   6.301  1.00  0.00    -0.205 F 
ATOM     95  C   UNL     1      10.248  17.424   9.702  1.00  0.00     0.022 A 
BRANCH  93  96
ATOM     96  S   UNL     1      11.923  18.501   7.819  1.00  0.00     0.127 S 
ATOM     97  O   UNL     1      11.086  19.678   7.590  1.00  0.00    -0.237 OA
ATOM     98  O   UNL     1      12.820  18.607   8.971  1.00  0.00    -0.237 OA
ATOM     99  O   UNL     1      12.536  17.925   6.630  1.00  0.00    -0.744 OA
ENDBRANCH  93  96
ENDBRANCH  66  89
ENDBRANCH  40  41
ENDBRANCH  32  35
ENDBRANCH  30  31
ENDBRANCH  29  30
ENDBRANCH   1  29
TORSDOF 17
