REMARK SMILES CC(C)(C)c1ccc(OCC(=O)N/N=C/c2ccc(C(=O)NCCCNC(=O)c3ccc(-c4c5nc(c(-c6cccc(S(=O)(=O)[O-])c6F)c6ccc([nH]6)c(-c6cccc(S(=O)(=O)[O-])c6F)c6nc(c(-c7cccc(S(=O)(=O)[O-])c7F)c7ccc4[nH]7)C=C6)C=C5)cc3)cc2)cc1
REMARK SMILES IDX 20 1 21 2 22 3 19 5 16 6 17 7 93 8 18 9 92 10 15 11 14 12
REMARK SMILES IDX 13 13 11 14 12 15 10 17 9 18 8 19 5 20 6 21 95 22 7 23 94 24
REMARK SMILES IDX 2 25 1 26 3 27 4 28 23 29 24 30 25 31 26 32 27 33 28 35
REMARK SMILES IDX 29 36 30 37 91 38 31 39 90 40 32 41 33 42 34 43 84 44 35 45
REMARK SMILES IDX 89 46 83 47 85 48 36 49 88 50 82 51 81 52 37 54 69 55 49 56
REMARK SMILES IDX 68 57 50 58 53 59 67 60 86 61 51 62 52 63 66 65 87 66 54 67
REMARK SMILES IDX 38 68 39 69 47 70 40 71 42 72 48 73 41 74 43 75 44 76 45 77
REMARK SMILES IDX 46 78 70 79 71 80 79 81 72 82 74 83 80 84 73 85 75 86 76 87
REMARK SMILES IDX 77 88 78 89 55 90 56 91 64 92 57 93 59 94 65 95 58 96 60 97
REMARK SMILES IDX 61 98 62 99 63 100
REMARK H PARENT 22 4 13 16 26 34 85 53 53 64
REMARK Flexibility Score: inf
ROOT
ATOM      1  C   UNL     1      -0.593 -11.769  -1.919  1.00  0.00     0.251 C 
ATOM      2  O   UNL     1      -1.602 -11.930  -1.232  1.00  0.00    -0.269 OA
ATOM      3  N   UNL     1      -0.436 -12.555  -3.030  1.00  0.00    -0.352 N 
ATOM      4  H   UNL     1      -1.129 -13.246  -3.137  1.00  0.00     0.163 HD
ENDROOT
BRANCH   1   5
ATOM      5  C   UNL     1       0.378 -10.706  -1.539  1.00  0.00     0.039 A 
ATOM      6  C   UNL     1       2.082  -8.671  -0.700  1.00  0.00    -0.005 A 
ATOM      7  C   UNL     1       0.731  -8.605  -0.367  1.00  0.00     0.010 A 
ATOM      8  C   UNL     1       2.601  -9.735  -1.426  1.00  0.00     0.010 A 
ATOM      9  C   UNL     1      -0.123  -9.617  -0.805  1.00  0.00     0.014 A 
ATOM     10  C   UNL     1       1.750 -10.768  -1.808  1.00  0.00     0.014 A 
BRANCH   6  11
ATOM     11  C   UNL     1       3.021  -7.720  -0.111  1.00  0.00     0.141 C 
ATOM     12  N   UNL     1       3.755  -6.964  -0.847  1.00  0.00    -0.181 NA
BRANCH  12  13
ATOM     13  N   UNL     1       4.661  -6.093  -0.323  1.00  0.00    -0.244 N 
ATOM     14  C   UNL     1       4.926  -5.614   0.932  1.00  0.00     0.277 C 
ATOM     15  O   UNL     1       5.896  -4.853   1.067  1.00  0.00    -0.269 OA
ATOM     16  H   UNL     1       5.267  -5.722  -1.004  1.00  0.00     0.193 HD
BRANCH  14  17
ATOM     17  C   UNL     1       4.090  -5.979   2.159  1.00  0.00     0.331 C 
BRANCH  17  18
ATOM     18  O   UNL     1       2.683  -5.803   2.067  1.00  0.00    -0.484 OA
BRANCH  18  19
ATOM     19  C   UNL     1       2.224  -4.539   1.839  1.00  0.00     0.120 A 
ATOM     20  C   UNL     1       1.020  -2.014   1.380  1.00  0.00    -0.042 A 
ATOM     21  C   UNL     1       0.312  -3.205   1.160  1.00  0.00     0.008 A 
ATOM     22  C   UNL     1       2.360  -2.130   1.791  1.00  0.00     0.008 A 
ATOM     23  C   UNL     1       0.906  -4.451   1.395  1.00  0.00     0.047 A 
ATOM     24  C   UNL     1       2.950  -3.372   2.033  1.00  0.00     0.047 A 
BRANCH  20  25
ATOM     25  C   UNL     1       0.393  -0.625   1.191  1.00  0.00    -0.013 C 
ATOM     26  C   UNL     1       0.949   0.003  -0.102  1.00  0.00     0.016 C 
ATOM     27  C   UNL     1       0.740   0.288   2.391  1.00  0.00     0.016 C 
ATOM     28  C   UNL     1      -1.148  -0.655   1.088  1.00  0.00     0.016 C 
ENDBRANCH  20  25
ENDBRANCH  18  19
ENDBRANCH  17  18
ENDBRANCH  14  17
ENDBRANCH  12  13
ENDBRANCH   6  11
ENDBRANCH   1   5
BRANCH   3  29
ATOM     29  C   UNL     1       0.569 -12.549  -4.076  1.00  0.00     0.118 C 
BRANCH  29  30
ATOM     30  C   UNL     1       1.606 -13.649  -3.854  1.00  0.00     0.042 C 
BRANCH  30  31
ATOM     31  C   UNL     1       1.087 -15.038  -4.203  1.00  0.00     0.118 C 
BRANCH  31  32
ATOM     32  N   UNL     1       0.856 -15.178  -5.633  1.00  0.00    -0.352 N 
ATOM     33  C   UNL     1       1.381 -16.085  -6.517  1.00  0.00     0.251 C 
ATOM     34  H   UNL     1       0.231 -14.525  -6.022  1.00  0.00     0.163 HD
ATOM     35  O   UNL     1       1.262 -15.887  -7.723  1.00  0.00    -0.269 OA
BRANCH  33  36
ATOM     36  C   UNL     1       2.084 -17.289  -6.025  1.00  0.00     0.039 A 
ATOM     37  C   UNL     1       3.227 -17.725  -6.700  1.00  0.00     0.014 A 
ATOM     38  C   UNL     1       1.596 -18.011  -4.932  1.00  0.00     0.014 A 
ATOM     39  C   UNL     1       3.901 -18.864  -6.257  1.00  0.00     0.010 A 
ATOM     40  C   UNL     1       2.311 -19.102  -4.446  1.00  0.00     0.010 A 
ATOM     41  C   UNL     1       3.460 -19.549  -5.114  1.00  0.00    -0.014 A 
BRANCH  41  42
ATOM     42  C   UNL     1       4.184 -20.738  -4.601  1.00  0.00     0.031 A 
ATOM     43  C   UNL     1       3.508 -22.082  -4.573  1.00  0.00     0.074 A 
ATOM     44  C   UNL     1       5.417 -20.587  -4.081  1.00  0.00     0.049 A 
ATOM     45  N   UNL     1       3.955 -23.219  -4.109  1.00  0.00    -0.248 NA
ATOM     46  C   UNL     1       2.139 -22.152  -5.112  1.00  0.00     0.031 C 
ATOM     47  C   UNL     1       6.142 -19.319  -3.979  1.00  0.00     0.029 A 
ATOM     48  N   UNL     1       6.267 -21.502  -3.513  1.00  0.00    -0.354 N 
ATOM     49  C   UNL     1       2.914 -24.128  -4.262  1.00  0.00     0.074 A 
ATOM     50  C   UNL     1       1.801 -23.403  -4.834  1.00  0.00     0.031 C 
ATOM     51  C   UNL     1       7.327 -19.535  -3.386  1.00  0.00     0.029 A 
ATOM     52  C   UNL     1       7.435 -20.949  -3.041  1.00  0.00     0.049 A 
ATOM     53  H   UNL     1       6.061 -22.462  -3.449  1.00  0.00     0.167 HD
ATOM     54  C   UNL     1       2.897 -25.452  -3.981  1.00  0.00     0.034 A 
ATOM     55  C   UNL     1       8.473 -21.517  -2.397  1.00  0.00     0.034 A 
ATOM     56  C   UNL     1       4.024 -26.176  -3.458  1.00  0.00     0.049 A 
ATOM     57  C   UNL     1       8.449 -23.000  -2.143  1.00  0.00     0.074 A 
ATOM     58  C   UNL     1       4.142 -27.535  -3.225  1.00  0.00     0.029 A 
ATOM     59  N   UNL     1       5.227 -25.600  -3.081  1.00  0.00    -0.354 N 
ATOM     60  N   UNL     1       7.519 -23.872  -2.445  1.00  0.00    -0.248 NA
ATOM     61  C   UNL     1       9.632 -23.582  -1.495  1.00  0.00     0.031 C 
ATOM     62  C   UNL     1       5.411 -27.777  -2.689  1.00  0.00     0.029 A 
ATOM     63  C   UNL     1       6.092 -26.573  -2.610  1.00  0.00     0.049 A 
ATOM     64  H   UNL     1       5.436 -24.639  -3.139  1.00  0.00     0.167 HD
ATOM     65  C   UNL     1       8.017 -25.111  -2.058  1.00  0.00     0.074 A 
ATOM     66  C   UNL     1       9.341 -24.876  -1.518  1.00  0.00     0.031 C 
ATOM     67  C   UNL     1       7.427 -26.329  -2.127  1.00  0.00     0.034 A 
BRANCH  54  68
ATOM     68  C   UNL     1       1.636 -26.218  -4.287  1.00  0.00     0.023 A 
ATOM     69  C   UNL     1       1.283 -26.466  -5.630  1.00  0.00     0.012 A 
ATOM     70  C   UNL     1       0.832 -26.741  -3.255  1.00  0.00     0.148 A 
ATOM     71  C   UNL     1       0.133 -27.190  -5.941  1.00  0.00     0.002 A 
ATOM     72  C   UNL     1      -0.289 -27.500  -3.573  1.00  0.00     0.091 A 
ATOM     73  F   UNL     1       1.170 -26.477  -1.984  1.00  0.00    -0.205 F 
ATOM     74  C   UNL     1      -0.646 -27.715  -4.914  1.00  0.00     0.022 A 
BRANCH  72  75
ATOM     75  S   UNL     1      -1.313 -28.286  -2.324  1.00  0.00     0.127 S 
ATOM     76  O   UNL     1      -2.528 -27.474  -2.385  1.00  0.00    -0.237 OA
ATOM     77  O   UNL     1      -1.460 -29.642  -2.854  1.00  0.00    -0.237 OA
ATOM     78  O   UNL     1      -0.564 -28.200  -1.078  1.00  0.00    -0.744 OA
ENDBRANCH  72  75
ENDBRANCH  54  68
BRANCH  55  79
ATOM     79  C   UNL     1       9.652 -20.689  -2.016  1.00  0.00     0.023 A 
ATOM     80  C   UNL     1      10.868 -20.864  -2.704  1.00  0.00     0.012 A 
ATOM     81  C   UNL     1       9.567 -19.707  -1.010  1.00  0.00     0.148 A 
ATOM     82  C   UNL     1      11.987 -20.098  -2.377  1.00  0.00     0.002 A 
ATOM     83  C   UNL     1      10.669 -18.909  -0.727  1.00  0.00     0.091 A 
ATOM     84  F   UNL     1       8.403 -19.563  -0.360  1.00  0.00    -0.205 F 
ATOM     85  C   UNL     1      11.885 -19.114  -1.397  1.00  0.00     0.022 A 
BRANCH  83  86
ATOM     86  S   UNL     1      10.588 -17.530   0.421  1.00  0.00     0.127 S 
ATOM     87  O   UNL     1      11.361 -18.035   1.552  1.00  0.00    -0.237 OA
ATOM     88  O   UNL     1      11.236 -16.462  -0.342  1.00  0.00    -0.237 OA
ATOM     89  O   UNL     1       9.169 -17.310   0.669  1.00  0.00    -0.744 OA
ENDBRANCH  83  86
ENDBRANCH  55  79
BRANCH  67  90
ATOM     90  C   UNL     1       8.216 -27.515  -1.640  1.00  0.00     0.023 A 
ATOM     91  C   UNL     1       8.416 -27.703  -0.258  1.00  0.00     0.012 A 
ATOM     92  C   UNL     1       8.692 -28.483  -2.546  1.00  0.00     0.148 A 
ATOM     93  C   UNL     1       9.105 -28.820   0.213  1.00  0.00     0.002 A 
ATOM     94  C   UNL     1       9.334 -29.619  -2.067  1.00  0.00     0.091 A 
ATOM     95  F   UNL     1       8.508 -28.277  -3.858  1.00  0.00    -0.205 F 
ATOM     96  C   UNL     1       9.552 -29.783  -0.689  1.00  0.00     0.022 A 
BRANCH  94  97
ATOM     97  S   UNL     1       9.857 -30.955  -3.147  1.00  0.00     0.127 S 
ATOM     98  O   UNL     1      11.308 -30.776  -3.162  1.00  0.00    -0.237 OA
ATOM     99  O   UNL     1       9.396 -32.140  -2.422  1.00  0.00    -0.237 OA
ATOM    100  O   UNL     1       9.185 -30.728  -4.420  1.00  0.00    -0.744 OA
ENDBRANCH  94  97
ENDBRANCH  67  90
ENDBRANCH  41  42
ENDBRANCH  33  36
ENDBRANCH  31  32
ENDBRANCH  30  31
ENDBRANCH  29  30
ENDBRANCH   3  29
TORSDOF 19
