REMARK SMILES O=C(NCCCNC(=O)c1ccc(Cl)nc1C(F)(F)F)c1ccc(-c2c3nc(c(-c4cccc(S(=O)(=O)[O-])c4F)c4ccc([nH]4)c(-c4cccc(S(=O)(=O)[O-])c4F)c4nc(c(-c5cccc(S(=O)(=O)[O-])c5F)c5ccc2[nH]5)C=C4)C=C3)cc1
REMARK SMILES IDX 4 1 3 2 1 3 2 4 21 6 22 7 83 8 23 9 82 10 24 11 25 12 26 13
REMARK SMILES IDX 76 14 27 15 81 16 75 17 77 18 28 19 80 20 74 21 73 22 29 24
REMARK SMILES IDX 61 25 41 26 60 27 42 28 45 29 59 30 78 31 43 32 44 33 58 35
REMARK SMILES IDX 79 36 46 37 30 38 31 39 39 40 32 41 34 42 40 43 33 44 35 45
REMARK SMILES IDX 36 46 37 47 38 48 62 49 63 50 71 51 64 52 66 53 72 54 65 55
REMARK SMILES IDX 67 56 68 57 69 58 70 59 47 60 48 61 56 62 49 63 51 64 57 65
REMARK SMILES IDX 50 66 52 67 53 68 54 69 55 70 5 71 6 72 7 73 8 74 9 76 10 77
REMARK SMILES IDX 11 78 16 79 12 80 15 81 13 82 14 83 17 84 18 85 19 86 20 87
REMARK H PARENT 3 5 77 23 45 34 7 75
REMARK Flexibility Score: inf
ROOT
ATOM      1  C   UNL     1       4.543  -1.129   0.871  1.00  0.00     0.118 C 
ENDROOT
BRANCH   1   2
ATOM      2  N   UNL     1       3.101  -1.062   0.678  1.00  0.00    -0.352 N 
ATOM      3  O   UNL     1       1.106  -0.176   0.172  1.00  0.00    -0.269 OA
ATOM      4  C   UNL     1       2.325  -0.136   0.024  1.00  0.00     0.251 C 
ATOM      5  H   UNL     1       2.598  -1.805   1.084  1.00  0.00     0.163 HD
BRANCH   4   6
ATOM      6  C   UNL     1       2.939   0.910  -0.824  1.00  0.00     0.039 A 
ATOM      7  C   UNL     1       4.008   0.620  -1.675  1.00  0.00     0.014 A 
ATOM      8  C   UNL     1       2.402   2.200  -0.799  1.00  0.00     0.014 A 
ATOM      9  C   UNL     1       4.636   1.642  -2.381  1.00  0.00     0.010 A 
ATOM     10  C   UNL     1       2.977   3.208  -1.577  1.00  0.00     0.010 A 
ATOM     11  C   UNL     1       4.121   2.945  -2.347  1.00  0.00    -0.014 A 
BRANCH  11  12
ATOM     12  C   UNL     1       4.744   4.020  -3.160  1.00  0.00     0.031 A 
ATOM     13  C   UNL     1       5.339   5.232  -2.502  1.00  0.00     0.074 A 
ATOM     14  C   UNL     1       4.717   3.926  -4.503  1.00  0.00     0.049 A 
ATOM     15  N   UNL     1       5.835   6.310  -3.052  1.00  0.00    -0.248 NA
ATOM     16  C   UNL     1       5.371   5.240  -1.030  1.00  0.00     0.031 C 
ATOM     17  C   UNL     1       4.141   2.811  -5.257  1.00  0.00     0.029 A 
ATOM     18  N   UNL     1       5.151   4.795  -5.473  1.00  0.00    -0.354 N 
ATOM     19  C   UNL     1       6.190   7.146  -2.001  1.00  0.00     0.074 A 
ATOM     20  C   UNL     1       5.849   6.451  -0.778  1.00  0.00     0.031 C 
ATOM     21  C   UNL     1       4.242   3.068  -6.569  1.00  0.00     0.029 A 
ATOM     22  C   UNL     1       4.833   4.390  -6.747  1.00  0.00     0.049 A 
ATOM     23  H   UNL     1       5.641   5.626  -5.275  1.00  0.00     0.167 HD
ATOM     24  C   UNL     1       6.753   8.378  -2.051  1.00  0.00     0.034 A 
ATOM     25  C   UNL     1       4.958   5.026  -7.928  1.00  0.00     0.034 A 
ATOM     26  C   UNL     1       7.100   9.054  -3.273  1.00  0.00     0.049 A 
ATOM     27  C   UNL     1       5.577   6.392  -7.962  1.00  0.00     0.074 A 
ATOM     28  C   UNL     1       7.738  10.272  -3.431  1.00  0.00     0.029 A 
ATOM     29  N   UNL     1       6.820   8.582  -4.547  1.00  0.00    -0.354 N 
ATOM     30  N   UNL     1       6.015   7.120  -6.964  1.00  0.00    -0.248 NA
ATOM     31  C   UNL     1       5.750   7.014  -9.282  1.00  0.00     0.031 C 
ATOM     32  C   UNL     1       7.802  10.557  -4.798  1.00  0.00     0.029 A 
ATOM     33  C   UNL     1       7.253   9.493  -5.496  1.00  0.00     0.049 A 
ATOM     34  H   UNL     1       6.377   7.726  -4.748  1.00  0.00     0.167 HD
ATOM     35  C   UNL     1       6.551   8.267  -7.535  1.00  0.00     0.074 A 
ATOM     36  C   UNL     1       6.385   8.136  -8.969  1.00  0.00     0.031 C 
ATOM     37  C   UNL     1       7.128   9.330  -6.923  1.00  0.00     0.034 A 
BRANCH  24  38
ATOM     38  C   UNL     1       7.027   9.075  -0.743  1.00  0.00     0.023 A 
ATOM     39  C   UNL     1       8.036   8.594   0.117  1.00  0.00     0.012 A 
ATOM     40  C   UNL     1       6.306  10.230  -0.378  1.00  0.00     0.148 A 
ATOM     41  C   UNL     1       8.287   9.217   1.339  1.00  0.00     0.002 A 
ATOM     42  C   UNL     1       6.595  10.874   0.820  1.00  0.00     0.091 A 
ATOM     43  F   UNL     1       5.337  10.666  -1.196  1.00  0.00    -0.205 F 
ATOM     44  C   UNL     1       7.573  10.361   1.686  1.00  0.00     0.022 A 
BRANCH  42  45
ATOM     45  S   UNL     1       5.785  12.400   1.312  1.00  0.00     0.127 S 
ATOM     46  O   UNL     1       4.875  11.927   2.354  1.00  0.00    -0.237 OA
ATOM     47  O   UNL     1       6.907  13.203   1.802  1.00  0.00    -0.237 OA
ATOM     48  O   UNL     1       5.149  12.921   0.110  1.00  0.00    -0.744 OA
ENDBRANCH  42  45
ENDBRANCH  24  38
BRANCH  25  49
ATOM     49  C   UNL     1       4.495   4.345  -9.169  1.00  0.00     0.023 A 
ATOM     50  C   UNL     1       5.441   3.852 -10.087  1.00  0.00     0.012 A 
ATOM     51  C   UNL     1       3.124   4.111  -9.396  1.00  0.00     0.148 A 
ATOM     52  C   UNL     1       5.028   3.150 -11.219  1.00  0.00     0.002 A 
ATOM     53  C   UNL     1       2.724   3.362 -10.494  1.00  0.00     0.091 A 
ATOM     54  F   UNL     1       2.244   4.592  -8.506  1.00  0.00    -0.205 F 
ATOM     55  C   UNL     1       3.673   2.893 -11.416  1.00  0.00     0.022 A 
BRANCH  53  56
ATOM     56  S   UNL     1       1.019   2.862 -10.755  1.00  0.00     0.127 S 
ATOM     57  O   UNL     1       0.691   3.557 -11.997  1.00  0.00    -0.237 OA
ATOM     58  O   UNL     1       1.150   1.410 -10.877  1.00  0.00    -0.237 OA
ATOM     59  O   UNL     1       0.289   3.307  -9.576  1.00  0.00    -0.744 OA
ENDBRANCH  53  56
ENDBRANCH  25  49
BRANCH  37  60
ATOM     60  C   UNL     1       7.692  10.424  -7.790  1.00  0.00     0.023 A 
ATOM     61  C   UNL     1       6.834  11.330  -8.442  1.00  0.00     0.012 A 
ATOM     62  C   UNL     1       9.087  10.618  -7.859  1.00  0.00     0.148 A 
ATOM     63  C   UNL     1       7.356  12.404  -9.163  1.00  0.00     0.002 A 
ATOM     64  C   UNL     1       9.598  11.719  -8.534  1.00  0.00     0.091 A 
ATOM     65  F   UNL     1       9.885   9.730  -7.247  1.00  0.00    -0.205 F 
ATOM     66  C   UNL     1       8.735  12.607  -9.195  1.00  0.00     0.022 A 
BRANCH  64  67
ATOM     67  S   UNL     1      11.349  12.118  -8.540  1.00  0.00     0.127 S 
ATOM     68  O   UNL     1      11.697  11.909  -9.945  1.00  0.00    -0.237 OA
ATOM     69  O   UNL     1      11.346  13.518  -8.114  1.00  0.00    -0.237 OA
ATOM     70  O   UNL     1      11.978  11.199  -7.603  1.00  0.00    -0.744 OA
ENDBRANCH  64  67
ENDBRANCH  37  60
ENDBRANCH  11  12
ENDBRANCH   4   6
ENDBRANCH   1   2
BRANCH   1  71
ATOM     71  C   UNL     1       4.957  -0.851   2.309  1.00  0.00     0.042 C 
BRANCH  71  72
ATOM     72  C   UNL     1       4.385  -1.827   3.327  1.00  0.00     0.118 C 
BRANCH  72  73
ATOM     73  N   UNL     1       4.829  -3.203   3.126  1.00  0.00    -0.352 N 
ATOM     74  C   UNL     1       5.596  -4.003   3.930  1.00  0.00     0.253 C 
ATOM     75  H   UNL     1       4.532  -3.619   2.285  1.00  0.00     0.163 HD
ATOM     76  O   UNL     1       5.867  -5.160   3.621  1.00  0.00    -0.269 OA
BRANCH  74  77
ATOM     77  C   UNL     1       6.101  -3.483   5.205  1.00  0.00     0.070 A 
ATOM     78  C   UNL     1       5.176  -3.083   6.180  1.00  0.00     0.019 A 
ATOM     79  C   UNL     1       7.466  -3.410   5.485  1.00  0.00     0.158 A 
ATOM     80  C   UNL     1       5.628  -2.545   7.378  1.00  0.00     0.042 A 
ATOM     81  N   UNL     1       7.910  -2.898   6.680  1.00  0.00    -0.231 NA
ATOM     82  C   UNL     1       6.992  -2.470   7.571  1.00  0.00     0.129 A 
ATOM     83  Cl  UNL     1       7.643  -1.807   9.009  1.00  0.00    -0.062 Cl
BRANCH  79  84
ATOM     84  C   UNL     1       8.522  -3.916   4.512  1.00  0.00     0.434 C 
ATOM     85  F   UNL     1       9.658  -3.154   4.542  1.00  0.00    -0.164 F 
ATOM     86  F   UNL     1       8.934  -5.185   4.799  1.00  0.00    -0.164 F 
ATOM     87  F   UNL     1       8.155  -3.917   3.200  1.00  0.00    -0.164 F 
ENDBRANCH  79  84
ENDBRANCH  74  77
ENDBRANCH  72  73
ENDBRANCH  71  72
ENDBRANCH   1  71
TORSDOF 14
