REMARK SMILES Cc1nsc(N(C)C(=O)[C@H]2CCOC2)c1C(=O)NCCCNC(=O)c1ccc(-c2c3nc(c(-c4cccc(S(=O)(=O)[O-])c4F)c4ccc([nH]4)c(-c4cccc(S(=O)(=O)[O-])c4F)c4nc(c(-c5cccc(S(=O)(=O)[O-])c5F)c5ccc2[nH]5)C=C4)C=C3)cc1
REMARK SMILES IDX 20 1 19 2 18 3 16 4 17 5 15 7 1 8 2 9 3 10 4 11 5 12 6 13
REMARK SMILES IDX 7 14 8 15 9 16 10 17 11 18 14 19 12 20 13 21 21 22 22 23
REMARK SMILES IDX 23 24 24 26 25 27 26 28 87 29 27 30 86 31 28 32 29 33 30 34
REMARK SMILES IDX 80 35 31 36 85 37 79 38 81 39 32 40 84 41 78 42 77 43 33 45
REMARK SMILES IDX 65 46 45 47 64 48 46 49 49 50 63 51 82 52 47 53 48 54 62 56
REMARK SMILES IDX 83 57 50 58 34 59 35 60 43 61 36 62 38 63 44 64 37 65 39 66
REMARK SMILES IDX 40 67 41 68 42 69 66 70 67 71 75 72 68 73 70 74 76 75 69 76
REMARK SMILES IDX 71 77 72 78 73 79 74 80 51 81 52 82 60 83 53 84 55 85 61 86
REMARK SMILES IDX 54 87 56 88 57 89 58 90 59 91
REMARK H PARENT 18 6 22 25 81 44 49 55
REMARK Flexibility Score: inf
ROOT
ATOM      1  C   UNL     1      -1.700  -0.663 -11.201  1.00  0.00     0.042 C 
ENDROOT
BRANCH   1   2
ATOM      2  C   UNL     1      -0.977  -0.607  -9.853  1.00  0.00     0.118 C 
BRANCH   2   3
ATOM      3  N   UNL     1      -1.778  -1.172  -8.783  1.00  0.00    -0.352 N 
ATOM      4  C   UNL     1      -1.303  -2.077  -7.861  1.00  0.00     0.256 C 
ATOM      5  O   UNL     1      -1.022  -1.659  -6.736  1.00  0.00    -0.269 OA
ATOM      6  H   UNL     1      -2.719  -0.891  -8.713  1.00  0.00     0.163 HD
BRANCH   4   7
ATOM      7  C   UNL     1      -1.225  -3.507  -8.187  1.00  0.00     0.097 A 
ATOM      8  C   UNL     1      -0.423  -3.649 -10.730  1.00  0.00     0.069 C 
ATOM      9  C   UNL     1      -0.776  -4.194  -9.395  1.00  0.00     0.066 A 
ATOM     10  N   UNL     1      -0.614  -5.516  -9.298  1.00  0.00    -0.195 NA
ATOM     11  S   UNL     1      -1.082  -6.015  -7.816  1.00  0.00    -0.017 S 
ATOM     12  C   UNL     1      -1.544  -4.479  -7.227  1.00  0.00     0.131 A 
BRANCH  12  13
ATOM     13  N   UNL     1      -2.155  -4.432  -5.952  1.00  0.00    -0.305 N 
ATOM     14  C   UNL     1      -1.852  -5.418  -4.920  1.00  0.00     0.154 C 
BRANCH  13  15
ATOM     15  C   UNL     1      -3.221  -3.518  -5.797  1.00  0.00     0.232 C 
ATOM     16  O   UNL     1      -3.742  -2.953  -6.763  1.00  0.00    -0.274 OA
BRANCH  15  17
ATOM     17  C   UNL     1      -3.728  -3.247  -4.372  1.00  0.00     0.107 C 
ATOM     18  C   UNL     1      -4.755  -2.126  -4.292  1.00  0.00     0.044 C 
ATOM     19  C   UNL     1      -4.513  -4.391  -3.762  1.00  0.00     0.173 C 
ATOM     20  C   UNL     1      -5.564  -2.449  -3.050  1.00  0.00     0.161 C 
ATOM     21  O   UNL     1      -5.353  -3.839  -2.749  1.00  0.00    -0.381 OA
ENDBRANCH  15  17
ENDBRANCH  13  15
ENDBRANCH  12  13
ENDBRANCH   4   7
ENDBRANCH   2   3
ENDBRANCH   1   2
BRANCH   1  22
ATOM     22  C   UNL     1      -2.380   0.642 -11.568  1.00  0.00     0.118 C 
BRANCH  22  23
ATOM     23  N   UNL     1      -1.415   1.689 -11.910  1.00  0.00    -0.352 N 
ATOM     24  C   UNL     1      -1.661   3.032 -12.139  1.00  0.00     0.251 C 
ATOM     25  H   UNL     1      -0.477   1.402 -11.987  1.00  0.00     0.163 HD
ATOM     26  O   UNL     1      -0.856   3.727 -12.727  1.00  0.00    -0.269 OA
BRANCH  24  27
ATOM     27  C   UNL     1      -2.941   3.586 -11.662  1.00  0.00     0.039 A 
ATOM     28  C   UNL     1      -3.738   4.369 -12.501  1.00  0.00     0.014 A 
ATOM     29  C   UNL     1      -3.373   3.219 -10.393  1.00  0.00     0.014 A 
ATOM     30  C   UNL     1      -5.027   4.696 -12.087  1.00  0.00     0.010 A 
ATOM     31  C   UNL     1      -4.691   3.407 -10.058  1.00  0.00     0.010 A 
ATOM     32  C   UNL     1      -5.510   4.184 -10.875  1.00  0.00    -0.014 A 
BRANCH  32  33
ATOM     33  C   UNL     1      -6.906   4.368 -10.487  1.00  0.00     0.031 A 
ATOM     34  C   UNL     1      -7.930   3.918 -11.472  1.00  0.00     0.074 A 
ATOM     35  C   UNL     1      -7.261   4.701  -9.227  1.00  0.00     0.049 A 
ATOM     36  N   UNL     1      -8.803   4.650 -12.083  1.00  0.00    -0.248 NA
ATOM     37  C   UNL     1      -7.931   2.512 -11.902  1.00  0.00     0.031 C 
ATOM     38  C   UNL     1      -6.386   4.884  -8.061  1.00  0.00     0.029 A 
ATOM     39  N   UNL     1      -8.506   4.772  -8.683  1.00  0.00    -0.354 N 
ATOM     40  C   UNL     1      -9.603   3.772 -12.813  1.00  0.00     0.074 A 
ATOM     41  C   UNL     1      -8.918   2.505 -12.801  1.00  0.00     0.031 C 
ATOM     42  C   UNL     1      -7.114   4.754  -6.933  1.00  0.00     0.029 A 
ATOM     43  C   UNL     1      -8.514   4.673  -7.297  1.00  0.00     0.049 A 
ATOM     44  H   UNL     1      -9.323   4.884  -9.221  1.00  0.00     0.167 HD
ATOM     45  C   UNL     1     -10.872   4.102 -13.186  1.00  0.00     0.034 A 
ATOM     46  C   UNL     1      -9.593   4.497  -6.501  1.00  0.00     0.034 A 
ATOM     47  C   UNL     1     -11.138   5.501 -12.975  1.00  0.00     0.049 A 
ATOM     48  C   UNL     1     -10.777   4.943  -7.270  1.00  0.00     0.074 A 
ATOM     49  C   UNL     1     -10.591   6.684 -13.430  1.00  0.00     0.029 A 
ATOM     50  N   UNL     1     -11.885   5.829 -11.868  1.00  0.00    -0.354 N 
ATOM     51  N   UNL     1     -10.980   6.185  -7.612  1.00  0.00    -0.248 NA
ATOM     52  C   UNL     1     -11.527   3.957  -8.029  1.00  0.00     0.031 C 
ATOM     53  C   UNL     1     -10.640   7.561 -12.307  1.00  0.00     0.029 A 
ATOM     54  C   UNL     1     -11.265   6.885 -11.257  1.00  0.00     0.049 A 
ATOM     55  H   UNL     1     -12.712   5.386 -11.571  1.00  0.00     0.167 HD
ATOM     56  C   UNL     1     -11.493   6.108  -8.900  1.00  0.00     0.074 A 
ATOM     57  C   UNL     1     -11.937   4.723  -9.044  1.00  0.00     0.031 C 
ATOM     58  C   UNL     1     -11.235   7.084  -9.823  1.00  0.00     0.034 A 
BRANCH  45  59
ATOM     59  C   UNL     1     -12.009   3.137 -13.431  1.00  0.00     0.023 A 
ATOM     60  C   UNL     1     -13.187   3.657 -14.020  1.00  0.00     0.012 A 
ATOM     61  C   UNL     1     -12.090   1.842 -12.877  1.00  0.00     0.148 A 
ATOM     62  C   UNL     1     -14.393   2.946 -14.009  1.00  0.00     0.002 A 
ATOM     63  C   UNL     1     -13.270   1.107 -12.941  1.00  0.00     0.091 A 
ATOM     64  F   UNL     1     -11.071   1.359 -12.160  1.00  0.00    -0.205 F 
ATOM     65  C   UNL     1     -14.433   1.666 -13.476  1.00  0.00     0.022 A 
BRANCH  63  66
ATOM     66  S   UNL     1     -13.360  -0.576 -12.318  1.00  0.00     0.127 S 
ATOM     67  O   UNL     1     -14.060  -0.384 -11.052  1.00  0.00    -0.237 OA
ATOM     68  O   UNL     1     -14.138  -1.244 -13.362  1.00  0.00    -0.237 OA
ATOM     69  O   UNL     1     -11.976  -1.026 -12.228  1.00  0.00    -0.744 OA
ENDBRANCH  63  66
ENDBRANCH  45  59
BRANCH  46  70
ATOM     70  C   UNL     1      -9.691   3.839  -5.181  1.00  0.00     0.023 A 
ATOM     71  C   UNL     1     -10.752   4.162  -4.316  1.00  0.00     0.012 A 
ATOM     72  C   UNL     1      -8.888   2.718  -4.866  1.00  0.00     0.148 A 
ATOM     73  C   UNL     1     -11.027   3.377  -3.191  1.00  0.00     0.002 A 
ATOM     74  C   UNL     1      -9.160   1.945  -3.742  1.00  0.00     0.091 A 
ATOM     75  F   UNL     1      -7.917   2.357  -5.717  1.00  0.00    -0.205 F 
ATOM     76  C   UNL     1     -10.238   2.265  -2.907  1.00  0.00     0.022 A 
BRANCH  74  77
ATOM     77  S   UNL     1      -8.196   0.485  -3.329  1.00  0.00     0.127 S 
ATOM     78  O   UNL     1      -7.985   0.648  -1.890  1.00  0.00    -0.237 OA
ATOM     79  O   UNL     1      -9.107  -0.594  -3.696  1.00  0.00    -0.237 OA
ATOM     80  O   UNL     1      -6.973   0.575  -4.117  1.00  0.00    -0.744 OA
ENDBRANCH  74  77
ENDBRANCH  46  70
BRANCH  58  81
ATOM     81  C   UNL     1     -10.587   8.364  -9.348  1.00  0.00     0.023 A 
ATOM     82  C   UNL     1      -9.306   8.377  -8.755  1.00  0.00     0.012 A 
ATOM     83  C   UNL     1     -11.188   9.590  -9.678  1.00  0.00     0.148 A 
ATOM     84  C   UNL     1      -8.654   9.580  -8.472  1.00  0.00     0.002 A 
ATOM     85  C   UNL     1     -10.515  10.784  -9.442  1.00  0.00     0.091 A 
ATOM     86  F   UNL     1     -12.402   9.569 -10.251  1.00  0.00    -0.205 F 
ATOM     87  C   UNL     1      -9.253  10.784  -8.829  1.00  0.00     0.022 A 
BRANCH  85  88
ATOM     88  S   UNL     1     -11.172  12.355 -10.007  1.00  0.00     0.127 S 
ATOM     89  O   UNL     1     -11.719  12.920  -8.775  1.00  0.00    -0.237 OA
ATOM     90  O   UNL     1      -9.979  13.036 -10.514  1.00  0.00    -0.237 OA
ATOM     91  O   UNL     1     -12.149  12.028 -11.040  1.00  0.00    -0.744 OA
ENDBRANCH  85  88
ENDBRANCH  58  81
ENDBRANCH  32  33
ENDBRANCH  24  27
ENDBRANCH  22  23
ENDBRANCH   1  22
TORSDOF 16
