REMARK SMILES O=C(NCCCNC(=O)[C@@H]1[C@@H](C(=O)N2CC[NH+](C/C=C/c3ccccc3)CC2)[C@@H]2C=C[C@H]1C2)c1ccc(-c2c3nc(c(-c4cccc(S(=O)(=O)[O-])c4F)c4ccc([nH]4)c(-c4cccc(S(=O)(=O)[O-])c4F)c4nc(c(-c5cccc(S(=O)(=O)[O-])c5F)c5ccc2[nH]5)C=C4)C=C3)cc1
REMARK SMILES IDX 5 1 4 2 3 3 1 4 2 5 34 7 35 8 96 9 36 10 95 11 37 12 38 13
REMARK SMILES IDX 39 14 89 15 40 16 94 17 88 18 90 19 41 20 93 21 87 22 86 23
REMARK SMILES IDX 42 25 74 26 54 27 73 28 55 29 58 30 72 31 91 32 56 33 57 34
REMARK SMILES IDX 71 36 92 37 59 38 43 39 44 40 52 41 45 42 47 43 53 44 46 45
REMARK SMILES IDX 48 46 49 47 50 48 51 49 75 50 76 51 84 52 77 53 79 54 85 55
REMARK SMILES IDX 78 56 80 57 81 58 82 59 83 60 60 61 61 62 69 63 62 64 64 65
REMARK SMILES IDX 70 66 63 67 65 68 66 69 67 70 68 71 6 72 7 73 8 74 9 76
REMARK SMILES IDX 10 77 11 78 32 79 29 80 31 81 33 82 30 83 12 84 13 85 14 86
REMARK SMILES IDX 15 87 28 88 16 89 27 90 17 91 18 93 19 94 20 95 21 96 22 97
REMARK SMILES IDX 26 98 23 99 25 100 24 101
REMARK H PARENT 3 6 90 24 58 35 7 75 17 92
REMARK Flexibility Score: inf
ROOT
ATOM      1  C   UNL     1       5.229   1.815  -0.113  1.00  0.00     0.042 C 
ENDROOT
BRANCH   1   2
ATOM      2  C   UNL     1       4.512   1.218   1.087  1.00  0.00     0.118 C 
BRANCH   2   3
ATOM      3  N   UNL     1       3.091   0.990   0.844  1.00  0.00    -0.352 N 
ATOM      4  O   UNL     1       1.227   0.096  -0.027  1.00  0.00    -0.269 OA
ATOM      5  C   UNL     1       2.421  -0.046   0.235  1.00  0.00     0.251 C 
ATOM      6  H   UNL     1       2.506   1.708   1.176  1.00  0.00     0.163 HD
BRANCH   5   7
ATOM      7  C   UNL     1       3.119  -1.298  -0.145  1.00  0.00     0.039 A 
ATOM      8  C   UNL     1       4.136  -1.818   0.647  1.00  0.00     0.014 A 
ATOM      9  C   UNL     1       2.724  -1.999  -1.291  1.00  0.00     0.014 A 
ATOM     10  C   UNL     1       4.898  -2.885   0.198  1.00  0.00     0.010 A 
ATOM     11  C   UNL     1       3.391  -3.176  -1.661  1.00  0.00     0.010 A 
ATOM     12  C   UNL     1       4.509  -3.612  -0.935  1.00  0.00    -0.014 A 
BRANCH  12  13
ATOM     13  C   UNL     1       5.230  -4.877  -1.239  1.00  0.00     0.031 A 
ATOM     14  C   UNL     1       5.934  -5.094  -2.549  1.00  0.00     0.074 A 
ATOM     15  C   UNL     1       5.273  -5.828  -0.280  1.00  0.00     0.049 A 
ATOM     16  N   UNL     1       6.644  -6.125  -2.933  1.00  0.00    -0.248 NA
ATOM     17  C   UNL     1       5.827  -4.034  -3.564  1.00  0.00     0.031 C 
ATOM     18  C   UNL     1       4.583  -5.748   1.013  1.00  0.00     0.029 A 
ATOM     19  N   UNL     1       5.931  -7.029  -0.223  1.00  0.00    -0.354 N 
ATOM     20  C   UNL     1       7.020  -5.865  -4.245  1.00  0.00     0.074 A 
ATOM     21  C   UNL     1       6.467  -4.574  -4.594  1.00  0.00     0.031 C 
ATOM     22  C   UNL     1       4.903  -6.815   1.755  1.00  0.00     0.029 A 
ATOM     23  C   UNL     1       5.747  -7.700   0.965  1.00  0.00     0.049 A 
ATOM     24  H   UNL     1       6.483  -7.378  -0.960  1.00  0.00     0.167 HD
ATOM     25  C   UNL     1       7.766  -6.632  -5.077  1.00  0.00     0.034 A 
ATOM     26  C   UNL     1       6.184  -8.906   1.372  1.00  0.00     0.034 A 
ATOM     27  C   UNL     1       8.354  -7.892  -4.702  1.00  0.00     0.049 A 
ATOM     28  C   UNL     1       7.041  -9.708   0.440  1.00  0.00     0.074 A 
ATOM     29  C   UNL     1       9.183  -8.709  -5.452  1.00  0.00     0.029 A 
ATOM     30  N   UNL     1       8.174  -8.521  -3.480  1.00  0.00    -0.354 N 
ATOM     31  N   UNL     1       7.483  -9.387  -0.751  1.00  0.00    -0.248 NA
ATOM     32  C   UNL     1       7.475 -11.030   0.910  1.00  0.00     0.031 C 
ATOM     33  C   UNL     1       9.486  -9.842  -4.690  1.00  0.00     0.029 A 
ATOM     34  C   UNL     1       8.866  -9.721  -3.458  1.00  0.00     0.049 A 
ATOM     35  H   UNL     1       7.634  -8.167  -2.736  1.00  0.00     0.167 HD
ATOM     36  C   UNL     1       8.258 -10.459  -1.169  1.00  0.00     0.074 A 
ATOM     37  C   UNL     1       8.257 -11.422  -0.086  1.00  0.00     0.031 C 
ATOM     38  C   UNL     1       8.891 -10.644  -2.353  1.00  0.00     0.034 A 
BRANCH  25  39
ATOM     39  C   UNL     1       8.026  -6.127  -6.472  1.00  0.00     0.023 A 
ATOM     40  C   UNL     1       8.964  -5.096  -6.679  1.00  0.00     0.012 A 
ATOM     41  C   UNL     1       7.421  -6.745  -7.586  1.00  0.00     0.148 A 
ATOM     42  C   UNL     1       9.284  -4.677  -7.970  1.00  0.00     0.002 A 
ATOM     43  C   UNL     1       7.774  -6.348  -8.871  1.00  0.00     0.091 A 
ATOM     44  F   UNL     1       6.518  -7.712  -7.367  1.00  0.00    -0.205 F 
ATOM     45  C   UNL     1       8.699  -5.310  -9.064  1.00  0.00     0.022 A 
BRANCH  43  46
ATOM     46  S   UNL     1       7.135  -7.150 -10.346  1.00  0.00     0.127 S 
ATOM     47  O   UNL     1       6.290  -6.099 -10.911  1.00  0.00    -0.237 OA
ATOM     48  O   UNL     1       8.358  -7.421 -11.102  1.00  0.00    -0.237 OA
ATOM     49  O   UNL     1       6.428  -8.337  -9.886  1.00  0.00    -0.744 OA
ENDBRANCH  43  46
ENDBRANCH  25  39
BRANCH  26  50
ATOM     50  C   UNL     1       5.825  -9.409   2.728  1.00  0.00     0.023 A 
ATOM     51  C   UNL     1       6.826  -9.560   3.706  1.00  0.00     0.012 A 
ATOM     52  C   UNL     1       4.487  -9.694   3.067  1.00  0.00     0.148 A 
ATOM     53  C   UNL     1       6.504 -10.009   4.988  1.00  0.00     0.002 A 
ATOM     54  C   UNL     1       4.165 -10.075   4.364  1.00  0.00     0.091 A 
ATOM     55  F   UNL     1       3.548  -9.568   2.119  1.00  0.00    -0.205 F 
ATOM     56  C   UNL     1       5.174 -10.252   5.322  1.00  0.00     0.022 A 
BRANCH  54  57
ATOM     57  S   UNL     1       2.459 -10.242   4.901  1.00  0.00     0.127 S 
ATOM     58  O   UNL     1       2.269 -11.688   4.850  1.00  0.00    -0.237 OA
ATOM     59  O   UNL     1       2.502  -9.672   6.248  1.00  0.00    -0.237 OA
ATOM     60  O   UNL     1       1.682  -9.457   3.951  1.00  0.00    -0.744 OA
ENDBRANCH  54  57
ENDBRANCH  26  50
BRANCH  38  61
ATOM     61  C   UNL     1       9.652 -11.928  -2.529  1.00  0.00     0.023 A 
ATOM     62  C   UNL     1       8.948 -13.134  -2.722  1.00  0.00     0.012 A 
ATOM     63  C   UNL     1      11.059 -11.933  -2.556  1.00  0.00     0.148 A 
ATOM     64  C   UNL     1       9.636 -14.332  -2.905  1.00  0.00     0.002 A 
ATOM     65  C   UNL     1      11.737 -13.124  -2.787  1.00  0.00     0.091 A 
ATOM     66  F   UNL     1      11.708 -10.778  -2.348  1.00  0.00    -0.205 F 
ATOM     67  C   UNL     1      11.028 -14.325  -2.949  1.00  0.00     0.022 A 
BRANCH  65  68
ATOM     68  S   UNL     1      13.524 -13.193  -2.950  1.00  0.00     0.127 S 
ATOM     69  O   UNL     1      13.916 -13.796  -1.678  1.00  0.00    -0.237 OA
ATOM     70  O   UNL     1      13.698 -14.059  -4.116  1.00  0.00    -0.237 OA
ATOM     71  O   UNL     1      13.960 -11.817  -3.152  1.00  0.00    -0.744 OA
ENDBRANCH  65  68
ENDBRANCH  38  61
ENDBRANCH  12  13
ENDBRANCH   5   7
ENDBRANCH   2   3
ENDBRANCH   1   2
BRANCH   1  72
ATOM     72  C   UNL     1       4.882   3.274  -0.340  1.00  0.00     0.117 C 
BRANCH  72  73
ATOM     73  N   UNL     1       5.365   4.154   0.706  1.00  0.00    -0.356 N 
ATOM     74  C   UNL     1       5.680   5.470   0.685  1.00  0.00     0.224 C 
ATOM     75  H   UNL     1       5.485   3.720   1.581  1.00  0.00     0.163 HD
ATOM     76  O   UNL     1       5.835   6.005   1.792  1.00  0.00    -0.275 OA
BRANCH  74  77
ATOM     77  C   UNL     1       5.963   6.271  -0.579  1.00  0.00     0.098 C 
ATOM     78  C   UNL     1       5.373   7.715  -0.390  1.00  0.00     0.098 C 
ATOM     79  C   UNL     1       5.411   5.882  -1.972  1.00  0.00     0.025 C 
ATOM     80  C   UNL     1       4.641   7.964  -1.735  1.00  0.00     0.025 C 
ATOM     81  C   UNL     1       3.900   5.812  -1.960  1.00  0.00    -0.027 C 
ATOM     82  C   UNL     1       5.543   7.211  -2.721  1.00  0.00     0.017 C 
ATOM     83  C   UNL     1       3.439   7.058  -1.791  1.00  0.00    -0.027 C 
BRANCH  78  84
ATOM     84  C   UNL     1       6.428   8.798  -0.279  1.00  0.00     0.227 C 
ATOM     85  O   UNL     1       7.553   8.673  -0.759  1.00  0.00    -0.275 OA
ATOM     86  N   UNL     1       5.951  10.022   0.185  1.00  0.00    -0.331 N 
ATOM     87  C   UNL     1       6.561  11.206  -0.410  1.00  0.00     0.181 C 
ATOM     88  C   UNL     1       5.508  10.124   1.578  1.00  0.00     0.181 C 
ATOM     89  C   UNL     1       5.882  12.519  -0.004  1.00  0.00     0.284 C 
ATOM     90  C   UNL     1       4.945  11.506   1.973  1.00  0.00     0.284 C 
ATOM     91  N   UNL     1       5.641  12.685   1.437  1.00  0.00    -0.329 N 
ATOM     92  H   UNL     1       5.006  13.473   1.562  1.00  0.00     0.348 HD
BRANCH  91  93
ATOM     93  C   UNL     1       6.805  13.148   2.201  1.00  0.00     0.291 C 
BRANCH  93  94
ATOM     94  C   UNL     1       7.971  12.209   2.291  1.00  0.00     0.034 C 
ATOM     95  C   UNL     1       9.149  12.394   1.670  1.00  0.00     0.009 C 
BRANCH  95  96
ATOM     96  C   UNL     1      10.187  11.355   1.577  1.00  0.00    -0.026 A 
ATOM     97  C   UNL     1      11.537  11.716   1.536  1.00  0.00     0.008 A 
ATOM     98  C   UNL     1       9.849  10.009   1.370  1.00  0.00     0.008 A 
ATOM     99  C   UNL     1      12.524  10.751   1.303  1.00  0.00     0.001 A 
ATOM    100  C   UNL     1      10.830   9.047   1.123  1.00  0.00     0.001 A 
ATOM    101  C   UNL     1      12.169   9.419   1.090  1.00  0.00     0.000 A 
ENDBRANCH  95  96
ENDBRANCH  93  94
ENDBRANCH  91  93
ENDBRANCH  78  84
ENDBRANCH  74  77
ENDBRANCH  72  73
ENDBRANCH   1  72
TORSDOF 17
