REMARK SMILES Cc1ccc2[nH]cc([C@@H](C(=O)NCCCNC(=O)c3ccc(-c4c5nc(c(-c6cccc(S(=O)(=O)[O-])c6F)c6ccc([nH]6)c(-c6cccc(S(=O)(=O)[O-])c6F)c6nc(c(-c7cccc(S(=O)(=O)[O-])c7F)c7ccc4[nH]7)C=C6)C=C5)cc3)[NH+]3CCN(c4ccc(F)cc4)CC3)c2c1
REMARK SMILES IDX 14 1 13 2 12 3 10 4 11 5 9 7 8 8 1 9 2 10 3 11 96 12 4 13
REMARK SMILES IDX 95 14 5 15 6 16 7 17 82 19 83 20 94 21 84 23 93 24 85 25
REMARK SMILES IDX 86 26 87 27 92 28 88 29 91 30 89 31 90 32 15 33 16 34 17 35
REMARK SMILES IDX 18 37 19 38 20 39 81 40 21 41 80 42 22 43 23 44 24 45 74 46
REMARK SMILES IDX 25 47 79 48 73 49 75 50 26 51 78 52 72 53 71 54 27 56 59 57
REMARK SMILES IDX 39 58 58 59 40 60 43 61 57 62 76 63 41 64 42 65 56 67 77 68
REMARK SMILES IDX 44 69 28 70 29 71 37 72 30 73 32 74 38 75 31 76 33 77 34 78
REMARK SMILES IDX 35 79 36 80 60 81 61 82 69 83 62 84 64 85 70 86 63 87 65 88
REMARK SMILES IDX 66 89 67 90 68 91 45 92 46 93 54 94 47 95 49 96 55 97 48 98
REMARK SMILES IDX 50 99 51 100 52 101 53 102
REMARK H PARENT 12 6 6 18 82 22 16 36 75 55 43 66
REMARK Flexibility Score: inf
ROOT
ATOM      1  C   UNL     1      -0.641  -1.430   3.581  1.00  0.00     0.042 C 
ENDROOT
BRANCH   1   2
ATOM      2  C   UNL     1      -0.621  -2.796   2.902  1.00  0.00     0.118 C 
BRANCH   2   3
ATOM      3  N   UNL     1      -1.948  -3.286   2.583  1.00  0.00    -0.351 N 
ATOM      4  C   UNL     1      -2.643  -3.239   1.399  1.00  0.00     0.283 C 
ATOM      5  O   UNL     1      -3.770  -3.743   1.424  1.00  0.00    -0.268 OA
ATOM      6  H   UNL     1      -2.424  -3.719   3.329  1.00  0.00     0.163 HD
BRANCH   4   7
ATOM      7  C   UNL     1      -1.969  -2.636   0.122  1.00  0.00     0.307 C 
BRANCH   7   8
ATOM      8  C   UNL     1      -1.696  -1.158   0.249  1.00  0.00     0.044 A 
ATOM      9  C   UNL     1       3.388  -0.634  -0.237  1.00  0.00     0.044 C 
ATOM     10  C   UNL     1       1.988  -0.104  -0.127  1.00  0.00    -0.050 A 
ATOM     11  C   UNL     1       1.754   1.264   0.031  1.00  0.00     0.005 A 
ATOM     12  C   UNL     1       0.904  -0.999  -0.122  1.00  0.00     0.014 A 
ATOM     13  C   UNL     1       0.464   1.764   0.233  1.00  0.00     0.027 A 
ATOM     14  C   UNL     1      -0.407  -0.525   0.110  1.00  0.00     0.009 A 
ATOM     15  C   UNL     1      -0.587   0.844   0.299  1.00  0.00     0.046 A 
ATOM     16  N   UNL     1      -1.918   1.046   0.573  1.00  0.00    -0.361 N 
ATOM     17  C   UNL     1      -2.576  -0.153   0.616  1.00  0.00     0.094 A 
ATOM     18  H   UNL     1      -2.337   1.926   0.716  1.00  0.00     0.166 HD
ENDBRANCH   7   8
BRANCH   7  19
ATOM     19  N   UNL     1      -2.666  -3.015  -1.133  1.00  0.00    -0.318 N 
ATOM     20  C   UNL     1      -4.064  -2.589  -1.316  1.00  0.00     0.284 C 
ATOM     21  C   UNL     1      -1.894  -2.783  -2.366  1.00  0.00     0.284 C 
ATOM     22  H   UNL     1      -2.730  -4.019  -0.967  1.00  0.00     0.349 HD
ATOM     23  C   UNL     1      -4.322  -1.238  -2.018  1.00  0.00     0.178 C 
ATOM     24  C   UNL     1      -2.054  -1.398  -3.038  1.00  0.00     0.178 C 
ATOM     25  N   UNL     1      -3.473  -1.046  -3.201  1.00  0.00    -0.360 N 
BRANCH  25  26
ATOM     26  C   UNL     1      -3.702   0.112  -3.947  1.00  0.00     0.037 A 
ATOM     27  C   UNL     1      -3.836   1.380  -3.358  1.00  0.00     0.029 A 
ATOM     28  C   UNL     1      -3.802   0.011  -5.340  1.00  0.00     0.029 A 
ATOM     29  C   UNL     1      -4.103   2.509  -4.136  1.00  0.00     0.041 A 
ATOM     30  C   UNL     1      -4.072   1.136  -6.122  1.00  0.00     0.041 A 
ATOM     31  C   UNL     1      -4.228   2.373  -5.511  1.00  0.00     0.123 A 
ATOM     32  F   UNL     1      -4.502   3.449  -6.260  1.00  0.00    -0.207 F 
ENDBRANCH  25  26
ENDBRANCH   7  19
ENDBRANCH   4   7
ENDBRANCH   2   3
ENDBRANCH   1   2
BRANCH   1  33
ATOM     33  C   UNL     1      -1.348  -1.408   4.929  1.00  0.00     0.118 C 
BRANCH  33  34
ATOM     34  N   UNL     1      -0.671  -2.227   5.921  1.00  0.00    -0.352 N 
ATOM     35  C   UNL     1      -0.141  -1.882   7.138  1.00  0.00     0.251 C 
ATOM     36  H   UNL     1      -0.579  -3.178   5.682  1.00  0.00     0.163 HD
ATOM     37  O   UNL     1       0.585  -2.686   7.718  1.00  0.00    -0.269 OA
BRANCH  35  38
ATOM     38  C   UNL     1      -0.425  -0.564   7.751  1.00  0.00     0.039 A 
ATOM     39  C   UNL     1       0.595   0.073   8.462  1.00  0.00     0.014 A 
ATOM     40  C   UNL     1      -1.694   0.021   7.685  1.00  0.00     0.014 A 
ATOM     41  C   UNL     1       0.355   1.306   9.073  1.00  0.00     0.010 A 
ATOM     42  C   UNL     1      -1.909   1.288   8.225  1.00  0.00     0.010 A 
ATOM     43  C   UNL     1      -0.894   1.935   8.942  1.00  0.00    -0.014 A 
BRANCH  43  44
ATOM     44  C   UNL     1      -1.134   3.271   9.548  1.00  0.00     0.031 A 
ATOM     45  C   UNL     1      -2.160   3.454  10.635  1.00  0.00     0.074 A 
ATOM     46  C   UNL     1      -0.460   4.338   9.077  1.00  0.00     0.049 A 
ATOM     47  N   UNL     1      -2.466   4.537  11.302  1.00  0.00    -0.248 NA
ATOM     48  C   UNL     1      -2.967   2.279  11.002  1.00  0.00     0.031 C 
ATOM     49  C   UNL     1       0.482   4.312   7.956  1.00  0.00     0.029 A 
ATOM     50  N   UNL     1      -0.474   5.653   9.468  1.00  0.00    -0.354 N 
ATOM     51  C   UNL     1      -3.517   4.185  12.141  1.00  0.00     0.074 A 
ATOM     52  C   UNL     1      -3.822   2.797  11.873  1.00  0.00     0.031 C 
ATOM     53  C   UNL     1       0.967   5.548   7.760  1.00  0.00     0.029 A 
ATOM     54  C   UNL     1       0.360   6.457   8.727  1.00  0.00     0.049 A 
ATOM     55  H   UNL     1      -1.029   5.989  10.208  1.00  0.00     0.167 HD
ATOM     56  C   UNL     1      -4.149   4.938  13.073  1.00  0.00     0.034 A 
ATOM     57  C   UNL     1       0.618   7.776   8.822  1.00  0.00     0.034 A 
ATOM     58  C   UNL     1      -3.810   6.304  13.370  1.00  0.00     0.049 A 
ATOM     59  C   UNL     1      -0.029   8.569   9.923  1.00  0.00     0.074 A 
ATOM     60  C   UNL     1      -4.317   7.121  14.364  1.00  0.00     0.029 A 
ATOM     61  N   UNL     1      -2.881   7.058  12.670  1.00  0.00    -0.354 N 
ATOM     62  N   UNL     1      -0.886   8.170  10.832  1.00  0.00    -0.248 NA
ATOM     63  C   UNL     1       0.361   9.981  10.045  1.00  0.00     0.031 C 
ATOM     64  C   UNL     1      -3.708   8.376  14.252  1.00  0.00     0.029 A 
ATOM     65  C   UNL     1      -2.803   8.332  13.204  1.00  0.00     0.049 A 
ATOM     66  H   UNL     1      -2.353   6.734  11.904  1.00  0.00     0.167 HD
ATOM     67  C   UNL     1      -1.111   9.268  11.654  1.00  0.00     0.074 A 
ATOM     68  C   UNL     1      -0.282  10.343  11.147  1.00  0.00     0.031 C 
ATOM     69  C   UNL     1      -1.938   9.379  12.723  1.00  0.00     0.034 A 
BRANCH  56  70
ATOM     70  C   UNL     1      -5.238   4.280  13.884  1.00  0.00     0.023 A 
ATOM     71  C   UNL     1      -4.897   3.304  14.843  1.00  0.00     0.012 A 
ATOM     72  C   UNL     1      -6.586   4.662  13.739  1.00  0.00     0.148 A 
ATOM     73  C   UNL     1      -5.882   2.691  15.617  1.00  0.00     0.002 A 
ATOM     74  C   UNL     1      -7.557   4.079  14.546  1.00  0.00     0.091 A 
ATOM     75  F   UNL     1      -6.897   5.574  12.807  1.00  0.00    -0.205 F 
ATOM     76  C   UNL     1      -7.209   3.086  15.476  1.00  0.00     0.022 A 
BRANCH  74  77
ATOM     77  S   UNL     1      -9.282   4.580  14.495  1.00  0.00     0.127 S 
ATOM     78  O   UNL     1      -9.896   3.452  13.797  1.00  0.00    -0.237 OA
ATOM     79  O   UNL     1      -9.620   4.674  15.916  1.00  0.00    -0.237 OA
ATOM     80  O   UNL     1      -9.307   5.850  13.783  1.00  0.00    -0.744 OA
ENDBRANCH  74  77
ENDBRANCH  56  70
BRANCH  57  81
ATOM     81  C   UNL     1       1.609   8.398   7.900  1.00  0.00     0.023 A 
ATOM     82  C   UNL     1       2.869   8.787   8.396  1.00  0.00     0.012 A 
ATOM     83  C   UNL     1       1.335   8.548   6.527  1.00  0.00     0.148 A 
ATOM     84  C   UNL     1       3.828   9.339   7.547  1.00  0.00     0.002 A 
ATOM     85  C   UNL     1       2.316   9.044   5.676  1.00  0.00     0.091 A 
ATOM     86  F   UNL     1       0.127   8.180   6.077  1.00  0.00    -0.205 F 
ATOM     87  C   UNL     1       3.557   9.456   6.186  1.00  0.00     0.022 A 
BRANCH  85  88
ATOM     88  S   UNL     1       2.105   9.093   3.892  1.00  0.00     0.127 S 
ATOM     89  O   UNL     1       1.969  10.525   3.645  1.00  0.00    -0.237 OA
ATOM     90  O   UNL     1       3.357   8.501   3.423  1.00  0.00    -0.237 OA
ATOM     91  O   UNL     1       0.923   8.286   3.615  1.00  0.00    -0.744 OA
ENDBRANCH  85  88
ENDBRANCH  57  81
BRANCH  69  92
ATOM     92  C   UNL     1      -1.970  10.700  13.445  1.00  0.00     0.023 A 
ATOM     93  C   UNL     1      -2.592  11.813  12.845  1.00  0.00     0.012 A 
ATOM     94  C   UNL     1      -1.442  10.821  14.746  1.00  0.00     0.148 A 
ATOM     95  C   UNL     1      -2.656  13.035  13.514  1.00  0.00     0.002 A 
ATOM     96  C   UNL     1      -1.553  12.029  15.425  1.00  0.00     0.091 A 
ATOM     97  F   UNL     1      -0.835   9.758  15.293  1.00  0.00    -0.205 F 
ATOM     98  C   UNL     1      -2.148  13.140  14.806  1.00  0.00     0.022 A 
BRANCH  96  99
ATOM     99  S   UNL     1      -1.011  12.221  17.127  1.00  0.00     0.127 S 
ATOM    100  O   UNL     1       0.247  12.945  16.960  1.00  0.00    -0.237 OA
ATOM    101  O   UNL     1      -2.095  13.010  17.714  1.00  0.00    -0.237 OA
ATOM    102  O   UNL     1      -0.895  10.870  17.661  1.00  0.00    -0.744 OA
ENDBRANCH  96  99
ENDBRANCH  69  92
ENDBRANCH  43  44
ENDBRANCH  35  38
ENDBRANCH  33  34
ENDBRANCH   1  33
TORSDOF 16
