REMARK SMILES O=C(NCCCNC(=O)c1cncc(Oc2cc(F)ccc2F)n1)c1ccc(-c2c3nc(c(-c4cccc(S(=O)(=O)[O-])c4F)c4ccc([nH]4)c(-c4cccc(S(=O)(=O)[O-])c4F)c4nc(c(-c5cccc(S(=O)(=O)[O-])c5F)c5ccc2[nH]5)C=C4)C=C3)cc1
REMARK SMILES IDX 4 1 3 2 1 3 2 4 25 6 26 7 87 8 27 9 86 10 28 11 29 12 30 13
REMARK SMILES IDX 80 14 31 15 85 16 79 17 81 18 32 19 84 20 78 21 77 22 33 24
REMARK SMILES IDX 65 25 45 26 64 27 46 28 49 29 63 30 82 31 47 32 48 33 62 35
REMARK SMILES IDX 83 36 50 37 34 38 35 39 43 40 36 41 38 42 44 43 37 44 39 45
REMARK SMILES IDX 40 46 41 47 42 48 66 49 67 50 75 51 68 52 70 53 76 54 69 55
REMARK SMILES IDX 71 56 72 57 73 58 74 59 51 60 52 61 60 62 53 63 55 64 61 65
REMARK SMILES IDX 54 66 56 67 57 68 58 69 59 70 5 71 6 72 7 73 8 74 9 76 10 77
REMARK SMILES IDX 11 78 24 79 12 80 14 81 13 82 15 83 16 84 17 85 22 86 18 87
REMARK SMILES IDX 21 88 23 89 19 90 20 91
REMARK H PARENT 3 5 81 23 49 34 7 75
REMARK Flexibility Score: inf
ROOT
ATOM      1  C   UNL     1       4.612  -0.952  -1.195  1.00  0.00     0.118 C 
ENDROOT
BRANCH   1   2
ATOM      2  N   UNL     1       3.190  -0.644  -1.105  1.00  0.00    -0.352 N 
ATOM      3  O   UNL     1       1.251   0.053  -0.215  1.00  0.00    -0.269 OA
ATOM      4  C   UNL     1       2.480   0.075  -0.171  1.00  0.00     0.251 C 
ATOM      5  H   UNL     1       2.645  -1.014  -1.837  1.00  0.00     0.163 HD
BRANCH   4   6
ATOM      6  C   UNL     1       3.171   0.836   0.894  1.00  0.00     0.039 A 
ATOM      7  C   UNL     1       4.336   1.554   0.628  1.00  0.00     0.014 A 
ATOM      8  C   UNL     1       2.633   0.850   2.185  1.00  0.00     0.014 A 
ATOM      9  C   UNL     1       5.064   2.108   1.676  1.00  0.00     0.010 A 
ATOM     10  C   UNL     1       3.312   1.503   3.221  1.00  0.00     0.010 A 
ATOM     11  C   UNL     1       4.564   2.091   2.988  1.00  0.00    -0.014 A 
BRANCH  11  12
ATOM     12  C   UNL     1       5.361   2.720   4.076  1.00  0.00     0.031 A 
ATOM     13  C   UNL     1       5.875   1.912   5.240  1.00  0.00     0.074 A 
ATOM     14  C   UNL     1       5.656   4.033   3.991  1.00  0.00     0.049 A 
ATOM     15  N   UNL     1       6.657   2.291   6.219  1.00  0.00    -0.248 NA
ATOM     16  C   UNL     1       5.453   0.505   5.327  1.00  0.00     0.031 C 
ATOM     17  C   UNL     1       5.174   4.937   2.944  1.00  0.00     0.029 A 
ATOM     18  N   UNL     1       6.440   4.833   4.783  1.00  0.00    -0.354 N 
ATOM     19  C   UNL     1       6.781   1.191   7.061  1.00  0.00     0.074 A 
ATOM     20  C   UNL     1       5.988   0.129   6.481  1.00  0.00     0.031 C 
ATOM     21  C   UNL     1       5.713   6.151   3.126  1.00  0.00     0.029 A 
ATOM     22  C   UNL     1       6.540   6.128   4.328  1.00  0.00     0.049 A 
ATOM     23  H   UNL     1       6.889   4.512   5.598  1.00  0.00     0.167 HD
ATOM     24  C   UNL     1       7.505   1.068   8.200  1.00  0.00     0.034 A 
ATOM     25  C   UNL     1       7.223   7.181   4.816  1.00  0.00     0.034 A 
ATOM     26  C   UNL     1       8.342   2.105   8.743  1.00  0.00     0.049 A 
ATOM     27  C   UNL     1       8.065   6.997   6.046  1.00  0.00     0.074 A 
ATOM     28  C   UNL     1       9.174   2.049   9.848  1.00  0.00     0.029 A 
ATOM     29  N   UNL     1       8.454   3.386   8.225  1.00  0.00    -0.354 N 
ATOM     30  N   UNL     1       8.279   5.908   6.743  1.00  0.00    -0.248 NA
ATOM     31  C   UNL     1       8.783   8.180   6.540  1.00  0.00     0.031 C 
ATOM     32  C   UNL     1       9.780   3.300  10.005  1.00  0.00     0.029 A 
ATOM     33  C   UNL     1       9.337   4.131   8.990  1.00  0.00     0.049 A 
ATOM     34  H   UNL     1       7.977   3.717   7.430  1.00  0.00     0.167 HD
ATOM     35  C   UNL     1       9.176   6.266   7.741  1.00  0.00     0.074 A 
ATOM     36  C   UNL     1       9.487   7.667   7.541  1.00  0.00     0.031 C 
ATOM     37  C   UNL     1       9.681   5.508   8.746  1.00  0.00     0.034 A 
BRANCH  24  38
ATOM     38  C   UNL     1       7.466  -0.255   8.920  1.00  0.00     0.023 A 
ATOM     39  C   UNL     1       8.172  -1.355   8.394  1.00  0.00     0.012 A 
ATOM     40  C   UNL     1       6.793  -0.391  10.151  1.00  0.00     0.148 A 
ATOM     41  C   UNL     1       8.187  -2.578   9.066  1.00  0.00     0.002 A 
ATOM     42  C   UNL     1       6.845  -1.602  10.834  1.00  0.00     0.091 A 
ATOM     43  F   UNL     1       6.107   0.658  10.626  1.00  0.00    -0.205 F 
ATOM     44  C   UNL     1       7.534  -2.698  10.289  1.00  0.00     0.022 A 
BRANCH  42  45
ATOM     45  S   UNL     1       6.096  -1.827  12.452  1.00  0.00     0.127 S 
ATOM     46  O   UNL     1       4.896  -2.594  12.117  1.00  0.00    -0.237 OA
ATOM     47  O   UNL     1       7.122  -2.586  13.168  1.00  0.00    -0.237 OA
ATOM     48  O   UNL     1       5.864  -0.487  12.972  1.00  0.00    -0.744 OA
ENDBRANCH  42  45
ENDBRANCH  24  38
BRANCH  25  49
ATOM     49  C   UNL     1       7.193   8.481   4.090  1.00  0.00     0.023 A 
ATOM     50  C   UNL     1       8.352   8.928   3.426  1.00  0.00     0.012 A 
ATOM     51  C   UNL     1       6.015   9.249   4.007  1.00  0.00     0.148 A 
ATOM     52  C   UNL     1       8.345  10.126   2.711  1.00  0.00     0.002 A 
ATOM     53  C   UNL     1       5.998  10.411   3.245  1.00  0.00     0.091 A 
ATOM     54  F   UNL     1       4.928   8.818   4.662  1.00  0.00    -0.205 F 
ATOM     55  C   UNL     1       7.165  10.860   2.609  1.00  0.00     0.022 A 
BRANCH  53  56
ATOM     56  S   UNL     1       4.484  11.329   2.944  1.00  0.00     0.127 S 
ATOM     57  O   UNL     1       4.645  12.472   3.837  1.00  0.00    -0.237 OA
ATOM     58  O   UNL     1       4.592  11.640   1.518  1.00  0.00    -0.237 OA
ATOM     59  O   UNL     1       3.403  10.409   3.271  1.00  0.00    -0.744 OA
ENDBRANCH  53  56
ENDBRANCH  25  49
BRANCH  37  60
ATOM     60  C   UNL     1      10.643   6.170   9.696  1.00  0.00     0.023 A 
ATOM     61  C   UNL     1      10.160   7.088  10.649  1.00  0.00     0.012 A 
ATOM     62  C   UNL     1      12.012   5.840   9.684  1.00  0.00     0.148 A 
ATOM     63  C   UNL     1      11.030   7.692  11.555  1.00  0.00     0.002 A 
ATOM     64  C   UNL     1      12.866   6.414  10.618  1.00  0.00     0.091 A 
ATOM     65  F   UNL     1      12.458   4.984   8.753  1.00  0.00    -0.205 F 
ATOM     66  C   UNL     1      12.380   7.348  11.547  1.00  0.00     0.022 A 
BRANCH  64  67
ATOM     67  S   UNL     1      14.599   5.952  10.731  1.00  0.00     0.127 S 
ATOM     68  O   UNL     1      15.249   7.056  10.027  1.00  0.00    -0.237 OA
ATOM     69  O   UNL     1      14.828   5.931  12.176  1.00  0.00    -0.237 OA
ATOM     70  O   UNL     1      14.700   4.647  10.091  1.00  0.00    -0.744 OA
ENDBRANCH  64  67
ENDBRANCH  37  60
ENDBRANCH  11  12
ENDBRANCH   4   6
ENDBRANCH   1   2
BRANCH   1  71
ATOM     71  C   UNL     1       4.922  -2.425  -0.955  1.00  0.00     0.042 C 
BRANCH  71  72
ATOM     72  C   UNL     1       4.339  -3.365  -2.002  1.00  0.00     0.118 C 
BRANCH  72  73
ATOM     73  N   UNL     1       4.878  -3.121  -3.333  1.00  0.00    -0.351 N 
ATOM     74  C   UNL     1       5.766  -3.867  -4.074  1.00  0.00     0.271 C 
ATOM     75  H   UNL     1       4.559  -2.297  -3.768  1.00  0.00     0.163 HD
ATOM     76  O   UNL     1       6.196  -3.418  -5.134  1.00  0.00    -0.267 OA
BRANCH  74  77
ATOM     77  C   UNL     1       6.170  -5.216  -3.618  1.00  0.00     0.150 A 
ATOM     78  C   UNL     1       5.203  -6.193  -3.417  1.00  0.00     0.145 A 
ATOM     79  N   UNL     1       7.498  -5.449  -3.450  1.00  0.00    -0.205 NA
ATOM     80  N   UNL     1       5.509  -7.439  -2.981  1.00  0.00    -0.257 NA
ATOM     81  C   UNL     1       7.806  -6.700  -3.038  1.00  0.00     0.238 A 
ATOM     82  C   UNL     1       6.833  -7.664  -2.790  1.00  0.00     0.179 A 
BRANCH  81  83
ATOM     83  O   UNL     1       9.123  -7.068  -2.796  1.00  0.00    -0.434 OA
BRANCH  83  84
ATOM     84  C   UNL     1      10.090  -6.327  -3.428  1.00  0.00     0.168 A 
ATOM     85  C   UNL     1      10.476  -5.079  -2.940  1.00  0.00     0.089 A 
ATOM     86  C   UNL     1      10.769  -6.894  -4.509  1.00  0.00     0.166 A 
ATOM     87  C   UNL     1      11.515  -4.402  -3.569  1.00  0.00     0.127 A 
ATOM     88  C   UNL     1      11.814  -6.214  -5.130  1.00  0.00     0.046 A 
ATOM     89  F   UNL     1      10.428  -8.112  -4.954  1.00  0.00    -0.203 F 
ATOM     90  F   UNL     1      11.889  -3.199  -3.114  1.00  0.00    -0.207 F 
ATOM     91  C   UNL     1      12.188  -4.957  -4.657  1.00  0.00     0.042 A 
ENDBRANCH  83  84
ENDBRANCH  81  83
ENDBRANCH  74  77
ENDBRANCH  72  73
ENDBRANCH  71  72
ENDBRANCH   1  71
TORSDOF 15
