REMARK SMILES N#C[C@@H]1CN(C(=O)N[C@@H](Cc2cnc[nH]2)C(=O)NCCCNC(=O)c2ccc(-c3c4nc(c(-c5cccc(S(=O)(=O)[O-])c5F)c5ccc([nH]5)c(-c5cccc(S(=O)(=O)[O-])c5F)c5nc(c(-c6cccc(S(=O)(=O)[O-])c6F)c6ccc3[nH]6)C=C5)C=C4)cc2)CCO1
REMARK SMILES IDX 20 1 19 2 18 3 16 4 17 5 9 7 8 8 6 9 7 10 5 12 3 13 4 14
REMARK SMILES IDX 90 15 89 16 88 17 2 18 1 19 10 20 11 21 12 22 15 23 13 24
REMARK SMILES IDX 14 25 21 27 22 28 23 29 24 31 25 32 26 33 87 34 27 35 86 36
REMARK SMILES IDX 28 37 29 38 30 39 80 40 31 41 85 42 79 43 81 44 32 45 84 46
REMARK SMILES IDX 78 47 77 48 33 50 65 51 45 52 64 53 46 54 49 55 63 56 82 57
REMARK SMILES IDX 47 58 48 59 62 61 83 62 50 63 34 64 35 65 43 66 36 67 38 68
REMARK SMILES IDX 44 69 37 70 39 71 40 72 41 73 42 74 66 75 67 76 75 77 68 78
REMARK SMILES IDX 70 79 76 80 69 81 71 82 72 83 73 84 74 85 51 86 52 87 60 88
REMARK SMILES IDX 53 89 55 90 61 91 54 92 56 93 57 94 58 95 59 96
REMARK H PARENT 18 6 8 11 15 26 22 30 81 49 49 60
REMARK Flexibility Score: inf
ROOT
ATOM      1  C   UNL     1      -0.720   4.819  -3.364  1.00  0.00     0.042 C 
ENDROOT
BRANCH   1   2
ATOM      2  C   UNL     1       0.565   5.142  -2.641  1.00  0.00     0.117 C 
BRANCH   2   3
ATOM      3  N   UNL     1       0.690   4.508  -1.350  1.00  0.00    -0.354 N 
ATOM      4  C   UNL     1       1.805   3.991  -0.778  1.00  0.00     0.243 C 
ATOM      5  O   UNL     1       1.788   3.795   0.444  1.00  0.00    -0.273 OA
ATOM      6  H   UNL     1      -0.137   4.444  -0.819  1.00  0.00     0.163 HD
BRANCH   4   7
ATOM      7  C   UNL     1       3.090   3.712  -1.575  1.00  0.00     0.179 C 
BRANCH   7   8
ATOM      8  N   UNL     1       2.932   2.812  -2.719  1.00  0.00    -0.326 N 
ATOM      9  C   UNL     1       3.317   1.580  -3.082  1.00  0.00     0.318 C 
ATOM     10  O   UNL     1       2.937   1.235  -4.204  1.00  0.00    -0.249 OA
ATOM     11  H   UNL     1       2.387   3.231  -3.423  1.00  0.00     0.166 HD
BRANCH   9  12
ATOM     12  N   UNL     1       4.066   0.748  -2.311  1.00  0.00    -0.319 N 
ATOM     13  C   UNL     1       3.728  -0.072  -0.045  1.00  0.00     0.240 C 
ATOM     14  C   UNL     1       4.502   0.878  -0.933  1.00  0.00     0.169 C 
ATOM     15  O   UNL     1       4.173  -1.414  -0.454  1.00  0.00    -0.360 OA
ATOM     16  C   UNL     1       3.825  -1.689  -1.836  1.00  0.00     0.183 C 
ATOM     17  C   UNL     1       4.347  -0.613  -2.813  1.00  0.00     0.150 C 
BRANCH  13  18
ATOM     18  C   UNL     1       2.208  -0.072  -0.045  1.00  0.00     0.096 C 
ATOM     19  N   UNL     1       0.947  -0.072  -0.045  1.00  0.00    -0.195 NA
ENDBRANCH  13  18
ENDBRANCH   9  12
ENDBRANCH   7   8
BRANCH   7  20
ATOM     20  C   UNL     1       4.051   4.889  -1.805  1.00  0.00     0.090 C 
BRANCH  20  21
ATOM     21  C   UNL     1       3.651   5.928  -2.789  1.00  0.00     0.037 A 
ATOM     22  C   UNL     1       3.510   5.915  -4.162  1.00  0.00     0.134 A 
ATOM     23  N   UNL     1       3.365   7.224  -2.426  1.00  0.00    -0.348 N 
ATOM     24  N   UNL     1       3.077   7.133  -4.615  1.00  0.00    -0.245 NA
ATOM     25  C   UNL     1       2.999   7.899  -3.554  1.00  0.00     0.196 A 
ATOM     26  H   UNL     1       3.416   7.597  -1.517  1.00  0.00     0.167 HD
ENDBRANCH  20  21
ENDBRANCH   7  20
ENDBRANCH   4   7
ENDBRANCH   2   3
ENDBRANCH   1   2
BRANCH   1  27
ATOM     27  C   UNL     1      -1.950   5.362  -2.664  1.00  0.00     0.118 C 
BRANCH  27  28
ATOM     28  N   UNL     1      -1.946   6.819  -2.544  1.00  0.00    -0.352 N 
ATOM     29  C   UNL     1      -2.654   7.776  -3.235  1.00  0.00     0.251 C 
ATOM     30  H   UNL     1      -1.338   7.174  -1.856  1.00  0.00     0.163 HD
ATOM     31  O   UNL     1      -2.367   8.963  -3.097  1.00  0.00    -0.269 OA
BRANCH  29  32
ATOM     32  C   UNL     1      -3.737   7.370  -4.154  1.00  0.00     0.039 A 
ATOM     33  C   UNL     1      -3.870   7.997  -5.395  1.00  0.00     0.014 A 
ATOM     34  C   UNL     1      -4.608   6.343  -3.795  1.00  0.00     0.014 A 
ATOM     35  C   UNL     1      -4.816   7.524  -6.310  1.00  0.00     0.010 A 
ATOM     36  C   UNL     1      -5.441   5.785  -4.751  1.00  0.00     0.010 A 
ATOM     37  C   UNL     1      -5.574   6.380  -6.013  1.00  0.00    -0.014 A 
BRANCH  37  38
ATOM     38  C   UNL     1      -6.536   5.780  -6.973  1.00  0.00     0.031 A 
ATOM     39  C   UNL     1      -7.974   5.596  -6.557  1.00  0.00     0.074 A 
ATOM     40  C   UNL     1      -6.099   5.278  -8.145  1.00  0.00     0.049 A 
ATOM     41  N   UNL     1      -8.930   4.936  -7.156  1.00  0.00    -0.248 NA
ATOM     42  C   UNL     1      -8.376   6.186  -5.267  1.00  0.00     0.031 C 
ATOM     43  C   UNL     1      -4.715   5.313  -8.623  1.00  0.00     0.029 A 
ATOM     44  N   UNL     1      -6.771   4.601  -9.133  1.00  0.00    -0.354 N 
ATOM     45  C   UNL     1     -10.017   4.977  -6.290  1.00  0.00     0.074 A 
ATOM     46  C   UNL     1      -9.591   5.687  -5.106  1.00  0.00     0.031 C 
ATOM     47  C   UNL     1      -4.642   4.695  -9.813  1.00  0.00     0.029 A 
ATOM     48  C   UNL     1      -5.963   4.184 -10.165  1.00  0.00     0.049 A 
ATOM     49  H   UNL     1      -7.740   4.431  -9.105  1.00  0.00     0.167 HD
ATOM     50  C   UNL     1     -11.270   4.500  -6.476  1.00  0.00     0.034 A 
ATOM     51  C   UNL     1      -6.253   3.462 -11.266  1.00  0.00     0.034 A 
ATOM     52  C   UNL     1     -11.710   3.874  -7.691  1.00  0.00     0.049 A 
ATOM     53  C   UNL     1      -7.673   3.014 -11.488  1.00  0.00     0.074 A 
ATOM     54  C   UNL     1     -12.983   3.456  -8.031  1.00  0.00     0.029 A 
ATOM     55  N   UNL     1     -10.889   3.584  -8.769  1.00  0.00    -0.354 N 
ATOM     56  N   UNL     1      -8.723   3.195 -10.724  1.00  0.00    -0.248 NA
ATOM     57  C   UNL     1      -7.956   2.293 -12.737  1.00  0.00     0.031 C 
ATOM     58  C   UNL     1     -12.930   2.903  -9.314  1.00  0.00     0.029 A 
ATOM     59  C   UNL     1     -11.627   2.995  -9.779  1.00  0.00     0.049 A 
ATOM     60  H   UNL     1      -9.923   3.771  -8.811  1.00  0.00     0.167 HD
ATOM     61  C   UNL     1      -9.798   2.650 -11.418  1.00  0.00     0.074 A 
ATOM     62  C   UNL     1      -9.273   2.143 -12.669  1.00  0.00     0.031 C 
ATOM     63  C   UNL     1     -11.098   2.562 -11.046  1.00  0.00     0.034 A 
BRANCH  50  64
ATOM     64  C   UNL     1     -12.270   4.705  -5.368  1.00  0.00     0.023 A 
ATOM     65  C   UNL     1     -12.745   6.004  -5.091  1.00  0.00     0.012 A 
ATOM     66  C   UNL     1     -12.773   3.615  -4.631  1.00  0.00     0.148 A 
ATOM     67  C   UNL     1     -13.670   6.222  -4.072  1.00  0.00     0.002 A 
ATOM     68  C   UNL     1     -13.732   3.834  -3.649  1.00  0.00     0.091 A 
ATOM     69  F   UNL     1     -12.296   2.390  -4.892  1.00  0.00    -0.205 F 
ATOM     70  C   UNL     1     -14.171   5.137  -3.358  1.00  0.00     0.022 A 
BRANCH  68  71
ATOM     71  S   UNL     1     -14.502   2.496  -2.731  1.00  0.00     0.127 S 
ATOM     72  O   UNL     1     -13.896   2.656  -1.410  1.00  0.00    -0.237 OA
ATOM     73  O   UNL     1     -15.920   2.852  -2.798  1.00  0.00    -0.237 OA
ATOM     74  O   UNL     1     -14.152   1.272  -3.438  1.00  0.00    -0.744 OA
ENDBRANCH  68  71
ENDBRANCH  50  64
BRANCH  51  75
ATOM     75  C   UNL     1      -5.195   3.192 -12.281  1.00  0.00     0.023 A 
ATOM     76  C   UNL     1      -5.251   3.860 -13.521  1.00  0.00     0.012 A 
ATOM     77  C   UNL     1      -4.126   2.313 -12.023  1.00  0.00     0.148 A 
ATOM     78  C   UNL     1      -4.280   3.634 -14.497  1.00  0.00     0.002 A 
ATOM     79  C   UNL     1      -3.134   2.131 -12.981  1.00  0.00     0.091 A 
ATOM     80  F   UNL     1      -4.095   1.681 -10.842  1.00  0.00    -0.205 F 
ATOM     81  C   UNL     1      -3.217   2.778 -14.224  1.00  0.00     0.022 A 
BRANCH  79  82
ATOM     82  S   UNL     1      -1.664   1.143 -12.674  1.00  0.00     0.127 S 
ATOM     83  O   UNL     1      -1.904  -0.020 -13.524  1.00  0.00    -0.237 OA
ATOM     84  O   UNL     1      -0.599   2.035 -13.135  1.00  0.00    -0.237 OA
ATOM     85  O   UNL     1      -1.656   0.890 -11.240  1.00  0.00    -0.744 OA
ENDBRANCH  79  82
ENDBRANCH  51  75
BRANCH  63  86
ATOM     86  C   UNL     1     -12.068   1.945 -12.018  1.00  0.00     0.023 A 
ATOM     87  C   UNL     1     -12.076   0.550 -12.207  1.00  0.00     0.012 A 
ATOM     88  C   UNL     1     -13.039   2.740 -12.658  1.00  0.00     0.148 A 
ATOM     89  C   UNL     1     -13.026  -0.044 -13.037  1.00  0.00     0.002 A 
ATOM     90  C   UNL     1     -14.011   2.136 -13.445  1.00  0.00     0.091 A 
ATOM     91  F   UNL     1     -13.000   4.068 -12.476  1.00  0.00    -0.205 F 
ATOM     92  C   UNL     1     -14.000   0.746 -13.644  1.00  0.00     0.022 A 
BRANCH  90  93
ATOM     93  S   UNL     1     -15.363   3.061 -14.183  1.00  0.00     0.127 S 
ATOM     94  O   UNL     1     -15.002   3.038 -15.599  1.00  0.00    -0.237 OA
ATOM     95  O   UNL     1     -16.525   2.242 -13.836  1.00  0.00    -0.237 OA
ATOM     96  O   UNL     1     -15.342   4.375 -13.554  1.00  0.00    -0.744 OA
ENDBRANCH  90  93
ENDBRANCH  63  86
ENDBRANCH  37  38
ENDBRANCH  29  32
ENDBRANCH  27  28
ENDBRANCH   1  27
TORSDOF 18
