REMARK SMILES CCc1nc(NCC2CC2)nc(OCC(=O)NCCCNC(=O)c2ccc(-c3c4nc(c(-c5cccc(S(=O)(=O)[O-])c5F)c5ccc([nH]5)c(-c5cccc(S(=O)(=O)[O-])c5F)c5nc(c(-c6cccc(S(=O)(=O)[O-])c6F)c6ccc3[nH]6)C=C5)C=C4)cc2)c1C
REMARK SMILES IDX 18 1 17 2 15 3 16 4 14 6 13 7 12 8 3 9 4 10 87 11 5 12 88 13
REMARK SMILES IDX 11 14 2 15 1 16 6 17 7 19 8 20 9 21 10 22 19 23 20 24 21 25
REMARK SMILES IDX 22 26 23 28 24 29 25 30 86 31 26 32 85 33 27 34 28 35 29 36
REMARK SMILES IDX 79 37 30 38 84 39 78 40 80 41 31 42 83 43 77 44 76 45 32 47
REMARK SMILES IDX 64 48 44 49 63 50 45 51 48 52 62 53 81 54 46 55 47 56 61 58
REMARK SMILES IDX 82 59 49 60 33 61 34 62 42 63 35 64 37 65 43 66 36 67 38 68
REMARK SMILES IDX 39 69 40 70 41 71 65 72 66 73 74 74 67 75 69 76 75 77 68 78
REMARK SMILES IDX 70 79 71 80 72 81 73 82 50 83 51 84 59 85 52 86 54 87 60 88
REMARK SMILES IDX 53 89 55 90 56 91 57 92 58 93
REMARK H PARENT 17 5 6 18 21 27 80 46 48 57
REMARK Flexibility Score: inf
ROOT
ATOM      1  C   UNL     1       6.423   4.714   0.814  1.00  0.00     0.117 C 
ENDROOT
BRANCH   1   2
ATOM      2  N   UNL     1       6.303   3.281   0.625  1.00  0.00    -0.353 N 
ATOM      3  C   UNL     1       5.647   2.606  -0.359  1.00  0.00     0.258 C 
ATOM      4  O   UNL     1       5.779   1.382  -0.417  1.00  0.00    -0.271 OA
ATOM      5  H   UNL     1       6.755   2.722   1.298  1.00  0.00     0.163 HD
BRANCH   3   6
ATOM      6  C   UNL     1       4.821   3.379  -1.392  1.00  0.00     0.331 C 
BRANCH   6   7
ATOM      7  O   UNL     1       3.694   4.103  -0.977  1.00  0.00    -0.467 OA
BRANCH   7   8
ATOM      8  C   UNL     1       2.625   3.610  -0.308  1.00  0.00     0.221 A 
ATOM      9  C   UNL     1       1.035   2.158   0.642  1.00  0.00     0.052 A 
ATOM     10  N   UNL     1       0.364   3.226   1.130  1.00  0.00    -0.218 NA
ATOM     11  C   UNL     1       2.180   2.300  -0.154  1.00  0.00     0.033 A 
ATOM     12  C   UNL     1       0.835   4.444   0.892  1.00  0.00     0.226 A 
ATOM     13  C   UNL     1       2.805   1.091  -0.763  1.00  0.00     0.052 C 
ATOM     14  N   UNL     1       1.954   4.659   0.210  1.00  0.00    -0.177 NA
BRANCH   9  15
ATOM     15  C   UNL     1       0.465   0.860   1.180  1.00  0.00     0.053 C 
ATOM     16  C   UNL     1       0.329  -0.360   0.283  1.00  0.00     0.011 C 
ENDBRANCH   9  15
BRANCH  12  17
ATOM     17  N   UNL     1       0.183   5.547   1.351  1.00  0.00    -0.354 N 
ATOM     18  H   UNL     1       0.633   6.418   1.254  1.00  0.00     0.163 HD
BRANCH  17  19
ATOM     19  C   UNL     1      -1.114   5.530   1.966  1.00  0.00     0.119 C 
BRANCH  19  20
ATOM     20  C   UNL     1      -1.036   6.115   3.345  1.00  0.00     0.008 C 
ATOM     21  C   UNL     1      -0.382   7.451   3.619  1.00  0.00     0.006 C 
ATOM     22  C   UNL     1      -1.874   7.319   3.709  1.00  0.00     0.006 C 
ENDBRANCH  19  20
ENDBRANCH  17  19
ENDBRANCH  12  17
ENDBRANCH   7   8
ENDBRANCH   6   7
ENDBRANCH   3   6
ENDBRANCH   1   2
BRANCH   1  23
ATOM     23  C   UNL     1       5.693   5.215   2.052  1.00  0.00     0.042 C 
BRANCH  23  24
ATOM     24  C   UNL     1       6.108   4.541   3.356  1.00  0.00     0.118 C 
BRANCH  24  25
ATOM     25  N   UNL     1       7.545   4.588   3.599  1.00  0.00    -0.352 N 
ATOM     26  C   UNL     1       8.274   5.189   4.595  1.00  0.00     0.251 C 
ATOM     27  H   UNL     1       8.087   4.106   2.933  1.00  0.00     0.163 HD
ATOM     28  O   UNL     1       9.499   5.229   4.492  1.00  0.00    -0.269 OA
BRANCH  26  29
ATOM     29  C   UNL     1       7.614   5.798   5.771  1.00  0.00     0.039 A 
ATOM     30  C   UNL     1       8.128   6.994   6.282  1.00  0.00     0.014 A 
ATOM     31  C   UNL     1       6.526   5.189   6.398  1.00  0.00     0.014 A 
ATOM     32  C   UNL     1       7.513   7.605   7.377  1.00  0.00     0.010 A 
ATOM     33  C   UNL     1       5.859   5.844   7.431  1.00  0.00     0.010 A 
ATOM     34  C   UNL     1       6.351   7.053   7.941  1.00  0.00    -0.014 A 
BRANCH  34  35
ATOM     35  C   UNL     1       5.635   7.746   9.044  1.00  0.00     0.031 A 
ATOM     36  C   UNL     1       5.485   7.099  10.395  1.00  0.00     0.074 A 
ATOM     37  C   UNL     1       5.057   8.940   8.806  1.00  0.00     0.049 A 
ATOM     38  N   UNL     1       4.920   7.571  11.477  1.00  0.00    -0.248 NA
ATOM     39  C   UNL     1       6.011   5.733  10.545  1.00  0.00     0.031 C 
ATOM     40  C   UNL     1       5.050   9.633   7.516  1.00  0.00     0.029 A 
ATOM     41  N   UNL     1       4.357   9.779   9.636  1.00  0.00    -0.354 N 
ATOM     42  C   UNL     1       4.989   6.553  12.420  1.00  0.00     0.074 A 
ATOM     43  C   UNL     1       5.616   5.422  11.771  1.00  0.00     0.031 C 
ATOM     44  C   UNL     1       4.409  10.804   7.648  1.00  0.00     0.029 A 
ATOM     45  C   UNL     1       3.936  10.935   9.022  1.00  0.00     0.049 A 
ATOM     46  H   UNL     1       4.173   9.572  10.581  1.00  0.00     0.167 HD
ATOM     47  C   UNL     1       4.595   6.564  13.717  1.00  0.00     0.034 A 
ATOM     48  C   UNL     1       3.259  11.991   9.514  1.00  0.00     0.034 A 
ATOM     49  C   UNL     1       4.006   7.704  14.369  1.00  0.00     0.049 A 
ATOM     50  C   UNL     1       2.879  12.001  10.969  1.00  0.00     0.074 A 
ATOM     51  C   UNL     1       3.668   7.855  15.703  1.00  0.00     0.029 A 
ATOM     52  N   UNL     1       3.651   8.884  13.733  1.00  0.00    -0.354 N 
ATOM     53  N   UNL     1       3.117  11.101  11.893  1.00  0.00    -0.248 NA
ATOM     54  C   UNL     1       2.171  13.192  11.457  1.00  0.00     0.031 C 
ATOM     55  C   UNL     1       3.082   9.116  15.866  1.00  0.00     0.029 A 
ATOM     56  C   UNL     1       3.082   9.763  14.640  1.00  0.00     0.049 A 
ATOM     57  H   UNL     1       3.785   9.070  12.775  1.00  0.00     0.167 HD
ATOM     58  C   UNL     1       2.620  11.632  13.078  1.00  0.00     0.074 A 
ATOM     59  C   UNL     1       2.092  12.943  12.757  1.00  0.00     0.031 C 
ATOM     60  C   UNL     1       2.592  11.079  14.317  1.00  0.00     0.034 A 
BRANCH  47  61
ATOM     61  C   UNL     1       4.830   5.311  14.525  1.00  0.00     0.023 A 
ATOM     62  C   UNL     1       6.148   4.928  14.853  1.00  0.00     0.012 A 
ATOM     63  C   UNL     1       3.753   4.528  14.983  1.00  0.00     0.148 A 
ATOM     64  C   UNL     1       6.392   3.761  15.577  1.00  0.00     0.002 A 
ATOM     65  C   UNL     1       4.002   3.392  15.746  1.00  0.00     0.091 A 
ATOM     66  F   UNL     1       2.507   4.891  14.646  1.00  0.00    -0.205 F 
ATOM     67  C   UNL     1       5.320   2.999  16.030  1.00  0.00     0.022 A 
BRANCH  65  68
ATOM     68  S   UNL     1       2.683   2.393  16.445  1.00  0.00     0.127 S 
ATOM     69  O   UNL     1       2.698   1.226  15.565  1.00  0.00    -0.237 OA
ATOM     70  O   UNL     1       3.172   2.139  17.802  1.00  0.00    -0.237 OA
ATOM     71  O   UNL     1       1.484   3.216  16.381  1.00  0.00    -0.744 OA
ENDBRANCH  65  68
ENDBRANCH  47  61
BRANCH  48  72
ATOM     72  C   UNL     1       2.995  13.172   8.645  1.00  0.00     0.023 A 
ATOM     73  C   UNL     1       3.703  14.366   8.882  1.00  0.00     0.012 A 
ATOM     74  C   UNL     1       2.088  13.111   7.569  1.00  0.00     0.148 A 
ATOM     75  C   UNL     1       3.495  15.489   8.080  1.00  0.00     0.002 A 
ATOM     76  C   UNL     1       1.925  14.216   6.742  1.00  0.00     0.091 A 
ATOM     77  F   UNL     1       1.421  11.967   7.366  1.00  0.00    -0.205 F 
ATOM     78  C   UNL     1       2.614  15.411   7.005  1.00  0.00     0.022 A 
BRANCH  76  79
ATOM     79  S   UNL     1       0.911  14.171   5.260  1.00  0.00     0.127 S 
ATOM     80  O   UNL     1      -0.166  15.098   5.607  1.00  0.00    -0.237 OA
ATOM     81  O   UNL     1       1.843  14.667   4.245  1.00  0.00    -0.237 OA
ATOM     82  O   UNL     1       0.516  12.784   5.090  1.00  0.00    -0.744 OA
ENDBRANCH  76  79
ENDBRANCH  48  72
BRANCH  60  83
ATOM     83  C   UNL     1       1.989  11.903  15.427  1.00  0.00     0.023 A 
ATOM     84  C   UNL     1       0.599  12.141  15.450  1.00  0.00     0.012 A 
ATOM     85  C   UNL     1       2.792  12.412  16.466  1.00  0.00     0.148 A 
ATOM     86  C   UNL     1       0.027  12.912  16.462  1.00  0.00     0.002 A 
ATOM     87  C   UNL     1       2.207  13.135  17.500  1.00  0.00     0.091 A 
ATOM     88  F   UNL     1       4.115  12.196  16.420  1.00  0.00    -0.205 F 
ATOM     89  C   UNL     1       0.828  13.400  17.491  1.00  0.00     0.022 A 
BRANCH  87  90
ATOM     90  S   UNL     1       3.150  13.715  18.915  1.00  0.00     0.127 S 
ATOM     91  O   UNL     1       3.307  15.136  18.608  1.00  0.00    -0.237 OA
ATOM     92  O   UNL     1       2.249  13.428  20.031  1.00  0.00    -0.237 OA
ATOM     93  O   UNL     1       4.379  12.932  18.920  1.00  0.00    -0.744 OA
ENDBRANCH  87  90
ENDBRANCH  60  83
ENDBRANCH  34  35
ENDBRANCH  26  29
ENDBRANCH  24  25
ENDBRANCH  23  24
ENDBRANCH   1  23
TORSDOF 19
