REMARK SMILES CN(C(=O)C[C@H]1SC(=O)N(c2cccc(O)c2)C1=O)c1ccccc1C(=O)NCCCNC(=O)c1ccc(-c2c3nc(c(-c4cccc(S(=O)(=O)[O-])c4F)c4ccc([nH]4)c(-c4cccc(S(=O)(=O)[O-])c4F)c4nc(c(-c5cccc(S(=O)(=O)[O-])c5F)c5ccc2[nH]5)C=C4)C=C3)cc1
REMARK SMILES IDX 26 1 27 2 28 3 25 5 20 6 21 7 22 8 24 9 23 10 2 11 1 12 3 13
REMARK SMILES IDX 4 14 5 15 6 16 7 17 18 18 8 19 10 20 19 21 9 22 11 23 12 24
REMARK SMILES IDX 17 25 13 26 15 27 14 28 16 29 29 31 30 32 31 33 32 34 33 35
REMARK SMILES IDX 34 37 35 38 36 39 97 40 37 41 96 42 38 43 39 44 40 45 90 46
REMARK SMILES IDX 41 47 95 48 89 49 91 50 42 51 94 52 88 53 87 54 43 56 75 57
REMARK SMILES IDX 55 58 74 59 56 60 59 61 73 62 92 63 57 64 58 65 72 67 93 68
REMARK SMILES IDX 60 69 44 70 45 71 53 72 46 73 48 74 54 75 47 76 49 77 50 78
REMARK SMILES IDX 51 79 52 80 76 81 77 82 85 83 78 84 80 85 86 86 79 87 81 88
REMARK SMILES IDX 82 89 83 90 84 91 61 92 62 93 70 94 63 95 65 96 71 97 64 98
REMARK SMILES IDX 66 99 67 100 68 101 69 102
REMARK H PARENT 28 4 16 30 32 36 91 55 59 66
REMARK Flexibility Score: inf
ROOT
ATOM      1  C   UNL     1      -2.773  -2.446  -1.389  1.00  0.00     0.253 C 
ATOM      2  O   UNL     1      -3.845  -1.938  -1.755  1.00  0.00    -0.269 OA
ATOM      3  N   UNL     1      -2.886  -3.054  -0.169  1.00  0.00    -0.352 N 
ATOM      4  H   UNL     1      -3.762  -2.875   0.242  1.00  0.00     0.163 HD
ENDROOT
BRANCH   1   5
ATOM      5  C   UNL     1      -1.610  -2.365  -2.347  1.00  0.00     0.063 A 
ATOM      6  C   UNL     1      -0.214  -2.355  -2.159  1.00  0.00     0.056 A 
ATOM      7  C   UNL     1       0.647  -2.097  -3.267  1.00  0.00     0.027 A 
ATOM      8  C   UNL     1       0.168  -1.813  -4.538  1.00  0.00     0.002 A 
ATOM      9  C   UNL     1      -2.054  -2.107  -3.678  1.00  0.00     0.016 A 
ATOM     10  C   UNL     1      -1.194  -1.822  -4.747  1.00  0.00     0.001 A 
BRANCH   6  11
ATOM     11  N   UNL     1       0.491  -2.466  -0.918  1.00  0.00    -0.315 N 
ATOM     12  C   UNL     1       1.079  -3.788  -0.687  1.00  0.00     0.153 C 
BRANCH  11  13
ATOM     13  C   UNL     1       1.139  -1.285  -0.498  1.00  0.00     0.228 C 
ATOM     14  O   UNL     1       0.851  -0.178  -0.956  1.00  0.00    -0.274 OA
BRANCH  13  15
ATOM     15  C   UNL     1       2.246  -1.384   0.536  1.00  0.00     0.125 C 
BRANCH  15  16
ATOM     16  C   UNL     1       1.641  -1.362   1.917  1.00  0.00     0.156 C 
ATOM     17  S   UNL     1       2.706  -2.190   3.106  1.00  0.00    -0.050 SA
ATOM     18  C   UNL     1       1.320  -0.011   2.502  1.00  0.00     0.248 C 
ATOM     19  C   UNL     1       2.336  -1.018   4.356  1.00  0.00     0.293 C 
ATOM     20  N   UNL     1       1.532  -0.020   3.864  1.00  0.00    -0.240 N 
ATOM     21  O   UNL     1       0.871   0.913   1.837  1.00  0.00    -0.273 OA
ATOM     22  O   UNL     1       2.769  -1.196   5.477  1.00  0.00    -0.261 OA
BRANCH  20  23
ATOM     23  C   UNL     1       1.031   1.013   4.685  1.00  0.00     0.056 A 
ATOM     24  C   UNL     1       1.894   1.730   5.506  1.00  0.00     0.027 A 
ATOM     25  C   UNL     1      -0.345   1.292   4.725  1.00  0.00     0.073 A 
ATOM     26  C   UNL     1       1.385   2.696   6.369  1.00  0.00     0.006 A 
ATOM     27  C   UNL     1      -0.838   2.220   5.642  1.00  0.00     0.117 A 
ATOM     28  C   UNL     1       0.020   2.931   6.465  1.00  0.00     0.046 A 
BRANCH  27  29
ATOM     29  O   UNL     1      -2.189   2.381   5.744  1.00  0.00    -0.508 OA
ATOM     30  H   UNL     1      -2.543   2.998   6.354  1.00  0.00     0.293 HD
ENDBRANCH  27  29
ENDBRANCH  20  23
ENDBRANCH  15  16
ENDBRANCH  13  15
ENDBRANCH  11  13
ENDBRANCH   6  11
ENDBRANCH   1   5
BRANCH   3  31
ATOM     31  C   UNL     1      -2.067  -3.888   0.678  1.00  0.00     0.118 C 
BRANCH  31  32
ATOM     32  C   UNL     1      -1.392  -3.077   1.774  1.00  0.00     0.042 C 
BRANCH  32  33
ATOM     33  C   UNL     1      -1.981  -3.142   3.186  1.00  0.00     0.118 C 
BRANCH  33  34
ATOM     34  N   UNL     1      -1.484  -4.306   3.913  1.00  0.00    -0.352 N 
ATOM     35  C   UNL     1      -0.707  -4.467   5.039  1.00  0.00     0.251 C 
ATOM     36  H   UNL     1      -1.765  -5.161   3.512  1.00  0.00     0.163 HD
ATOM     37  O   UNL     1      -0.273  -5.603   5.245  1.00  0.00    -0.269 OA
BRANCH  35  38
ATOM     38  C   UNL     1      -0.368  -3.379   6.008  1.00  0.00     0.039 A 
ATOM     39  C   UNL     1       0.734  -3.565   6.866  1.00  0.00     0.014 A 
ATOM     40  C   UNL     1      -1.142  -2.237   6.189  1.00  0.00     0.014 A 
ATOM     41  C   UNL     1       1.063  -2.622   7.862  1.00  0.00     0.010 A 
ATOM     42  C   UNL     1      -0.762  -1.260   7.121  1.00  0.00     0.010 A 
ATOM     43  C   UNL     1       0.328  -1.441   7.994  1.00  0.00    -0.014 A 
BRANCH  43  44
ATOM     44  C   UNL     1       0.577  -0.411   9.058  1.00  0.00     0.031 A 
ATOM     45  C   UNL     1      -0.551  -0.053  10.002  1.00  0.00     0.074 A 
ATOM     46  C   UNL     1       1.722   0.308   9.116  1.00  0.00     0.049 A 
ATOM     47  N   UNL     1      -0.647   0.944  10.844  1.00  0.00    -0.248 NA
ATOM     48  C   UNL     1      -1.736  -0.930   9.986  1.00  0.00     0.031 C 
ATOM     49  C   UNL     1       2.915   0.089   8.306  1.00  0.00     0.029 A 
ATOM     50  N   UNL     1       2.028   1.452   9.827  1.00  0.00    -0.354 N 
ATOM     51  C   UNL     1      -1.885   0.805  11.461  1.00  0.00     0.074 A 
ATOM     52  C   UNL     1      -2.554  -0.305  10.820  1.00  0.00     0.031 C 
ATOM     53  C   UNL     1       3.743   1.141   8.427  1.00  0.00     0.029 A 
ATOM     54  C   UNL     1       3.154   2.099   9.354  1.00  0.00     0.049 A 
ATOM     55  H   UNL     1       1.498   1.774  10.592  1.00  0.00     0.167 HD
ATOM     56  C   UNL     1      -2.390   1.482  12.521  1.00  0.00     0.034 A 
ATOM     57  C   UNL     1       3.630   3.339   9.593  1.00  0.00     0.034 A 
ATOM     58  C   UNL     1      -1.694   2.542  13.197  1.00  0.00     0.049 A 
ATOM     59  C   UNL     1       3.003   4.153  10.683  1.00  0.00     0.074 A 
ATOM     60  C   UNL     1      -2.028   3.180  14.378  1.00  0.00     0.029 A 
ATOM     61  N   UNL     1      -0.524   3.127  12.742  1.00  0.00    -0.354 N 
ATOM     62  N   UNL     1       1.924   3.900  11.380  1.00  0.00    -0.248 NA
ATOM     63  C   UNL     1       3.723   5.365  11.097  1.00  0.00     0.031 C 
ATOM     64  C   UNL     1      -1.069   4.169  14.625  1.00  0.00     0.029 A 
ATOM     65  C   UNL     1      -0.129   4.130  13.608  1.00  0.00     0.049 A 
ATOM     66  H   UNL     1      -0.044   2.866  11.923  1.00  0.00     0.167 HD
ATOM     67  C   UNL     1       1.900   4.852  12.391  1.00  0.00     0.074 A 
ATOM     68  C   UNL     1       3.036   5.724  12.174  1.00  0.00     0.031 C 
ATOM     69  C   UNL     1       1.036   4.957  13.428  1.00  0.00     0.034 A 
BRANCH  56  70
ATOM     70  C   UNL     1      -3.706   1.012  13.089  1.00  0.00     0.023 A 
ATOM     71  C   UNL     1      -3.764  -0.243  13.735  1.00  0.00     0.012 A 
ATOM     72  C   UNL     1      -4.860   1.816  13.047  1.00  0.00     0.148 A 
ATOM     73  C   UNL     1      -4.955  -0.710  14.286  1.00  0.00     0.002 A 
ATOM     74  C   UNL     1      -6.035   1.363  13.640  1.00  0.00     0.091 A 
ATOM     75  F   UNL     1      -4.795   2.998  12.419  1.00  0.00    -0.205 F 
ATOM     76  C   UNL     1      -6.088   0.097  14.247  1.00  0.00     0.022 A 
BRANCH  74  77
ATOM     77  S   UNL     1      -7.529   2.358  13.719  1.00  0.00     0.127 S 
ATOM     78  O   UNL     1      -8.396   1.664  12.768  1.00  0.00    -0.237 OA
ATOM     79  O   UNL     1      -7.923   2.212  15.121  1.00  0.00    -0.237 OA
ATOM     80  O   UNL     1      -7.133   3.706  13.337  1.00  0.00    -0.744 OA
ENDBRANCH  74  77
ENDBRANCH  56  70
BRANCH  57  81
ATOM     81  C   UNL     1       4.809   3.869   8.847  1.00  0.00     0.023 A 
ATOM     82  C   UNL     1       6.101   3.692   9.369  1.00  0.00     0.012 A 
ATOM     83  C   UNL     1       4.656   4.562   7.630  1.00  0.00     0.148 A 
ATOM     84  C   UNL     1       7.217   4.186   8.688  1.00  0.00     0.002 A 
ATOM     85  C   UNL     1       5.774   4.982   6.918  1.00  0.00     0.091 A 
ATOM     86  F   UNL     1       3.421   4.866   7.216  1.00  0.00    -0.205 F 
ATOM     87  C   UNL     1       7.056   4.809   7.452  1.00  0.00     0.022 A 
BRANCH  85  88
ATOM     88  S   UNL     1       5.648   5.665   5.260  1.00  0.00     0.127 S 
ATOM     89  O   UNL     1       5.902   7.083   5.497  1.00  0.00    -0.237 OA
ATOM     90  O   UNL     1       6.718   4.954   4.558  1.00  0.00    -0.237 OA
ATOM     91  O   UNL     1       4.307   5.321   4.807  1.00  0.00    -0.744 OA
ENDBRANCH  85  88
ENDBRANCH  57  81
BRANCH  69  92
ATOM     92  C   UNL     1       1.336   5.982  14.486  1.00  0.00     0.023 A 
ATOM     93  C   UNL     1       1.127   7.350  14.235  1.00  0.00     0.012 A 
ATOM     94  C   UNL     1       1.765   5.566  15.763  1.00  0.00     0.148 A 
ATOM     95  C   UNL     1       1.367   8.294  15.233  1.00  0.00     0.002 A 
ATOM     96  C   UNL     1       1.950   6.506  16.768  1.00  0.00     0.091 A 
ATOM     97  F   UNL     1       1.985   4.260  15.971  1.00  0.00    -0.205 F 
ATOM     98  C   UNL     1       1.764   7.872  16.502  1.00  0.00     0.022 A 
BRANCH  96  99
ATOM     99  S   UNL     1       2.358   6.038  18.453  1.00  0.00     0.127 S 
ATOM    100  O   UNL     1       3.767   6.418  18.536  1.00  0.00    -0.237 OA
ATOM    101  O   UNL     1       1.452   6.878  19.237  1.00  0.00    -0.237 OA
ATOM    102  O   UNL     1       2.087   4.610  18.549  1.00  0.00    -0.744 OA
ENDBRANCH  96  99
ENDBRANCH  69  92
ENDBRANCH  43  44
ENDBRANCH  35  38
ENDBRANCH  33  34
ENDBRANCH  32  33
ENDBRANCH  31  32
ENDBRANCH   3  31
TORSDOF 19
