REMARK SMILES CS(=O)(=O)c1ccc(/C=C(/C(=O)NCCCNC(=O)c2ccc(-c3c4nc(c(-c5cccc(S(=O)(=O)[O-])c5F)c5ccc([nH]5)c(-c5cccc(S(=O)(=O)[O-])c5F)c5nc(c(-c6cccc(S(=O)(=O)[O-])c6F)c6ccc3[nH]6)C=C5)C=C4)cc2)c2ccc(-c3ccc(S(C)(=O)=O)cc3)cc2)cc1
REMARK SMILES IDX 15 1 14 2 13 3 11 4 12 5 10 7 9 8 8 9 5 10 6 11 100 12 7 13
REMARK SMILES IDX 99 14 2 15 1 16 3 17 4 18 83 19 84 20 98 21 85 22 97 23
REMARK SMILES IDX 86 24 87 25 88 26 96 27 89 28 95 29 90 30 91 31 92 32 93 33
REMARK SMILES IDX 94 34 16 35 17 36 18 37 19 39 20 40 21 41 82 42 22 43 81 44
REMARK SMILES IDX 23 45 24 46 25 47 75 48 26 49 80 50 74 51 76 52 27 53 79 54
REMARK SMILES IDX 73 55 72 56 28 58 60 59 40 60 59 61 41 62 44 63 58 64 77 65
REMARK SMILES IDX 42 66 43 67 57 69 78 70 45 71 29 72 30 73 38 74 31 75 33 76
REMARK SMILES IDX 39 77 32 78 34 79 35 80 36 81 37 82 61 83 62 84 70 85 63 86
REMARK SMILES IDX 65 87 71 88 64 89 66 90 67 91 68 92 69 93 46 94 47 95 55 96
REMARK SMILES IDX 48 97 50 98 56 99 49 100 51 101 52 102 53 103 54 104
REMARK H PARENT 13 6 17 38 76 57 44 68
REMARK Flexibility Score: inf
ROOT
ATOM      1  C   UNL     1       1.111   9.859   1.914  1.00  0.00     0.042 C 
ENDROOT
BRANCH   1   2
ATOM      2  C   UNL     1       2.451   9.156   2.138  1.00  0.00     0.118 C 
BRANCH   2   3
ATOM      3  N   UNL     1       2.624   8.799   3.534  1.00  0.00    -0.352 N 
ATOM      4  C   UNL     1       2.523   7.639   4.231  1.00  0.00     0.251 C 
ATOM      5  O   UNL     1       2.752   7.718   5.442  1.00  0.00    -0.269 OA
ATOM      6  H   UNL     1       2.869   9.567   4.099  1.00  0.00     0.163 HD
BRANCH   4   7
ATOM      7  C   UNL     1       2.246   6.297   3.591  1.00  0.00     0.047 C 
ATOM      8  C   UNL     1       1.415   6.166   2.532  1.00  0.00     0.022 C 
BRANCH   8   9
ATOM      9  C   UNL     1       1.089   4.965   1.731  1.00  0.00    -0.025 A 
ATOM     10  C   UNL     1       0.595   2.748   0.070  1.00  0.00     0.067 A 
ATOM     11  C   UNL     1       0.547   2.602   1.456  1.00  0.00     0.021 A 
ATOM     12  C   UNL     1       0.842   4.000  -0.496  1.00  0.00     0.021 A 
ATOM     13  C   UNL     1       0.773   3.714   2.278  1.00  0.00     0.009 A 
ATOM     14  C   UNL     1       1.083   5.100   0.333  1.00  0.00     0.009 A 
BRANCH  10  15
ATOM     15  S   UNL     1       0.378   1.355  -1.012  1.00  0.00     0.175 S 
ATOM     16  C   UNL     1       1.093  -0.037  -0.182  1.00  0.00     0.163 C 
ATOM     17  O   UNL     1       1.200   1.597  -2.185  1.00  0.00    -0.224 OA
ATOM     18  O   UNL     1      -1.047   1.123  -1.127  1.00  0.00    -0.224 OA
ENDBRANCH  10  15
ENDBRANCH   8   9
BRANCH   7  19
ATOM     19  C   UNL     1       2.764   5.101   4.300  1.00  0.00    -0.013 A 
ATOM     20  C   UNL     1       2.241   4.803   5.566  1.00  0.00     0.009 A 
ATOM     21  C   UNL     1       3.681   4.214   3.727  1.00  0.00     0.009 A 
ATOM     22  C   UNL     1       2.589   3.625   6.224  1.00  0.00     0.009 A 
ATOM     23  C   UNL     1       4.010   3.018   4.383  1.00  0.00     0.009 A 
ATOM     24  C   UNL     1       3.451   2.690   5.633  1.00  0.00    -0.018 A 
BRANCH  24  25
ATOM     25  C   UNL     1       3.723   1.403   6.303  1.00  0.00    -0.018 A 
ATOM     26  C   UNL     1       2.677   0.684   6.917  1.00  0.00     0.010 A 
ATOM     27  C   UNL     1       5.016   0.857   6.360  1.00  0.00     0.010 A 
ATOM     28  C   UNL     1       2.913  -0.518   7.586  1.00  0.00     0.021 A 
ATOM     29  C   UNL     1       5.264  -0.347   7.027  1.00  0.00     0.021 A 
ATOM     30  C   UNL     1       4.212  -1.017   7.651  1.00  0.00     0.067 A 
BRANCH  30  31
ATOM     31  S   UNL     1       4.508  -2.524   8.541  1.00  0.00     0.175 S 
ATOM     32  C   UNL     1       4.233  -2.064  10.234  1.00  0.00     0.163 C 
ATOM     33  O   UNL     1       3.482  -3.465   8.149  1.00  0.00    -0.224 OA
ATOM     34  O   UNL     1       5.917  -2.854   8.400  1.00  0.00    -0.224 OA
ENDBRANCH  30  31
ENDBRANCH  24  25
ENDBRANCH   7  19
ENDBRANCH   4   7
ENDBRANCH   2   3
ENDBRANCH   1   2
BRANCH   1  35
ATOM     35  C   UNL     1       1.013  11.229   2.587  1.00  0.00     0.118 C 
BRANCH  35  36
ATOM     36  N   UNL     1       1.935  12.195   2.004  1.00  0.00    -0.352 N 
ATOM     37  C   UNL     1       1.681  13.406   1.410  1.00  0.00     0.251 C 
ATOM     38  H   UNL     1       2.885  11.941   2.042  1.00  0.00     0.163 HD
ATOM     39  O   UNL     1       2.577  13.967   0.784  1.00  0.00    -0.269 OA
BRANCH  37  40
ATOM     40  C   UNL     1       0.346  14.036   1.514  1.00  0.00     0.039 A 
ATOM     41  C   UNL     1      -0.193  14.663   0.386  1.00  0.00     0.014 A 
ATOM     42  C   UNL     1      -0.352  14.056   2.725  1.00  0.00     0.014 A 
ATOM     43  C   UNL     1      -1.450  15.268   0.461  1.00  0.00     0.010 A 
ATOM     44  C   UNL     1      -1.632  14.602   2.780  1.00  0.00     0.010 A 
ATOM     45  C   UNL     1      -2.191  15.223   1.653  1.00  0.00    -0.014 A 
BRANCH  45  46
ATOM     46  C   UNL     1      -3.555  15.805   1.736  1.00  0.00     0.031 A 
ATOM     47  C   UNL     1      -3.840  16.954   2.663  1.00  0.00     0.074 A 
ATOM     48  C   UNL     1      -4.563  15.225   1.056  1.00  0.00     0.049 A 
ATOM     49  N   UNL     1      -4.979  17.546   2.917  1.00  0.00    -0.248 NA
ATOM     50  C   UNL     1      -2.704  17.486   3.432  1.00  0.00     0.031 C 
ATOM     51  C   UNL     1      -4.434  14.042   0.204  1.00  0.00     0.029 A 
ATOM     52  N   UNL     1      -5.901  15.527   1.009  1.00  0.00    -0.354 N 
ATOM     53  C   UNL     1      -4.708  18.485   3.904  1.00  0.00     0.074 A 
ATOM     54  C   UNL     1      -3.302  18.366   4.223  1.00  0.00     0.031 C 
ATOM     55  C   UNL     1      -5.644  13.709  -0.269  1.00  0.00     0.029 A 
ATOM     56  C   UNL     1      -6.637  14.639   0.260  1.00  0.00     0.049 A 
ATOM     57  H   UNL     1      -6.296  16.304   1.466  1.00  0.00     0.167 HD
ATOM     58  C   UNL     1      -5.546  19.384   4.474  1.00  0.00     0.034 A 
ATOM     59  C   UNL     1      -7.964  14.572   0.033  1.00  0.00     0.034 A 
ATOM     60  C   UNL     1      -6.930  19.536   4.114  1.00  0.00     0.049 A 
ATOM     61  C   UNL     1      -8.862  15.630   0.609  1.00  0.00     0.074 A 
ATOM     62  C   UNL     1      -7.829  20.499   4.537  1.00  0.00     0.029 A 
ATOM     63  N   UNL     1      -7.620  18.695   3.255  1.00  0.00    -0.354 N 
ATOM     64  N   UNL     1      -8.551  16.636   1.390  1.00  0.00    -0.248 NA
ATOM     65  C   UNL     1     -10.283  15.572   0.240  1.00  0.00     0.031 C 
ATOM     66  C   UNL     1      -9.069  20.228   3.946  1.00  0.00     0.029 A 
ATOM     67  C   UNL     1      -8.938  19.107   3.142  1.00  0.00     0.049 A 
ATOM     68  H   UNL     1      -7.231  17.918   2.792  1.00  0.00     0.167 HD
ATOM     69  C   UNL     1      -9.730  17.345   1.588  1.00  0.00     0.074 A 
ATOM     70  C   UNL     1     -10.757  16.666   0.824  1.00  0.00     0.031 C 
ATOM     71  C   UNL     1      -9.943  18.449   2.346  1.00  0.00     0.034 A 
BRANCH  58  72
ATOM     72  C   UNL     1      -4.967  20.313   5.511  1.00  0.00     0.023 A 
ATOM     73  C   UNL     1      -4.075  21.331   5.112  1.00  0.00     0.012 A 
ATOM     74  C   UNL     1      -5.323  20.202   6.869  1.00  0.00     0.148 A 
ATOM     75  C   UNL     1      -3.513  22.193   6.053  1.00  0.00     0.002 A 
ATOM     76  C   UNL     1      -4.791  21.094   7.795  1.00  0.00     0.091 A 
ATOM     77  F   UNL     1      -6.152  19.215   7.238  1.00  0.00    -0.205 F 
ATOM     78  C   UNL     1      -3.877  22.080   7.391  1.00  0.00     0.022 A 
BRANCH  76  79
ATOM     79  S   UNL     1      -5.266  21.070   9.528  1.00  0.00     0.127 S 
ATOM     80  O   UNL     1      -4.136  20.369  10.135  1.00  0.00    -0.237 OA
ATOM     81  O   UNL     1      -5.344  22.495   9.852  1.00  0.00    -0.237 OA
ATOM     82  O   UNL     1      -6.544  20.373   9.575  1.00  0.00    -0.744 OA
ENDBRANCH  76  79
ENDBRANCH  58  72
BRANCH  59  83
ATOM     83  C   UNL     1      -8.495  13.491  -0.843  1.00  0.00     0.023 A 
ATOM     84  C   UNL     1      -8.915  13.803  -2.150  1.00  0.00     0.012 A 
ATOM     85  C   UNL     1      -8.500  12.148  -0.418  1.00  0.00     0.148 A 
ATOM     86  C   UNL     1      -9.347  12.797  -3.015  1.00  0.00     0.002 A 
ATOM     87  C   UNL     1      -8.879  11.145  -1.303  1.00  0.00     0.091 A 
ATOM     88  F   UNL     1      -8.101  11.877   0.832  1.00  0.00    -0.205 F 
ATOM     89  C   UNL     1      -9.316  11.469  -2.597  1.00  0.00     0.022 A 
BRANCH  87  90
ATOM     90  S   UNL     1      -8.733   9.400  -0.903  1.00  0.00     0.127 S 
ATOM     91  O   UNL     1     -10.133   8.990  -0.836  1.00  0.00    -0.237 OA
ATOM     92  O   UNL     1      -7.995   8.889  -2.059  1.00  0.00    -0.237 OA
ATOM     93  O   UNL     1      -7.997   9.342   0.352  1.00  0.00    -0.744 OA
ENDBRANCH  87  90
ENDBRANCH  59  83
BRANCH  71  94
ATOM     94  C   UNL     1     -11.341  19.010   2.385  1.00  0.00     0.023 A 
ATOM     95  C   UNL     1     -12.340  18.338   3.117  1.00  0.00     0.012 A 
ATOM     96  C   UNL     1     -11.644  20.239   1.768  1.00  0.00     0.148 A 
ATOM     97  C   UNL     1     -13.627  18.868   3.211  1.00  0.00     0.002 A 
ATOM     98  C   UNL     1     -12.916  20.784   1.904  1.00  0.00     0.091 A 
ATOM     99  F   UNL     1     -10.686  20.853   1.058  1.00  0.00    -0.205 F 
ATOM    100  C   UNL     1     -13.911  20.095   2.617  1.00  0.00     0.022 A 
BRANCH  98 101
ATOM    101  S   UNL     1     -13.342  22.402   1.250  1.00  0.00     0.127 S 
ATOM    102  O   UNL     1     -14.144  22.049   0.080  1.00  0.00    -0.237 OA
ATOM    103  O   UNL     1     -14.100  22.996   2.352  1.00  0.00    -0.237 OA
ATOM    104  O   UNL     1     -12.075  23.063   0.967  1.00  0.00    -0.744 OA
ENDBRANCH  98 101
ENDBRANCH  71  94
ENDBRANCH  45  46
ENDBRANCH  37  40
ENDBRANCH  35  36
ENDBRANCH   1  35
TORSDOF 18
