REMARK SMILES O=C(NCCCNC(=O)c1ccccc1OCC[S@@](=O)c1cccc(F)c1)c1ccc(-c2c3nc(c(-c4cccc(S(=O)(=O)[O-])c4F)c4ccc([nH]4)c(-c4cccc(S(=O)(=O)[O-])c4F)c4nc(c(-c5cccc(S(=O)(=O)[O-])c5F)c5ccc2[nH]5)C=C4)C=C3)cc1
REMARK SMILES IDX 6 1 5 2 4 3 3 4 1 5 2 6 28 8 29 9 90 10 30 11 89 12 31 13
REMARK SMILES IDX 32 14 33 15 83 16 34 17 88 18 82 19 84 20 35 21 87 22 81 23
REMARK SMILES IDX 80 24 36 26 68 27 48 28 67 29 49 30 52 31 66 32 85 33 50 34
REMARK SMILES IDX 51 35 65 37 86 38 53 39 37 40 38 41 46 42 39 43 41 44 47 45
REMARK SMILES IDX 40 46 42 47 43 48 44 49 45 50 69 51 70 52 78 53 71 54 73 55
REMARK SMILES IDX 79 56 72 57 74 58 75 59 76 60 77 61 54 62 55 63 63 64 56 65
REMARK SMILES IDX 58 66 64 67 57 68 59 69 60 70 61 71 62 72 7 73 8 74 9 76
REMARK SMILES IDX 10 77 11 78 15 79 12 80 14 81 13 82 16 83 17 84 18 85 19 86
REMARK SMILES IDX 20 87 21 88 22 89 27 90 23 91 25 92 24 93 26 94
REMARK H PARENT 3 7 84 25 52 36 7 75
REMARK Flexibility Score: inf
ROOT
ATOM      1  C   UNL     1       4.299   1.941  -4.662  1.00  0.00     0.118 C 
ENDROOT
BRANCH   1   2
ATOM      2  C   UNL     1       4.176   0.493  -4.082  1.00  0.00     0.042 C 
BRANCH   2   3
ATOM      3  C   UNL     1       4.138   0.194  -2.553  1.00  0.00     0.118 C 
BRANCH   3   4
ATOM      4  N   UNL     1       2.889   0.485  -1.865  1.00  0.00    -0.352 N 
ATOM      5  O   UNL     1       1.253   0.182  -0.338  1.00  0.00    -0.269 OA
ATOM      6  C   UNL     1       2.392  -0.094  -0.706  1.00  0.00     0.251 C 
ATOM      7  H   UNL     1       2.325   1.181  -2.274  1.00  0.00     0.163 HD
BRANCH   6   8
ATOM      8  C   UNL     1       3.199  -1.067   0.084  1.00  0.00     0.039 A 
ATOM      9  C   UNL     1       4.430  -0.706   0.638  1.00  0.00     0.014 A 
ATOM     10  C   UNL     1       2.676  -2.339   0.357  1.00  0.00     0.014 A 
ATOM     11  C   UNL     1       5.173  -1.644   1.377  1.00  0.00     0.010 A 
ATOM     12  C   UNL     1       3.417  -3.271   1.109  1.00  0.00     0.010 A 
ATOM     13  C   UNL     1       4.692  -2.947   1.600  1.00  0.00    -0.014 A 
BRANCH  13  14
ATOM     14  C   UNL     1       5.524  -3.947   2.343  1.00  0.00     0.031 A 
ATOM     15  C   UNL     1       6.146  -5.127   1.630  1.00  0.00     0.074 A 
ATOM     16  C   UNL     1       5.739  -3.808   3.668  1.00  0.00     0.049 A 
ATOM     17  N   UNL     1       6.953  -6.048   2.099  1.00  0.00    -0.248 NA
ATOM     18  C   UNL     1       5.812  -5.299   0.208  1.00  0.00     0.031 C 
ATOM     19  C   UNL     1       5.155  -2.765   4.510  1.00  0.00     0.029 A 
ATOM     20  N   UNL     1       6.495  -4.556   4.542  1.00  0.00    -0.354 N 
ATOM     21  C   UNL     1       7.219  -6.910   1.039  1.00  0.00     0.074 A 
ATOM     22  C   UNL     1       6.463  -6.416  -0.094  1.00  0.00     0.031 C 
ATOM     23  C   UNL     1       5.574  -2.936   5.775  1.00  0.00     0.029 A 
ATOM     24  C   UNL     1       6.447  -4.106   5.842  1.00  0.00     0.049 A 
ATOM     25  H   UNL     1       7.023  -5.339   4.263  1.00  0.00     0.167 HD
ATOM     26  C   UNL     1       8.034  -7.994   0.996  1.00  0.00     0.034 A 
ATOM     27  C   UNL     1       7.034  -4.576   6.963  1.00  0.00     0.034 A 
ATOM     28  C   UNL     1       8.808  -8.484   2.109  1.00  0.00     0.049 A 
ATOM     29  C   UNL     1       7.963  -5.759   6.882  1.00  0.00     0.074 A 
ATOM     30  C   UNL     1       9.699  -9.545   2.136  1.00  0.00     0.029 A 
ATOM     31  N   UNL     1       8.786  -7.955   3.389  1.00  0.00    -0.354 N 
ATOM     32  N   UNL     1       8.318  -6.461   5.833  1.00  0.00    -0.248 NA
ATOM     33  C   UNL     1       8.605  -6.191   8.134  1.00  0.00     0.031 C 
ATOM     34  C   UNL     1      10.205  -9.666   3.436  1.00  0.00     0.029 A 
ATOM     35  C   UNL     1       9.643  -8.669   4.214  1.00  0.00     0.049 A 
ATOM     36  H   UNL     1       8.241  -7.186   3.673  1.00  0.00     0.167 HD
ATOM     37  C   UNL     1       9.237  -7.399   6.294  1.00  0.00     0.074 A 
ATOM     38  C   UNL     1       9.415  -7.152   7.709  1.00  0.00     0.031 C 
ATOM     39  C   UNL     1       9.856  -8.393   5.611  1.00  0.00     0.034 A 
BRANCH  26  40
ATOM     40  C   UNL     1       8.199  -8.703  -0.326  1.00  0.00     0.023 A 
ATOM     41  C   UNL     1       8.985  -8.101  -1.330  1.00  0.00     0.012 A 
ATOM     42  C   UNL     1       7.676  -9.994  -0.540  1.00  0.00     0.148 A 
ATOM     43  C   UNL     1       9.231  -8.761  -2.534  1.00  0.00     0.002 A 
ATOM     44  C   UNL     1       7.956 -10.661  -1.729  1.00  0.00     0.091 A 
ATOM     45  F   UNL     1       6.923 -10.547   0.421  1.00  0.00    -0.205 F 
ATOM     46  C   UNL     1       8.726 -10.043  -2.729  1.00  0.00     0.022 A 
BRANCH  44  47
ATOM     47  S   UNL     1       7.415 -12.345  -2.055  1.00  0.00     0.127 S 
ATOM     48  O   UNL     1       6.419 -12.136  -3.105  1.00  0.00    -0.237 OA
ATOM     49  O   UNL     1       8.651 -12.983  -2.507  1.00  0.00    -0.237 OA
ATOM     50  O   UNL     1       6.894 -12.851  -0.793  1.00  0.00    -0.744 OA
ENDBRANCH  44  47
ENDBRANCH  26  40
BRANCH  27  51
ATOM     51  C   UNL     1       6.804  -3.887   8.267  1.00  0.00     0.023 A 
ATOM     52  C   UNL     1       7.858  -3.180   8.880  1.00  0.00     0.012 A 
ATOM     53  C   UNL     1       5.545  -3.917   8.896  1.00  0.00     0.148 A 
ATOM     54  C   UNL     1       7.670  -2.543  10.107  1.00  0.00     0.002 A 
ATOM     55  C   UNL     1       5.347  -3.229  10.087  1.00  0.00     0.091 A 
ATOM     56  F   UNL     1       4.560  -4.620   8.317  1.00  0.00    -0.205 F 
ATOM     57  C   UNL     1       6.412  -2.555  10.704  1.00  0.00     0.022 A 
BRANCH  55  58
ATOM     58  S   UNL     1       3.723  -3.082  10.839  1.00  0.00     0.127 S 
ATOM     59  O   UNL     1       3.787  -4.082  11.898  1.00  0.00    -0.237 OA
ATOM     60  O   UNL     1       3.718  -1.693  11.299  1.00  0.00    -0.237 OA
ATOM     61  O   UNL     1       2.777  -3.352   9.758  1.00  0.00    -0.744 OA
ENDBRANCH  55  58
ENDBRANCH  27  51
BRANCH  39  62
ATOM     62  C   UNL     1      10.796  -9.288   6.380  1.00  0.00     0.023 A 
ATOM     63  C   UNL     1      10.271 -10.222   7.296  1.00  0.00     0.012 A 
ATOM     64  C   UNL     1      12.188  -9.239   6.170  1.00  0.00     0.148 A 
ATOM     65  C   UNL     1      11.117 -11.062   8.021  1.00  0.00     0.002 A 
ATOM     66  C   UNL     1      13.023 -10.110   6.863  1.00  0.00     0.091 A 
ATOM     67  F   UNL     1      12.676  -8.333   5.309  1.00  0.00    -0.205 F 
ATOM     68  C   UNL     1      12.491 -11.012   7.798  1.00  0.00     0.022 A 
BRANCH  66  69
ATOM     69  S   UNL     1      14.796 -10.171   6.577  1.00  0.00     0.127 S 
ATOM     70  O   UNL     1      15.312  -9.446   7.736  1.00  0.00    -0.237 OA
ATOM     71  O   UNL     1      15.067 -11.610   6.588  1.00  0.00    -0.237 OA
ATOM     72  O   UNL     1      15.011  -9.532   5.286  1.00  0.00    -0.744 OA
ENDBRANCH  66  69
ENDBRANCH  39  62
ENDBRANCH  13  14
ENDBRANCH   6   8
ENDBRANCH   3   4
ENDBRANCH   2   3
ENDBRANCH   1   2
BRANCH   1  73
ATOM     73  N   UNL     1       5.567   2.631  -4.336  1.00  0.00    -0.352 N 
ATOM     74  C   UNL     1       6.121   3.902  -4.497  1.00  0.00     0.255 C 
ATOM     75  H   UNL     1       6.194   2.025  -3.878  1.00  0.00     0.163 HD
ATOM     76  O   UNL     1       7.045   4.422  -3.882  1.00  0.00    -0.269 OA
BRANCH  74  77
ATOM     77  C   UNL     1       5.494   4.891  -5.276  1.00  0.00     0.081 A 
ATOM     78  C   UNL     1       6.214   5.387  -6.363  1.00  0.00     0.018 A 
ATOM     79  C   UNL     1       4.159   4.996  -5.024  1.00  0.00     0.132 A 
ATOM     80  C   UNL     1       5.489   5.672  -7.486  1.00  0.00     0.001 A 
ATOM     81  C   UNL     1       3.435   5.157  -6.197  1.00  0.00     0.047 A 
ATOM     82  C   UNL     1       4.108   5.447  -7.430  1.00  0.00     0.004 A 
BRANCH  79  83
ATOM     83  O   UNL     1       3.665   4.686  -3.763  1.00  0.00    -0.492 OA
BRANCH  83  84
ATOM     84  C   UNL     1       4.576   4.838  -2.541  1.00  0.00     0.243 C 
BRANCH  84  85
ATOM     85  C   UNL     1       5.142   3.533  -1.790  1.00  0.00     0.152 C 
BRANCH  85  86
ATOM     86  S   UNL     1       7.060   3.083  -1.381  1.00  0.00     0.056 S 
ATOM     87  O   UNL     1       6.921   1.988  -0.356  1.00  0.00    -0.254 OA
BRANCH  86  88
ATOM     88  C   UNL     1       7.974   2.118  -2.802  1.00  0.00     0.042 A 
ATOM     89  C   UNL     1       7.659   0.788  -3.150  1.00  0.00     0.018 A 
ATOM     90  C   UNL     1       8.864   2.802  -3.656  1.00  0.00     0.057 A 
ATOM     91  C   UNL     1       7.921   0.314  -4.459  1.00  0.00     0.004 A 
ATOM     92  C   UNL     1       9.068   2.348  -4.967  1.00  0.00     0.124 A 
ATOM     93  C   UNL     1       8.558   1.131  -5.393  1.00  0.00     0.039 A 
ATOM     94  F   UNL     1       9.648   3.158  -5.867  1.00  0.00    -0.207 F 
ENDBRANCH  86  88
ENDBRANCH  85  86
ENDBRANCH  84  85
ENDBRANCH  83  84
ENDBRANCH  79  83
ENDBRANCH  74  77
ENDBRANCH   1  73
TORSDOF 18
