REMARK SMILES Cc1noc(C)c1C[NH2+][C@H](C)[C@H](C)C(=O)NCCCNC(=O)c1ccc(-c2c3nc(c(-c4cccc(S(=O)(=O)[O-])c4F)c4ccc([nH]4)c(-c4cccc(S(=O)(=O)[O-])c4F)c4nc(c(-c5cccc(S(=O)(=O)[O-])c5F)c5ccc2[nH]5)C=C4)C=C3)cc1
REMARK SMILES IDX 17 1 16 2 14 3 15 4 12 6 13 7 10 8 11 9 9 10 8 13 7 14 1 15
REMARK SMILES IDX 2 16 3 17 4 18 5 19 6 20 18 21 19 22 20 23 21 24 22 26 23 27
REMARK SMILES IDX 24 28 85 29 25 30 84 31 26 32 27 33 28 34 78 35 29 36 83 37
REMARK SMILES IDX 77 38 79 39 30 40 82 41 76 42 75 43 31 45 63 46 43 47 62 48
REMARK SMILES IDX 44 49 47 50 61 51 80 52 45 53 46 54 60 56 81 57 48 58 32 59
REMARK SMILES IDX 33 60 41 61 34 62 36 63 42 64 35 65 37 66 38 67 39 68 40 69
REMARK SMILES IDX 64 70 65 71 73 72 66 73 68 74 74 75 67 76 69 77 70 78 71 79
REMARK SMILES IDX 72 80 49 81 50 82 58 83 51 84 53 85 59 86 52 87 54 88 55 89
REMARK SMILES IDX 56 90 57 91
REMARK H PARENT 16 5 9 11 9 12 20 25 79 44 47 55
REMARK Flexibility Score: inf
ROOT
ATOM      1  C   UNL     1      -2.769   6.566  -0.161  1.00  0.00     0.117 C 
ENDROOT
BRANCH   1   2
ATOM      2  N   UNL     1      -2.074   7.114  -1.312  1.00  0.00    -0.356 N 
ATOM      3  C   UNL     1      -1.477   6.496  -2.367  1.00  0.00     0.228 C 
ATOM      4  O   UNL     1      -0.949   7.204  -3.228  1.00  0.00    -0.275 OA
ATOM      5  H   UNL     1      -2.027   8.097  -1.333  1.00  0.00     0.163 HD
BRANCH   3   6
ATOM      6  C   UNL     1      -1.477   4.976  -2.506  1.00  0.00     0.133 C 
ATOM      7  C   UNL     1      -0.656   4.382  -1.352  1.00  0.00     0.024 C 
BRANCH   6   8
ATOM      8  C   UNL     1      -2.917   4.409  -2.704  1.00  0.00     0.191 C 
ATOM      9  C   UNL     1      -3.718   5.243  -3.725  1.00  0.00     0.076 C 
BRANCH   8  10
ATOM     10  N   UNL     1      -3.091   3.007  -3.116  1.00  0.00    -0.339 N 
ATOM     11  H   UNL     1      -3.943   2.666  -2.672  1.00  0.00     0.346 HD
ATOM     12  H   UNL     1      -3.102   3.046  -4.136  1.00  0.00     0.346 HD
BRANCH  10  13
ATOM     13  C   UNL     1      -2.039   2.061  -2.808  1.00  0.00     0.303 C 
BRANCH  13  14
ATOM     14  C   UNL     1      -2.547   0.714  -3.162  1.00  0.00     0.071 A 
ATOM     15  C   UNL     1      -4.194   0.272  -1.190  1.00  0.00     0.071 C 
ATOM     16  C   UNL     1      -3.491  -0.075  -2.449  1.00  0.00     0.090 A 
ATOM     17  N   UNL     1      -3.717  -1.243  -3.062  1.00  0.00    -0.085 NA
ATOM     18  O   UNL     1      -2.918  -1.235  -4.190  1.00  0.00    -0.361 OA
ATOM     19  C   UNL     1      -2.222  -0.070  -4.248  1.00  0.00     0.142 A 
ATOM     20  C   UNL     1      -1.317   0.105  -5.398  1.00  0.00     0.091 C 
ENDBRANCH  13  14
ENDBRANCH  10  13
ENDBRANCH   8  10
ENDBRANCH   6   8
ENDBRANCH   3   6
ENDBRANCH   1   2
BRANCH   1  21
ATOM     21  C   UNL     1      -2.110   6.953   1.151  1.00  0.00     0.042 C 
BRANCH  21  22
ATOM     22  C   UNL     1      -2.148   8.446   1.433  1.00  0.00     0.118 C 
BRANCH  22  23
ATOM     23  N   UNL     1      -3.507   8.957   1.569  1.00  0.00    -0.352 N 
ATOM     24  C   UNL     1      -4.119   9.545   2.648  1.00  0.00     0.251 C 
ATOM     25  H   UNL     1      -4.070   8.867   0.766  1.00  0.00     0.163 HD
ATOM     26  O   UNL     1      -5.335   9.733   2.628  1.00  0.00    -0.269 OA
BRANCH  24  27
ATOM     27  C   UNL     1      -3.325   9.930   3.833  1.00  0.00     0.039 A 
ATOM     28  C   UNL     1      -3.845   9.692   5.107  1.00  0.00     0.014 A 
ATOM     29  C   UNL     1      -2.068  10.521   3.690  1.00  0.00     0.014 A 
ATOM     30  C   UNL     1      -3.073   9.986   6.234  1.00  0.00     0.010 A 
ATOM     31  C   UNL     1      -1.261  10.712   4.805  1.00  0.00     0.010 A 
ATOM     32  C   UNL     1      -1.759  10.463   6.091  1.00  0.00    -0.014 A 
BRANCH  32  33
ATOM     33  C   UNL     1      -0.893  10.713   7.271  1.00  0.00     0.031 A 
ATOM     34  C   UNL     1      -0.353  12.094   7.535  1.00  0.00     0.074 A 
ATOM     35  C   UNL     1      -0.525   9.682   8.059  1.00  0.00     0.049 A 
ATOM     36  N   UNL     1       0.452  12.497   8.483  1.00  0.00    -0.248 NA
ATOM     37  C   UNL     1      -0.743  13.158   6.593  1.00  0.00     0.031 C 
ATOM     38  C   UNL     1      -0.915   8.284   7.862  1.00  0.00     0.029 A 
ATOM     39  N   UNL     1       0.278   9.647   9.171  1.00  0.00    -0.354 N 
ATOM     40  C   UNL     1       0.697  13.841   8.230  1.00  0.00     0.074 A 
ATOM     41  C   UNL     1      -0.014  14.179   7.017  1.00  0.00     0.031 C 
ATOM     42  C   UNL     1      -0.364   7.532   8.829  1.00  0.00     0.029 A 
ATOM     43  C   UNL     1       0.447   8.385   9.691  1.00  0.00     0.049 A 
ATOM     44  H   UNL     1       0.694  10.450   9.560  1.00  0.00     0.167 HD
ATOM     45  C   UNL     1       1.423  14.724   8.955  1.00  0.00     0.034 A 
ATOM     46  C   UNL     1       1.178   7.961  10.740  1.00  0.00     0.034 A 
ATOM     47  C   UNL     1       2.092  14.394  10.183  1.00  0.00     0.049 A 
ATOM     48  C   UNL     1       1.947   8.970  11.549  1.00  0.00     0.074 A 
ATOM     49  C   UNL     1       2.773  15.237  11.044  1.00  0.00     0.029 A 
ATOM     50  N   UNL     1       2.177  13.120  10.721  1.00  0.00    -0.354 N 
ATOM     51  N   UNL     1       2.032  10.268  11.385  1.00  0.00    -0.248 NA
ATOM     52  C   UNL     1       2.690   8.462  12.711  1.00  0.00     0.031 C 
ATOM     53  C   UNL     1       3.303  14.465  12.082  1.00  0.00     0.029 A 
ATOM     54  C   UNL     1       2.913  13.149  11.893  1.00  0.00     0.049 A 
ATOM     55  H   UNL     1       1.774  12.313  10.327  1.00  0.00     0.167 HD
ATOM     56  C   UNL     1       2.801  10.736  12.444  1.00  0.00     0.074 A 
ATOM     57  C   UNL     1       3.140   9.585  13.254  1.00  0.00     0.031 C 
ATOM     58  C   UNL     1       3.200  12.003  12.717  1.00  0.00     0.034 A 
BRANCH  45  59
ATOM     59  C   UNL     1       1.501  16.146   8.460  1.00  0.00     0.023 A 
ATOM     60  C   UNL     1       0.358  16.970   8.512  1.00  0.00     0.012 A 
ATOM     61  C   UNL     1       2.719  16.683   8.002  1.00  0.00     0.148 A 
ATOM     62  C   UNL     1       0.416  18.295   8.081  1.00  0.00     0.002 A 
ATOM     63  C   UNL     1       2.782  18.019   7.622  1.00  0.00     0.091 A 
ATOM     64  F   UNL     1       3.790  15.879   7.940  1.00  0.00    -0.205 F 
ATOM     65  C   UNL     1       1.630  18.822   7.647  1.00  0.00     0.022 A 
BRANCH  63  66
ATOM     66  S   UNL     1       4.315  18.815   7.130  1.00  0.00     0.127 S 
ATOM     67  O   UNL     1       4.079  19.052   5.706  1.00  0.00    -0.237 OA
ATOM     68  O   UNL     1       4.312  20.022   7.957  1.00  0.00    -0.237 OA
ATOM     69  O   UNL     1       5.378  17.869   7.436  1.00  0.00    -0.744 OA
ENDBRANCH  63  66
ENDBRANCH  45  59
BRANCH  46  70
ATOM     70  C   UNL     1       1.171   6.521  11.126  1.00  0.00     0.023 A 
ATOM     71  C   UNL     1       0.552   6.130  12.330  1.00  0.00     0.012 A 
ATOM     72  C   UNL     1       1.762   5.539  10.308  1.00  0.00     0.148 A 
ATOM     73  C   UNL     1       0.559   4.794  12.733  1.00  0.00     0.002 A 
ATOM     74  C   UNL     1       1.714   4.202  10.686  1.00  0.00     0.091 A 
ATOM     75  F   UNL     1       2.352   5.932   9.171  1.00  0.00    -0.205 F 
ATOM     76  C   UNL     1       1.131   3.830  11.908  1.00  0.00     0.022 A 
BRANCH  74  77
ATOM     77  S   UNL     1       2.309   2.880   9.627  1.00  0.00     0.127 S 
ATOM     78  O   UNL     1       3.485   2.416  10.358  1.00  0.00    -0.237 OA
ATOM     79  O   UNL     1       1.174   1.956   9.633  1.00  0.00    -0.237 OA
ATOM     80  O   UNL     1       2.571   3.498   8.334  1.00  0.00    -0.744 OA
ENDBRANCH  74  77
ENDBRANCH  46  70
BRANCH  58  81
ATOM     81  C   UNL     1       4.005  12.229  13.971  1.00  0.00     0.023 A 
ATOM     82  C   UNL     1       5.335  11.771  14.050  1.00  0.00     0.012 A 
ATOM     83  C   UNL     1       3.458  12.956  15.047  1.00  0.00     0.148 A 
ATOM     84  C   UNL     1       6.094  11.999  15.197  1.00  0.00     0.002 A 
ATOM     85  C   UNL     1       4.239  13.227  16.163  1.00  0.00     0.091 A 
ATOM     86  F   UNL     1       2.185  13.368  14.959  1.00  0.00    -0.205 F 
ATOM     87  C   UNL     1       5.551  12.737  16.247  1.00  0.00     0.022 A 
BRANCH  85  88
ATOM     88  S   UNL     1       3.658  14.255  17.517  1.00  0.00     0.127 S 
ATOM     89  O   UNL     1       3.475  13.270  18.581  1.00  0.00    -0.237 OA
ATOM     90  O   UNL     1       4.784  15.168  17.717  1.00  0.00    -0.237 OA
ATOM     91  O   UNL     1       2.438  14.895  17.042  1.00  0.00    -0.744 OA
ENDBRANCH  85  88
ENDBRANCH  58  81
ENDBRANCH  32  33
ENDBRANCH  24  27
ENDBRANCH  22  23
ENDBRANCH  21  22
ENDBRANCH   1  21
TORSDOF 17
