REMARK SMILES Cc1cc(=O)cc(C)n1-c1ccc(Cl)cc1C(=O)NCCCNC(=O)c1ccc(-c2c3nc(c(-c4cccc(S(=O)(=O)[O-])c4F)c4ccc([nH]4)c(-c4cccc(S(=O)(=O)[O-])c4F)c4nc(c(-c5cccc(S(=O)(=O)[O-])c5F)c5ccc2[nH]5)C=C4)C=C3)cc1
REMARK SMILES IDX 22 1 21 2 20 3 19 4 17 5 18 6 16 8 10 9 11 10 12 11 15 12
REMARK SMILES IDX 13 13 14 14 9 15 1 16 2 17 3 18 4 19 7 20 5 21 6 22 8 23
REMARK SMILES IDX 23 24 24 25 25 27 26 28 27 29 88 30 28 31 87 32 29 33 30 34
REMARK SMILES IDX 31 35 81 36 32 37 86 38 80 39 82 40 33 41 85 42 79 43 78 44
REMARK SMILES IDX 34 46 66 47 46 48 65 49 47 50 50 51 64 52 83 53 48 54 49 55
REMARK SMILES IDX 63 57 84 58 51 59 35 60 36 61 44 62 37 63 39 64 45 65 38 66
REMARK SMILES IDX 40 67 41 68 42 69 43 70 67 71 68 72 76 73 69 74 71 75 77 76
REMARK SMILES IDX 70 77 72 78 73 79 74 80 75 81 52 82 53 83 61 84 54 85 56 86
REMARK SMILES IDX 62 87 55 88 57 89 58 90 59 91 60 92
REMARK H PARENT 19 7 23 26 82 45 50 56
REMARK Flexibility Score: inf
ROOT
ATOM      1  C   UNL     1      -1.569   2.434  -3.523  1.00  0.00     0.118 C 
ENDROOT
BRANCH   1   2
ATOM      2  C   UNL     1      -0.415   3.289  -3.022  1.00  0.00     0.042 C 
BRANCH   2   3
ATOM      3  C   UNL     1       0.559   2.573  -2.114  1.00  0.00     0.118 C 
BRANCH   3   4
ATOM      4  N   UNL     1       1.311   1.480  -2.667  1.00  0.00    -0.352 N 
ATOM      5  C   UNL     1       2.473   0.919  -2.197  1.00  0.00     0.253 C 
ATOM      6  O   UNL     1       2.854  -0.116  -2.752  1.00  0.00    -0.269 OA
ATOM      7  H   UNL     1       0.944   1.080  -3.489  1.00  0.00     0.163 HD
BRANCH   5   8
ATOM      8  C   UNL     1       3.351   1.500  -1.126  1.00  0.00     0.065 A 
ATOM      9  C   UNL     1       2.995   2.079   0.118  1.00  0.00     0.058 A 
ATOM     10  C   UNL     1       4.036   2.474   1.001  1.00  0.00     0.029 A 
ATOM     11  C   UNL     1       5.383   2.331   0.674  1.00  0.00     0.023 A 
ATOM     12  C   UNL     1       4.729   1.356  -1.429  1.00  0.00     0.036 A 
ATOM     13  C   UNL     1       5.723   1.771  -0.545  1.00  0.00     0.041 A 
ATOM     14  Cl  UNL     1       7.381   1.575  -0.959  1.00  0.00    -0.084 Cl
BRANCH   9  15
ATOM     15  N   UNL     1       1.662   2.309   0.596  1.00  0.00    -0.317 N 
ATOM     16  C   UNL     1       1.289  -0.198   0.827  1.00  0.00     0.065 C 
ATOM     17  C   UNL     1       0.820   1.230   0.966  1.00  0.00     0.024 A 
ATOM     18  C   UNL     1      -0.424   1.432   1.445  1.00  0.00     0.073 A 
ATOM     19  C   UNL     1      -0.943   2.804   1.603  1.00  0.00     0.182 A 
ATOM     20  C   UNL     1       1.192   3.646   0.775  1.00  0.00     0.024 A 
ATOM     21  O   UNL     1      -2.072   3.013   2.026  1.00  0.00    -0.290 OA
ATOM     22  C   UNL     1      -0.045   3.911   1.237  1.00  0.00     0.073 A 
ATOM     23  C   UNL     1       1.999   4.852   0.329  1.00  0.00     0.065 C 
ENDBRANCH   9  15
ENDBRANCH   5   8
ENDBRANCH   3   4
ENDBRANCH   2   3
ENDBRANCH   1   2
BRANCH   1  24
ATOM     24  N   UNL     1      -2.433   1.877  -2.483  1.00  0.00    -0.352 N 
ATOM     25  C   UNL     1      -3.676   2.229  -2.002  1.00  0.00     0.251 C 
ATOM     26  H   UNL     1      -2.049   1.088  -2.035  1.00  0.00     0.163 HD
ATOM     27  O   UNL     1      -4.173   1.559  -1.097  1.00  0.00    -0.269 OA
BRANCH  25  28
ATOM     28  C   UNL     1      -4.404   3.410  -2.518  1.00  0.00     0.039 A 
ATOM     29  C   UNL     1      -5.122   4.224  -1.632  1.00  0.00     0.014 A 
ATOM     30  C   UNL     1      -4.389   3.731  -3.870  1.00  0.00     0.014 A 
ATOM     31  C   UNL     1      -5.710   5.411  -2.090  1.00  0.00     0.010 A 
ATOM     32  C   UNL     1      -4.839   4.973  -4.294  1.00  0.00     0.010 A 
ATOM     33  C   UNL     1      -5.512   5.831  -3.414  1.00  0.00    -0.014 A 
BRANCH  33  34
ATOM     34  C   UNL     1      -5.983   7.145  -3.935  1.00  0.00     0.031 A 
ATOM     35  C   UNL     1      -6.841   7.195  -5.174  1.00  0.00     0.074 A 
ATOM     36  C   UNL     1      -5.524   8.290  -3.391  1.00  0.00     0.049 A 
ATOM     37  N   UNL     1      -7.171   8.221  -5.914  1.00  0.00    -0.248 NA
ATOM     38  C   UNL     1      -7.352   5.908  -5.679  1.00  0.00     0.031 C 
ATOM     39  C   UNL     1      -4.635   8.384  -2.231  1.00  0.00     0.029 A 
ATOM     40  N   UNL     1      -5.719   9.598  -3.762  1.00  0.00    -0.354 N 
ATOM     41  C   UNL     1      -7.875   7.700  -6.994  1.00  0.00     0.074 A 
ATOM     42  C   UNL     1      -7.873   6.261  -6.844  1.00  0.00     0.031 C 
ATOM     43  C   UNL     1      -4.385   9.676  -1.969  1.00  0.00     0.029 A 
ATOM     44  C   UNL     1      -5.051  10.503  -2.969  1.00  0.00     0.049 A 
ATOM     45  H   UNL     1      -6.283   9.864  -4.524  1.00  0.00     0.167 HD
ATOM     46  C   UNL     1      -8.508   8.355  -7.997  1.00  0.00     0.034 A 
ATOM     47  C   UNL     1      -4.981  11.848  -3.038  1.00  0.00     0.034 A 
ATOM     48  C   UNL     1      -8.567   9.787  -8.101  1.00  0.00     0.049 A 
ATOM     49  C   UNL     1      -5.733  12.561  -4.129  1.00  0.00     0.074 A 
ATOM     50  C   UNL     1      -9.228  10.556  -9.041  1.00  0.00     0.029 A 
ATOM     51  N   UNL     1      -7.960  10.669  -7.218  1.00  0.00    -0.354 N 
ATOM     52  N   UNL     1      -6.466  12.055  -5.091  1.00  0.00    -0.248 NA
ATOM     53  C   UNL     1      -5.677  14.030  -4.125  1.00  0.00     0.031 C 
ATOM     54  C   UNL     1      -9.018  11.903  -8.729  1.00  0.00     0.029 A 
ATOM     55  C   UNL     1      -8.243  11.974  -7.582  1.00  0.00     0.049 A 
ATOM     56  H   UNL     1      -7.409  10.405  -6.446  1.00  0.00     0.167 HD
ATOM     57  C   UNL     1      -6.991  13.140  -5.784  1.00  0.00     0.074 A 
ATOM     58  C   UNL     1      -6.501  14.332  -5.121  1.00  0.00     0.031 C 
ATOM     59  C   UNL     1      -7.794  13.148  -6.877  1.00  0.00     0.034 A 
BRANCH  46  60
ATOM     60  C   UNL     1      -9.255   7.523  -9.011  1.00  0.00     0.023 A 
ATOM     61  C   UNL     1     -10.413   6.823  -8.610  1.00  0.00     0.012 A 
ATOM     62  C   UNL     1      -8.845   7.456 -10.357  1.00  0.00     0.148 A 
ATOM     63  C   UNL     1     -11.120   6.033  -9.514  1.00  0.00     0.002 A 
ATOM     64  C   UNL     1      -9.587   6.708 -11.266  1.00  0.00     0.091 A 
ATOM     65  F   UNL     1      -7.731   8.107 -10.722  1.00  0.00    -0.205 F 
ATOM     66  C   UNL     1     -10.714   5.984 -10.843  1.00  0.00     0.022 A 
BRANCH  64  67
ATOM     67  S   UNL     1      -9.200   6.653 -13.020  1.00  0.00     0.127 S 
ATOM     68  O   UNL     1      -8.652   5.304 -13.159  1.00  0.00    -0.237 OA
ATOM     69  O   UNL     1     -10.515   6.842 -13.633  1.00  0.00    -0.237 OA
ATOM     70  O   UNL     1      -8.260   7.740 -13.256  1.00  0.00    -0.744 OA
ENDBRANCH  64  67
ENDBRANCH  46  60
BRANCH  47  71
ATOM     71  C   UNL     1      -4.269  12.599  -1.964  1.00  0.00     0.023 A 
ATOM     72  C   UNL     1      -5.033  13.310  -1.018  1.00  0.00     0.012 A 
ATOM     73  C   UNL     1      -2.870  12.541  -1.812  1.00  0.00     0.148 A 
ATOM     74  C   UNL     1      -4.419  13.960   0.052  1.00  0.00     0.002 A 
ATOM     75  C   UNL     1      -2.269  13.145  -0.712  1.00  0.00     0.091 A 
ATOM     76  F   UNL     1      -2.160  11.862  -2.724  1.00  0.00    -0.205 F 
ATOM     77  C   UNL     1      -3.040  13.867   0.213  1.00  0.00     0.022 A 
BRANCH  75  78
ATOM     78  S   UNL     1      -0.521  12.960  -0.336  1.00  0.00     0.127 S 
ATOM     79  O   UNL     1      -0.041  14.335  -0.457  1.00  0.00    -0.237 OA
ATOM     80  O   UNL     1      -0.561  12.439   1.030  1.00  0.00    -0.237 OA
ATOM     81  O   UNL     1       0.002  12.025  -1.323  1.00  0.00    -0.744 OA
ENDBRANCH  75  78
ENDBRANCH  47  71
BRANCH  59  82
ATOM     82  C   UNL     1      -8.233  14.484  -7.417  1.00  0.00     0.023 A 
ATOM     83  C   UNL     1      -7.314  15.296  -8.109  1.00  0.00     0.012 A 
ATOM     84  C   UNL     1      -9.582  14.886  -7.329  1.00  0.00     0.148 A 
ATOM     85  C   UNL     1      -7.723  16.500  -8.682  1.00  0.00     0.002 A 
ATOM     86  C   UNL     1      -9.993  16.061  -7.946  1.00  0.00     0.091 A 
ATOM     87  F   UNL     1     -10.438  14.109  -6.649  1.00  0.00    -0.205 F 
ATOM     88  C   UNL     1      -9.063  16.875  -8.613  1.00  0.00     0.022 A 
BRANCH  86  89
ATOM     89  S   UNL     1     -11.716  16.567  -7.997  1.00  0.00     0.127 S 
ATOM     90  O   UNL     1     -11.737  17.655  -7.022  1.00  0.00    -0.237 OA
ATOM     91  O   UNL     1     -11.875  16.991  -9.389  1.00  0.00    -0.237 OA
ATOM     92  O   UNL     1     -12.489  15.386  -7.636  1.00  0.00    -0.744 OA
ENDBRANCH  86  89
ENDBRANCH  59  82
ENDBRANCH  33  34
ENDBRANCH  25  28
ENDBRANCH   1  24
TORSDOF 14
