REMARK SMILES O=C(NCCCNC(=O)c1cc(N2CC[NH2+]CC2)nc2ccccc12)c1ccc(-c2c3nc(c(-c4cccc(S(=O)(=O)[O-])c4F)c4ccc([nH]4)c(-c4cccc(S(=O)(=O)[O-])c4F)c4nc(c(-c5cccc(S(=O)(=O)[O-])c5F)c5ccc2[nH]5)C=C4)C=C3)cc1
REMARK SMILES IDX 4 1 3 2 1 3 2 4 26 6 27 7 88 8 28 9 87 10 29 11 30 12 31 13
REMARK SMILES IDX 81 14 32 15 86 16 80 17 82 18 33 19 85 20 79 21 78 22 34 24
REMARK SMILES IDX 66 25 46 26 65 27 47 28 50 29 64 30 83 31 48 32 49 33 63 35
REMARK SMILES IDX 84 36 51 37 35 38 36 39 44 40 37 41 39 42 45 43 38 44 40 45
REMARK SMILES IDX 41 46 42 47 43 48 67 49 68 50 76 51 69 52 71 53 77 54 70 55
REMARK SMILES IDX 72 56 73 57 74 58 75 59 52 60 53 61 61 62 54 63 56 64 62 65
REMARK SMILES IDX 55 66 57 67 58 68 59 69 60 70 5 71 6 72 7 73 8 74 9 76 10 77
REMARK SMILES IDX 11 78 25 79 12 80 20 81 24 82 19 83 21 84 23 85 22 86 13 87
REMARK SMILES IDX 14 88 18 89 15 90 17 91 16 92
REMARK H PARENT 3 5 82 23 50 34 7 75 16 93 16 94
REMARK Flexibility Score: inf
ROOT
ATOM      1  C   UNL     1       4.683  -1.299   0.275  1.00  0.00     0.118 C 
ENDROOT
BRANCH   1   2
ATOM      2  N   UNL     1       3.235  -1.197   0.147  1.00  0.00    -0.352 N 
ATOM      3  O   UNL     1       1.222  -0.223  -0.059  1.00  0.00    -0.269 OA
ATOM      4  C   UNL     1       2.441  -0.125  -0.184  1.00  0.00     0.251 C 
ATOM      5  H   UNL     1       2.746  -2.032   0.327  1.00  0.00     0.163 HD
BRANCH   4   6
ATOM      6  C   UNL     1       3.043   1.143  -0.651  1.00  0.00     0.039 A 
ATOM      7  C   UNL     1       4.116   1.143  -1.544  1.00  0.00     0.014 A 
ATOM      8  C   UNL     1       2.518   2.356  -0.197  1.00  0.00     0.014 A 
ATOM      9  C   UNL     1       4.781   2.329  -1.830  1.00  0.00     0.010 A 
ATOM     10  C   UNL     1       3.122   3.559  -0.574  1.00  0.00     0.010 A 
ATOM     11  C   UNL     1       4.287   3.554  -1.356  1.00  0.00    -0.014 A 
BRANCH  11  12
ATOM     12  C   UNL     1       4.969   4.817  -1.736  1.00  0.00     0.031 A 
ATOM     13  C   UNL     1       5.569   5.721  -0.694  1.00  0.00     0.074 A 
ATOM     14  C   UNL     1       5.038   5.151  -3.040  1.00  0.00     0.049 A 
ATOM     15  N   UNL     1       6.180   6.867  -0.854  1.00  0.00    -0.248 NA
ATOM     16  C   UNL     1       5.462   5.292   0.710  1.00  0.00     0.031 C 
ATOM     17  C   UNL     1       4.460   4.373  -4.139  1.00  0.00     0.029 A 
ATOM     18  N   UNL     1       5.611   6.230  -3.664  1.00  0.00    -0.354 N 
ATOM     19  C   UNL     1       6.487   7.319   0.424  1.00  0.00     0.074 A 
ATOM     20  C   UNL     1       5.991   6.326   1.351  1.00  0.00     0.031 C 
ATOM     21  C   UNL     1       4.723   4.987  -5.300  1.00  0.00     0.029 A 
ATOM     22  C   UNL     1       5.435   6.230  -5.027  1.00  0.00     0.049 A 
ATOM     23  H   UNL     1       6.100   6.935  -3.182  1.00  0.00     0.167 HD
ATOM     24  C   UNL     1       7.137   8.451   0.789  1.00  0.00     0.034 A 
ATOM     25  C   UNL     1       5.786   7.138  -5.958  1.00  0.00     0.034 A 
ATOM     26  C   UNL     1       7.666   9.414  -0.141  1.00  0.00     0.049 A 
ATOM     27  C   UNL     1       6.527   8.370  -5.527  1.00  0.00     0.074 A 
ATOM     28  C   UNL     1       8.396  10.558   0.129  1.00  0.00     0.029 A 
ATOM     29  N   UNL     1       7.519   9.350  -1.518  1.00  0.00    -0.354 N 
ATOM     30  N   UNL     1       6.913   8.719  -4.324  1.00  0.00    -0.248 NA
ATOM     31  C   UNL     1       6.906   9.319  -6.582  1.00  0.00     0.031 C 
ATOM     32  C   UNL     1       8.676  11.194  -1.086  1.00  0.00     0.029 A 
ATOM     33  C   UNL     1       8.137  10.436  -2.113  1.00  0.00     0.049 A 
ATOM     34  H   UNL     1       7.044   8.636  -2.002  1.00  0.00     0.167 HD
ATOM     35  C   UNL     1       7.603   9.914  -4.478  1.00  0.00     0.074 A 
ATOM     36  C   UNL     1       7.601  10.217  -5.896  1.00  0.00     0.031 C 
ATOM     37  C   UNL     1       8.172  10.697  -3.530  1.00  0.00     0.034 A 
BRANCH  24  38
ATOM     38  C   UNL     1       7.346   8.696   2.261  1.00  0.00     0.023 A 
ATOM     39  C   UNL     1       8.304   7.937   2.965  1.00  0.00     0.012 A 
ATOM     40  C   UNL     1       6.641   9.712   2.936  1.00  0.00     0.148 A 
ATOM     41  C   UNL     1       8.534   8.163   4.322  1.00  0.00     0.002 A 
ATOM     42  C   UNL     1       6.904   9.959   4.279  1.00  0.00     0.091 A 
ATOM     43  F   UNL     1       5.717  10.409   2.259  1.00  0.00    -0.205 F 
ATOM     44  C   UNL     1       7.842   9.180   4.976  1.00  0.00     0.022 A 
BRANCH  42  45
ATOM     45  S   UNL     1       6.115  11.296   5.184  1.00  0.00     0.127 S 
ATOM     46  O   UNL     1       5.118  10.572   5.970  1.00  0.00    -0.237 OA
ATOM     47  O   UNL     1       7.226  11.843   5.965  1.00  0.00    -0.237 OA
ATOM     48  O   UNL     1       5.588  12.201   4.173  1.00  0.00    -0.744 OA
ENDBRANCH  42  45
ENDBRANCH  24  38
BRANCH  25  49
ATOM     49  C   UNL     1       5.471   6.875  -7.389  1.00  0.00     0.023 A 
ATOM     50  C   UNL     1       6.514   6.561  -8.280  1.00  0.00     0.012 A 
ATOM     51  C   UNL     1       4.141   6.859  -7.852  1.00  0.00     0.148 A 
ATOM     52  C   UNL     1       6.239   6.250  -9.612  1.00  0.00     0.002 A 
ATOM     53  C   UNL     1       3.869   6.490  -9.164  1.00  0.00     0.091 A 
ATOM     54  F   UNL     1       3.164   7.173  -6.989  1.00  0.00    -0.205 F 
ATOM     55  C   UNL     1       4.917   6.200 -10.050  1.00  0.00     0.022 A 
BRANCH  53  56
ATOM     56  S   UNL     1       2.193   6.257  -9.768  1.00  0.00     0.127 S 
ATOM     57  O   UNL     1       2.033   7.407 -10.654  1.00  0.00    -0.237 OA
ATOM     58  O   UNL     1       2.294   4.964 -10.447  1.00  0.00    -0.237 OA
ATOM     59  O   UNL     1       1.347   6.246  -8.583  1.00  0.00    -0.744 OA
ENDBRANCH  53  56
ENDBRANCH  25  49
BRANCH  37  60
ATOM     60  C   UNL     1       8.871  11.948  -3.990  1.00  0.00     0.023 A 
ATOM     61  C   UNL     1       8.111  13.059  -4.404  1.00  0.00     0.012 A 
ATOM     62  C   UNL     1      10.275  12.048  -3.938  1.00  0.00     0.148 A 
ATOM     63  C   UNL     1       8.740  14.244  -4.786  1.00  0.00     0.002 A 
ATOM     64  C   UNL     1      10.892  13.245  -4.277  1.00  0.00     0.091 A 
ATOM     65  F   UNL     1      10.979  10.970  -3.562  1.00  0.00    -0.205 F 
ATOM     66  C   UNL     1      10.128  14.341  -4.710  1.00  0.00     0.022 A 
BRANCH  64  67
ATOM     67  S   UNL     1      12.666  13.488  -4.121  1.00  0.00     0.127 S 
ATOM     68  O   UNL     1      13.096  13.448  -5.518  1.00  0.00    -0.237 OA
ATOM     69  O   UNL     1      12.747  14.808  -3.495  1.00  0.00    -0.237 OA
ATOM     70  O   UNL     1      13.146  12.395  -3.286  1.00  0.00    -0.744 OA
ENDBRANCH  64  67
ENDBRANCH  37  60
ENDBRANCH  11  12
ENDBRANCH   4   6
ENDBRANCH   1   2
BRANCH   1  71
ATOM     71  C   UNL     1       5.148  -1.441   1.716  1.00  0.00     0.042 C 
BRANCH  71  72
ATOM     72  C   UNL     1       4.661  -2.702   2.407  1.00  0.00     0.118 C 
BRANCH  72  73
ATOM     73  N   UNL     1       5.079  -3.922   1.728  1.00  0.00    -0.352 N 
ATOM     74  C   UNL     1       5.733  -5.019   2.228  1.00  0.00     0.252 C 
ATOM     75  H   UNL     1       4.860  -3.965   0.770  1.00  0.00     0.163 HD
ATOM     76  O   UNL     1       6.060  -5.936   1.481  1.00  0.00    -0.269 OA
BRANCH  74  77
ATOM     77  C   UNL     1       6.090  -5.085   3.657  1.00  0.00     0.052 A 
ATOM     78  C   UNL     1       7.445  -5.243   3.940  1.00  0.00     0.061 A 
ATOM     79  C   UNL     1       5.136  -5.006   4.691  1.00  0.00     0.013 A 
ATOM     80  C   UNL     1       7.847  -5.322   5.259  1.00  0.00     0.130 A 
ATOM     81  C   UNL     1       5.655  -4.992   5.995  1.00  0.00     0.073 A 
ATOM     82  C   UNL     1       3.732  -4.923   4.503  1.00  0.00     0.011 A 
ATOM     83  N   UNL     1       6.960  -5.179   6.265  1.00  0.00    -0.231 NA
ATOM     84  C   UNL     1       4.778  -4.767   7.049  1.00  0.00     0.029 A 
ATOM     85  C   UNL     1       2.875  -4.699   5.575  1.00  0.00     0.001 A 
ATOM     86  C   UNL     1       3.404  -4.597   6.852  1.00  0.00     0.002 A 
BRANCH  80  87
ATOM     87  N   UNL     1       9.161  -5.593   5.564  1.00  0.00    -0.345 N 
ATOM     88  C   UNL     1      10.231  -4.709   5.105  1.00  0.00     0.179 C 
ATOM     89  C   UNL     1       9.459  -6.535   6.641  1.00  0.00     0.179 C 
ATOM     90  C   UNL     1      11.013  -4.123   6.307  1.00  0.00     0.282 C 
ATOM     91  C   UNL     1      10.271  -5.869   7.768  1.00  0.00     0.282 C 
ATOM     92  N   UNL     1      11.466  -5.144   7.278  1.00  0.00    -0.343 N 
ATOM     93  H   UNL     1      11.942  -4.693   8.059  1.00  0.00     0.346 HD
ATOM     94  H   UNL     1      12.117  -5.793   6.834  1.00  0.00     0.346 HD
ENDBRANCH  80  87
ENDBRANCH  74  77
ENDBRANCH  72  73
ENDBRANCH  71  72
ENDBRANCH   1  71
TORSDOF 14
