REMARK SMILES COc1cc(/C=C/C(=O)NCCCNC(=O)c2ccc(-c3c4nc(c(-c5cccc(S(=O)(=O)[O-])c5F)c5ccc([nH]5)c(-c5cccc(S(=O)(=O)[O-])c5F)c5nc(c(-c6cccc(S(=O)(=O)[O-])c6F)c6ccc3[nH]6)C=C5)C=C4)cc2)cc(OC)c1O
REMARK SMILES IDX 12 1 11 2 10 3 8 4 9 5 7 7 6 8 5 9 3 10 4 11 84 12 81 13
REMARK SMILES IDX 80 14 2 15 1 16 85 17 82 19 83 20 13 21 14 22 15 23 16 25
REMARK SMILES IDX 17 26 18 27 79 28 19 29 78 30 20 31 21 32 22 33 72 34 23 35
REMARK SMILES IDX 77 36 71 37 73 38 24 39 76 40 70 41 69 42 25 44 57 45 37 46
REMARK SMILES IDX 56 47 38 48 41 49 55 50 74 51 39 52 40 53 54 55 75 56 42 57
REMARK SMILES IDX 26 58 27 59 35 60 28 61 30 62 36 63 29 64 31 65 32 66 33 67
REMARK SMILES IDX 34 68 58 69 59 70 67 71 60 72 62 73 68 74 61 75 63 76 64 77
REMARK SMILES IDX 65 78 66 79 43 80 44 81 52 82 45 83 47 84 53 85 46 86 48 87
REMARK SMILES IDX 49 88 50 89 51 90
REMARK H PARENT 10 6 85 18 14 24 73 43 41 54
REMARK Flexibility Score: inf
ROOT
ATOM      1  C   UNL     1      -3.546   4.549  -6.840  1.00  0.00     0.042 C 
ENDROOT
BRANCH   1   2
ATOM      2  C   UNL     1      -2.036   4.747  -6.733  1.00  0.00     0.118 C 
BRANCH   2   3
ATOM      3  N   UNL     1      -1.694   5.785  -5.775  1.00  0.00    -0.352 N 
ATOM      4  C   UNL     1      -1.078   5.712  -4.566  1.00  0.00     0.244 C 
ATOM      5  O   UNL     1      -0.760   6.748  -3.986  1.00  0.00    -0.270 OA
ATOM      6  H   UNL     1      -1.952   6.695  -6.049  1.00  0.00     0.163 HD
BRANCH   4   7
ATOM      7  C   UNL     1      -0.694   4.412  -3.972  1.00  0.00     0.072 C 
ATOM      8  C   UNL     1      -1.492   3.337  -3.908  1.00  0.00     0.014 C 
BRANCH   8   9
ATOM      9  C   UNL     1      -1.114   2.072  -3.263  1.00  0.00    -0.018 A 
ATOM     10  C   UNL     1      -0.227   0.807  -1.391  1.00  0.00     0.165 A 
ATOM     11  C   UNL     1      -0.468   2.030  -2.024  1.00  0.00     0.058 A 
ATOM     12  C   UNL     1      -0.676  -0.389  -1.976  1.00  0.00     0.200 A 
ATOM     13  C   UNL     1      -1.279  -0.371  -3.238  1.00  0.00     0.165 A 
ATOM     14  C   UNL     1      -1.498   0.866  -3.863  1.00  0.00     0.058 A 
BRANCH  10  15
ATOM     15  O   UNL     1       0.355   0.894  -0.152  1.00  0.00    -0.493 OA
ATOM     16  C   UNL     1       1.413  -0.030   0.099  1.00  0.00     0.278 C 
ENDBRANCH  10  15
BRANCH  12  17
ATOM     17  O   UNL     1      -0.590  -1.549  -1.254  1.00  0.00    -0.502 OA
ATOM     18  H   UNL     1      -0.183  -1.546  -0.410  1.00  0.00     0.293 HD
ENDBRANCH  12  17
BRANCH  13  19
ATOM     19  O   UNL     1      -1.752  -1.423  -3.975  1.00  0.00    -0.493 OA
ATOM     20  C   UNL     1      -1.655  -2.731  -3.433  1.00  0.00     0.278 C 
ENDBRANCH  13  19
ENDBRANCH   8   9
ENDBRANCH   4   7
ENDBRANCH   2   3
ENDBRANCH   1   2
BRANCH   1  21
ATOM     21  C   UNL     1      -4.266   5.686  -7.565  1.00  0.00     0.118 C 
BRANCH  21  22
ATOM     22  N   UNL     1      -3.907   5.751  -8.976  1.00  0.00    -0.352 N 
ATOM     23  C   UNL     1      -4.699   5.666 -10.095  1.00  0.00     0.251 C 
ATOM     24  H   UNL     1      -2.947   5.876  -9.156  1.00  0.00     0.163 HD
ATOM     25  O   UNL     1      -4.168   5.524 -11.194  1.00  0.00    -0.269 OA
BRANCH  23  26
ATOM     26  C   UNL     1      -6.173   5.740  -9.990  1.00  0.00     0.039 A 
ATOM     27  C   UNL     1      -6.949   4.899 -10.794  1.00  0.00     0.014 A 
ATOM     28  C   UNL     1      -6.793   6.666  -9.147  1.00  0.00     0.014 A 
ATOM     29  C   UNL     1      -8.344   4.953 -10.716  1.00  0.00     0.010 A 
ATOM     30  C   UNL     1      -8.181   6.671  -9.021  1.00  0.00     0.010 A 
ATOM     31  C   UNL     1      -8.971   5.822  -9.810  1.00  0.00    -0.014 A 
BRANCH  31  32
ATOM     32  C   UNL     1     -10.449   5.855  -9.666  1.00  0.00     0.031 A 
ATOM     33  C   UNL     1     -11.220   7.103 -10.005  1.00  0.00     0.074 A 
ATOM     34  C   UNL     1     -11.088   4.790  -9.142  1.00  0.00     0.049 A 
ATOM     35  N   UNL     1     -12.499   7.344  -9.876  1.00  0.00    -0.248 NA
ATOM     36  C   UNL     1     -10.447   8.241 -10.532  1.00  0.00     0.031 C 
ATOM     37  C   UNL     1     -10.443   3.552  -8.700  1.00  0.00     0.029 A 
ATOM     38  N   UNL     1     -12.416   4.590  -8.861  1.00  0.00    -0.354 N 
ATOM     39  C   UNL     1     -12.680   8.665 -10.265  1.00  0.00     0.074 A 
ATOM     40  C   UNL     1     -11.374   9.185 -10.609  1.00  0.00     0.031 C 
ATOM     41  C   UNL     1     -11.375   2.723  -8.202  1.00  0.00     0.029 A 
ATOM     42  C   UNL     1     -12.677   3.379  -8.264  1.00  0.00     0.049 A 
ATOM     43  H   UNL     1     -13.116   5.251  -9.067  1.00  0.00     0.167 HD
ATOM     44  C   UNL     1     -13.830   9.374 -10.358  1.00  0.00     0.034 A 
ATOM     45  C   UNL     1     -13.834   2.857  -7.810  1.00  0.00     0.034 A 
ATOM     46  C   UNL     1     -15.132   8.837 -10.064  1.00  0.00     0.049 A 
ATOM     47  C   UNL     1     -15.105   3.645  -7.974  1.00  0.00     0.074 A 
ATOM     48  C   UNL     1     -16.367   9.443 -10.214  1.00  0.00     0.029 A 
ATOM     49  N   UNL     1     -15.368   7.569  -9.556  1.00  0.00    -0.354 N 
ATOM     50  N   UNL     1     -15.275   4.835  -8.497  1.00  0.00    -0.248 NA
ATOM     51  C   UNL     1     -16.348   3.003  -7.522  1.00  0.00     0.031 C 
ATOM     52  C   UNL     1     -17.349   8.546  -9.782  1.00  0.00     0.029 A 
ATOM     53  C   UNL     1     -16.727   7.374  -9.382  1.00  0.00     0.049 A 
ATOM     54  H   UNL     1     -14.671   6.905  -9.351  1.00  0.00     0.167 HD
ATOM     55  C   UNL     1     -16.645   5.071  -8.469  1.00  0.00     0.074 A 
ATOM     56  C   UNL     1     -17.260   3.890  -7.897  1.00  0.00     0.031 C 
ATOM     57  C   UNL     1     -17.330   6.172  -8.865  1.00  0.00     0.034 A 
BRANCH  44  58
ATOM     58  C   UNL     1     -13.741  10.794 -10.856  1.00  0.00     0.023 A 
ATOM     59  C   UNL     1     -13.453  11.034 -12.216  1.00  0.00     0.012 A 
ATOM     60  C   UNL     1     -14.000  11.885 -10.003  1.00  0.00     0.148 A 
ATOM     61  C   UNL     1     -13.387  12.336 -12.710  1.00  0.00     0.002 A 
ATOM     62  C   UNL     1     -13.975  13.178 -10.513  1.00  0.00     0.091 A 
ATOM     63  F   UNL     1     -14.253  11.640  -8.709  1.00  0.00    -0.205 F 
ATOM     64  C   UNL     1     -13.658  13.406 -11.863  1.00  0.00     0.022 A 
BRANCH  62  65
ATOM     65  S   UNL     1     -14.386  14.619  -9.522  1.00  0.00     0.127 S 
ATOM     66  O   UNL     1     -13.074  15.241  -9.347  1.00  0.00    -0.237 OA
ATOM     67  O   UNL     1     -15.294  15.353 -10.404  1.00  0.00    -0.237 OA
ATOM     68  O   UNL     1     -15.003  14.107  -8.307  1.00  0.00    -0.744 OA
ENDBRANCH  62  65
ENDBRANCH  44  58
BRANCH  45  69
ATOM     69  C   UNL     1     -13.850   1.486  -7.225  1.00  0.00     0.023 A 
ATOM     70  C   UNL     1     -14.449   0.436  -7.948  1.00  0.00     0.012 A 
ATOM     71  C   UNL     1     -13.246   1.208  -5.983  1.00  0.00     0.148 A 
ATOM     72  C   UNL     1     -14.474  -0.860  -7.431  1.00  0.00     0.002 A 
ATOM     73  C   UNL     1     -13.227  -0.096  -5.500  1.00  0.00     0.091 A 
ATOM     74  F   UNL     1     -12.693   2.223  -5.304  1.00  0.00    -0.205 F 
ATOM     75  C   UNL     1     -13.854  -1.128  -6.214  1.00  0.00     0.022 A 
BRANCH  73  76
ATOM     76  S   UNL     1     -12.335  -0.552  -4.008  1.00  0.00     0.127 S 
ATOM     77  O   UNL     1     -13.429  -0.795  -3.069  1.00  0.00    -0.237 OA
ATOM     78  O   UNL     1     -11.618  -1.755  -4.440  1.00  0.00    -0.237 OA
ATOM     79  O   UNL     1     -11.475   0.579  -3.704  1.00  0.00    -0.744 OA
ENDBRANCH  73  76
ENDBRANCH  45  69
BRANCH  57  80
ATOM     80  C   UNL     1     -18.830   6.149  -8.727  1.00  0.00     0.023 A 
ATOM     81  C   UNL     1     -19.416   6.262  -7.452  1.00  0.00     0.012 A 
ATOM     82  C   UNL     1     -19.656   6.093  -9.867  1.00  0.00     0.148 A 
ATOM     83  C   UNL     1     -20.803   6.290  -7.309  1.00  0.00     0.002 A 
ATOM     84  C   UNL     1     -21.036   6.170  -9.721  1.00  0.00     0.091 A 
ATOM     85  F   UNL     1     -19.079   5.966 -11.071  1.00  0.00    -0.205 F 
ATOM     86  C   UNL     1     -21.611   6.257  -8.443  1.00  0.00     0.022 A 
BRANCH  84  87
ATOM     87  S   UNL     1     -22.149   6.229 -11.130  1.00  0.00     0.127 S 
ATOM     88  O   UNL     1     -22.731   4.888 -11.107  1.00  0.00    -0.237 OA
ATOM     89  O   UNL     1     -23.072   7.300 -10.753  1.00  0.00    -0.237 OA
ATOM     90  O   UNL     1     -21.316   6.532 -12.286  1.00  0.00    -0.744 OA
ENDBRANCH  84  87
ENDBRANCH  57  80
ENDBRANCH  31  32
ENDBRANCH  23  26
ENDBRANCH  21  22
ENDBRANCH   1  21
TORSDOF 17
