REMARK SMILES CC(=O)O[C@@H](C)c1nc2ccc(C(=O)NCCCNC(=O)c3ccc(-c4c5nc(c(-c6cccc(S(=O)(=O)[O-])c6F)c6ccc([nH]6)c(-c6cccc(S(=O)(=O)[O-])c6F)c6nc(c(-c7cccc(S(=O)(=O)[O-])c7F)c7ccc4[nH]7)C=C6)C=C5)cc3)cc2[nH]1
REMARK SMILES IDX 17 1 16 2 15 3 13 4 14 5 12 7 7 8 8 9 87 10 9 11 86 12 10 14
REMARK SMILES IDX 85 15 11 16 5 17 6 18 4 19 2 20 1 21 3 22 18 23 19 24 20 25
REMARK SMILES IDX 21 27 22 28 23 29 84 30 24 31 83 32 25 33 26 34 27 35 77 36
REMARK SMILES IDX 28 37 82 38 76 39 78 40 29 41 81 42 75 43 74 44 30 46 62 47
REMARK SMILES IDX 42 48 61 49 43 50 46 51 60 52 79 53 44 54 45 55 59 57 80 58
REMARK SMILES IDX 47 59 31 60 32 61 40 62 33 63 35 64 41 65 34 66 36 67 37 68
REMARK SMILES IDX 38 69 39 70 63 71 64 72 72 73 65 74 67 75 73 76 66 77 68 78
REMARK SMILES IDX 69 79 70 80 71 81 48 82 49 83 57 84 50 85 52 86 58 87 51 88
REMARK SMILES IDX 53 89 54 90 55 91 56 92
REMARK H PARENT 15 6 87 13 19 26 78 45 46 56
REMARK Flexibility Score: inf
ROOT
ATOM      1  C   UNL     1      -8.953   2.473   0.683  1.00  0.00     0.042 C 
ENDROOT
BRANCH   1   2
ATOM      2  C   UNL     1      -8.404   3.231  -0.526  1.00  0.00     0.118 C 
BRANCH   2   3
ATOM      3  N   UNL     1      -7.990   4.575  -0.171  1.00  0.00    -0.352 N 
ATOM      4  C   UNL     1      -6.763   5.121   0.108  1.00  0.00     0.251 C 
ATOM      5  O   UNL     1      -6.717   6.341   0.279  1.00  0.00    -0.269 OA
ATOM      6  H   UNL     1      -8.732   5.219  -0.119  1.00  0.00     0.163 HD
BRANCH   4   7
ATOM      7  C   UNL     1      -5.493   4.337   0.169  1.00  0.00     0.042 A 
ATOM      8  C   UNL     1      -0.991   3.646  -0.010  1.00  0.00     0.148 A 
ATOM      9  N   UNL     1      -1.723   2.578   0.249  1.00  0.00    -0.229 NA
ATOM     10  N   UNL     1      -1.790   4.760  -0.126  1.00  0.00    -0.339 N 
ATOM     11  C   UNL     1      -3.021   3.006   0.261  1.00  0.00     0.089 A 
ATOM     12  C   UNL     1      -3.096   4.369   0.014  1.00  0.00     0.066 A 
ATOM     13  H   UNL     1      -1.477   5.681  -0.282  1.00  0.00     0.168 HD
ATOM     14  C   UNL     1      -4.194   2.286   0.493  1.00  0.00     0.031 A 
ATOM     15  C   UNL     1      -4.305   5.067  -0.043  1.00  0.00     0.042 A 
ATOM     16  C   UNL     1      -5.419   2.971   0.469  1.00  0.00     0.016 A 
BRANCH   8  17
ATOM     17  C   UNL     1       0.504   3.703  -0.126  1.00  0.00     0.239 C 
ATOM     18  C   UNL     1       1.004   4.250  -1.458  1.00  0.00     0.062 C 
BRANCH  17  19
ATOM     19  O   UNL     1       1.044   2.410   0.223  1.00  0.00    -0.455 OA
BRANCH  19  20
ATOM     20  C   UNL     1       0.826   1.359  -0.614  1.00  0.00     0.303 C 
ATOM     21  C   UNL     1       1.101   0.076   0.110  1.00  0.00     0.139 C 
ATOM     22  O   UNL     1       0.500   1.423  -1.790  1.00  0.00    -0.253 OA
ENDBRANCH  19  20
ENDBRANCH  17  19
ENDBRANCH   8  17
ENDBRANCH   4   7
ENDBRANCH   2   3
ENDBRANCH   1   2
BRANCH   1  23
ATOM     23  C   UNL     1     -10.360   2.902   1.087  1.00  0.00     0.118 C 
BRANCH  23  24
ATOM     24  N   UNL     1     -11.347   2.535   0.081  1.00  0.00    -0.352 N 
ATOM     25  C   UNL     1     -12.461   1.743   0.182  1.00  0.00     0.251 C 
ATOM     26  H   UNL     1     -11.189   2.917  -0.812  1.00  0.00     0.163 HD
ATOM     27  O   UNL     1     -13.017   1.368  -0.848  1.00  0.00    -0.269 OA
BRANCH  25  28
ATOM     28  C   UNL     1     -13.002   1.343   1.500  1.00  0.00     0.039 A 
ATOM     29  C   UNL     1     -13.564   0.069   1.635  1.00  0.00     0.014 A 
ATOM     30  C   UNL     1     -13.030   2.231   2.579  1.00  0.00     0.014 A 
ATOM     31  C   UNL     1     -14.127  -0.321   2.853  1.00  0.00     0.010 A 
ATOM     32  C   UNL     1     -13.523   1.815   3.814  1.00  0.00     0.010 A 
ATOM     33  C   UNL     1     -14.098   0.544   3.958  1.00  0.00    -0.014 A 
BRANCH  33  34
ATOM     34  C   UNL     1     -14.679   0.141   5.264  1.00  0.00     0.031 A 
ATOM     35  C   UNL     1     -15.854   0.890   5.837  1.00  0.00     0.074 A 
ATOM     36  C   UNL     1     -14.104  -0.853   5.968  1.00  0.00     0.049 A 
ATOM     37  N   UNL     1     -16.470   0.711   6.976  1.00  0.00    -0.248 NA
ATOM     38  C   UNL     1     -16.389   2.006   5.038  1.00  0.00     0.031 C 
ATOM     39  C   UNL     1     -12.912  -1.600   5.557  1.00  0.00     0.029 A 
ATOM     40  N   UNL     1     -14.428  -1.391   7.188  1.00  0.00    -0.354 N 
ATOM     41  C   UNL     1     -17.435   1.710   7.050  1.00  0.00     0.074 A 
ATOM     42  C   UNL     1     -17.301   2.513   5.855  1.00  0.00     0.031 C 
ATOM     43  C   UNL     1     -12.609  -2.500   6.505  1.00  0.00     0.029 A 
ATOM     44  C   UNL     1     -13.566  -2.381   7.601  1.00  0.00     0.049 A 
ATOM     45  H   UNL     1     -15.203  -1.096   7.718  1.00  0.00     0.167 HD
ATOM     46  C   UNL     1     -18.368   1.921   8.008  1.00  0.00     0.034 A 
ATOM     47  C   UNL     1     -13.549  -3.109   8.734  1.00  0.00     0.034 A 
ATOM     48  C   UNL     1     -18.530   1.088   9.169  1.00  0.00     0.049 A 
ATOM     49  C   UNL     1     -14.636  -2.897   9.752  1.00  0.00     0.074 A 
ATOM     50  C   UNL     1     -19.499   1.161  10.154  1.00  0.00     0.029 A 
ATOM     51  N   UNL     1     -17.700   0.028   9.503  1.00  0.00    -0.354 N 
ATOM     52  N   UNL     1     -15.637  -2.050   9.726  1.00  0.00    -0.248 NA
ATOM     53  C   UNL     1     -14.618  -3.769  10.935  1.00  0.00     0.031 C 
ATOM     54  C   UNL     1     -19.244   0.154  11.093  1.00  0.00     0.029 A 
ATOM     55  C   UNL     1     -18.132  -0.560  10.679  1.00  0.00     0.049 A 
ATOM     56  H   UNL     1     -16.919  -0.264   8.979  1.00  0.00     0.167 HD
ATOM     57  C   UNL     1     -16.388  -2.312  10.867  1.00  0.00     0.074 A 
ATOM     58  C   UNL     1     -15.738  -3.412  11.549  1.00  0.00     0.031 C 
ATOM     59  C   UNL     1     -17.506  -1.690  11.316  1.00  0.00     0.034 A 
BRANCH  46  60
ATOM     60  C   UNL     1     -19.327   3.068   7.813  1.00  0.00     0.023 A 
ATOM     61  C   UNL     1     -20.318   2.983   6.813  1.00  0.00     0.012 A 
ATOM     62  C   UNL     1     -19.288   4.202   8.649  1.00  0.00     0.148 A 
ATOM     63  C   UNL     1     -21.228   4.022   6.621  1.00  0.00     0.002 A 
ATOM     64  C   UNL     1     -20.228   5.213   8.482  1.00  0.00     0.091 A 
ATOM     65  F   UNL     1     -18.328   4.277   9.582  1.00  0.00    -0.205 F 
ATOM     66  C   UNL     1     -21.189   5.131   7.461  1.00  0.00     0.022 A 
BRANCH  64  67
ATOM     67  S   UNL     1     -20.314   6.646   9.563  1.00  0.00     0.127 S 
ATOM     68  O   UNL     1     -19.833   7.710   8.682  1.00  0.00    -0.237 OA
ATOM     69  O   UNL     1     -21.742   6.712   9.874  1.00  0.00    -0.237 OA
ATOM     70  O   UNL     1     -19.459   6.342  10.701  1.00  0.00    -0.744 OA
ENDBRANCH  64  67
ENDBRANCH  46  60
BRANCH  47  71
ATOM     71  C   UNL     1     -12.512  -4.162   8.924  1.00  0.00     0.023 A 
ATOM     72  C   UNL     1     -12.888  -5.519   8.869  1.00  0.00     0.012 A 
ATOM     73  C   UNL     1     -11.158  -3.833   9.124  1.00  0.00     0.148 A 
ATOM     74  C   UNL     1     -11.941  -6.528   9.041  1.00  0.00     0.002 A 
ATOM     75  C   UNL     1     -10.210  -4.843   9.240  1.00  0.00     0.091 A 
ATOM     76  F   UNL     1     -10.822  -2.537   9.184  1.00  0.00    -0.205 F 
ATOM     77  C   UNL     1     -10.601  -6.191   9.216  1.00  0.00     0.022 A 
BRANCH  75  78
ATOM     78  S   UNL     1      -8.449  -4.503   9.334  1.00  0.00     0.127 S 
ATOM     79  O   UNL     1      -8.155  -4.827  10.727  1.00  0.00    -0.237 OA
ATOM     80  O   UNL     1      -7.905  -5.445   8.354  1.00  0.00    -0.237 OA
ATOM     81  O   UNL     1      -8.300  -3.103   8.962  1.00  0.00    -0.744 OA
ENDBRANCH  75  78
ENDBRANCH  47  71
BRANCH  59  82
ATOM     82  C   UNL     1     -18.126  -2.206  12.588  1.00  0.00     0.023 A 
ATOM     83  C   UNL     1     -17.493  -1.968  13.824  1.00  0.00     0.012 A 
ATOM     84  C   UNL     1     -19.368  -2.869  12.564  1.00  0.00     0.148 A 
ATOM     85  C   UNL     1     -18.069  -2.414  15.013  1.00  0.00     0.002 A 
ATOM     86  C   UNL     1     -19.961  -3.267  13.756  1.00  0.00     0.091 A 
ATOM     87  F   UNL     1     -19.946  -3.105  11.377  1.00  0.00    -0.205 F 
ATOM     88  C   UNL     1     -19.307  -3.052  14.980  1.00  0.00     0.022 A 
BRANCH  86  89
ATOM     89  S   UNL     1     -21.597  -4.006  13.813  1.00  0.00     0.127 S 
ATOM     90  O   UNL     1     -21.280  -5.413  14.052  1.00  0.00    -0.237 OA
ATOM     91  O   UNL     1     -22.212  -3.318  14.948  1.00  0.00    -0.237 OA
ATOM     92  O   UNL     1     -22.212  -3.711  12.526  1.00  0.00    -0.744 OA
ENDBRANCH  86  89
ENDBRANCH  59  82
ENDBRANCH  33  34
ENDBRANCH  25  28
ENDBRANCH  23  24
ENDBRANCH   1  23
TORSDOF 16
