REMARK SMILES Cc1ccc(NC(=O)[C@@H]2[C@@H](C(=O)NCCCNC(=O)c3ccc(-c4c5nc(c(-c6cccc(S(=O)(=O)[O-])c6F)c6ccc([nH]6)c(-c6cccc(S(=O)(=O)[O-])c6F)c6nc(c(-c7cccc(S(=O)(=O)[O-])c7F)c7ccc4[nH]7)C=C6)C=C5)cc3)[C@@H]3C=C[C@H]2C3)cc1NC(=O)c1ccc(Cl)cc1
REMARK SMILES IDX 14 1 13 2 11 3 12 4 10 6 9 7 86 8 83 9 85 10 87 11 84 12
REMARK SMILES IDX 7 13 6 14 8 16 5 17 1 18 2 19 3 20 89 21 4 22 88 23 90 24
REMARK SMILES IDX 91 25 92 27 93 28 94 29 99 30 95 31 98 32 96 33 97 34 15 35
REMARK SMILES IDX 16 36 17 37 18 38 19 40 20 41 21 42 82 43 22 44 81 45 23 46
REMARK SMILES IDX 24 47 25 48 75 49 26 50 80 51 74 52 76 53 27 54 79 55 73 56
REMARK SMILES IDX 72 57 28 59 60 60 40 61 59 62 41 63 44 64 58 65 77 66 42 67
REMARK SMILES IDX 43 68 57 70 78 71 45 72 29 73 30 74 38 75 31 76 33 77 39 78
REMARK SMILES IDX 32 79 34 80 35 81 36 82 37 83 61 84 62 85 70 86 63 87 65 88
REMARK SMILES IDX 71 89 64 90 66 91 67 92 68 93 69 94 46 95 47 96 55 97 48 98
REMARK SMILES IDX 50 99 56 100 49 101 51 102 52 103 53 104 54 105
REMARK H PARENT 13 5 6 15 90 26 17 39 76 58 44 69
REMARK Flexibility Score: inf
ROOT
ATOM      1  C   UNL     1      -0.362  -4.897  -0.347  1.00  0.00     0.117 C 
ENDROOT
BRANCH   1   2
ATOM      2  N   UNL     1      -1.363  -4.648  -1.362  1.00  0.00    -0.356 N 
ATOM      3  C   UNL     1      -2.663  -4.284  -1.297  1.00  0.00     0.224 C 
ATOM      4  O   UNL     1      -3.243  -4.178  -2.385  1.00  0.00    -0.275 OA
ATOM      5  H   UNL     1      -1.031  -4.766  -2.281  1.00  0.00     0.163 HD
BRANCH   3   6
ATOM      6  C   UNL     1      -3.415  -3.892  -0.031  1.00  0.00     0.098 C 
ATOM      7  C   UNL     1      -3.077  -2.468   0.447  1.00  0.00     0.099 C 
ATOM      8  C   UNL     1      -3.345  -2.542   1.973  1.00  0.00     0.025 C 
ATOM      9  C   UNL     1      -3.275  -4.687   1.303  1.00  0.00     0.025 C 
ATOM     10  C   UNL     1      -4.667  -3.183   2.347  1.00  0.00    -0.027 C 
ATOM     11  C   UNL     1      -2.471  -3.772   2.255  1.00  0.00     0.017 C 
ATOM     12  C   UNL     1      -4.602  -4.483   2.007  1.00  0.00    -0.027 C 
BRANCH   7  13
ATOM     13  C   UNL     1      -3.724  -1.300  -0.271  1.00  0.00     0.228 C 
ATOM     14  N   UNL     1      -2.953  -0.197  -0.590  1.00  0.00    -0.326 N 
ATOM     15  H   UNL     1      -3.470   0.594  -0.867  1.00  0.00     0.169 HD
ATOM     16  O   UNL     1      -4.942  -1.240  -0.451  1.00  0.00    -0.274 OA
BRANCH  14  17
ATOM     17  C   UNL     1      -1.551  -0.007  -0.589  1.00  0.00     0.043 A 
ATOM     18  C   UNL     1       2.710   0.501  -0.022  1.00  0.00     0.046 C 
ATOM     19  C   UNL     1       1.230   0.423  -0.295  1.00  0.00    -0.027 A 
ATOM     20  C   UNL     1       0.727  -0.838  -0.626  1.00  0.00     0.008 A 
ATOM     21  C   UNL     1       0.334   1.508  -0.212  1.00  0.00     0.046 A 
ATOM     22  C   UNL     1      -0.637  -1.027  -0.830  1.00  0.00     0.026 A 
ATOM     23  C   UNL     1      -1.048   1.281  -0.369  1.00  0.00     0.052 A 
BRANCH  21  24
ATOM     24  N   UNL     1       0.869   2.803  -0.062  1.00  0.00    -0.322 N 
ATOM     25  C   UNL     1       0.321   4.006   0.306  1.00  0.00     0.255 C 
ATOM     26  H   UNL     1       1.831   2.856  -0.262  1.00  0.00     0.170 HD
ATOM     27  O   UNL     1       0.897   5.049  -0.002  1.00  0.00    -0.269 OA
BRANCH  25  28
ATOM     28  C   UNL     1      -0.887   4.101   1.158  1.00  0.00     0.040 A 
ATOM     29  C   UNL     1      -1.738   5.199   0.972  1.00  0.00     0.015 A 
ATOM     30  C   UNL     1      -1.141   3.192   2.194  1.00  0.00     0.015 A 
ATOM     31  C   UNL     1      -2.862   5.361   1.785  1.00  0.00     0.021 A 
ATOM     32  C   UNL     1      -2.276   3.347   2.995  1.00  0.00     0.021 A 
ATOM     33  C   UNL     1      -3.131   4.429   2.787  1.00  0.00     0.041 A 
ATOM     34  Cl  UNL     1      -4.518   4.627   3.784  1.00  0.00    -0.084 Cl
ENDBRANCH  25  28
ENDBRANCH  21  24
ENDBRANCH  14  17
ENDBRANCH   7  13
ENDBRANCH   3   6
ENDBRANCH   1   2
BRANCH   1  35
ATOM     35  C   UNL     1      -0.479  -6.306   0.214  1.00  0.00     0.042 C 
BRANCH  35  36
ATOM     36  C   UNL     1       0.581  -7.231  -0.355  1.00  0.00     0.118 C 
BRANCH  36  37
ATOM     37  N   UNL     1       1.784  -7.312   0.459  1.00  0.00    -0.352 N 
ATOM     38  C   UNL     1       2.926  -8.069   0.261  1.00  0.00     0.251 C 
ATOM     39  H   UNL     1       1.786  -6.749   1.267  1.00  0.00     0.163 HD
ATOM     40  O   UNL     1       3.727  -8.182   1.187  1.00  0.00    -0.269 OA
BRANCH  38  41
ATOM     41  C   UNL     1       3.235  -8.590  -1.093  1.00  0.00     0.039 A 
ATOM     42  C   UNL     1       4.521  -8.351  -1.595  1.00  0.00     0.014 A 
ATOM     43  C   UNL     1       2.217  -8.991  -1.949  1.00  0.00     0.014 A 
ATOM     44  C   UNL     1       4.703  -8.199  -2.965  1.00  0.00     0.010 A 
ATOM     45  C   UNL     1       2.358  -8.729  -3.289  1.00  0.00     0.010 A 
ATOM     46  C   UNL     1       3.579  -8.255  -3.778  1.00  0.00    -0.014 A 
BRANCH  46  47
ATOM     47  C   UNL     1       3.532  -7.860  -5.171  1.00  0.00     0.031 A 
ATOM     48  C   UNL     1       3.697  -8.897  -6.202  1.00  0.00     0.074 A 
ATOM     49  C   UNL     1       3.027  -6.639  -5.452  1.00  0.00     0.049 A 
ATOM     50  N   UNL     1       3.838  -8.667  -7.458  1.00  0.00    -0.248 NA
ATOM     51  C   UNL     1       3.717 -10.314  -5.861  1.00  0.00     0.031 C 
ATOM     52  C   UNL     1       2.425  -6.194  -6.701  1.00  0.00     0.029 A 
ATOM     53  N   UNL     1       3.121  -5.471  -4.685  1.00  0.00    -0.354 N 
ATOM     54  C   UNL     1       3.671  -9.871  -8.115  1.00  0.00     0.074 A 
ATOM     55  C   UNL     1       3.686 -10.868  -7.074  1.00  0.00     0.031 C 
ATOM     56  C   UNL     1       2.456  -4.852  -6.739  1.00  0.00     0.029 A 
ATOM     57  C   UNL     1       3.263  -4.420  -5.610  1.00  0.00     0.049 A 
ATOM     58  H   UNL     1       3.093  -5.400  -3.704  1.00  0.00     0.167 HD
ATOM     59  C   UNL     1       3.384  -9.853  -9.448  1.00  0.00     0.034 A 
ATOM     60  C   UNL     1       4.397  -3.661  -5.702  1.00  0.00     0.034 A 
ATOM     61  C   UNL     1       3.438  -8.472  -9.959  1.00  0.00     0.049 A 
ATOM     62  C   UNL     1       5.073  -3.777  -7.061  1.00  0.00     0.074 A 
ATOM     63  C   UNL     1       2.463  -7.512 -10.181  1.00  0.00     0.029 A 
ATOM     64  N   UNL     1       4.658  -7.804  -9.991  1.00  0.00    -0.354 N 
ATOM     65  N   UNL     1       4.728  -4.635  -7.983  1.00  0.00    -0.248 NA
ATOM     66  C   UNL     1       6.199  -2.948  -7.483  1.00  0.00     0.031 C 
ATOM     67  C   UNL     1       3.103  -6.241 -10.223  1.00  0.00     0.029 A 
ATOM     68  C   UNL     1       4.467  -6.431 -10.069  1.00  0.00     0.049 A 
ATOM     69  H   UNL     1       5.537  -8.245  -9.962  1.00  0.00     0.167 HD
ATOM     70  C   UNL     1       5.614  -4.590  -9.026  1.00  0.00     0.074 A 
ATOM     71  C   UNL     1       6.466  -3.457  -8.700  1.00  0.00     0.031 C 
ATOM     72  C   UNL     1       5.614  -5.523 -10.031  1.00  0.00     0.034 A 
BRANCH  59  73
ATOM     73  C   UNL     1       2.759 -11.002 -10.232  1.00  0.00     0.023 A 
ATOM     74  C   UNL     1       2.098 -10.674 -11.438  1.00  0.00     0.012 A 
ATOM     75  C   UNL     1       2.703 -12.367  -9.861  1.00  0.00     0.148 A 
ATOM     76  C   UNL     1       1.355 -11.605 -12.175  1.00  0.00     0.002 A 
ATOM     77  C   UNL     1       1.910 -13.287 -10.559  1.00  0.00     0.091 A 
ATOM     78  F   UNL     1       3.485 -12.826  -8.884  1.00  0.00    -0.205 F 
ATOM     79  C   UNL     1       1.231 -12.907 -11.716  1.00  0.00     0.022 A 
BRANCH  77  80
ATOM     80  S   UNL     1       1.655 -14.979  -9.985  1.00  0.00     0.127 S 
ATOM     81  O   UNL     1       0.196 -15.098 -10.011  1.00  0.00    -0.237 OA
ATOM     82  O   UNL     1       2.346 -15.764 -11.006  1.00  0.00    -0.237 OA
ATOM     83  O   UNL     1       2.231 -15.045  -8.647  1.00  0.00    -0.744 OA
ENDBRANCH  77  80
ENDBRANCH  59  73
BRANCH  60  84
ATOM     84  C   UNL     1       5.089  -3.477  -4.390  1.00  0.00     0.023 A 
ATOM     85  C   UNL     1       4.361  -2.787  -3.388  1.00  0.00     0.012 A 
ATOM     86  C   UNL     1       6.166  -4.294  -4.002  1.00  0.00     0.148 A 
ATOM     87  C   UNL     1       4.583  -3.044  -2.035  1.00  0.00     0.002 A 
ATOM     88  C   UNL     1       6.388  -4.536  -2.646  1.00  0.00     0.091 A 
ATOM     89  F   UNL     1       6.897  -4.887  -4.954  1.00  0.00    -0.205 F 
ATOM     90  C   UNL     1       5.566  -3.953  -1.666  1.00  0.00     0.022 A 
BRANCH  88  91
ATOM     91  S   UNL     1       7.641  -5.699  -2.085  1.00  0.00     0.127 S 
ATOM     92  O   UNL     1       8.761  -4.806  -1.805  1.00  0.00    -0.237 OA
ATOM     93  O   UNL     1       7.016  -6.287  -0.902  1.00  0.00    -0.237 OA
ATOM     94  O   UNL     1       7.811  -6.625  -3.194  1.00  0.00    -0.744 OA
ENDBRANCH  88  91
ENDBRANCH  60  84
BRANCH  72  95
ATOM     95  C   UNL     1       6.712  -5.682 -11.068  1.00  0.00     0.023 A 
ATOM     96  C   UNL     1       8.027  -5.229 -10.846  1.00  0.00     0.012 A 
ATOM     97  C   UNL     1       6.493  -6.438 -12.250  1.00  0.00     0.148 A 
ATOM     98  C   UNL     1       9.052  -5.442 -11.774  1.00  0.00     0.002 A 
ATOM     99  C   UNL     1       7.544  -6.753 -13.108  1.00  0.00     0.091 A 
ATOM    100  F   UNL     1       5.254  -6.846 -12.563  1.00  0.00    -0.205 F 
ATOM    101  C   UNL     1       8.818  -6.225 -12.895  1.00  0.00     0.022 A 
BRANCH  99 102
ATOM    102  S   UNL     1       7.341  -7.979 -14.409  1.00  0.00     0.127 S 
ATOM    103  O   UNL     1       7.001  -7.149 -15.561  1.00  0.00    -0.237 OA
ATOM    104  O   UNL     1       8.668  -8.595 -14.473  1.00  0.00    -0.237 OA
ATOM    105  O   UNL     1       6.296  -8.871 -13.924  1.00  0.00    -0.744 OA
ENDBRANCH  99 102
ENDBRANCH  72  95
ENDBRANCH  46  47
ENDBRANCH  38  41
ENDBRANCH  36  37
ENDBRANCH  35  36
ENDBRANCH   1  35
TORSDOF 17
