REMARK SMILES O=C(NCCCNC(=O)[C@H]1CCC(=O)N(C2CCCCC2)[C@H]1c1ccccc1)c1ccc(-c2c3nc(c(-c4cccc(S(=O)(=O)[O-])c4F)c4ccc([nH]4)c(-c4cccc(S(=O)(=O)[O-])c4F)c4nc(c(-c5cccc(S(=O)(=O)[O-])c5F)c5ccc2[nH]5)C=C4)C=C3)cc1
REMARK SMILES IDX 4 1 3 2 1 3 2 4 29 6 30 7 91 8 31 9 90 10 32 11 33 12 34 13
REMARK SMILES IDX 84 14 35 15 89 16 83 17 85 18 36 19 88 20 82 21 81 22 37 24
REMARK SMILES IDX 69 25 49 26 68 27 50 28 53 29 67 30 86 31 51 32 52 33 66 35
REMARK SMILES IDX 87 36 54 37 38 38 39 39 47 40 40 41 42 42 48 43 41 44 43 45
REMARK SMILES IDX 44 46 45 47 46 48 70 49 71 50 79 51 72 52 74 53 80 54 73 55
REMARK SMILES IDX 75 56 76 57 77 58 78 59 55 60 56 61 64 62 57 63 59 64 65 65
REMARK SMILES IDX 58 66 60 67 61 68 62 69 63 70 5 71 6 72 7 73 8 74 9 76 10 77
REMARK SMILES IDX 11 78 22 79 12 80 15 81 13 82 14 83 23 84 24 85 28 86 25 87
REMARK SMILES IDX 27 88 26 89 16 90 17 91 21 92 18 93 20 94 19 95
REMARK H PARENT 3 5 85 23 53 34 7 75
REMARK Flexibility Score: inf
ROOT
ATOM      1  C   UNL     1       7.991  -0.590  -1.515  1.00  0.00     0.118 C 
ENDROOT
BRANCH   1   2
ATOM      2  N   UNL     1       9.287  -1.254  -1.523  1.00  0.00    -0.352 N 
ATOM      3  O   UNL     1      11.255  -1.974  -0.697  1.00  0.00    -0.269 OA
ATOM      4  C   UNL     1      10.125  -1.561  -0.472  1.00  0.00     0.251 C 
ATOM      5  H   UNL     1       9.614  -1.523  -2.412  1.00  0.00     0.163 HD
BRANCH   4   6
ATOM      6  C   UNL     1       9.659  -1.352   0.918  1.00  0.00     0.039 A 
ATOM      7  C   UNL     1       8.365  -1.712   1.287  1.00  0.00     0.014 A 
ATOM      8  C   UNL     1      10.515  -0.766   1.855  1.00  0.00     0.014 A 
ATOM      9  C   UNL     1       7.859  -1.296   2.509  1.00  0.00     0.010 A 
ATOM     10  C   UNL     1      10.040  -0.467   3.137  1.00  0.00     0.010 A 
ATOM     11  C   UNL     1       8.693  -0.687   3.462  1.00  0.00    -0.014 A 
BRANCH  11  12
ATOM     12  C   UNL     1       8.127  -0.375   4.800  1.00  0.00     0.031 A 
ATOM     13  C   UNL     1       8.066   1.031   5.332  1.00  0.00     0.074 A 
ATOM     14  C   UNL     1       7.606  -1.391   5.518  1.00  0.00     0.049 A 
ATOM     15  N   UNL     1       7.518   1.462   6.440  1.00  0.00    -0.248 NA
ATOM     16  C   UNL     1       8.709   2.089   4.536  1.00  0.00     0.031 C 
ATOM     17  C   UNL     1       7.662  -2.804   5.132  1.00  0.00     0.029 A 
ATOM     18  N   UNL     1       6.909  -1.400   6.698  1.00  0.00    -0.354 N 
ATOM     19  C   UNL     1       7.777   2.827   6.494  1.00  0.00     0.074 A 
ATOM     20  C   UNL     1       8.544   3.154   5.311  1.00  0.00     0.031 C 
ATOM     21  C   UNL     1       6.977  -3.534   6.021  1.00  0.00     0.029 A 
ATOM     22  C   UNL     1       6.483  -2.654   7.073  1.00  0.00     0.049 A 
ATOM     23  H   UNL     1       6.731  -0.589   7.227  1.00  0.00     0.167 HD
ATOM     24  C   UNL     1       7.394   3.726   7.433  1.00  0.00     0.034 A 
ATOM     25  C   UNL     1       5.776  -3.058   8.145  1.00  0.00     0.034 A 
ATOM     26  C   UNL     1       6.596   3.401   8.587  1.00  0.00     0.049 A 
ATOM     27  C   UNL     1       5.307  -2.028   9.128  1.00  0.00     0.074 A 
ATOM     28  C   UNL     1       6.133   4.248   9.580  1.00  0.00     0.029 A 
ATOM     29  N   UNL     1       6.136   2.131   8.902  1.00  0.00    -0.354 N 
ATOM     30  N   UNL     1       5.473  -0.728   9.099  1.00  0.00    -0.248 NA
ATOM     31  C   UNL     1       4.530  -2.513  10.276  1.00  0.00     0.031 C 
ATOM     32  C   UNL     1       5.393   3.489  10.494  1.00  0.00     0.029 A 
ATOM     33  C   UNL     1       5.389   2.172  10.068  1.00  0.00     0.049 A 
ATOM     34  H   UNL     1       6.315   1.320   8.374  1.00  0.00     0.167 HD
ATOM     35  C   UNL     1       4.822  -0.238  10.222  1.00  0.00     0.074 A 
ATOM     36  C   UNL     1       4.215  -1.377  10.883  1.00  0.00     0.031 C 
ATOM     37  C   UNL     1       4.759   1.034  10.686  1.00  0.00     0.034 A 
BRANCH  24  38
ATOM     38  C   UNL     1       7.781   5.168   7.226  1.00  0.00     0.023 A 
ATOM     39  C   UNL     1       7.086   5.936   6.270  1.00  0.00     0.012 A 
ATOM     40  C   UNL     1       8.764   5.785   8.024  1.00  0.00     0.148 A 
ATOM     41  C   UNL     1       7.377   7.289   6.096  1.00  0.00     0.002 A 
ATOM     42  C   UNL     1       9.025   7.143   7.869  1.00  0.00     0.091 A 
ATOM     43  F   UNL     1       9.429   5.035   8.914  1.00  0.00    -0.205 F 
ATOM     44  C   UNL     1       8.337   7.894   6.902  1.00  0.00     0.022 A 
BRANCH  42  45
ATOM     45  S   UNL     1      10.194   8.031   8.906  1.00  0.00     0.127 S 
ATOM     46  O   UNL     1      11.301   8.254   7.977  1.00  0.00    -0.237 OA
ATOM     47  O   UNL     1       9.444   9.237   9.258  1.00  0.00    -0.237 OA
ATOM     48  O   UNL     1      10.484   7.149  10.028  1.00  0.00    -0.744 OA
ENDBRANCH  42  45
ENDBRANCH  24  38
BRANCH  25  49
ATOM     49  C   UNL     1       5.437  -4.500   8.298  1.00  0.00     0.023 A 
ATOM     50  C   UNL     1       4.103  -4.922   8.152  1.00  0.00     0.012 A 
ATOM     51  C   UNL     1       6.441  -5.463   8.516  1.00  0.00     0.148 A 
ATOM     52  C   UNL     1       3.773  -6.276   8.239  1.00  0.00     0.002 A 
ATOM     53  C   UNL     1       6.115  -6.814   8.534  1.00  0.00     0.091 A 
ATOM     54  F   UNL     1       7.705  -5.044   8.677  1.00  0.00    -0.205 F 
ATOM     55  C   UNL     1       4.779  -7.222   8.413  1.00  0.00     0.022 A 
BRANCH  53  56
ATOM     56  S   UNL     1       7.390  -8.078   8.580  1.00  0.00     0.127 S 
ATOM     57  O   UNL     1       7.465  -8.381  10.005  1.00  0.00    -0.237 OA
ATOM     58  O   UNL     1       6.810  -9.139   7.754  1.00  0.00    -0.237 OA
ATOM     59  O   UNL     1       8.563  -7.447   7.990  1.00  0.00    -0.744 OA
ENDBRANCH  53  56
ENDBRANCH  25  49
BRANCH  37  60
ATOM     60  C   UNL     1       4.013   1.254  11.973  1.00  0.00     0.023 A 
ATOM     61  C   UNL     1       4.601   0.849  13.188  1.00  0.00     0.012 A 
ATOM     62  C   UNL     1       2.758   1.891  11.988  1.00  0.00     0.148 A 
ATOM     63  C   UNL     1       3.934   1.044  14.397  1.00  0.00     0.002 A 
ATOM     64  C   UNL     1       2.118   2.118  13.201  1.00  0.00     0.091 A 
ATOM     65  F   UNL     1       2.203   2.246  10.820  1.00  0.00    -0.205 F 
ATOM     66  C   UNL     1       2.699   1.686  14.404  1.00  0.00     0.022 A 
BRANCH  64  67
ATOM     67  S   UNL     1       0.562   3.009  13.300  1.00  0.00     0.127 S 
ATOM     68  O   UNL     1      -0.402   1.917  13.414  1.00  0.00    -0.237 OA
ATOM     69  O   UNL     1       0.729   3.804  14.518  1.00  0.00    -0.237 OA
ATOM     70  O   UNL     1       0.484   3.798  12.078  1.00  0.00    -0.744 OA
ENDBRANCH  64  67
ENDBRANCH  37  60
ENDBRANCH  11  12
ENDBRANCH   4   6
ENDBRANCH   1   2
BRANCH   1  71
ATOM     71  C   UNL     1       8.015   0.781  -2.170  1.00  0.00     0.042 C 
BRANCH  71  72
ATOM     72  C   UNL     1       8.301   0.758  -3.662  1.00  0.00     0.117 C 
BRANCH  72  73
ATOM     73  N   UNL     1       7.357  -0.079  -4.379  1.00  0.00    -0.356 N 
ATOM     74  C   UNL     1       6.390   0.254  -5.270  1.00  0.00     0.225 C 
ATOM     75  H   UNL     1       7.430  -1.042  -4.188  1.00  0.00     0.163 HD
ATOM     76  O   UNL     1       5.421  -0.503  -5.317  1.00  0.00    -0.275 OA
BRANCH  74  77
ATOM     77  C   UNL     1       6.456   1.556  -6.055  1.00  0.00     0.106 C 
ATOM     78  C   UNL     1       7.821   1.936  -6.625  1.00  0.00     0.026 C 
ATOM     79  C   UNL     1       5.443   1.607  -7.235  1.00  0.00     0.128 C 
ATOM     80  C   UNL     1       7.764   3.388  -7.052  1.00  0.00     0.101 C 
ATOM     81  N   UNL     1       5.416   2.974  -7.825  1.00  0.00    -0.332 N 
ATOM     82  C   UNL     1       6.530   3.809  -7.831  1.00  0.00     0.223 C 
ATOM     83  O   UNL     1       6.547   4.908  -8.389  1.00  0.00    -0.275 OA
BRANCH  79  84
ATOM     84  C   UNL     1       5.670   0.535  -8.319  1.00  0.00    -0.025 A 
ATOM     85  C   UNL     1       6.476   0.761  -9.450  1.00  0.00     0.006 A 
ATOM     86  C   UNL     1       5.103  -0.743  -8.180  1.00  0.00     0.006 A 
ATOM     87  C   UNL     1       6.738  -0.257 -10.371  1.00  0.00     0.000 A 
ATOM     88  C   UNL     1       5.388  -1.771  -9.083  1.00  0.00     0.000 A 
ATOM     89  C   UNL     1       6.210  -1.528 -10.177  1.00  0.00     0.000 A 
ENDBRANCH  79  84
BRANCH  81  90
ATOM     90  C   UNL     1       4.177   3.393  -8.524  1.00  0.00     0.085 C 
ATOM     91  C   UNL     1       3.531   4.618  -7.849  1.00  0.00     0.025 C 
ATOM     92  C   UNL     1       4.387   3.590 -10.039  1.00  0.00     0.025 C 
ATOM     93  C   UNL     1       2.301   5.118  -8.603  1.00  0.00     0.002 C 
ATOM     94  C   UNL     1       3.143   4.120 -10.744  1.00  0.00     0.002 C 
ATOM     95  C   UNL     1       2.615   5.379 -10.071  1.00  0.00     0.000 C 
ENDBRANCH  81  90
ENDBRANCH  74  77
ENDBRANCH  72  73
ENDBRANCH  71  72
ENDBRANCH   1  71
TORSDOF 15
