REMARK SMILES C[N@H+](C[C@H]1CCC[N@@H+]1CC(=O)NCCCNC(=O)c1ccc(-c2c3nc(c(-c4cccc(S(=O)(=O)[O-])c4F)c4ccc([nH]4)c(-c4cccc(S(=O)(=O)[O-])c4F)c4nc(c(-c5cccc(S(=O)(=O)[O-])c5F)c5ccc2[nH]5)C=C4)C=C3)cc1)C1CC1
REMARK SMILES IDX 13 1 12 2 10 3 11 4 9 6 8 7 4 8 5 9 6 10 7 11 3 13 2 14 1 15
REMARK SMILES IDX 82 17 83 18 84 19 14 20 15 21 16 22 17 23 18 25 19 26 20 27
REMARK SMILES IDX 81 28 21 29 80 30 22 31 23 32 24 33 74 34 25 35 79 36 73 37
REMARK SMILES IDX 75 38 26 39 78 40 72 41 71 42 27 44 59 45 39 46 58 47 40 48
REMARK SMILES IDX 43 49 57 50 76 51 41 52 42 53 56 55 77 56 44 57 28 58 29 59
REMARK SMILES IDX 37 60 30 61 32 62 38 63 31 64 33 65 34 66 35 67 36 68 60 69
REMARK SMILES IDX 61 70 69 71 62 72 64 73 70 74 63 75 65 76 66 77 67 78 68 79
REMARK SMILES IDX 45 80 46 81 54 82 47 83 49 84 55 85 48 86 50 87 51 88 52 89
REMARK SMILES IDX 53 90
REMARK H PARENT 12 5 8 12 2 16 16 24 75 43 43 54
REMARK Flexibility Score: inf
ROOT
ATOM      1  C   UNL     1      -2.360  -0.080   2.763  1.00  0.00     0.118 C 
ENDROOT
BRANCH   1   2
ATOM      2  N   UNL     1      -3.134  -1.311   2.755  1.00  0.00    -0.351 N 
ATOM      3  C   UNL     1      -2.827  -2.589   2.379  1.00  0.00     0.275 C 
ATOM      4  O   UNL     1      -3.684  -3.453   2.592  1.00  0.00    -0.269 OA
ATOM      5  H   UNL     1      -4.056  -1.204   3.084  1.00  0.00     0.163 HD
BRANCH   3   6
ATOM      6  C   UNL     1      -1.488  -2.938   1.720  1.00  0.00     0.363 C 
BRANCH   6   7
ATOM      7  N   UNL     1      -1.514  -3.098   0.247  1.00  0.00    -0.320 N 
ATOM      8  C   UNL     1      -1.844  -1.856  -0.486  1.00  0.00     0.240 C 
ATOM      9  C   UNL     1      -3.366  -1.911  -0.640  1.00  0.00     0.077 C 
ATOM     10  C   UNL     1      -3.688  -3.388  -0.773  1.00  0.00     0.068 C 
ATOM     11  C   UNL     1      -2.465  -4.115  -0.229  1.00  0.00     0.263 C 
ATOM     12  H   UNL     1      -0.556  -3.387   0.050  1.00  0.00     0.348 HD
BRANCH   8  13
ATOM     13  C   UNL     1      -1.013  -1.694  -1.801  1.00  0.00     0.327 C 
BRANCH  13  14
ATOM     14  N   UNL     1      -1.816  -1.754  -3.023  1.00  0.00    -0.330 N 
ATOM     15  C   UNL     1      -2.302  -0.432  -3.443  1.00  0.00     0.333 C 
ATOM     16  H   UNL     1      -2.626  -2.315  -2.757  1.00  0.00     0.348 HD
BRANCH  14  17
ATOM     17  C   UNL     1      -1.196  -2.485  -4.138  1.00  0.00     0.184 C 
ATOM     18  C   UNL     1      -0.608  -3.862  -3.970  1.00  0.00     0.071 C 
ATOM     19  C   UNL     1      -1.934  -3.699  -4.644  1.00  0.00     0.071 C 
ENDBRANCH  14  17
ENDBRANCH  13  14
ENDBRANCH   8  13
ENDBRANCH   6   7
ENDBRANCH   3   6
ENDBRANCH   1   2
BRANCH   1  20
ATOM     20  C   UNL     1      -2.711   0.937   1.667  1.00  0.00     0.042 C 
BRANCH  20  21
ATOM     21  C   UNL     1      -4.196   1.165   1.398  1.00  0.00     0.118 C 
BRANCH  21  22
ATOM     22  N   UNL     1      -4.716   2.264   2.189  1.00  0.00    -0.352 N 
ATOM     23  C   UNL     1      -5.081   3.527   1.791  1.00  0.00     0.251 C 
ATOM     24  H   UNL     1      -4.822   2.078   3.150  1.00  0.00     0.163 HD
ATOM     25  O   UNL     1      -5.219   4.401   2.644  1.00  0.00    -0.269 OA
BRANCH  23  26
ATOM     26  C   UNL     1      -5.310   3.858   0.360  1.00  0.00     0.039 A 
ATOM     27  C   UNL     1      -4.851   5.089  -0.122  1.00  0.00     0.014 A 
ATOM     28  C   UNL     1      -6.060   3.027  -0.479  1.00  0.00     0.014 A 
ATOM     29  C   UNL     1      -5.122   5.478  -1.440  1.00  0.00     0.010 A 
ATOM     30  C   UNL     1      -6.298   3.399  -1.807  1.00  0.00     0.010 A 
ATOM     31  C   UNL     1      -5.846   4.635  -2.297  1.00  0.00    -0.014 A 
BRANCH  31  32
ATOM     32  C   UNL     1      -6.147   5.038  -3.698  1.00  0.00     0.031 A 
ATOM     33  C   UNL     1      -7.557   5.364  -4.117  1.00  0.00     0.074 A 
ATOM     34  C   UNL     1      -5.162   5.055  -4.618  1.00  0.00     0.049 A 
ATOM     35  N   UNL     1      -8.010   5.690  -5.301  1.00  0.00    -0.248 NA
ATOM     36  C   UNL     1      -8.593   5.304  -3.074  1.00  0.00     0.031 C 
ATOM     37  C   UNL     1      -3.763   4.716  -4.359  1.00  0.00     0.029 A 
ATOM     38  N   UNL     1      -5.195   5.340  -5.961  1.00  0.00    -0.354 N 
ATOM     39  C   UNL     1      -9.384   5.847  -5.155  1.00  0.00     0.074 A 
ATOM     40  C   UNL     1      -9.693   5.563  -3.769  1.00  0.00     0.031 C 
ATOM     41  C   UNL     1      -3.074   4.796  -5.509  1.00  0.00     0.029 A 
ATOM     42  C   UNL     1      -3.983   5.170  -6.590  1.00  0.00     0.049 A 
ATOM     43  H   UNL     1      -6.008   5.637  -6.430  1.00  0.00     0.167 HD
ATOM     44  C   UNL     1     -10.302   6.220  -6.080  1.00  0.00     0.034 A 
ATOM     45  C   UNL     1      -3.642   5.289  -7.889  1.00  0.00     0.034 A 
ATOM     46  C   UNL     1      -9.995   6.548  -7.447  1.00  0.00     0.049 A 
ATOM     47  C   UNL     1      -4.679   5.713  -8.895  1.00  0.00     0.074 A 
ATOM     48  C   UNL     1     -10.849   7.025  -8.428  1.00  0.00     0.029 A 
ATOM     49  N   UNL     1      -8.745   6.427  -8.031  1.00  0.00    -0.354 N 
ATOM     50  N   UNL     1      -5.939   6.016  -8.701  1.00  0.00    -0.248 NA
ATOM     51  C   UNL     1      -4.240   5.840 -10.293  1.00  0.00     0.031 C 
ATOM     52  C   UNL     1     -10.116   7.180  -9.610  1.00  0.00     0.029 A 
ATOM     53  C   UNL     1      -8.806   6.806  -9.362  1.00  0.00     0.049 A 
ATOM     54  H   UNL     1      -7.933   6.118  -7.568  1.00  0.00     0.167 HD
ATOM     55  C   UNL     1      -6.436   6.396  -9.943  1.00  0.00     0.074 A 
ATOM     56  C   UNL     1      -5.335   6.306 -10.880  1.00  0.00     0.031 C 
ATOM     57  C   UNL     1      -7.696   6.767 -10.279  1.00  0.00     0.034 A 
BRANCH  44  58
ATOM     58  C   UNL     1     -11.732   6.360  -5.630  1.00  0.00     0.023 A 
ATOM     59  C   UNL     1     -12.106   7.487  -4.872  1.00  0.00     0.012 A 
ATOM     60  C   UNL     1     -12.715   5.429  -6.018  1.00  0.00     0.148 A 
ATOM     61  C   UNL     1     -13.432   7.676  -4.487  1.00  0.00     0.002 A 
ATOM     62  C   UNL     1     -14.042   5.641  -5.658  1.00  0.00     0.091 A 
ATOM     63  F   UNL     1     -12.336   4.350  -6.719  1.00  0.00    -0.205 F 
ATOM     64  C   UNL     1     -14.401   6.759  -4.888  1.00  0.00     0.022 A 
BRANCH  62  65
ATOM     65  S   UNL     1     -15.367   4.550  -6.189  1.00  0.00     0.127 S 
ATOM     66  O   UNL     1     -15.621   3.781  -4.971  1.00  0.00    -0.237 OA
ATOM     67  O   UNL     1     -16.427   5.495  -6.544  1.00  0.00    -0.237 OA
ATOM     68  O   UNL     1     -14.833   3.794  -7.313  1.00  0.00    -0.744 OA
ENDBRANCH  62  65
ENDBRANCH  44  58
BRANCH  45  69
ATOM     69  C   UNL     1      -2.230   5.057  -8.303  1.00  0.00     0.023 A 
ATOM     70  C   UNL     1      -1.436   6.152  -8.692  1.00  0.00     0.012 A 
ATOM     71  C   UNL     1      -1.659   3.770  -8.269  1.00  0.00     0.148 A 
ATOM     72  C   UNL     1      -0.103   5.968  -9.060  1.00  0.00     0.002 A 
ATOM     73  C   UNL     1      -0.315   3.602  -8.584  1.00  0.00     0.091 A 
ATOM     74  F   UNL     1      -2.436   2.736  -7.919  1.00  0.00    -0.205 F 
ATOM     75  C   UNL     1       0.461   4.696  -8.994  1.00  0.00     0.022 A 
BRANCH  73  76
ATOM     76  S   UNL     1       0.515   2.021  -8.380  1.00  0.00     0.127 S 
ATOM     77  O   UNL     1       0.578   1.535  -9.757  1.00  0.00    -0.237 OA
ATOM     78  O   UNL     1       1.802   2.420  -7.809  1.00  0.00    -0.237 OA
ATOM     79  O   UNL     1      -0.327   1.259  -7.468  1.00  0.00    -0.744 OA
ENDBRANCH  73  76
ENDBRANCH  45  69
BRANCH  57  80
ATOM     80  C   UNL     1      -7.965   7.120 -11.718  1.00  0.00     0.023 A 
ATOM     81  C   UNL     1      -8.071   6.090 -12.673  1.00  0.00     0.012 A 
ATOM     82  C   UNL     1      -8.199   8.453 -12.109  1.00  0.00     0.148 A 
ATOM     83  C   UNL     1      -8.383   6.383 -14.001  1.00  0.00     0.002 A 
ATOM     84  C   UNL     1      -8.548   8.734 -13.426  1.00  0.00     0.091 A 
ATOM     85  F   UNL     1      -8.074   9.422 -11.190  1.00  0.00    -0.205 F 
ATOM     86  C   UNL     1      -8.633   7.702 -14.374  1.00  0.00     0.022 A 
BRANCH  84  87
ATOM     87  S   UNL     1      -8.969  10.392 -13.977  1.00  0.00     0.127 S 
ATOM     88  O   UNL     1      -7.774  10.770 -14.729  1.00  0.00    -0.237 OA
ATOM     89  O   UNL     1     -10.157  10.157 -14.799  1.00  0.00    -0.237 OA
ATOM     90  O   UNL     1      -9.219  11.163 -12.766  1.00  0.00    -0.744 OA
ENDBRANCH  84  87
ENDBRANCH  57  80
ENDBRANCH  31  32
ENDBRANCH  23  26
ENDBRANCH  21  22
ENDBRANCH  20  21
ENDBRANCH   1  20
TORSDOF 17
