REMARK SMILES O=C(NCCCNC(=O)c1ccc(-c2c3nc(c(-c4cccc(S(=O)(=O)[O-])c4F)c4ccc([nH]4)c(-c4cccc(S(=O)(=O)[O-])c4F)c4nc(c(-c5cccc(S(=O)(=O)[O-])c5F)c5ccc2[nH]5)C=C4)C=C3)cc1)C1=Cc2cc(Cl)cc(-c3ccc(CO)cc3)c2O[C@@H]1C(F)(F)F
REMARK SMILES IDX 5 1 4 2 3 3 1 4 2 5 73 7 74 8 91 9 75 10 90 11 76 12 89 13
REMARK SMILES IDX 77 14 80 15 78 16 79 17 92 18 93 19 94 20 95 21 81 22 82 23
REMARK SMILES IDX 88 24 83 25 87 26 84 27 85 28 86 29 6 31 7 32 8 33 9 35
REMARK SMILES IDX 10 36 11 37 72 38 12 39 71 40 13 41 14 42 15 43 65 44 16 45
REMARK SMILES IDX 70 46 64 47 66 48 17 49 69 50 63 51 62 52 18 54 50 55 30 56
REMARK SMILES IDX 49 57 31 58 34 59 48 60 67 61 32 62 33 63 47 65 68 66 35 67
REMARK SMILES IDX 19 68 20 69 28 70 21 71 23 72 29 73 22 74 24 75 25 76 26 77
REMARK SMILES IDX 27 78 51 79 52 80 60 81 53 82 55 83 61 84 54 85 56 86 57 87
REMARK SMILES IDX 58 88 59 89 36 90 37 91 45 92 38 93 40 94 46 95 39 96 41 97
REMARK SMILES IDX 42 98 43 99 44 100
REMARK H PARENT 3 6 86 30 7 34 66 53 34 64
REMARK Flexibility Score: inf
ROOT
ATOM      1  C   UNL     1       3.973   1.608   2.466  1.00  0.00     0.042 C 
ENDROOT
BRANCH   1   2
ATOM      2  C   UNL     1       2.928   0.640   1.907  1.00  0.00     0.118 C 
BRANCH   2   3
ATOM      3  N   UNL     1       2.090   1.247   0.867  1.00  0.00    -0.352 N 
ATOM      4  O   UNL     1       1.194   1.471  -1.211  1.00  0.00    -0.270 OA
ATOM      5  C   UNL     1       2.096   1.060  -0.491  1.00  0.00     0.251 C 
ATOM      6  H   UNL     1       1.418   1.888   1.195  1.00  0.00     0.163 HD
BRANCH   5   7
ATOM      7  C   UNL     1       3.201   0.265  -1.040  1.00  0.00     0.067 C 
ATOM      8  C   UNL     1       4.441   0.751  -0.919  1.00  0.00     0.025 C 
ATOM      9  C   UNL     1       2.922  -1.163  -1.375  1.00  0.00     0.314 C 
ATOM     10  C   UNL     1       5.460  -0.259  -0.620  1.00  0.00     0.019 A 
ATOM     11  O   UNL     1       3.792  -2.052  -0.632  1.00  0.00    -0.475 OA
ATOM     12  C   UNL     1       6.734   0.186  -0.258  1.00  0.00     0.032 A 
ATOM     13  C   UNL     1       5.040  -1.571  -0.301  1.00  0.00     0.135 A 
ATOM     14  C   UNL     1       7.549  -0.636   0.508  1.00  0.00     0.042 A 
ATOM     15  C   UNL     1       5.833  -2.373   0.534  1.00  0.00     0.026 A 
ATOM     16  Cl  UNL     1       9.057  -0.039   1.080  1.00  0.00    -0.084 Cl
ATOM     17  C   UNL     1       7.097  -1.887   0.924  1.00  0.00     0.033 A 
BRANCH   9  18
ATOM     18  C   UNL     1       2.982  -1.419  -2.891  1.00  0.00     0.429 C 
ATOM     19  F   UNL     1       2.631  -2.696  -3.187  1.00  0.00    -0.167 F 
ATOM     20  F   UNL     1       2.125  -0.619  -3.571  1.00  0.00    -0.167 F 
ATOM     21  F   UNL     1       4.215  -1.216  -3.411  1.00  0.00    -0.167 F 
ENDBRANCH   9  18
BRANCH  15  22
ATOM     22  C   UNL     1       5.316  -3.580   1.200  1.00  0.00    -0.015 A 
ATOM     23  C   UNL     1       4.808  -3.474   2.505  1.00  0.00     0.009 A 
ATOM     24  C   UNL     1       5.408  -4.852   0.632  1.00  0.00     0.009 A 
ATOM     25  C   UNL     1       4.506  -4.599   3.267  1.00  0.00     0.007 A 
ATOM     26  C   UNL     1       5.090  -5.988   1.389  1.00  0.00     0.007 A 
ATOM     27  C   UNL     1       4.669  -5.871   2.722  1.00  0.00    -0.023 A 
BRANCH  27  28
ATOM     28  C   UNL     1       4.503  -7.080   3.599  1.00  0.00     0.191 C 
BRANCH  28  29
ATOM     29  O   UNL     1       5.714  -7.346   4.298  1.00  0.00    -0.392 OA
ATOM     30  H   UNL     1       6.425  -7.514   3.660  1.00  0.00     0.211 HD
ENDBRANCH  28  29
ENDBRANCH  27  28
ENDBRANCH  15  22
ENDBRANCH   5   7
ENDBRANCH   2   3
ENDBRANCH   1   2
BRANCH   1  31
ATOM     31  C   UNL     1       4.504   1.170   3.829  1.00  0.00     0.118 C 
BRANCH  31  32
ATOM     32  N   UNL     1       5.267  -0.066   3.823  1.00  0.00    -0.352 N 
ATOM     33  C   UNL     1       5.955  -0.688   4.848  1.00  0.00     0.251 C 
ATOM     34  H   UNL     1       5.299  -0.532   2.956  1.00  0.00     0.163 HD
ATOM     35  O   UNL     1       6.532  -1.749   4.615  1.00  0.00    -0.269 OA
BRANCH  33  36
ATOM     36  C   UNL     1       6.102  -0.060   6.187  1.00  0.00     0.039 A 
ATOM     37  C   UNL     1       7.311  -0.251   6.869  1.00  0.00     0.014 A 
ATOM     38  C   UNL     1       5.134   0.768   6.748  1.00  0.00     0.014 A 
ATOM     39  C   UNL     1       7.593   0.487   8.021  1.00  0.00     0.010 A 
ATOM     40  C   UNL     1       5.456   1.588   7.822  1.00  0.00     0.010 A 
ATOM     41  C   UNL     1       6.696   1.472   8.458  1.00  0.00    -0.014 A 
BRANCH  41  42
ATOM     42  C   UNL     1       7.057   2.435   9.527  1.00  0.00     0.031 A 
ATOM     43  C   UNL     1       6.212   2.552  10.765  1.00  0.00     0.074 A 
ATOM     44  C   UNL     1       8.069   3.299   9.304  1.00  0.00     0.049 A 
ATOM     45  N   UNL     1       6.325   3.389  11.763  1.00  0.00    -0.248 NA
ATOM     46  C   UNL     1       5.056   1.646  10.874  1.00  0.00     0.031 C 
ATOM     47  C   UNL     1       8.865   3.373   8.075  1.00  0.00     0.029 A 
ATOM     48  N   UNL     1       8.589   4.296  10.089  1.00  0.00    -0.354 N 
ATOM     49  C   UNL     1       5.229   3.150  12.584  1.00  0.00     0.074 A 
ATOM     50  C   UNL     1       4.439   2.120  11.946  1.00  0.00     0.031 C 
ATOM     51  C   UNL     1       9.789   4.338   8.201  1.00  0.00     0.029 A 
ATOM     52  C   UNL     1       9.641   4.965   9.508  1.00  0.00     0.049 A 
ATOM     53  H   UNL     1       8.242   4.512  10.985  1.00  0.00     0.167 HD
ATOM     54  C   UNL     1       4.929   3.708  13.781  1.00  0.00     0.034 A 
ATOM     55  C   UNL     1      10.414   5.959   9.988  1.00  0.00     0.034 A 
ATOM     56  C   UNL     1       5.772   4.668  14.439  1.00  0.00     0.049 A 
ATOM     57  C   UNL     1      10.162   6.441  11.389  1.00  0.00     0.074 A 
ATOM     58  C   UNL     1       5.632   5.226  15.696  1.00  0.00     0.029 A 
ATOM     59  N   UNL     1       6.932   5.198  13.891  1.00  0.00    -0.354 N 
ATOM     60  N   UNL     1       9.217   6.081  12.225  1.00  0.00    -0.248 NA
ATOM     61  C   UNL     1      11.109   7.421  11.936  1.00  0.00     0.031 C 
ATOM     62  C   UNL     1       6.714   6.088  15.912  1.00  0.00     0.029 A 
ATOM     63  C   UNL     1       7.530   6.062  14.791  1.00  0.00     0.049 A 
ATOM     64  H   UNL     1       7.278   4.990  12.994  1.00  0.00     0.167 HD
ATOM     65  C   UNL     1       9.471   6.766  13.406  1.00  0.00     0.074 A 
ATOM     66  C   UNL     1      10.677   7.540  13.185  1.00  0.00     0.031 C 
ATOM     67  C   UNL     1       8.763   6.772  14.562  1.00  0.00     0.034 A 
BRANCH  54  68
ATOM     68  C   UNL     1       3.683   3.226  14.478  1.00  0.00     0.023 A 
ATOM     69  C   UNL     1       3.648   1.918  15.007  1.00  0.00     0.012 A 
ATOM     70  C   UNL     1       2.554   4.055  14.622  1.00  0.00     0.148 A 
ATOM     71  C   UNL     1       2.497   1.425  15.619  1.00  0.00     0.002 A 
ATOM     72  C   UNL     1       1.423   3.571  15.274  1.00  0.00     0.091 A 
ATOM     73  F   UNL     1       2.591   5.288  14.096  1.00  0.00    -0.205 F 
ATOM     74  C   UNL     1       1.388   2.254  15.760  1.00  0.00     0.022 A 
BRANCH  72  75
ATOM     75  S   UNL     1      -0.032   4.584  15.567  1.00  0.00     0.127 S 
ATOM     76  O   UNL     1      -0.967   4.050  14.578  1.00  0.00    -0.237 OA
ATOM     77  O   UNL     1      -0.362   4.258  16.955  1.00  0.00    -0.237 OA
ATOM     78  O   UNL     1       0.392   5.960  15.354  1.00  0.00    -0.744 OA
ENDBRANCH  72  75
ENDBRANCH  54  68
BRANCH  55  79
ATOM     79  C   UNL     1      11.570   6.453   9.187  1.00  0.00     0.023 A 
ATOM     80  C   UNL     1      12.876   6.095   9.580  1.00  0.00     0.012 A 
ATOM     81  C   UNL     1      11.394   7.215   8.016  1.00  0.00     0.148 A 
ATOM     82  C   UNL     1      13.984   6.510   8.841  1.00  0.00     0.002 A 
ATOM     83  C   UNL     1      12.499   7.583   7.255  1.00  0.00     0.091 A 
ATOM     84  F   UNL     1      10.146   7.553   7.659  1.00  0.00    -0.205 F 
ATOM     85  C   UNL     1      13.796   7.245   7.674  1.00  0.00     0.022 A 
BRANCH  83  86
ATOM     86  S   UNL     1      12.338   8.413   5.669  1.00  0.00     0.127 S 
ATOM     87  O   UNL     1      12.703   9.785   6.010  1.00  0.00    -0.237 OA
ATOM     88  O   UNL     1      13.318   7.700   4.848  1.00  0.00    -0.237 OA
ATOM     89  O   UNL     1      10.955   8.201   5.262  1.00  0.00    -0.744 OA
ENDBRANCH  83  86
ENDBRANCH  55  79
BRANCH  67  90
ATOM     90  C   UNL     1       9.288   7.624  15.685  1.00  0.00     0.023 A 
ATOM     91  C   UNL     1       9.149   9.024  15.619  1.00  0.00     0.012 A 
ATOM     92  C   UNL     1       9.855   7.035  16.830  1.00  0.00     0.148 A 
ATOM     93  C   UNL     1       9.597   9.828  16.665  1.00  0.00     0.002 A 
ATOM     94  C   UNL     1      10.258   7.840  17.888  1.00  0.00     0.091 A 
ATOM     95  F   UNL     1      10.003   5.702  16.863  1.00  0.00    -0.205 F 
ATOM     96  C   UNL     1      10.140   9.237  17.804  1.00  0.00     0.022 A 
BRANCH  94  97
ATOM     97  S   UNL     1      10.877   7.138  19.421  1.00  0.00     0.127 S 
ATOM     98  O   UNL     1      12.322   7.200  19.218  1.00  0.00    -0.237 OA
ATOM     99  O   UNL     1      10.363   8.069  20.428  1.00  0.00    -0.237 OA
ATOM    100  O   UNL     1      10.300   5.802  19.495  1.00  0.00    -0.744 OA
ENDBRANCH  94  97
ENDBRANCH  67  90
ENDBRANCH  41  42
ENDBRANCH  33  36
ENDBRANCH  31  32
ENDBRANCH   1  31
TORSDOF 17
