REMARK SMILES Cc1ccc(-c2nc(C)c(C(=O)N3CCC(C(=O)NCCCNC(=O)c4ccc(-c5c6nc(c(-c7cccc(S(=O)(=O)[O-])c7F)c7ccc([nH]7)c(-c7cccc(S(=O)(=O)[O-])c7F)c7nc(c(-c8cccc(S(=O)(=O)[O-])c8F)c8ccc5[nH]8)C=C7)C=C6)cc4)CC3)s2)o1
REMARK SMILES IDX 21 1 20 2 19 3 17 4 18 5 16 7 11 8 12 9 13 10 14 11 90 12
REMARK SMILES IDX 15 13 89 14 10 15 6 16 7 17 91 18 8 19 9 20 5 21 1 22 2 23
REMARK SMILES IDX 3 24 92 25 4 26 22 27 23 28 24 29 25 31 26 32 27 33 88 34
REMARK SMILES IDX 28 35 87 36 29 37 30 38 31 39 81 40 32 41 86 42 80 43 82 44
REMARK SMILES IDX 33 45 85 46 79 47 78 48 34 50 66 51 46 52 65 53 47 54 50 55
REMARK SMILES IDX 64 56 83 57 48 58 49 59 63 61 84 62 51 63 35 64 36 65 44 66
REMARK SMILES IDX 37 67 39 68 45 69 38 70 40 71 41 72 42 73 43 74 67 75 68 76
REMARK SMILES IDX 76 77 69 78 71 79 77 80 70 81 72 82 73 83 74 84 75 85 52 86
REMARK SMILES IDX 53 87 61 88 54 89 56 90 62 91 55 92 57 93 58 94 59 95 60 96
REMARK H PARENT 19 6 23 30 82 49 50 60
REMARK Flexibility Score: inf
ROOT
ATOM      1  C   UNL     1     -10.354   4.825   2.538  1.00  0.00     0.042 C 
ENDROOT
BRANCH   1   2
ATOM      2  C   UNL     1     -10.138   4.573   1.052  1.00  0.00     0.117 C 
BRANCH   2   3
ATOM      3  N   UNL     1     -10.560   5.695   0.226  1.00  0.00    -0.356 N 
ATOM      4  C   UNL     1      -9.849   6.546  -0.560  1.00  0.00     0.223 C 
ATOM      5  O   UNL     1     -10.468   7.410  -1.186  1.00  0.00    -0.275 OA
ATOM      6  H   UNL     1     -11.530   5.866   0.237  1.00  0.00     0.163 HD
BRANCH   4   7
ATOM      7  C   UNL     1      -8.340   6.437  -0.698  1.00  0.00     0.082 C 
ATOM      8  C   UNL     1      -5.343   4.082   0.713  1.00  0.00     0.265 C 
ATOM      9  O   UNL     1      -5.698   3.954   1.888  1.00  0.00    -0.268 OA
ATOM     10  N   UNL     1      -5.887   5.105  -0.057  1.00  0.00    -0.338 N 
ATOM     11  C   UNL     1      -6.147   6.394   0.562  1.00  0.00     0.120 C 
ATOM     12  C   UNL     1      -6.429   4.906  -1.393  1.00  0.00     0.120 C 
ATOM     13  C   UNL     1      -7.630   6.697   0.636  1.00  0.00     0.035 C 
ATOM     14  C   UNL     1      -7.936   5.138  -1.414  1.00  0.00     0.035 C 
BRANCH   8  15
ATOM     15  C   UNL     1      -4.284   3.279   0.116  1.00  0.00     0.115 A 
ATOM     16  C   UNL     1      -2.504   1.648  -0.187  1.00  0.00     0.159 A 
ATOM     17  N   UNL     1      -2.391   2.602  -1.082  1.00  0.00    -0.237 NA
ATOM     18  S   UNL     1      -3.880   1.755   0.823  1.00  0.00    -0.105 S 
ATOM     19  C   UNL     1      -3.379   3.556  -0.903  1.00  0.00     0.062 A 
ATOM     20  C   UNL     1      -3.276   4.759  -1.769  1.00  0.00     0.068 C 
BRANCH  16  21
ATOM     21  C   UNL     1      -1.497   0.634  -0.048  1.00  0.00     0.162 A 
ATOM     22  C   UNL     1       2.018  -0.074  -0.024  1.00  0.00     0.087 C 
ATOM     23  C   UNL     1       0.550  -0.212   0.025  1.00  0.00     0.101 A 
ATOM     24  C   UNL     1      -0.307  -1.265   0.244  1.00  0.00     0.046 A 
ATOM     25  O   UNL     1      -0.159   0.929  -0.175  1.00  0.00    -0.459 OA
ATOM     26  C   UNL     1      -1.617  -0.722   0.212  1.00  0.00     0.054 A 
ENDBRANCH  16  21
ENDBRANCH   8  15
ENDBRANCH   4   7
ENDBRANCH   2   3
ENDBRANCH   1   2
BRANCH   1  27
ATOM     27  C   UNL     1     -11.814   4.980   2.933  1.00  0.00     0.118 C 
BRANCH  27  28
ATOM     28  N   UNL     1     -12.601   3.785   2.657  1.00  0.00    -0.352 N 
ATOM     29  C   UNL     1     -13.289   2.965   3.515  1.00  0.00     0.251 C 
ATOM     30  H   UNL     1     -12.646   3.527   1.708  1.00  0.00     0.163 HD
ATOM     31  O   UNL     1     -13.731   1.895   3.101  1.00  0.00    -0.269 OA
BRANCH  29  32
ATOM     32  C   UNL     1     -13.490   3.354   4.928  1.00  0.00     0.039 A 
ATOM     33  C   UNL     1     -13.379   2.377   5.922  1.00  0.00     0.014 A 
ATOM     34  C   UNL     1     -13.807   4.669   5.276  1.00  0.00     0.014 A 
ATOM     35  C   UNL     1     -13.533   2.733   7.264  1.00  0.00     0.010 A 
ATOM     36  C   UNL     1     -13.866   5.040   6.615  1.00  0.00     0.010 A 
ATOM     37  C   UNL     1     -13.748   4.074   7.624  1.00  0.00    -0.014 A 
BRANCH  37  38
ATOM     38  C   UNL     1     -13.864   4.482   9.047  1.00  0.00     0.031 A 
ATOM     39  C   UNL     1     -15.137   5.106   9.556  1.00  0.00     0.074 A 
ATOM     40  C   UNL     1     -12.796   4.371   9.860  1.00  0.00     0.049 A 
ATOM     41  N   UNL     1     -15.413   5.558  10.751  1.00  0.00    -0.248 NA
ATOM     42  C   UNL     1     -16.235   5.274   8.587  1.00  0.00     0.031 C 
ATOM     43  C   UNL     1     -11.475   3.877   9.462  1.00  0.00     0.029 A 
ATOM     44  N   UNL     1     -12.644   4.688  11.187  1.00  0.00    -0.354 N 
ATOM     45  C   UNL     1     -16.691   6.099  10.669  1.00  0.00     0.074 A 
ATOM     46  C   UNL     1     -17.123   5.955   9.297  1.00  0.00     0.031 C 
ATOM     47  C   UNL     1     -10.653   3.912  10.523  1.00  0.00     0.029 A 
ATOM     48  C   UNL     1     -11.379   4.447  11.671  1.00  0.00     0.049 A 
ATOM     49  H   UNL     1     -13.372   5.053  11.740  1.00  0.00     0.167 HD
ATOM     50  C   UNL     1     -17.453   6.633  11.653  1.00  0.00     0.034 A 
ATOM     51  C   UNL     1     -10.865   4.630  12.903  1.00  0.00     0.034 A 
ATOM     52  C   UNL     1     -17.046   6.714  13.029  1.00  0.00     0.049 A 
ATOM     53  C   UNL     1     -11.761   5.142  13.998  1.00  0.00     0.074 A 
ATOM     54  C   UNL     1     -17.779   7.146  14.120  1.00  0.00     0.029 A 
ATOM     55  N   UNL     1     -15.797   6.349  13.505  1.00  0.00    -0.354 N 
ATOM     56  N   UNL     1     -13.024   5.488  13.936  1.00  0.00    -0.248 NA
ATOM     57  C   UNL     1     -11.175   5.245  15.342  1.00  0.00     0.031 C 
ATOM     58  C   UNL     1     -16.969   7.048  15.257  1.00  0.00     0.029 A 
ATOM     59  C   UNL     1     -15.736   6.542  14.874  1.00  0.00     0.049 A 
ATOM     60  H   UNL     1     -15.060   6.003  12.951  1.00  0.00     0.167 HD
ATOM     61  C   UNL     1     -13.394   5.815  15.235  1.00  0.00     0.074 A 
ATOM     62  C   UNL     1     -12.227   5.603  16.067  1.00  0.00     0.031 C 
ATOM     63  C   UNL     1     -14.586   6.268  15.696  1.00  0.00     0.034 A 
BRANCH  50  64
ATOM     64  C   UNL     1     -18.838   7.102  11.287  1.00  0.00     0.023 A 
ATOM     65  C   UNL     1     -19.833   6.148  10.989  1.00  0.00     0.012 A 
ATOM     66  C   UNL     1     -19.171   8.470  11.287  1.00  0.00     0.148 A 
ATOM     67  C   UNL     1     -21.128   6.549  10.661  1.00  0.00     0.002 A 
ATOM     68  C   UNL     1     -20.475   8.860  11.001  1.00  0.00     0.091 A 
ATOM     69  F   UNL     1     -18.207   9.364  11.550  1.00  0.00    -0.205 F 
ATOM     70  C   UNL     1     -21.451   7.903  10.677  1.00  0.00     0.022 A 
BRANCH  68  71
ATOM     71  S   UNL     1     -21.010  10.574  11.072  1.00  0.00     0.127 S 
ATOM     72  O   UNL     1     -21.153  10.897   9.653  1.00  0.00    -0.237 OA
ATOM     73  O   UNL     1     -22.273  10.474  11.804  1.00  0.00    -0.237 OA
ATOM     74  O   UNL     1     -19.958  11.292  11.777  1.00  0.00    -0.744 OA
ENDBRANCH  68  71
ENDBRANCH  50  64
BRANCH  51  75
ATOM     75  C   UNL     1      -9.458   4.229  13.187  1.00  0.00     0.023 A 
ATOM     76  C   UNL     1      -9.216   3.087  13.975  1.00  0.00     0.012 A 
ATOM     77  C   UNL     1      -8.366   4.943  12.659  1.00  0.00     0.148 A 
ATOM     78  C   UNL     1      -7.912   2.681  14.258  1.00  0.00     0.002 A 
ATOM     79  C   UNL     1      -7.070   4.503  12.902  1.00  0.00     0.091 A 
ATOM     80  F   UNL     1      -8.617   6.035  11.922  1.00  0.00    -0.205 F 
ATOM     81  C   UNL     1      -6.840   3.382  13.714  1.00  0.00     0.022 A 
BRANCH  79  82
ATOM     82  S   UNL     1      -5.637   5.270  12.136  1.00  0.00     0.127 S 
ATOM     83  O   UNL     1      -5.060   6.010  13.255  1.00  0.00    -0.237 OA
ATOM     84  O   UNL     1      -4.863   4.106  11.702  1.00  0.00    -0.237 OA
ATOM     85  O   UNL     1      -6.166   6.077  11.044  1.00  0.00    -0.744 OA
ENDBRANCH  79  82
ENDBRANCH  51  75
BRANCH  63  86
ATOM     86  C   UNL     1     -14.704   6.537  17.173  1.00  0.00     0.023 A 
ATOM     87  C   UNL     1     -14.072   7.666  17.729  1.00  0.00     0.012 A 
ATOM     88  C   UNL     1     -15.496   5.711  17.995  1.00  0.00     0.148 A 
ATOM     89  C   UNL     1     -14.199   7.950  19.088  1.00  0.00     0.002 A 
ATOM     90  C   UNL     1     -15.655   6.027  19.339  1.00  0.00     0.091 A 
ATOM     91  F   UNL     1     -16.072   4.628  17.452  1.00  0.00    -0.205 F 
ATOM     92  C   UNL     1     -14.998   7.139  19.890  1.00  0.00     0.022 A 
BRANCH  90  93
ATOM     93  S   UNL     1     -16.742   5.087  20.416  1.00  0.00     0.127 S 
ATOM     94  O   UNL     1     -15.791   4.251  21.147  1.00  0.00    -0.237 OA
ATOM     95  O   UNL     1     -17.375   6.135  21.219  1.00  0.00    -0.237 OA
ATOM     96  O   UNL     1     -17.657   4.377  19.532  1.00  0.00    -0.744 OA
ENDBRANCH  90  93
ENDBRANCH  63  86
ENDBRANCH  37  38
ENDBRANCH  29  32
ENDBRANCH  27  28
ENDBRANCH   1  27
TORSDOF 15
