REMARK SMILES C[C@H](CC(=O)NCCCNC(=O)c1ccc(-c2c3nc(c(-c4cccc(S(=O)(=O)[O-])c4F)c4ccc([nH]4)c(-c4cccc(S(=O)(=O)[O-])c4F)c4nc(c(-c5cccc(S(=O)(=O)[O-])c5F)c5ccc2[nH]5)C=C4)C=C3)cc1)NC(=O)Cc1cn2ccsc2n1
REMARK SMILES IDX 7 1 6 2 4 3 5 4 3 6 2 7 1 8 76 9 77 10 78 12 79 13 80 14
REMARK SMILES IDX 81 15 87 16 82 17 86 18 83 19 85 20 84 21 8 22 9 23 10 24
REMARK SMILES IDX 11 25 12 27 13 28 14 29 75 30 15 31 74 32 16 33 17 34 18 35
REMARK SMILES IDX 68 36 19 37 73 38 67 39 69 40 20 41 72 42 66 43 65 44 21 46
REMARK SMILES IDX 53 47 33 48 52 49 34 50 37 51 51 52 70 53 35 54 36 55 50 57
REMARK SMILES IDX 71 58 38 59 22 60 23 61 31 62 24 63 26 64 32 65 25 66 27 67
REMARK SMILES IDX 28 68 29 69 30 70 54 71 55 72 63 73 56 74 58 75 64 76 57 77
REMARK SMILES IDX 59 78 60 79 61 80 62 81 39 82 40 83 48 84 41 85 43 86 49 87
REMARK SMILES IDX 42 88 44 89 45 90 46 91 47 92
REMARK H PARENT 6 5 76 11 10 26 69 45 37 56
REMARK Flexibility Score: inf
ROOT
ATOM      1  C   UNL     1      -0.478   0.275  -2.574  1.00  0.00     0.117 C 
ENDROOT
BRANCH   1   2
ATOM      2  N   UNL     1       0.969   0.258  -2.441  1.00  0.00    -0.356 N 
ATOM      3  C   UNL     1       1.746   0.241  -1.325  1.00  0.00     0.222 C 
ATOM      4  O   UNL     1       2.970   0.203  -1.461  1.00  0.00    -0.275 OA
ATOM      5  H   UNL     1       1.464   0.257  -3.292  1.00  0.00     0.163 HD
BRANCH   3   6
ATOM      6  C   UNL     1       1.121   0.274   0.050  1.00  0.00     0.124 C 
BRANCH   6   7
ATOM      7  C   UNL     1       0.688   1.661   0.550  1.00  0.00     0.088 C 
ATOM      8  C   UNL     1       1.266   2.864  -0.188  1.00  0.00     0.031 C 
BRANCH   7   9
ATOM      9  N   UNL     1      -0.770   1.743   0.646  1.00  0.00    -0.353 N 
ATOM     10  C   UNL     1      -1.566   1.766   1.760  1.00  0.00     0.226 C 
ATOM     11  H   UNL     1      -1.247   1.789  -0.214  1.00  0.00     0.163 HD
ATOM     12  O   UNL     1      -2.786   1.709   1.594  1.00  0.00    -0.275 OA
BRANCH  10  13
ATOM     13  C   UNL     1      -0.955   1.954   3.135  1.00  0.00     0.157 C 
BRANCH  13  14
ATOM     14  C   UNL     1      -0.118   0.800   3.574  1.00  0.00     0.070 A 
ATOM     15  C   UNL     1       1.153   0.841   4.145  1.00  0.00     0.118 A 
ATOM     16  N   UNL     1      -0.533  -0.511   3.385  1.00  0.00    -0.223 NA
ATOM     17  N   UNL     1       1.522  -0.464   4.249  1.00  0.00    -0.297 N 
ATOM     18  C   UNL     1       0.478  -1.216   3.805  1.00  0.00     0.193 A 
ATOM     19  C   UNL     1       2.638  -1.165   4.640  1.00  0.00     0.104 A 
ATOM     20  S   UNL     1       0.853  -2.909   3.871  1.00  0.00    -0.105 S 
ATOM     21  C   UNL     1       2.458  -2.490   4.503  1.00  0.00     0.087 A 
ENDBRANCH  13  14
ENDBRANCH  10  13
ENDBRANCH   7   9
ENDBRANCH   6   7
ENDBRANCH   3   6
ENDBRANCH   1   2
BRANCH   1  22
ATOM     22  C   UNL     1      -1.029   1.653  -2.935  1.00  0.00     0.042 C 
BRANCH  22  23
ATOM     23  C   UNL     1      -0.458   2.246  -4.218  1.00  0.00     0.118 C 
BRANCH  23  24
ATOM     24  N   UNL     1      -0.863   1.492  -5.393  1.00  0.00    -0.352 N 
ATOM     25  C   UNL     1      -1.613   1.893  -6.471  1.00  0.00     0.251 C 
ATOM     26  H   UNL     1      -0.554   0.558  -5.420  1.00  0.00     0.163 HD
ATOM     27  O   UNL     1      -2.055   1.047  -7.243  1.00  0.00    -0.269 OA
BRANCH  25  28
ATOM     28  C   UNL     1      -1.894   3.328  -6.701  1.00  0.00     0.039 A 
ATOM     29  C   UNL     1      -3.167   3.705  -7.138  1.00  0.00     0.014 A 
ATOM     30  C   UNL     1      -0.901   4.297  -6.531  1.00  0.00     0.014 A 
ATOM     31  C   UNL     1      -3.454   5.054  -7.364  1.00  0.00     0.010 A 
ATOM     32  C   UNL     1      -1.212   5.647  -6.679  1.00  0.00     0.010 A 
ATOM     33  C   UNL     1      -2.486   6.041  -7.113  1.00  0.00    -0.014 A 
BRANCH  33  34
ATOM     34  C   UNL     1      -2.790   7.484  -7.305  1.00  0.00     0.031 A 
ATOM     35  C   UNL     1      -2.022   8.296  -8.315  1.00  0.00     0.074 A 
ATOM     36  C   UNL     1      -3.709   8.082  -6.522  1.00  0.00     0.049 A 
ATOM     37  N   UNL     1      -2.110   9.573  -8.586  1.00  0.00    -0.248 NA
ATOM     38  C   UNL     1      -1.003   7.587  -9.107  1.00  0.00     0.031 C 
ATOM     39  C   UNL     1      -4.475   7.424  -5.461  1.00  0.00     0.029 A 
ATOM     40  N   UNL     1      -4.138   9.386  -6.478  1.00  0.00    -0.354 N 
ATOM     41  C   UNL     1      -1.141   9.827  -9.549  1.00  0.00     0.074 A 
ATOM     42  C   UNL     1      -0.451   8.579  -9.791  1.00  0.00     0.031 C 
ATOM     43  C   UNL     1      -5.282   8.323  -4.877  1.00  0.00     0.029 A 
ATOM     44  C   UNL     1      -5.065   9.629  -5.492  1.00  0.00     0.049 A 
ATOM     45  H   UNL     1      -3.813  10.081  -7.095  1.00  0.00     0.167 HD
ATOM     46  C   UNL     1      -0.864  10.986 -10.193  1.00  0.00     0.034 A 
ATOM     47  C   UNL     1      -5.663  10.776  -5.112  1.00  0.00     0.034 A 
ATOM     48  C   UNL     1      -1.572  12.219  -9.972  1.00  0.00     0.049 A 
ATOM     49  C   UNL     1      -5.349  12.046  -5.855  1.00  0.00     0.074 A 
ATOM     50  C   UNL     1      -1.421  13.426 -10.631  1.00  0.00     0.029 A 
ATOM     51  N   UNL     1      -2.552  12.409  -9.010  1.00  0.00    -0.354 N 
ATOM     52  N   UNL     1      -4.532  12.234  -6.862  1.00  0.00    -0.248 NA
ATOM     53  C   UNL     1      -6.067  13.258  -5.431  1.00  0.00     0.031 C 
ATOM     54  C   UNL     1      -2.280  14.358 -10.040  1.00  0.00     0.029 A 
ATOM     55  C   UNL     1      -3.003  13.718  -9.047  1.00  0.00     0.049 A 
ATOM     56  H   UNL     1      -2.879  11.716  -8.393  1.00  0.00     0.167 HD
ATOM     57  C   UNL     1      -4.669  13.570  -7.220  1.00  0.00     0.074 A 
ATOM     58  C   UNL     1      -5.660  14.141  -6.332  1.00  0.00     0.031 C 
ATOM     59  C   UNL     1      -4.025  14.264  -8.191  1.00  0.00     0.034 A 
BRANCH  46  60
ATOM     60  C   UNL     1       0.234  10.972 -11.226  1.00  0.00     0.023 A 
ATOM     61  C   UNL     1       0.045  10.280 -12.441  1.00  0.00     0.012 A 
ATOM     62  C   UNL     1       1.427  11.694 -11.023  1.00  0.00     0.148 A 
ATOM     63  C   UNL     1       1.040  10.273 -13.418  1.00  0.00     0.002 A 
ATOM     64  C   UNL     1       2.393  11.724 -12.021  1.00  0.00     0.091 A 
ATOM     65  F   UNL     1       1.596  12.332  -9.856  1.00  0.00    -0.205 F 
ATOM     66  C   UNL     1       2.208  11.003 -13.213  1.00  0.00     0.022 A 
BRANCH  64  67
ATOM     67  S   UNL     1       3.894  12.701 -11.891  1.00  0.00     0.127 S 
ATOM     68  O   UNL     1       4.916  11.660 -11.790  1.00  0.00    -0.237 OA
ATOM     69  O   UNL     1       3.893  13.434 -13.157  1.00  0.00    -0.237 OA
ATOM     70  O   UNL     1       3.733  13.532 -10.706  1.00  0.00    -0.744 OA
ENDBRANCH  64  67
ENDBRANCH  46  60
BRANCH  47  71
ATOM     71  C   UNL     1      -6.654  10.769  -3.998  1.00  0.00     0.023 A 
ATOM     72  C   UNL     1      -8.014  11.007  -4.275  1.00  0.00     0.012 A 
ATOM     73  C   UNL     1      -6.256  10.519  -2.671  1.00  0.00     0.148 A 
ATOM     74  C   UNL     1      -8.955  11.034  -3.245  1.00  0.00     0.002 A 
ATOM     75  C   UNL     1      -7.206  10.490  -1.658  1.00  0.00     0.091 A 
ATOM     76  F   UNL     1      -4.956  10.302  -2.429  1.00  0.00    -0.205 F 
ATOM     77  C   UNL     1      -8.553  10.767  -1.939  1.00  0.00     0.022 A 
BRANCH  75  78
ATOM     78  S   UNL     1      -6.802  10.035   0.031  1.00  0.00     0.127 S 
ATOM     79  O   UNL     1      -7.007  11.297   0.738  1.00  0.00    -0.237 OA
ATOM     80  O   UNL     1      -7.799   9.002   0.310  1.00  0.00    -0.237 OA
ATOM     81  O   UNL     1      -5.428   9.551  -0.008  1.00  0.00    -0.744 OA
ENDBRANCH  75  78
ENDBRANCH  47  71
BRANCH  59  82
ATOM     82  C   UNL     1      -4.405  15.709  -8.391  1.00  0.00     0.023 A 
ATOM     83  C   UNL     1      -4.044  16.678  -7.434  1.00  0.00     0.012 A 
ATOM     84  C   UNL     1      -5.062  16.114  -9.570  1.00  0.00     0.148 A 
ATOM     85  C   UNL     1      -4.365  18.021  -7.630  1.00  0.00     0.002 A 
ATOM     86  C   UNL     1      -5.329  17.460  -9.784  1.00  0.00     0.091 A 
ATOM     87  F   UNL     1      -5.412  15.175 -10.461  1.00  0.00    -0.205 F 
ATOM     88  C   UNL     1      -4.995  18.413  -8.809  1.00  0.00     0.022 A 
BRANCH  86  89
ATOM     89  S   UNL     1      -6.044  18.071 -11.315  1.00  0.00     0.127 S 
ATOM     90  O   UNL     1      -7.373  18.493 -10.875  1.00  0.00    -0.237 OA
ATOM     91  O   UNL     1      -5.139  19.168 -11.661  1.00  0.00    -0.237 OA
ATOM     92  O   UNL     1      -6.022  16.951 -12.245  1.00  0.00    -0.744 OA
ENDBRANCH  86  89
ENDBRANCH  59  82
ENDBRANCH  33  34
ENDBRANCH  25  28
ENDBRANCH  23  24
ENDBRANCH  22  23
ENDBRANCH   1  22
TORSDOF 17
