REMARK SMILES O=C(Cc1c(C(=O)c2cccc(Cl)c2)[nH]c2ccccc12)NCCCNC(=O)c1ccc(-c2c3nc(c(-c4cccc(S(=O)(=O)[O-])c4F)c4ccc([nH]4)c(-c4cccc(S(=O)(=O)[O-])c4F)c4nc(c(-c5cccc(S(=O)(=O)[O-])c5F)c5ccc2[nH]5)C=C4)C=C3)cc1
REMARK SMILES IDX 24 1 23 2 22 3 1 4 2 5 3 7 4 8 5 9 21 10 15 11 16 12 20 13
REMARK SMILES IDX 17 15 19 16 18 17 6 18 7 19 8 20 9 21 14 22 10 23 12 24
REMARK SMILES IDX 11 25 13 26 25 27 26 28 27 29 28 31 29 32 30 33 91 34 31 35
REMARK SMILES IDX 90 36 32 37 33 38 34 39 84 40 35 41 89 42 83 43 85 44 36 45
REMARK SMILES IDX 88 46 82 47 81 48 37 50 69 51 49 52 68 53 50 54 53 55 67 56
REMARK SMILES IDX 86 57 51 58 52 59 66 61 87 62 54 63 38 64 39 65 47 66 40 67
REMARK SMILES IDX 42 68 48 69 41 70 43 71 44 72 45 73 46 74 70 75 71 76 79 77
REMARK SMILES IDX 72 78 74 79 80 80 73 81 75 82 76 83 77 84 78 85 55 86 56 87
REMARK SMILES IDX 64 88 57 89 59 90 65 91 58 92 60 93 61 94 62 95 63 96
REMARK H PARENT 22 6 15 14 26 30 85 49 53 60
REMARK Flexibility Score: inf
ROOT
ATOM      1  C   UNL     1       2.504   0.575  -3.348  1.00  0.00     0.042 C 
ENDROOT
BRANCH   1   2
ATOM      2  C   UNL     1       2.189  -0.501  -2.318  1.00  0.00     0.117 C 
BRANCH   2   3
ATOM      3  N   UNL     1       2.850  -0.259  -1.054  1.00  0.00    -0.356 N 
ATOM      4  O   UNL     1       0.942   0.116   0.172  1.00  0.00    -0.275 OA
ATOM      5  C   UNL     1       2.164   0.010   0.112  1.00  0.00     0.224 C 
ATOM      6  H   UNL     1       3.834  -0.287  -1.024  1.00  0.00     0.163 HD
BRANCH   5   7
ATOM      7  C   UNL     1       3.053   0.182   1.335  1.00  0.00     0.138 C 
BRANCH   7   8
ATOM      8  C   UNL     1       3.943  -1.011   1.592  1.00  0.00    -0.002 A 
ATOM      9  C   UNL     1       5.292  -0.990   1.957  1.00  0.00     0.092 A 
ATOM     10  C   UNL     1       3.534  -2.388   1.530  1.00  0.00     0.004 A 
ATOM     11  N   UNL     1       5.678  -2.307   2.104  1.00  0.00    -0.352 N 
ATOM     12  C   UNL     1       4.645  -3.168   1.829  1.00  0.00     0.046 A 
ATOM     13  C   UNL     1       2.317  -3.043   1.240  1.00  0.00     0.010 A 
ATOM     14  H   UNL     1       6.581  -2.592   2.373  1.00  0.00     0.167 HD
ATOM     15  C   UNL     1       4.613  -4.568   1.837  1.00  0.00     0.027 A 
ATOM     16  C   UNL     1       2.266  -4.441   1.235  1.00  0.00     0.001 A 
ATOM     17  C   UNL     1       3.401  -5.191   1.527  1.00  0.00     0.002 A 
BRANCH   9  18
ATOM     18  C   UNL     1       6.147   0.163   2.211  1.00  0.00     0.209 C 
ATOM     19  O   UNL     1       5.732   1.322   2.245  1.00  0.00    -0.287 OA
BRANCH  18  20
ATOM     20  C   UNL     1       7.587  -0.024   2.507  1.00  0.00     0.026 A 
ATOM     21  C   UNL     1       8.427  -0.742   1.646  1.00  0.00     0.012 A 
ATOM     22  C   UNL     1       8.104   0.584   3.656  1.00  0.00     0.032 A 
ATOM     23  C   UNL     1       9.782  -0.875   1.956  1.00  0.00     0.002 A 
ATOM     24  C   UNL     1       9.456   0.443   3.957  1.00  0.00     0.041 A 
ATOM     25  C   UNL     1      10.295  -0.287   3.115  1.00  0.00     0.020 A 
ATOM     26  Cl  UNL     1      10.094   1.168   5.381  1.00  0.00    -0.084 Cl
ENDBRANCH  18  20
ENDBRANCH   9  18
ENDBRANCH   7   8
ENDBRANCH   5   7
ENDBRANCH   2   3
ENDBRANCH   1   2
BRANCH   1  27
ATOM     27  C   UNL     1       3.981   0.686  -3.710  1.00  0.00     0.118 C 
BRANCH  27  28
ATOM     28  N   UNL     1       4.505  -0.500  -4.380  1.00  0.00    -0.352 N 
ATOM     29  C   UNL     1       5.181  -0.600  -5.574  1.00  0.00     0.251 C 
ATOM     30  H   UNL     1       4.351  -1.352  -3.910  1.00  0.00     0.163 HD
ATOM     31  O   UNL     1       5.438  -1.706  -6.043  1.00  0.00    -0.269 OA
BRANCH  29  32
ATOM     32  C   UNL     1       5.574   0.625  -6.304  1.00  0.00     0.039 A 
ATOM     33  C   UNL     1       5.307   0.718  -7.673  1.00  0.00     0.014 A 
ATOM     34  C   UNL     1       6.183   1.688  -5.634  1.00  0.00     0.014 A 
ATOM     35  C   UNL     1       5.573   1.911  -8.352  1.00  0.00     0.010 A 
ATOM     36  C   UNL     1       6.375   2.898  -6.293  1.00  0.00     0.010 A 
ATOM     37  C   UNL     1       6.069   3.026  -7.657  1.00  0.00    -0.014 A 
BRANCH  37  38
ATOM     38  C   UNL     1       6.264   4.345  -8.316  1.00  0.00     0.031 A 
ATOM     39  C   UNL     1       7.635   4.963  -8.364  1.00  0.00     0.074 A 
ATOM     40  C   UNL     1       5.195   5.041  -8.754  1.00  0.00     0.049 A 
ATOM     41  N   UNL     1       7.987   6.163  -8.746  1.00  0.00    -0.248 NA
ATOM     42  C   UNL     1       8.754   4.132  -7.889  1.00  0.00     0.031 C 
ATOM     43  C   UNL     1       3.806   4.579  -8.711  1.00  0.00     0.029 A 
ATOM     44  N   UNL     1       5.106   6.306  -9.284  1.00  0.00    -0.354 N 
ATOM     45  C   UNL     1       9.355   6.249  -8.514  1.00  0.00     0.074 A 
ATOM     46  C   UNL     1       9.765   4.988  -7.935  1.00  0.00     0.031 C 
ATOM     47  C   UNL     1       3.004   5.547  -9.183  1.00  0.00     0.029 A 
ATOM     48  C   UNL     1       3.813   6.714  -9.521  1.00  0.00     0.049 A 
ATOM     49  H   UNL     1       5.892   6.866  -9.476  1.00  0.00     0.167 HD
ATOM     50  C   UNL     1      10.198   7.275  -8.777  1.00  0.00     0.034 A 
ATOM     51  C   UNL     1       3.329   7.901  -9.938  1.00  0.00     0.034 A 
ATOM     52  C   UNL     1       9.793   8.512  -9.389  1.00  0.00     0.049 A 
ATOM     53  C   UNL     1       4.290   9.019 -10.242  1.00  0.00     0.074 A 
ATOM     54  C   UNL     1      10.585   9.581  -9.770  1.00  0.00     0.029 A 
ATOM     55  N   UNL     1       8.486   8.851  -9.700  1.00  0.00    -0.354 N 
ATOM     56  N   UNL     1       5.596   9.034 -10.141  1.00  0.00    -0.248 NA
ATOM     57  C   UNL     1       3.714  10.274 -10.751  1.00  0.00     0.031 C 
ATOM     58  C   UNL     1       9.753  10.579 -10.284  1.00  0.00     0.029 A 
ATOM     59  C   UNL     1       8.447  10.114 -10.263  1.00  0.00     0.049 A 
ATOM     60  H   UNL     1       7.701   8.277  -9.544  1.00  0.00     0.167 HD
ATOM     61  C   UNL     1       6.002  10.275 -10.620  1.00  0.00     0.074 A 
ATOM     62  C   UNL     1       4.803  10.983 -11.016  1.00  0.00     0.031 C 
ATOM     63  C   UNL     1       7.255  10.782 -10.716  1.00  0.00     0.034 A 
BRANCH  50  64
ATOM     64  C   UNL     1      11.655   7.091  -8.441  1.00  0.00     0.023 A 
ATOM     65  C   UNL     1      12.440   6.195  -9.196  1.00  0.00     0.012 A 
ATOM     66  C   UNL     1      12.263   7.850  -7.421  1.00  0.00     0.148 A 
ATOM     67  C   UNL     1      13.795   6.027  -8.917  1.00  0.00     0.002 A 
ATOM     68  C   UNL     1      13.625   7.713  -7.181  1.00  0.00     0.091 A 
ATOM     69  F   UNL     1      11.499   8.683  -6.702  1.00  0.00    -0.205 F 
ATOM     70  C   UNL     1      14.389   6.793  -7.918  1.00  0.00     0.022 A 
BRANCH  68  71
ATOM     71  S   UNL     1      14.502   8.713  -5.974  1.00  0.00     0.127 S 
ATOM     72  O   UNL     1      14.818   7.722  -4.945  1.00  0.00    -0.237 OA
ATOM     73  O   UNL     1      15.656   9.181  -6.743  1.00  0.00    -0.237 OA
ATOM     74  O   UNL     1      13.576   9.760  -5.568  1.00  0.00    -0.744 OA
ENDBRANCH  68  71
ENDBRANCH  50  64
BRANCH  51  75
ATOM     75  C   UNL     1       1.862   8.081 -10.139  1.00  0.00     0.023 A 
ATOM     76  C   UNL     1       1.357   8.221 -11.447  1.00  0.00     0.012 A 
ATOM     77  C   UNL     1       0.967   8.099  -9.053  1.00  0.00     0.148 A 
ATOM     78  C   UNL     1      -0.008   8.411 -11.667  1.00  0.00     0.002 A 
ATOM     79  C   UNL     1      -0.397   8.233  -9.282  1.00  0.00     0.091 A 
ATOM     80  F   UNL     1       1.468   7.973  -7.816  1.00  0.00    -0.205 F 
ATOM     81  C   UNL     1      -0.885   8.408 -10.586  1.00  0.00     0.022 A 
BRANCH  79  82
ATOM     82  S   UNL     1      -1.615   8.114  -7.966  1.00  0.00     0.127 S 
ATOM     83  O   UNL     1      -2.121   9.483  -7.904  1.00  0.00    -0.237 OA
ATOM     84  O   UNL     1      -2.552   7.133  -8.514  1.00  0.00    -0.237 OA
ATOM     85  O   UNL     1      -0.883   7.657  -6.793  1.00  0.00    -0.744 OA
ENDBRANCH  79  82
ENDBRANCH  51  75
BRANCH  63  86
ATOM     86  C   UNL     1       7.423  12.142 -11.343  1.00  0.00     0.023 A 
ATOM     87  C   UNL     1       7.043  13.301 -10.639  1.00  0.00     0.012 A 
ATOM     88  C   UNL     1       8.057  12.268 -12.595  1.00  0.00     0.148 A 
ATOM     89  C   UNL     1       7.271  14.565 -11.184  1.00  0.00     0.002 A 
ATOM     90  C   UNL     1       8.328  13.530 -13.108  1.00  0.00     0.091 A 
ATOM     91  F   UNL     1       8.393  11.150 -13.256  1.00  0.00    -0.205 F 
ATOM     92  C   UNL     1       7.925  14.680 -12.409  1.00  0.00     0.022 A 
BRANCH  90  93
ATOM     93  S   UNL     1       9.257  13.776 -14.625  1.00  0.00     0.127 S 
ATOM     94  O   UNL     1       8.229  14.301 -15.522  1.00  0.00    -0.237 OA
ATOM     95  O   UNL     1      10.266  14.752 -14.214  1.00  0.00    -0.237 OA
ATOM     96  O   UNL     1       9.791  12.470 -14.989  1.00  0.00    -0.744 OA
ENDBRANCH  90  93
ENDBRANCH  63  86
ENDBRANCH  37  38
ENDBRANCH  29  32
ENDBRANCH  27  28
ENDBRANCH   1  27
TORSDOF 16
