REMARK SMILES COCCS(=O)(=O)N1C[C@@H](C(=O)NCCCNC(=O)c2ccc(-c3c4nc(c(-c5cccc(S(=O)(=O)[O-])c5F)c5ccc([nH]5)c(-c5cccc(S(=O)(=O)[O-])c5F)c5nc(c(-c6cccc(S(=O)(=O)[O-])c6F)c6ccc3[nH]6)C=C5)C=C4)cc2)c2ccccc21
REMARK SMILES IDX 14 1 13 2 11 3 12 4 10 6 8 7 9 8 88 9 83 10 87 11 84 12
REMARK SMILES IDX 86 13 85 14 5 15 6 16 7 17 4 18 3 19 2 20 1 21 15 22 16 23
REMARK SMILES IDX 17 24 18 25 19 27 20 28 21 29 82 30 22 31 81 32 23 33 24 34
REMARK SMILES IDX 25 35 75 36 26 37 80 38 74 39 76 40 27 41 79 42 73 43 72 44
REMARK SMILES IDX 28 46 60 47 40 48 59 49 41 50 44 51 58 52 77 53 42 54 43 55
REMARK SMILES IDX 57 57 78 58 45 59 29 60 30 61 38 62 31 63 33 64 39 65 32 66
REMARK SMILES IDX 34 67 35 68 36 69 37 70 61 71 62 72 70 73 63 74 65 75 71 76
REMARK SMILES IDX 64 77 66 78 67 79 68 80 69 81 46 82 47 83 55 84 48 85 50 86
REMARK SMILES IDX 56 87 49 88 51 89 52 90 53 91 54 92
REMARK H PARENT 13 5 17 26 76 45 44 56
REMARK Flexibility Score: inf
ROOT
ATOM      1  C   UNL     1      -2.505   0.408  -1.695  1.00  0.00     0.117 C 
ENDROOT
BRANCH   1   2
ATOM      2  N   UNL     1      -2.258   0.617  -3.106  1.00  0.00    -0.355 N 
ATOM      3  C   UNL     1      -1.119   0.485  -3.834  1.00  0.00     0.229 C 
ATOM      4  O   UNL     1      -1.210   0.689  -5.050  1.00  0.00    -0.274 OA
ATOM      5  H   UNL     1      -3.046   0.903  -3.623  1.00  0.00     0.163 HD
BRANCH   3   6
ATOM      6  C   UNL     1       0.219   0.115  -3.228  1.00  0.00     0.131 C 
ATOM      7  N   UNL     1       1.296  -1.065  -1.435  1.00  0.00    -0.269 N 
ATOM      8  C   UNL     1       0.310  -1.262  -2.539  1.00  0.00     0.153 C 
ATOM      9  C   UNL     1       1.487   0.328  -1.222  1.00  0.00     0.056 A 
ATOM     10  C   UNL     1       0.772   1.049  -2.185  1.00  0.00    -0.009 A 
ATOM     11  C   UNL     1       2.244   0.985  -0.273  1.00  0.00     0.027 A 
ATOM     12  C   UNL     1       0.726   2.436  -2.159  1.00  0.00     0.007 A 
ATOM     13  C   UNL     1       2.167   2.380  -0.208  1.00  0.00     0.002 A 
ATOM     14  C   UNL     1       1.400   3.100  -1.135  1.00  0.00     0.000 A 
BRANCH   7  15
ATOM     15  S   UNL     1       1.750  -2.307  -0.426  1.00  0.00     0.237 S 
ATOM     16  O   UNL     1       3.057  -2.034   0.127  1.00  0.00    -0.206 OA
ATOM     17  O   UNL     1       1.528  -3.536  -1.173  1.00  0.00    -0.206 OA
BRANCH  15  18
ATOM     18  C   UNL     1       0.559  -2.329   0.913  1.00  0.00     0.188 C 
BRANCH  18  19
ATOM     19  C   UNL     1       0.871  -1.357   2.038  1.00  0.00     0.178 C 
BRANCH  19  20
ATOM     20  O   UNL     1      -0.289  -0.684   2.534  1.00  0.00    -0.384 OA
ATOM     21  C   UNL     1      -0.906   0.180   1.595  1.00  0.00     0.194 C 
ENDBRANCH  19  20
ENDBRANCH  18  19
ENDBRANCH  15  18
ENDBRANCH   7  15
ENDBRANCH   3   6
ENDBRANCH   1   2
BRANCH   1  22
ATOM     22  C   UNL     1      -2.925   1.673  -0.962  1.00  0.00     0.042 C 
BRANCH  22  23
ATOM     23  C   UNL     1      -4.255   2.263  -1.411  1.00  0.00     0.118 C 
BRANCH  23  24
ATOM     24  N   UNL     1      -5.374   1.353  -1.213  1.00  0.00    -0.352 N 
ATOM     25  C   UNL     1      -6.518   1.492  -0.464  1.00  0.00     0.251 C 
ATOM     26  H   UNL     1      -5.300   0.497  -1.695  1.00  0.00     0.163 HD
ATOM     27  O   UNL     1      -7.246   0.514  -0.307  1.00  0.00    -0.269 OA
BRANCH  25  28
ATOM     28  C   UNL     1      -6.869   2.786   0.166  1.00  0.00     0.039 A 
ATOM     29  C   UNL     1      -7.456   2.777   1.435  1.00  0.00     0.014 A 
ATOM     30  C   UNL     1      -6.655   4.002  -0.487  1.00  0.00     0.014 A 
ATOM     31  C   UNL     1      -7.766   3.985   2.067  1.00  0.00     0.010 A 
ATOM     32  C   UNL     1      -6.870   5.204   0.184  1.00  0.00     0.010 A 
ATOM     33  C   UNL     1      -7.439   5.212   1.464  1.00  0.00    -0.014 A 
BRANCH  33  34
ATOM     34  C   UNL     1      -7.677   6.498   2.173  1.00  0.00     0.031 A 
ATOM     35  C   UNL     1      -8.593   7.544   1.590  1.00  0.00     0.074 A 
ATOM     36  C   UNL     1      -7.018   6.752   3.322  1.00  0.00     0.049 A 
ATOM     37  N   UNL     1      -8.918   8.716   2.074  1.00  0.00    -0.248 NA
ATOM     38  C   UNL     1      -9.205   7.251   0.283  1.00  0.00     0.031 C 
ATOM     39  C   UNL     1      -6.034   5.863   3.947  1.00  0.00     0.029 A 
ATOM     40  N   UNL     1      -7.063   7.835   4.164  1.00  0.00    -0.354 N 
ATOM     41  C   UNL     1      -9.745   9.307   1.126  1.00  0.00     0.074 A 
ATOM     42  C   UNL     1      -9.838   8.384   0.016  1.00  0.00     0.031 C 
ATOM     43  C   UNL     1      -5.588   6.426   5.081  1.00  0.00     0.029 A 
ATOM     44  C   UNL     1      -6.225   7.727   5.249  1.00  0.00     0.049 A 
ATOM     45  H   UNL     1      -7.642   8.616   4.005  1.00  0.00     0.167 HD
ATOM     46  C   UNL     1     -10.396  10.493   1.184  1.00  0.00     0.034 A 
ATOM     47  C   UNL     1      -5.994   8.579   6.267  1.00  0.00     0.034 A 
ATOM     48  C   UNL     1     -10.328  11.397   2.302  1.00  0.00     0.049 A 
ATOM     49  C   UNL     1      -6.761   9.872   6.325  1.00  0.00     0.074 A 
ATOM     50  C   UNL     1     -11.009  12.588   2.488  1.00  0.00     0.029 A 
ATOM     51  N   UNL     1      -9.527  11.218   3.418  1.00  0.00    -0.354 N 
ATOM     52  N   UNL     1      -7.658  10.340   5.491  1.00  0.00    -0.248 NA
ATOM     53  C   UNL     1      -6.518  10.734   7.491  1.00  0.00     0.031 C 
ATOM     54  C   UNL     1     -10.594  13.144   3.703  1.00  0.00     0.029 A 
ATOM     55  C   UNL     1      -9.690  12.278   4.295  1.00  0.00     0.049 A 
ATOM     56  H   UNL     1      -8.929  10.450   3.567  1.00  0.00     0.167 HD
ATOM     57  C   UNL     1      -8.115  11.527   6.051  1.00  0.00     0.074 A 
ATOM     58  C   UNL     1      -7.416  11.691   7.309  1.00  0.00     0.031 C 
ATOM     59  C   UNL     1      -9.024  12.409   5.564  1.00  0.00     0.034 A 
BRANCH  46  60
ATOM     60  C   UNL     1     -11.284  10.866   0.023  1.00  0.00     0.023 A 
ATOM     61  C   UNL     1     -12.485  10.158  -0.193  1.00  0.00     0.012 A 
ATOM     62  C   UNL     1     -10.969  11.957  -0.811  1.00  0.00     0.148 A 
ATOM     63  C   UNL     1     -13.340  10.506  -1.238  1.00  0.00     0.002 A 
ATOM     64  C   UNL     1     -11.850  12.329  -1.820  1.00  0.00     0.091 A 
ATOM     65  F   UNL     1      -9.816  12.608  -0.604  1.00  0.00    -0.205 F 
ATOM     66  C   UNL     1     -13.028  11.598  -2.043  1.00  0.00     0.022 A 
BRANCH  64  67
ATOM     67  S   UNL     1     -11.585  13.770  -2.859  1.00  0.00     0.127 S 
ATOM     68  O   UNL     1     -11.347  13.153  -4.163  1.00  0.00    -0.237 OA
ATOM     69  O   UNL     1     -12.864  14.472  -2.741  1.00  0.00    -0.237 OA
ATOM     70  O   UNL     1     -10.447  14.476  -2.289  1.00  0.00    -0.744 OA
ENDBRANCH  64  67
ENDBRANCH  46  60
BRANCH  47  71
ATOM     71  C   UNL     1      -5.036   8.214   7.350  1.00  0.00     0.023 A 
ATOM     72  C   UNL     1      -5.518   7.958   8.649  1.00  0.00     0.012 A 
ATOM     73  C   UNL     1      -3.655   8.117   7.100  1.00  0.00     0.148 A 
ATOM     74  C   UNL     1      -4.638   7.659   9.689  1.00  0.00     0.002 A 
ATOM     75  C   UNL     1      -2.789   7.759   8.126  1.00  0.00     0.091 A 
ATOM     76  F   UNL     1      -3.214   8.371   5.860  1.00  0.00    -0.205 F 
ATOM     77  C   UNL     1      -3.275   7.551   9.426  1.00  0.00     0.022 A 
BRANCH  75  78
ATOM     78  S   UNL     1      -1.039   7.466   7.848  1.00  0.00     0.127 S 
ATOM     79  O   UNL     1      -0.433   8.611   8.522  1.00  0.00    -0.237 OA
ATOM     80  O   UNL     1      -0.839   6.179   8.515  1.00  0.00    -0.237 OA
ATOM     81  O   UNL     1      -0.873   7.423   6.401  1.00  0.00    -0.744 OA
ENDBRANCH  75  78
ENDBRANCH  47  71
BRANCH  59  82
ATOM     82  C   UNL     1      -9.356  13.605   6.419  1.00  0.00     0.023 A 
ATOM     83  C   UNL     1      -8.399  14.620   6.624  1.00  0.00     0.012 A 
ATOM     84  C   UNL     1     -10.635  13.737   6.995  1.00  0.00     0.148 A 
ATOM     85  C   UNL     1      -8.691  15.717   7.434  1.00  0.00     0.002 A 
ATOM     86  C   UNL     1     -10.938  14.862   7.753  1.00  0.00     0.091 A 
ATOM     87  F   UNL     1     -11.528  12.755   6.805  1.00  0.00    -0.205 F 
ATOM     88  C   UNL     1      -9.962  15.843   7.989  1.00  0.00     0.022 A 
BRANCH  86  89
ATOM     89  S   UNL     1     -12.579  15.155   8.421  1.00  0.00     0.127 S 
ATOM     90  O   UNL     1     -12.377  14.874   9.841  1.00  0.00    -0.237 OA
ATOM     91  O   UNL     1     -12.796  16.567   8.103  1.00  0.00    -0.237 OA
ATOM     92  O   UNL     1     -13.466  14.236   7.720  1.00  0.00    -0.744 OA
ENDBRANCH  86  89
ENDBRANCH  59  82
ENDBRANCH  33  34
ENDBRANCH  25  28
ENDBRANCH  23  24
ENDBRANCH  22  23
ENDBRANCH   1  22
TORSDOF 17
