REMARK SMILES O=C(NCCCNC(=O)c1ccc(-c2c3nc(c(-c4cccc(S(=O)(=O)[O-])c4F)c4ccc([nH]4)c(-c4cccc(S(=O)(=O)[O-])c4F)c4nc(c(-c5cccc(S(=O)(=O)[O-])c5F)c5ccc2[nH]5)C=C4)C=C3)cc1)c1ccc(O[C@@H]2[NH+]=C(Cl)[NH+]=C3N=CN=C32)cc1
REMARK SMILES IDX 5 1 4 2 3 3 1 4 2 5 73 7 74 8 89 9 75 10 88 11 76 12 77 13
REMARK SMILES IDX 78 14 79 15 87 16 80 17 83 19 86 20 81 21 82 22 84 23 85 24
REMARK SMILES IDX 6 26 7 27 8 28 9 30 10 31 11 32 72 33 12 34 71 35 13 36
REMARK SMILES IDX 14 37 15 38 65 39 16 40 70 41 64 42 66 43 17 44 69 45 63 46
REMARK SMILES IDX 62 47 18 49 50 50 30 51 49 52 31 53 34 54 48 55 67 56 32 57
REMARK SMILES IDX 33 58 47 60 68 61 35 62 19 63 20 64 28 65 21 66 23 67 29 68
REMARK SMILES IDX 22 69 24 70 25 71 26 72 27 73 51 74 52 75 60 76 53 77 55 78
REMARK SMILES IDX 61 79 54 80 56 81 57 82 58 83 59 84 36 85 37 86 45 87 38 88
REMARK SMILES IDX 40 89 46 90 39 91 41 92 42 93 43 94 44 95
REMARK H PARENT 3 6 79 18 82 25 7 29 66 48 34 59
REMARK Flexibility Score: inf
ROOT
ATOM      1  C   UNL     1      11.871   5.814  -2.970  1.00  0.00     0.042 C 
ENDROOT
BRANCH   1   2
ATOM      2  C   UNL     1      10.713   6.616  -2.422  1.00  0.00     0.118 C 
BRANCH   2   3
ATOM      3  N   UNL     1      10.582   7.933  -3.038  1.00  0.00    -0.352 N 
ATOM      4  O   UNL     1       9.735   9.506  -4.426  1.00  0.00    -0.269 OA
ATOM      5  C   UNL     1       9.601   8.421  -3.870  1.00  0.00     0.251 C 
ATOM      6  H   UNL     1      11.305   8.568  -2.827  1.00  0.00     0.163 HD
BRANCH   5   7
ATOM      7  C   UNL     1       8.377   7.623  -4.087  1.00  0.00     0.040 A 
ATOM      8  C   UNL     1       7.804   6.949  -3.010  1.00  0.00     0.017 A 
ATOM      9  C   UNL     1       7.813   7.515  -5.362  1.00  0.00     0.017 A 
ATOM     10  C   UNL     1       6.812   6.018  -3.234  1.00  0.00     0.047 A 
ATOM     11  C   UNL     1       6.685   6.708  -5.548  1.00  0.00     0.047 A 
ATOM     12  C   UNL     1       6.178   5.984  -4.468  1.00  0.00     0.127 A 
BRANCH  12  13
ATOM     13  O   UNL     1       5.006   5.283  -4.585  1.00  0.00    -0.429 OA
BRANCH  13  14
ATOM     14  C   UNL     1       3.910   5.993  -3.962  1.00  0.00     0.521 C 
ATOM     15  N   UNL     1       3.617   7.321  -4.516  1.00  0.00    -0.130 N 
ATOM     16  C   UNL     1       4.018   6.065  -2.476  1.00  0.00     0.246 C 
ATOM     17  C   UNL     1       3.855   8.386  -3.844  1.00  0.00     0.517 C 
ATOM     18  H   UNL     1       3.230   7.395  -5.418  1.00  0.00     0.458 HD
ATOM     19  C   UNL     1       4.294   7.379  -1.901  1.00  0.00     0.341 C 
ATOM     20  N   UNL     1       4.048   5.194  -1.515  1.00  0.00    -0.222 NA
ATOM     21  Cl  UNL     1       3.581   9.885  -4.625  1.00  0.00     0.068 Cl
ATOM     22  N   UNL     1       4.256   8.479  -2.545  1.00  0.00    -0.118 N 
ATOM     23  N   UNL     1       4.564   7.228  -0.574  1.00  0.00    -0.173 NA
ATOM     24  C   UNL     1       4.391   5.951  -0.394  1.00  0.00     0.230 C 
ATOM     25  H   UNL     1       4.500   9.339  -2.131  1.00  0.00     0.464 HD
ENDBRANCH  13  14
ENDBRANCH  12  13
ENDBRANCH   5   7
ENDBRANCH   2   3
ENDBRANCH   1   2
BRANCH   1  26
ATOM     26  C   UNL     1      13.216   6.429  -2.661  1.00  0.00     0.118 C 
BRANCH  26  27
ATOM     27  N   UNL     1      13.449   6.563  -1.229  1.00  0.00    -0.352 N 
ATOM     28  C   UNL     1      14.416   5.999  -0.438  1.00  0.00     0.251 C 
ATOM     29  H   UNL     1      12.814   7.148  -0.757  1.00  0.00     0.163 HD
ATOM     30  O   UNL     1      14.310   6.067   0.784  1.00  0.00    -0.269 OA
BRANCH  28  31
ATOM     31  C   UNL     1      15.569   5.306  -1.051  1.00  0.00     0.039 A 
ATOM     32  C   UNL     1      16.091   4.178  -0.417  1.00  0.00     0.014 A 
ATOM     33  C   UNL     1      16.149   5.773  -2.233  1.00  0.00     0.014 A 
ATOM     34  C   UNL     1      17.169   3.505  -0.991  1.00  0.00     0.010 A 
ATOM     35  C   UNL     1      17.130   5.026  -2.871  1.00  0.00     0.010 A 
ATOM     36  C   UNL     1      17.680   3.906  -2.238  1.00  0.00    -0.014 A 
BRANCH  36  37
ATOM     37  C   UNL     1      18.811   3.180  -2.863  1.00  0.00     0.031 A 
ATOM     38  C   UNL     1      20.102   3.893  -3.164  1.00  0.00     0.074 A 
ATOM     39  C   UNL     1      18.665   1.881  -3.188  1.00  0.00     0.049 A 
ATOM     40  N   UNL     1      21.207   3.411  -3.671  1.00  0.00    -0.248 NA
ATOM     41  C   UNL     1      20.159   5.338  -2.881  1.00  0.00     0.031 C 
ATOM     42  C   UNL     1      17.437   1.100  -3.020  1.00  0.00     0.029 A 
ATOM     43  N   UNL     1      19.553   0.990  -3.733  1.00  0.00    -0.354 N 
ATOM     44  C   UNL     1      22.071   4.492  -3.798  1.00  0.00     0.074 A 
ATOM     45  C   UNL     1      21.350   5.664  -3.357  1.00  0.00     0.031 C 
ATOM     46  C   UNL     1      17.659  -0.160  -3.424  1.00  0.00     0.029 A 
ATOM     47  C   UNL     1      19.025  -0.265  -3.925  1.00  0.00     0.049 A 
ATOM     48  H   UNL     1      20.480   1.226  -3.966  1.00  0.00     0.167 HD
ATOM     49  C   UNL     1      23.357   4.507  -4.220  1.00  0.00     0.034 A 
ATOM     50  C   UNL     1      19.574  -1.373  -4.457  1.00  0.00     0.034 A 
ATOM     51  C   UNL     1      24.074   3.337  -4.648  1.00  0.00     0.049 A 
ATOM     52  C   UNL     1      21.007  -1.333  -4.908  1.00  0.00     0.074 A 
ATOM     53  C   UNL     1      25.402   3.232  -5.019  1.00  0.00     0.029 A 
ATOM     54  N   UNL     1      23.517   2.076  -4.795  1.00  0.00    -0.354 N 
ATOM     55  N   UNL     1      21.853  -0.333  -4.884  1.00  0.00    -0.248 NA
ATOM     56  C   UNL     1      21.571  -2.587  -5.425  1.00  0.00     0.031 C 
ATOM     57  C   UNL     1      25.631   1.924  -5.456  1.00  0.00     0.029 A 
ATOM     58  C   UNL     1      24.467   1.193  -5.279  1.00  0.00     0.049 A 
ATOM     59  H   UNL     1      22.584   1.843  -4.587  1.00  0.00     0.167 HD
ATOM     60  C   UNL     1      23.060  -0.845  -5.344  1.00  0.00     0.074 A 
ATOM     61  C   UNL     1      22.838  -2.250  -5.618  1.00  0.00     0.031 C 
ATOM     62  C   UNL     1      24.244  -0.209  -5.525  1.00  0.00     0.034 A 
BRANCH  49  63
ATOM     63  C   UNL     1      24.074   5.833  -4.238  1.00  0.00     0.023 A 
ATOM     64  C   UNL     1      24.378   6.496  -3.030  1.00  0.00     0.012 A 
ATOM     65  C   UNL     1      24.488   6.402  -5.458  1.00  0.00     0.148 A 
ATOM     66  C   UNL     1      25.039   7.724  -3.040  1.00  0.00     0.002 A 
ATOM     67  C   UNL     1      25.196   7.596  -5.457  1.00  0.00     0.091 A 
ATOM     68  F   UNL     1      24.174   5.768  -6.597  1.00  0.00    -0.205 F 
ATOM     69  C   UNL     1      25.458   8.267  -4.251  1.00  0.00     0.022 A 
BRANCH  67  70
ATOM     70  S   UNL     1      25.853   8.333  -6.956  1.00  0.00     0.127 S 
ATOM     71  O   UNL     1      25.057   9.556  -7.056  1.00  0.00    -0.237 OA
ATOM     72  O   UNL     1      27.256   8.545  -6.601  1.00  0.00    -0.237 OA
ATOM     73  O   UNL     1      25.631   7.360  -8.017  1.00  0.00    -0.744 OA
ENDBRANCH  67  70
ENDBRANCH  49  63
BRANCH  50  74
ATOM     74  C   UNL     1      18.769  -2.621  -4.569  1.00  0.00     0.023 A 
ATOM     75  C   UNL     1      19.095  -3.746  -3.787  1.00  0.00     0.012 A 
ATOM     76  C   UNL     1      17.669  -2.687  -5.444  1.00  0.00     0.148 A 
ATOM     77  C   UNL     1      18.363  -4.928  -3.906  1.00  0.00     0.002 A 
ATOM     78  C   UNL     1      16.907  -3.845  -5.513  1.00  0.00     0.091 A 
ATOM     79  F   UNL     1      17.379  -1.604  -6.180  1.00  0.00    -0.205 F 
ATOM     80  C   UNL     1      17.264  -4.974  -4.761  1.00  0.00     0.022 A 
BRANCH  78  81
ATOM     81  S   UNL     1      15.404  -3.951  -6.489  1.00  0.00     0.127 S 
ATOM     82  O   UNL     1      15.767  -4.956  -7.485  1.00  0.00    -0.237 OA
ATOM     83  O   UNL     1      14.432  -4.394  -5.489  1.00  0.00    -0.237 OA
ATOM     84  O   UNL     1      15.170  -2.610  -7.006  1.00  0.00    -0.744 OA
ENDBRANCH  78  81
ENDBRANCH  50  74
BRANCH  62  85
ATOM     85  C   UNL     1      25.417  -1.039  -5.983  1.00  0.00     0.023 A 
ATOM     86  C   UNL     1      25.442  -1.597  -7.277  1.00  0.00     0.012 A 
ATOM     87  C   UNL     1      26.520  -1.233  -5.127  1.00  0.00     0.148 A 
ATOM     88  C   UNL     1      26.518  -2.383  -7.688  1.00  0.00     0.002 A 
ATOM     89  C   UNL     1      27.615  -1.964  -5.566  1.00  0.00     0.091 A 
ATOM     90  F   UNL     1      26.474  -0.706  -3.895  1.00  0.00    -0.205 F 
ATOM     91  C   UNL     1      27.608  -2.557  -6.838  1.00  0.00     0.022 A 
BRANCH  89  92
ATOM     92  S   UNL     1      29.102  -2.155  -4.579  1.00  0.00     0.127 S 
ATOM     93  O   UNL     1      29.050  -3.576  -4.237  1.00  0.00    -0.237 OA
ATOM     94  O   UNL     1      30.152  -1.794  -5.532  1.00  0.00    -0.237 OA
ATOM     95  O   UNL     1      28.963  -1.239  -3.455  1.00  0.00    -0.744 OA
ENDBRANCH  89  92
ENDBRANCH  62  85
ENDBRANCH  36  37
ENDBRANCH  28  31
ENDBRANCH  26  27
ENDBRANCH   1  26
TORSDOF 15
