REMARK SMILES COc1ncnc(N2CCCC[C@H]2CC(=O)NCCCNC(=O)c2ccc(-c3c4nc(c(-c5cccc(S(=O)(=O)[O-])c5F)c5ccc([nH]5)c(-c5cccc(S(=O)(=O)[O-])c5F)c5nc(c(-c6cccc(S(=O)(=O)[O-])c6F)c6ccc3[nH]6)C=C5)C=C4)cc2)c1[N+](=O)[O-]
REMARK SMILES IDX 19 1 18 2 17 3 15 4 16 5 14 7 13 8 8 9 9 10 10 11 12 12
REMARK SMILES IDX 11 13 7 14 3 15 4 16 87 17 5 18 6 19 2 20 1 21 88 22 89 23
REMARK SMILES IDX 90 24 20 25 21 26 22 27 23 29 24 30 25 31 86 32 26 33 85 34
REMARK SMILES IDX 27 35 28 36 29 37 79 38 30 39 84 40 78 41 80 42 31 43 83 44
REMARK SMILES IDX 77 45 76 46 32 48 64 49 44 50 63 51 45 52 48 53 62 54 81 55
REMARK SMILES IDX 46 56 47 57 61 59 82 60 49 61 33 62 34 63 42 64 35 65 37 66
REMARK SMILES IDX 43 67 36 68 38 69 39 70 40 71 41 72 65 73 66 74 74 75 67 76
REMARK SMILES IDX 69 77 75 78 68 79 70 80 71 81 72 82 73 83 50 84 51 85 59 86
REMARK SMILES IDX 52 87 54 88 60 89 53 90 55 91 56 92 57 93 58 94
REMARK H PARENT 17 6 21 28 80 47 48 58
REMARK Flexibility Score: inf
ROOT
ATOM      1  C   UNL     1       8.378   4.128  -5.432  1.00  0.00     0.042 C 
ENDROOT
BRANCH   1   2
ATOM      2  C   UNL     1       8.718   3.328  -4.173  1.00  0.00     0.117 C 
BRANCH   2   3
ATOM      3  N   UNL     1       8.167   3.880  -2.946  1.00  0.00    -0.356 N 
ATOM      4  C   UNL     1       7.149   3.488  -2.134  1.00  0.00     0.222 C 
ATOM      5  O   UNL     1       6.986   4.138  -1.100  1.00  0.00    -0.275 OA
ATOM      6  H   UNL     1       8.621   4.699  -2.643  1.00  0.00     0.163 HD
BRANCH   4   7
ATOM      7  C   UNL     1       6.291   2.284  -2.456  1.00  0.00     0.125 C 
BRANCH   7   8
ATOM      8  C   UNL     1       4.941   2.490  -3.172  1.00  0.00     0.093 C 
ATOM      9  N   UNL     1       3.885   3.036  -2.298  1.00  0.00    -0.347 N 
ATOM     10  C   UNL     1       3.873   4.492  -2.077  1.00  0.00     0.118 C 
ATOM     11  C   UNL     1       3.916   5.274  -3.388  1.00  0.00     0.022 C 
ATOM     12  C   UNL     1       4.967   3.270  -4.487  1.00  0.00     0.026 C 
ATOM     13  C   UNL     1       5.031   4.784  -4.303  1.00  0.00     0.004 C 
BRANCH   9  14
ATOM     14  C   UNL     1       2.621   2.446  -2.400  1.00  0.00     0.215 A 
ATOM     15  C   UNL     1       1.014   0.787  -1.905  1.00  0.00     0.299 A 
ATOM     16  N   UNL     1       0.028   1.479  -2.502  1.00  0.00    -0.196 NA
ATOM     17  C   UNL     1       2.325   1.201  -1.889  1.00  0.00     0.372 A 
ATOM     18  C   UNL     1       0.405   2.639  -3.049  1.00  0.00     0.228 A 
ATOM     19  N   UNL     1       1.639   3.165  -2.988  1.00  0.00    -0.212 NA
BRANCH  15  20
ATOM     20  O   UNL     1       0.613  -0.361  -1.268  1.00  0.00    -0.476 OA
ATOM     21  C   UNL     1       0.266  -0.039   0.082  1.00  0.00     0.280 C 
ENDBRANCH  15  20
BRANCH  17  22
ATOM     22  N   UNL     1       3.315   0.374  -1.289  1.00  0.00     0.072 N 
ATOM     23  O   UNL     1       3.662   0.638  -0.130  1.00  0.00    -0.258 OA
ATOM     24  O   UNL     1       3.740  -0.575  -1.965  1.00  0.00    -0.258 OA
ENDBRANCH  17  22
ENDBRANCH   9  14
ENDBRANCH   7   8
ENDBRANCH   4   7
ENDBRANCH   2   3
ENDBRANCH   1   2
BRANCH   1  25
ATOM     25  C   UNL     1       8.508   5.643  -5.315  1.00  0.00     0.118 C 
BRANCH  25  26
ATOM     26  N   UNL     1       9.871   6.083  -5.538  1.00  0.00    -0.352 N 
ATOM     27  C   UNL     1      10.368   6.832  -6.576  1.00  0.00     0.251 C 
ATOM     28  H   UNL     1      10.526   5.809  -4.856  1.00  0.00     0.163 HD
ATOM     29  O   UNL     1      11.584   6.876  -6.755  1.00  0.00    -0.269 OA
BRANCH  27  30
ATOM     30  C   UNL     1       9.459   7.580  -7.479  1.00  0.00     0.039 A 
ATOM     31  C   UNL     1       9.735   7.593  -8.850  1.00  0.00     0.014 A 
ATOM     32  C   UNL     1       8.390   8.333  -6.981  1.00  0.00     0.014 A 
ATOM     33  C   UNL     1       8.940   8.349  -9.718  1.00  0.00     0.010 A 
ATOM     34  C   UNL     1       7.561   9.039  -7.856  1.00  0.00     0.010 A 
ATOM     35  C   UNL     1       7.845   9.080  -9.229  1.00  0.00    -0.014 A 
BRANCH  35  36
ATOM     36  C   UNL     1       7.028   9.931 -10.137  1.00  0.00     0.031 A 
ATOM     37  C   UNL     1       7.037  11.431  -9.982  1.00  0.00     0.074 A 
ATOM     38  C   UNL     1       6.246   9.363 -11.076  1.00  0.00     0.049 A 
ATOM     39  N   UNL     1       6.387  12.336 -10.668  1.00  0.00    -0.248 NA
ATOM     40  C   UNL     1       7.869  11.986  -8.902  1.00  0.00     0.031 C 
ATOM     41  C   UNL     1       6.096   7.923 -11.292  1.00  0.00     0.029 A 
ATOM     42  N   UNL     1       5.413   9.928 -12.010  1.00  0.00    -0.354 N 
ATOM     43  C   UNL     1       6.704  13.559 -10.087  1.00  0.00     0.074 A 
ATOM     44  C   UNL     1       7.580  13.277  -8.970  1.00  0.00     0.031 C 
ATOM     45  C   UNL     1       5.225   7.718 -12.294  1.00  0.00     0.029 A 
ATOM     46  C   UNL     1       4.739   9.008 -12.778  1.00  0.00     0.049 A 
ATOM     47  H   UNL     1       5.307  10.901 -12.119  1.00  0.00     0.167 HD
ATOM     48  C   UNL     1       6.330  14.805 -10.463  1.00  0.00     0.034 A 
ATOM     49  C   UNL     1       3.832   9.181 -13.761  1.00  0.00     0.034 A 
ATOM     50  C   UNL     1       5.499  15.091 -11.601  1.00  0.00     0.049 A 
ATOM     51  C   UNL     1       3.463  10.578 -14.186  1.00  0.00     0.074 A 
ATOM     52  C   UNL     1       5.130  16.325 -12.109  1.00  0.00     0.029 A 
ATOM     53  N   UNL     1       4.903  14.133 -12.406  1.00  0.00    -0.354 N 
ATOM     54  N   UNL     1       3.898  11.724 -13.722  1.00  0.00    -0.248 NA
ATOM     55  C   UNL     1       2.509  10.705 -15.298  1.00  0.00     0.031 C 
ATOM     56  C   UNL     1       4.297  16.112 -13.213  1.00  0.00     0.029 A 
ATOM     57  C   UNL     1       4.165  14.747 -13.405  1.00  0.00     0.049 A 
ATOM     58  H   UNL     1       4.991  13.160 -12.286  1.00  0.00     0.167 HD
ATOM     59  C   UNL     1       3.304  12.705 -14.509  1.00  0.00     0.074 A 
ATOM     60  C   UNL     1       2.493  12.017 -15.492  1.00  0.00     0.031 C 
ATOM     61  C   UNL     1       3.411  14.053 -14.417  1.00  0.00     0.034 A 
BRANCH  48  62
ATOM     62  C   UNL     1       6.867  15.968  -9.668  1.00  0.00     0.023 A 
ATOM     63  C   UNL     1       8.228  16.318  -9.786  1.00  0.00     0.012 A 
ATOM     64  C   UNL     1       6.021  16.750  -8.858  1.00  0.00     0.148 A 
ATOM     65  C   UNL     1       8.747  17.406  -9.084  1.00  0.00     0.002 A 
ATOM     66  C   UNL     1       6.536  17.859  -8.195  1.00  0.00     0.091 A 
ATOM     67  F   UNL     1       4.735  16.392  -8.742  1.00  0.00    -0.205 F 
ATOM     68  C   UNL     1       7.899  18.181  -8.298  1.00  0.00     0.022 A 
BRANCH  66  69
ATOM     69  S   UNL     1       5.510  18.968  -7.221  1.00  0.00     0.127 S 
ATOM     70  O   UNL     1       5.926  18.634  -5.860  1.00  0.00    -0.237 OA
ATOM     71  O   UNL     1       5.949  20.284  -7.687  1.00  0.00    -0.237 OA
ATOM     72  O   UNL     1       4.133  18.635  -7.555  1.00  0.00    -0.744 OA
ENDBRANCH  66  69
ENDBRANCH  48  62
BRANCH  49  73
ATOM     73  C   UNL     1       3.262   7.996 -14.463  1.00  0.00     0.023 A 
ATOM     74  C   UNL     1       3.630   7.741 -15.799  1.00  0.00     0.012 A 
ATOM     75  C   UNL     1       2.383   7.110 -13.812  1.00  0.00     0.148 A 
ATOM     76  C   UNL     1       3.107   6.643 -16.484  1.00  0.00     0.002 A 
ATOM     77  C   UNL     1       1.909   5.987 -14.483  1.00  0.00     0.091 A 
ATOM     78  F   UNL     1       2.033   7.377 -12.546  1.00  0.00    -0.205 F 
ATOM     79  C   UNL     1       2.256   5.762 -15.824  1.00  0.00     0.022 A 
BRANCH  77  80
ATOM     80  S   UNL     1       0.918   4.731 -13.668  1.00  0.00     0.127 S 
ATOM     81  O   UNL     1      -0.399   4.959 -14.259  1.00  0.00    -0.237 OA
ATOM     82  O   UNL     1       1.580   3.497 -14.097  1.00  0.00    -0.237 OA
ATOM     83  O   UNL     1       1.030   5.005 -12.244  1.00  0.00    -0.744 OA
ENDBRANCH  77  80
ENDBRANCH  49  73
BRANCH  61  84
ATOM     84  C   UNL     1       2.667  14.888 -15.427  1.00  0.00     0.023 A 
ATOM     85  C   UNL     1       1.266  15.006 -15.345  1.00  0.00     0.012 A 
ATOM     86  C   UNL     1       3.366  15.618 -16.410  1.00  0.00     0.148 A 
ATOM     87  C   UNL     1       0.569  15.813 -16.244  1.00  0.00     0.002 A 
ATOM     88  C   UNL     1       2.670  16.457 -17.271  1.00  0.00     0.091 A 
ATOM     89  F   UNL     1       4.698  15.477 -16.485  1.00  0.00    -0.205 F 
ATOM     90  C   UNL     1       1.270  16.547 -17.198  1.00  0.00     0.022 A 
BRANCH  88  91
ATOM     91  S   UNL     1       3.500  17.511 -18.467  1.00  0.00     0.127 S 
ATOM     92  O   UNL     1       3.216  16.818 -19.723  1.00  0.00    -0.237 OA
ATOM     93  O   UNL     1       2.798  18.784 -18.301  1.00  0.00    -0.237 OA
ATOM     94  O   UNL     1       4.901  17.539 -18.069  1.00  0.00    -0.744 OA
ENDBRANCH  88  91
ENDBRANCH  61  84
ENDBRANCH  35  36
ENDBRANCH  27  30
ENDBRANCH  25  26
ENDBRANCH   1  25
TORSDOF 17
