REMARK SMILES CC(=O)N1CC2(CC[NH+](C3Cc4ccccc4C3)CC2)C[C@H]1C(=O)NCCCNC(=O)c1ccc(-c2c3nc(c(-c4cccc(S(=O)(=O)[O-])c4F)c4ccc([nH]4)c(-c4cccc(S(=O)(=O)[O-])c4F)c4nc(c(-c5cccc(S(=O)(=O)[O-])c5F)c5ccc2[nH]5)C=C4)C=C3)cc1
REMARK SMILES IDX 28 1 27 2 26 3 25 4 23 5 24 6 22 8 4 9 5 10 6 11 21 12 7 13
REMARK SMILES IDX 20 14 8 15 19 16 9 17 2 19 1 20 3 21 10 22 11 23 18 24 12 25
REMARK SMILES IDX 17 26 13 27 16 28 14 29 15 30 29 31 30 32 31 34 32 35 33 36
REMARK SMILES IDX 94 37 34 38 93 39 35 40 36 41 37 42 87 43 38 44 92 45 86 46
REMARK SMILES IDX 88 47 39 48 91 49 85 50 84 51 40 53 72 54 52 55 71 56 53 57
REMARK SMILES IDX 56 58 70 59 89 60 54 61 55 62 69 64 90 65 57 66 41 67 42 68
REMARK SMILES IDX 50 69 43 70 45 71 51 72 44 73 46 74 47 75 48 76 49 77 73 78
REMARK SMILES IDX 74 79 82 80 75 81 77 82 83 83 76 84 78 85 79 86 80 87 81 88
REMARK SMILES IDX 58 89 59 90 67 91 60 92 62 93 68 94 61 95 63 96 64 97 65 98
REMARK SMILES IDX 66 99
REMARK H PARENT 25 7 9 18 29 33 88 52 56 63
REMARK Flexibility Score: inf
ROOT
ATOM      1  C   UNL     1       3.660   6.597   0.406  1.00  0.00     0.118 C 
ENDROOT
BRANCH   1   2
ATOM      2  C   UNL     1       2.985   5.280   0.748  1.00  0.00     0.042 C 
BRANCH   2   3
ATOM      3  C   UNL     1       1.782   5.455   1.654  1.00  0.00     0.117 C 
BRANCH   3   4
ATOM      4  N   UNL     1       0.497   5.282   1.041  1.00  0.00    -0.354 N 
ATOM      5  C   UNL     1      -0.451   4.371   1.429  1.00  0.00     0.242 C 
ATOM      6  O   UNL     1      -1.625   4.762   1.397  1.00  0.00    -0.273 OA
ATOM      7  H   UNL     1       0.279   5.864   0.279  1.00  0.00     0.163 HD
BRANCH   5   8
ATOM      8  C   UNL     1      -0.097   2.981   2.054  1.00  0.00     0.175 C 
ATOM      9  N   UNL     1       0.911   2.179   1.378  1.00  0.00    -0.330 N 
ATOM     10  C   UNL     1       2.132   2.016   2.155  1.00  0.00     0.127 C 
ATOM     11  C   UNL     1       1.763   2.342   3.620  1.00  0.00     0.001 C 
ATOM     12  C   UNL     1       0.336   2.984   3.525  1.00  0.00     0.044 C 
ATOM     13  C   UNL     1       2.752   3.333   4.297  1.00  0.00     0.070 C 
ATOM     14  C   UNL     1       1.730   1.004   4.418  1.00  0.00     0.070 C 
ATOM     15  C   UNL     1       4.083   2.708   4.668  1.00  0.00     0.263 C 
ATOM     16  C   UNL     1       3.106   0.553   4.957  1.00  0.00     0.263 C 
ATOM     17  N   UNL     1       3.915   1.600   5.593  1.00  0.00    -0.332 N 
ATOM     18  H   UNL     1       4.846   1.219   5.766  1.00  0.00     0.348 HD
BRANCH   9  19
ATOM     19  C   UNL     1       0.548   1.500   0.232  1.00  0.00     0.220 C 
ATOM     20  C   UNL     1       1.439   0.372  -0.211  1.00  0.00     0.114 C 
ATOM     21  O   UNL     1      -0.504   1.736  -0.363  1.00  0.00    -0.275 OA
ENDBRANCH   9  19
BRANCH  17  22
ATOM     22  C   UNL     1       3.562   1.936   6.993  1.00  0.00     0.192 C 
ATOM     23  C   UNL     1       4.292   3.159   7.645  1.00  0.00     0.101 C 
ATOM     24  C   UNL     1       2.061   2.079   7.370  1.00  0.00     0.101 C 
ATOM     25  C   UNL     1       3.307   3.651   8.663  1.00  0.00    -0.039 A 
ATOM     26  C   UNL     1       2.061   3.053   8.500  1.00  0.00    -0.039 A 
ATOM     27  C   UNL     1       3.486   4.665   9.592  1.00  0.00     0.004 A 
ATOM     28  C   UNL     1       0.961   3.458   9.239  1.00  0.00     0.004 A 
ATOM     29  C   UNL     1       2.386   5.076  10.350  1.00  0.00     0.000 A 
ATOM     30  C   UNL     1       1.129   4.480  10.171  1.00  0.00     0.000 A 
ENDBRANCH  17  22
ENDBRANCH   5   8
ENDBRANCH   3   4
ENDBRANCH   2   3
ENDBRANCH   1   2
BRANCH   1  31
ATOM     31  N   UNL     1       4.253   7.260   1.570  1.00  0.00    -0.352 N 
ATOM     32  C   UNL     1       5.507   7.808   1.743  1.00  0.00     0.251 C 
ATOM     33  H   UNL     1       3.661   7.325   2.354  1.00  0.00     0.163 HD
ATOM     34  O   UNL     1       5.835   8.228   2.842  1.00  0.00    -0.269 OA
BRANCH  32  35
ATOM     35  C   UNL     1       6.462   7.849   0.610  1.00  0.00     0.039 A 
ATOM     36  C   UNL     1       7.813   7.579   0.847  1.00  0.00     0.014 A 
ATOM     37  C   UNL     1       6.024   8.120  -0.685  1.00  0.00     0.014 A 
ATOM     38  C   UNL     1       8.700   7.489  -0.230  1.00  0.00     0.010 A 
ATOM     39  C   UNL     1       6.876   7.908  -1.759  1.00  0.00     0.010 A 
ATOM     40  C   UNL     1       8.227   7.603  -1.546  1.00  0.00    -0.014 A 
BRANCH  40  41
ATOM     41  C   UNL     1       9.113   7.422  -2.725  1.00  0.00     0.031 A 
ATOM     42  C   UNL     1       9.249   8.534  -3.733  1.00  0.00     0.074 A 
ATOM     43  C   UNL     1       9.695   6.226  -2.951  1.00  0.00     0.049 A 
ATOM     44  N   UNL     1       9.860   8.532  -4.888  1.00  0.00    -0.248 NA
ATOM     45  C   UNL     1       8.570   9.805  -3.420  1.00  0.00     0.031 C 
ATOM     46  C   UNL     1       9.564   5.042  -2.097  1.00  0.00     0.029 A 
ATOM     47  N   UNL     1      10.489   5.799  -3.985  1.00  0.00    -0.354 N 
ATOM     48  C   UNL     1       9.603   9.775  -5.455  1.00  0.00     0.074 A 
ATOM     49  C   UNL     1       8.736  10.487  -4.543  1.00  0.00     0.031 C 
ATOM     50  C   UNL     1      10.260   4.029  -2.638  1.00  0.00     0.029 A 
ATOM     51  C   UNL     1      10.858   4.477  -3.890  1.00  0.00     0.049 A 
ATOM     52  H   UNL     1      10.768   6.384  -4.726  1.00  0.00     0.167 HD
ATOM     53  C   UNL     1      10.080  10.299  -6.609  1.00  0.00     0.034 A 
ATOM     54  C   UNL     1      11.591   3.712  -4.723  1.00  0.00     0.034 A 
ATOM     55  C   UNL     1      10.994   9.613  -7.479  1.00  0.00     0.049 A 
ATOM     56  C   UNL     1      12.158   4.337  -5.970  1.00  0.00     0.074 A 
ATOM     57  C   UNL     1      11.603  10.079  -8.629  1.00  0.00     0.029 A 
ATOM     58  N   UNL     1      11.437   8.313  -7.287  1.00  0.00    -0.354 N 
ATOM     59  N   UNL     1      12.023   5.564  -6.413  1.00  0.00    -0.248 NA
ATOM     60  C   UNL     1      13.008   3.484  -6.814  1.00  0.00     0.031 C 
ATOM     61  C   UNL     1      12.411   9.057  -9.138  1.00  0.00     0.029 A 
ATOM     62  C   UNL     1      12.318   7.962  -8.294  1.00  0.00     0.049 A 
ATOM     63  H   UNL     1      11.166   7.727  -6.544  1.00  0.00     0.167 HD
ATOM     64  C   UNL     1      12.802   5.642  -7.562  1.00  0.00     0.074 A 
ATOM     65  C   UNL     1      13.422   4.345  -7.734  1.00  0.00     0.031 C 
ATOM     66  C   UNL     1      12.975   6.686  -8.409  1.00  0.00     0.034 A 
BRANCH  53  67
ATOM     67  C   UNL     1       9.684  11.712  -6.950  1.00  0.00     0.023 A 
ATOM     68  C   UNL     1      10.201  12.778  -6.184  1.00  0.00     0.012 A 
ATOM     69  C   UNL     1       8.845  11.994  -8.046  1.00  0.00     0.148 A 
ATOM     70  C   UNL     1       9.859  14.098  -6.476  1.00  0.00     0.002 A 
ATOM     71  C   UNL     1       8.546  13.316  -8.360  1.00  0.00     0.091 A 
ATOM     72  F   UNL     1       8.346  10.969  -8.751  1.00  0.00    -0.205 F 
ATOM     73  C   UNL     1       9.041  14.366  -7.569  1.00  0.00     0.022 A 
BRANCH  71  74
ATOM     74  S   UNL     1       7.567  13.776  -9.794  1.00  0.00     0.127 S 
ATOM     75  O   UNL     1       6.337  14.259  -9.167  1.00  0.00    -0.237 OA
ATOM     76  O   UNL     1       8.390  14.820 -10.406  1.00  0.00    -0.237 OA
ATOM     77  O   UNL     1       7.428  12.566 -10.591  1.00  0.00    -0.744 OA
ENDBRANCH  71  74
ENDBRANCH  53  67
BRANCH  54  78
ATOM     78  C   UNL     1      11.898   2.296  -4.370  1.00  0.00     0.023 A 
ATOM     79  C   UNL     1      13.218   1.943  -4.024  1.00  0.00     0.012 A 
ATOM     80  C   UNL     1      10.900   1.303  -4.357  1.00  0.00     0.148 A 
ATOM     81  C   UNL     1      13.546   0.623  -3.713  1.00  0.00     0.002 A 
ATOM     82  C   UNL     1      11.222   0.000  -3.991  1.00  0.00     0.091 A 
ATOM     83  F   UNL     1       9.651   1.651  -4.700  1.00  0.00    -0.205 F 
ATOM     84  C   UNL     1      12.547  -0.346  -3.688  1.00  0.00     0.022 A 
BRANCH  82  85
ATOM     85  S   UNL     1       9.973  -1.277  -3.800  1.00  0.00     0.127 S 
ATOM     86  O   UNL     1      10.174  -2.077  -5.005  1.00  0.00    -0.237 OA
ATOM     87  O   UNL     1      10.384  -1.925  -2.554  1.00  0.00    -0.237 OA
ATOM     88  O   UNL     1       8.704  -0.567  -3.710  1.00  0.00    -0.744 OA
ENDBRANCH  82  85
ENDBRANCH  54  78
BRANCH  66  89
ATOM     89  C   UNL     1      13.905   6.490  -9.576  1.00  0.00     0.023 A 
ATOM     90  C   UNL     1      13.502   5.694 -10.666  1.00  0.00     0.012 A 
ATOM     91  C   UNL     1      15.143   7.160  -9.626  1.00  0.00     0.148 A 
ATOM     92  C   UNL     1      14.332   5.543 -11.776  1.00  0.00     0.002 A 
ATOM     93  C   UNL     1      15.942   7.044 -10.756  1.00  0.00     0.091 A 
ATOM     94  F   UNL     1      15.514   7.898  -8.570  1.00  0.00    -0.205 F 
ATOM     95  C   UNL     1      15.544   6.227 -11.826  1.00  0.00     0.022 A 
BRANCH  93  96
ATOM     96  S   UNL     1      17.472   7.965 -10.950  1.00  0.00     0.127 S 
ATOM     97  O   UNL     1      18.475   6.914 -10.783  1.00  0.00    -0.237 OA
ATOM     98  O   UNL     1      17.353   8.483 -12.313  1.00  0.00    -0.237 OA
ATOM     99  O   UNL     1      17.459   8.988  -9.913  1.00  0.00    -0.744 OA
ENDBRANCH  93  96
ENDBRANCH  66  89
ENDBRANCH  40  41
ENDBRANCH  32  35
ENDBRANCH   1  31
TORSDOF 15
