REMARK SMILES C[C@@H](C(=O)NCCCNC(=O)c1ccc(-c2c3nc(c(-c4cccc(S(=O)(=O)[O-])c4F)c4ccc([nH]4)c(-c4cccc(S(=O)(=O)[O-])c4F)c4nc(c(-c5cccc(S(=O)(=O)[O-])c5F)c5ccc2[nH]5)C=C4)C=C3)cc1)n1ccc(C(=O)NC2CCCCCCC2)n1
REMARK SMILES IDX 3 1 4 2 5 3 2 5 1 6 75 7 76 8 90 9 77 10 78 11 79 12 80 13
REMARK SMILES IDX 81 14 82 16 83 17 84 18 85 19 89 21 88 22 87 23 86 24 6 26
REMARK SMILES IDX 7 27 8 28 9 29 10 30 11 32 12 33 13 34 74 35 14 36 73 37
REMARK SMILES IDX 15 38 16 39 17 40 67 41 18 42 72 43 66 44 68 45 19 46 71 47
REMARK SMILES IDX 65 48 64 49 20 51 52 52 32 53 51 54 33 55 36 56 50 57 69 58
REMARK SMILES IDX 34 59 35 60 49 62 70 63 37 64 21 65 22 66 30 67 23 68 25 69
REMARK SMILES IDX 31 70 24 71 26 72 27 73 28 74 29 75 53 76 54 77 62 78 55 79
REMARK SMILES IDX 57 80 63 81 56 82 58 83 59 84 60 85 61 86 38 87 39 88 47 89
REMARK SMILES IDX 40 90 42 91 48 92 41 93 43 94 44 95 45 96 46 97
REMARK H PARENT 5 4 81 15 9 31 68 50 36 61
REMARK Flexibility Score: 80.00
ROOT
ATOM      1  C   UNL     1       1.044  -0.155   2.352  1.00  0.00     0.244 C 
ATOM      2  O   UNL     1       0.349   0.328   3.249  1.00  0.00    -0.273 OA
ATOM      3  N   UNL     1       2.389  -0.160   2.595  1.00  0.00    -0.354 N 
ATOM      4  H   UNL     1       2.657   0.286   3.431  1.00  0.00     0.163 HD
ENDROOT
BRANCH   1   5
ATOM      5  C   UNL     1       0.478  -0.803   1.081  1.00  0.00     0.193 C 
ATOM      6  C   UNL     1       0.929  -0.131  -0.216  1.00  0.00     0.044 C 
BRANCH   5   7
ATOM      7  N   UNL     1      -0.986  -0.830   1.141  1.00  0.00    -0.260 N 
ATOM      8  C   UNL     1      -1.797  -1.916   1.293  1.00  0.00     0.110 A 
ATOM      9  N   UNL     1      -1.670   0.309   0.966  1.00  0.00    -0.167 NA
ATOM     10  C   UNL     1      -3.078  -1.413   1.354  1.00  0.00     0.056 A 
ATOM     11  C   UNL     1      -2.952  -0.001   1.207  1.00  0.00     0.150 A 
BRANCH  11  12
ATOM     12  C   UNL     1      -4.047   0.989   1.268  1.00  0.00     0.271 C 
ATOM     13  O   UNL     1      -5.227   0.632   1.325  1.00  0.00    -0.267 OA
ATOM     14  N   UNL     1      -3.791   2.348   1.284  1.00  0.00    -0.348 N 
ATOM     15  H   UNL     1      -4.588   2.923   1.338  1.00  0.00     0.164 HD
BRANCH  14  16
ATOM     16  C   UNL     1      -2.506   3.066   1.233  1.00  0.00     0.082 C 
BRANCH  16  17
ATOM     17  C   UNL     1      -2.063   3.200  -0.232  1.00  0.00     0.025 C 
BRANCH  17  18
ATOM     18  C   UNL     1      -0.632   3.685  -0.440  1.00  0.00     0.002 C 
BRANCH  18  19
ATOM     19  C   UNL     1      -0.305   5.127  -0.062  1.00  0.00     0.000 CG0
ATOM     20  G   UNL     1      -1.368   6.156  -0.441  1.00  0.00     0.000 G0
ENDBRANCH  18  19
ENDBRANCH  17  18
ENDBRANCH  16  17
BRANCH  16  21
ATOM     21  C   UNL     1      -2.617   4.390   2.014  1.00  0.00     0.025 C 
BRANCH  21  22
ATOM     22  C   UNL     1      -3.258   5.561   1.265  1.00  0.00     0.002 C 
BRANCH  22  23
ATOM     23  C   UNL     1      -2.266   6.594   0.719  1.00  0.00     0.000 C 
BRANCH  23  24
ATOM     24  C   UNL     1      -1.368   6.156  -0.441  1.00  0.00     0.000 CG0
ATOM     25  G   UNL     1      -0.305   5.127  -0.062  1.00  0.00     0.000 G0
ENDBRANCH  23  24
ENDBRANCH  22  23
ENDBRANCH  21  22
ENDBRANCH  16  21
ENDBRANCH  14  16
ENDBRANCH  11  12
ENDBRANCH   5   7
ENDBRANCH   1   5
BRANCH   3  26
ATOM     26  C   UNL     1       3.485  -0.714   1.827  1.00  0.00     0.117 C 
BRANCH  26  27
ATOM     27  C   UNL     1       4.328   0.378   1.177  1.00  0.00     0.042 C 
BRANCH  27  28
ATOM     28  C   UNL     1       5.078   1.255   2.175  1.00  0.00     0.118 C 
BRANCH  28  29
ATOM     29  N   UNL     1       6.075   0.512   2.936  1.00  0.00    -0.352 N 
ATOM     30  C   UNL     1       7.432   0.710   3.027  1.00  0.00     0.251 C 
ATOM     31  H   UNL     1       5.725  -0.244   3.461  1.00  0.00     0.163 HD
ATOM     32  O   UNL     1       8.136  -0.138   3.569  1.00  0.00    -0.269 OA
BRANCH  30  33
ATOM     33  C   UNL     1       8.040   1.933   2.464  1.00  0.00     0.039 A 
ATOM     34  C   UNL     1       9.214   1.830   1.713  1.00  0.00     0.014 A 
ATOM     35  C   UNL     1       7.452   3.181   2.683  1.00  0.00     0.014 A 
ATOM     36  C   UNL     1       9.764   2.973   1.125  1.00  0.00     0.010 A 
ATOM     37  C   UNL     1       7.954   4.302   2.033  1.00  0.00     0.010 A 
ATOM     38  C   UNL     1       9.119   4.213   1.254  1.00  0.00    -0.014 A 
BRANCH  38  39
ATOM     39  C   UNL     1       9.633   5.445   0.605  1.00  0.00     0.031 A 
ATOM     40  C   UNL     1      10.031   6.620   1.454  1.00  0.00     0.074 A 
ATOM     41  C   UNL     1       9.612   5.558  -0.737  1.00  0.00     0.049 A 
ATOM     42  N   UNL     1      10.329   7.840   1.092  1.00  0.00    -0.248 NA
ATOM     43  C   UNL     1      10.057   6.402   2.910  1.00  0.00     0.031 C 
ATOM     44  C   UNL     1       9.188   4.510  -1.668  1.00  0.00     0.029 A 
ATOM     45  N   UNL     1       9.910   6.624  -1.549  1.00  0.00    -0.354 N 
ATOM     46  C   UNL     1      10.524   8.547   2.272  1.00  0.00     0.074 A 
ATOM     47  C   UNL     1      10.282   7.626   3.362  1.00  0.00     0.031 C 
ATOM     48  C   UNL     1       9.235   4.991  -2.920  1.00  0.00     0.029 A 
ATOM     49  C   UNL     1       9.651   6.390  -2.880  1.00  0.00     0.049 A 
ATOM     50  H   UNL     1      10.273   7.475  -1.212  1.00  0.00     0.167 HD
ATOM     51  C   UNL     1      10.893   9.840   2.437  1.00  0.00     0.034 A 
ATOM     52  C   UNL     1       9.713   7.215  -3.944  1.00  0.00     0.034 A 
ATOM     53  C   UNL     1      11.173  10.737   1.349  1.00  0.00     0.049 A 
ATOM     54  C   UNL     1      10.161   8.637  -3.745  1.00  0.00     0.074 A 
ATOM     55  C   UNL     1      11.638  12.038   1.405  1.00  0.00     0.029 A 
ATOM     56  N   UNL     1      11.005  10.428   0.008  1.00  0.00    -0.354 N 
ATOM     57  N   UNL     1      10.473   9.253  -2.631  1.00  0.00    -0.248 NA
ATOM     58  C   UNL     1      10.300   9.469  -4.949  1.00  0.00     0.031 C 
ATOM     59  C   UNL     1      11.725  12.526   0.098  1.00  0.00     0.029 A 
ATOM     60  C   UNL     1      11.351  11.516  -0.775  1.00  0.00     0.049 A 
ATOM     61  H   UNL     1      10.687   9.563  -0.337  1.00  0.00     0.167 HD
ATOM     62  C   UNL     1      10.888  10.527  -3.001  1.00  0.00     0.074 A 
ATOM     63  C   UNL     1      10.790  10.594  -4.445  1.00  0.00     0.031 C 
ATOM     64  C   UNL     1      11.308  11.549  -2.215  1.00  0.00     0.034 A 
BRANCH  51  65
ATOM     65  C   UNL     1      11.046  10.346   3.848  1.00  0.00     0.023 A 
ATOM     66  C   UNL     1      12.100   9.867   4.654  1.00  0.00     0.012 A 
ATOM     67  C   UNL     1      10.164  11.312   4.370  1.00  0.00     0.148 A 
ATOM     68  C   UNL     1      12.242  10.299   5.972  1.00  0.00     0.002 A 
ATOM     69  C   UNL     1      10.344  11.778   5.668  1.00  0.00     0.091 A 
ATOM     70  F   UNL     1       9.155  11.743   3.600  1.00  0.00    -0.205 F 
ATOM     71  C   UNL     1      11.370  11.261   6.475  1.00  0.00     0.022 A 
BRANCH  69  72
ATOM     72  S   UNL     1       9.325  13.077   6.375  1.00  0.00     0.127 S 
ATOM     73  O   UNL     1       8.473  12.320   7.290  1.00  0.00    -0.237 OA
ATOM     74  O   UNL     1      10.319  13.927   7.031  1.00  0.00    -0.237 OA
ATOM     75  O   UNL     1       8.642  13.704   5.252  1.00  0.00    -0.744 OA
ENDBRANCH  69  72
ENDBRANCH  51  65
BRANCH  52  76
ATOM     76  C   UNL     1       9.392   6.688  -5.301  1.00  0.00     0.023 A 
ATOM     77  C   UNL     1      10.432   6.486  -6.228  1.00  0.00     0.012 A 
ATOM     78  C   UNL     1       8.076   6.329  -5.653  1.00  0.00     0.148 A 
ATOM     79  C   UNL     1      10.165   5.958  -7.491  1.00  0.00     0.002 A 
ATOM     80  C   UNL     1       7.825   5.752  -6.892  1.00  0.00     0.091 A 
ATOM     81  F   UNL     1       7.101   6.533  -4.755  1.00  0.00    -0.205 F 
ATOM     82  C   UNL     1       8.865   5.581  -7.819  1.00  0.00     0.022 A 
BRANCH  80  83
ATOM     83  S   UNL     1       6.212   5.109  -7.352  1.00  0.00     0.127 S 
ATOM     84  O   UNL     1       5.838   5.997  -8.451  1.00  0.00    -0.237 OA
ATOM     85  O   UNL     1       6.538   3.739  -7.748  1.00  0.00    -0.237 OA
ATOM     86  O   UNL     1       5.388   5.210  -6.155  1.00  0.00    -0.744 OA
ENDBRANCH  80  83
ENDBRANCH  52  76
BRANCH  64  87
ATOM     87  C   UNL     1      11.762  12.819  -2.885  1.00  0.00     0.023 A 
ATOM     88  C   UNL     1      10.819  13.703  -3.443  1.00  0.00     0.012 A 
ATOM     89  C   UNL     1      13.123  13.184  -2.855  1.00  0.00     0.148 A 
ATOM     90  C   UNL     1      11.227  14.925  -3.978  1.00  0.00     0.002 A 
ATOM     91  C   UNL     1      13.515  14.424  -3.343  1.00  0.00     0.091 A 
ATOM     92  F   UNL     1      14.006  12.318  -2.336  1.00  0.00    -0.205 F 
ATOM     93  C   UNL     1      12.570  15.291  -3.914  1.00  0.00     0.022 A 
BRANCH  91  94
ATOM     94  S   UNL     1      15.203  15.024  -3.209  1.00  0.00     0.127 S 
ATOM     95  O   UNL     1      15.634  15.015  -4.606  1.00  0.00    -0.237 OA
ATOM     96  O   UNL     1      15.013  16.357  -2.637  1.00  0.00    -0.237 OA
ATOM     97  O   UNL     1      15.898  14.084  -2.339  1.00  0.00    -0.744 OA
ENDBRANCH  91  94
ENDBRANCH  64  87
ENDBRANCH  38  39
ENDBRANCH  30  33
ENDBRANCH  28  29
ENDBRANCH  27  28
ENDBRANCH  26  27
ENDBRANCH   3  26
TORSDOF 16
