REMARK SMILES COc1ccc2c(c1)c(CC(=O)NCCCNC(=O)c1ccc(-c3c4nc(c(-c5cccc(S(=O)(=O)[O-])c5F)c5ccc([nH]5)c(-c5cccc(S(=O)(=O)[O-])c5F)c5nc(c(-c6cccc(S(=O)(=O)[O-])c6F)c6ccc3[nH]6)C=C5)C=C4)cc1)c(C)n2Cc1ccn(C(F)F)c(=O)c1
REMARK SMILES IDX 14 1 13 2 11 3 12 4 10 6 9 7 3 8 4 9 8 10 5 11 7 12 6 13
REMARK SMILES IDX 85 14 83 15 84 16 2 17 1 18 86 19 87 20 88 21 96 22 89 23
REMARK SMILES IDX 94 24 90 25 95 26 91 27 92 28 93 29 15 30 16 31 17 32 18 33
REMARK SMILES IDX 19 35 20 36 21 37 82 38 22 39 81 40 23 41 24 42 25 43 75 44
REMARK SMILES IDX 26 45 80 46 74 47 76 48 27 49 79 50 73 51 72 52 28 54 60 55
REMARK SMILES IDX 40 56 59 57 41 58 44 59 58 60 77 61 42 62 43 63 57 65 78 66
REMARK SMILES IDX 45 67 29 68 30 69 38 70 31 71 33 72 39 73 32 74 34 75 35 76
REMARK SMILES IDX 36 77 37 78 61 79 62 80 70 81 63 82 65 83 71 84 64 85 66 86
REMARK SMILES IDX 67 87 68 88 69 89 46 90 47 91 55 92 48 93 50 94 56 95 49 96
REMARK SMILES IDX 51 97 52 98 53 99 54 100
REMARK H PARENT 13 5 17 34 76 53 44 64
REMARK Flexibility Score: inf
ROOT
ATOM      1  C   UNL     1      -0.273   7.671   2.035  1.00  0.00     0.117 C 
ENDROOT
BRANCH   1   2
ATOM      2  N   UNL     1      -1.248   6.827   1.355  1.00  0.00    -0.356 N 
ATOM      3  C   UNL     1      -1.915   5.719   1.796  1.00  0.00     0.224 C 
ATOM      4  O   UNL     1      -2.748   5.207   1.041  1.00  0.00    -0.275 OA
ATOM      5  H   UNL     1      -1.459   7.099   0.433  1.00  0.00     0.163 HD
BRANCH   3   6
ATOM      6  C   UNL     1      -1.701   5.176   3.200  1.00  0.00     0.138 C 
BRANCH   6   7
ATOM      7  C   UNL     1      -0.306   4.695   3.450  1.00  0.00    -0.010 A 
ATOM      8  C   UNL     1       1.033   2.075   1.022  1.00  0.00     0.119 A 
ATOM      9  C   UNL     1       2.330   2.057   1.522  1.00  0.00     0.048 A 
ATOM     10  C   UNL     1       0.089   2.947   1.565  1.00  0.00     0.057 A 
ATOM     11  C   UNL     1       2.701   2.872   2.604  1.00  0.00     0.031 A 
ATOM     12  C   UNL     1       0.426   3.753   2.673  1.00  0.00     0.007 A 
ATOM     13  C   UNL     1       1.724   3.698   3.189  1.00  0.00     0.049 A 
ATOM     14  N   UNL     1       1.771   4.574   4.267  1.00  0.00    -0.340 N 
ATOM     15  C   UNL     1       0.489   5.026   4.537  1.00  0.00     0.020 A 
ATOM     16  C   UNL     1       0.076   5.777   5.754  1.00  0.00     0.065 C 
BRANCH   8  17
ATOM     17  O   UNL     1       0.599   1.327  -0.041  1.00  0.00    -0.497 OA
ATOM     18  C   UNL     1       1.087  -0.010  -0.065  1.00  0.00     0.278 C 
ENDBRANCH   8  17
BRANCH  14  19
ATOM     19  C   UNL     1       2.991   4.925   5.014  1.00  0.00     0.158 C 
BRANCH  19  20
ATOM     20  C   UNL     1       3.434   6.349   4.774  1.00  0.00    -0.021 A 
ATOM     21  C   UNL     1       2.823   7.405   5.553  1.00  0.00     0.024 A 
ATOM     22  C   UNL     1       4.386   6.678   3.886  1.00  0.00     0.077 A 
ATOM     23  C   UNL     1       3.070   8.688   5.285  1.00  0.00     0.095 A 
ATOM     24  C   UNL     1       4.694   8.108   3.581  1.00  0.00     0.255 A 
ATOM     25  N   UNL     1       3.991   9.044   4.330  1.00  0.00    -0.258 N 
ATOM     26  O   UNL     1       5.482   8.329   2.679  1.00  0.00    -0.269 OA
BRANCH  25  27
ATOM     27  C   UNL     1       4.165  10.442   4.041  1.00  0.00     0.451 C 
ATOM     28  F   UNL     1       5.430  10.732   3.699  1.00  0.00    -0.185 F 
ATOM     29  F   UNL     1       3.326  10.793   3.039  1.00  0.00    -0.185 F 
ENDBRANCH  25  27
ENDBRANCH  19  20
ENDBRANCH  14  19
ENDBRANCH   6   7
ENDBRANCH   3   6
ENDBRANCH   1   2
BRANCH   1  30
ATOM     30  C   UNL     1       1.131   7.597   1.421  1.00  0.00     0.042 C 
BRANCH  30  31
ATOM     31  C   UNL     1       1.231   8.121  -0.014  1.00  0.00     0.118 C 
BRANCH  31  32
ATOM     32  N   UNL     1       0.741   9.477  -0.196  1.00  0.00    -0.352 N 
ATOM     33  C   UNL     1       1.279  10.729  -0.325  1.00  0.00     0.251 C 
ATOM     34  H   UNL     1      -0.243   9.502  -0.237  1.00  0.00     0.163 HD
ATOM     35  O   UNL     1       0.467  11.608  -0.633  1.00  0.00    -0.269 OA
BRANCH  33  36
ATOM     36  C   UNL     1       2.686  11.128  -0.047  1.00  0.00     0.039 A 
ATOM     37  C   UNL     1       3.744  10.267   0.211  1.00  0.00     0.014 A 
ATOM     38  C   UNL     1       2.917  12.520   0.051  1.00  0.00     0.014 A 
ATOM     39  C   UNL     1       4.940  10.783   0.714  1.00  0.00     0.010 A 
ATOM     40  C   UNL     1       4.108  13.035   0.559  1.00  0.00     0.010 A 
ATOM     41  C   UNL     1       5.089  12.156   0.984  1.00  0.00    -0.014 A 
BRANCH  41  42
ATOM     42  C   UNL     1       6.319  12.598   1.659  1.00  0.00     0.031 A 
ATOM     43  C   UNL     1       7.549  12.113   0.978  1.00  0.00     0.074 A 
ATOM     44  C   UNL     1       6.370  13.350   2.786  1.00  0.00     0.049 A 
ATOM     45  N   UNL     1       8.418  11.261   1.415  1.00  0.00    -0.248 NA
ATOM     46  C   UNL     1       7.723  12.485  -0.435  1.00  0.00     0.031 C 
ATOM     47  C   UNL     1       5.268  14.047   3.459  1.00  0.00     0.029 A 
ATOM     48  N   UNL     1       7.453  13.718   3.543  1.00  0.00    -0.354 N 
ATOM     49  C   UNL     1       9.363  11.148   0.402  1.00  0.00     0.074 A 
ATOM     50  C   UNL     1       8.807  11.784  -0.764  1.00  0.00     0.031 C 
ATOM     51  C   UNL     1       5.769  14.932   4.352  1.00  0.00     0.029 A 
ATOM     52  C   UNL     1       7.210  14.782   4.418  1.00  0.00     0.049 A 
ATOM     53  H   UNL     1       8.327  13.271   3.477  1.00  0.00     0.167 HD
ATOM     54  C   UNL     1      10.643  10.780   0.664  1.00  0.00     0.034 A 
ATOM     55  C   UNL     1       8.136  15.518   5.091  1.00  0.00     0.034 A 
ATOM     56  C   UNL     1      10.773  10.100   1.919  1.00  0.00     0.049 A 
ATOM     57  C   UNL     1       9.356  14.689   5.166  1.00  0.00     0.074 A 
ATOM     58  C   UNL     1      10.305   8.917   2.449  1.00  0.00     0.029 A 
ATOM     59  N   UNL     1      11.187  10.869   2.975  1.00  0.00    -0.354 N 
ATOM     60  N   UNL     1       9.456  13.598   5.869  1.00  0.00    -0.248 NA
ATOM     61  C   UNL     1      10.375  14.889   4.150  1.00  0.00     0.031 C 
ATOM     62  C   UNL     1      10.082   9.189   3.829  1.00  0.00     0.029 A 
ATOM     63  C   UNL     1      10.469  10.507   4.080  1.00  0.00     0.049 A 
ATOM     64  H   UNL     1      11.882  11.565   2.943  1.00  0.00     0.167 HD
ATOM     65  C   UNL     1      10.261  12.775   5.096  1.00  0.00     0.074 A 
ATOM     66  C   UNL     1      10.888  13.659   4.118  1.00  0.00     0.031 C 
ATOM     67  C   UNL     1      10.119  11.421   5.144  1.00  0.00     0.034 A 
BRANCH  54  68
ATOM     68  C   UNL     1      11.818  11.431  -0.018  1.00  0.00     0.023 A 
ATOM     69  C   UNL     1      13.085  10.828   0.104  1.00  0.00     0.012 A 
ATOM     70  C   UNL     1      11.772  12.750  -0.529  1.00  0.00     0.148 A 
ATOM     71  C   UNL     1      14.250  11.508  -0.272  1.00  0.00     0.002 A 
ATOM     72  C   UNL     1      12.919  13.389  -0.975  1.00  0.00     0.091 A 
ATOM     73  F   UNL     1      10.636  13.451  -0.455  1.00  0.00    -0.205 F 
ATOM     74  C   UNL     1      14.166  12.780  -0.829  1.00  0.00     0.022 A 
BRANCH  72  75
ATOM     75  S   UNL     1      12.853  15.021  -1.721  1.00  0.00     0.127 S 
ATOM     76  O   UNL     1      13.442  15.846  -0.670  1.00  0.00    -0.237 OA
ATOM     77  O   UNL     1      13.687  14.838  -2.909  1.00  0.00    -0.237 OA
ATOM     78  O   UNL     1      11.445  15.261  -2.012  1.00  0.00    -0.744 OA
ENDBRANCH  72  75
ENDBRANCH  54  68
BRANCH  55  79
ATOM     79  C   UNL     1       8.190  16.970   5.439  1.00  0.00     0.023 A 
ATOM     80  C   UNL     1       9.240  17.441   6.267  1.00  0.00     0.012 A 
ATOM     81  C   UNL     1       7.447  17.932   4.724  1.00  0.00     0.148 A 
ATOM     82  C   UNL     1       9.586  18.798   6.313  1.00  0.00     0.002 A 
ATOM     83  C   UNL     1       7.789  19.284   4.781  1.00  0.00     0.091 A 
ATOM     84  F   UNL     1       6.465  17.521   3.913  1.00  0.00    -0.205 F 
ATOM     85  C   UNL     1       8.872  19.718   5.556  1.00  0.00     0.022 A 
BRANCH  83  86
ATOM     86  S   UNL     1       6.912  20.532   3.828  1.00  0.00     0.127 S 
ATOM     87  O   UNL     1       6.723  21.595   4.816  1.00  0.00    -0.237 OA
ATOM     88  O   UNL     1       7.874  20.841   2.774  1.00  0.00    -0.237 OA
ATOM     89  O   UNL     1       5.674  19.897   3.393  1.00  0.00    -0.744 OA
ENDBRANCH  83  86
ENDBRANCH  55  79
BRANCH  67  90
ATOM     90  C   UNL     1       9.331  10.828   6.278  1.00  0.00     0.023 A 
ATOM     91  C   UNL     1       7.924  10.901   6.340  1.00  0.00     0.012 A 
ATOM     92  C   UNL     1      10.019   9.979   7.160  1.00  0.00     0.148 A 
ATOM     93  C   UNL     1       7.217  10.123   7.262  1.00  0.00     0.002 A 
ATOM     94  C   UNL     1       9.311   9.175   8.039  1.00  0.00     0.091 A 
ATOM     95  F   UNL     1      11.357   9.928   7.069  1.00  0.00    -0.205 F 
ATOM     96  C   UNL     1       7.909   9.246   8.097  1.00  0.00     0.022 A 
BRANCH  94  97
ATOM     97  S   UNL     1      10.121   7.930   9.045  1.00  0.00     0.127 S 
ATOM     98  O   UNL     1       9.803   8.377  10.400  1.00  0.00    -0.237 OA
ATOM     99  O   UNL     1       9.431   6.707   8.629  1.00  0.00    -0.237 OA
ATOM    100  O   UNL     1      11.535   7.975   8.696  1.00  0.00    -0.744 OA
ENDBRANCH  94  97
ENDBRANCH  67  90
ENDBRANCH  41  42
ENDBRANCH  33  36
ENDBRANCH  31  32
ENDBRANCH  30  31
ENDBRANCH   1  30
TORSDOF 18
