REMARK SMILES C[C@@H](O)[C@@H](NC(=O)Nc1ccc(F)cc1F)C(=O)NCCCNC(=O)c1ccc(-c2c3nc(c(-c4cccc(S(=O)(=O)[O-])c4F)c4ccc([nH]4)c(-c4cccc(S(=O)(=O)[O-])c4F)c4nc(c(-c5cccc(S(=O)(=O)[O-])c5F)c5ccc2[nH]5)C=C4)C=C3)cc1
REMARK SMILES IDX 21 1 20 2 19 3 17 4 18 5 4 7 2 8 1 9 3 10 5 12 6 13 7 15
REMARK SMILES IDX 8 16 9 18 10 19 15 20 11 21 14 22 16 23 12 24 13 25 22 26
REMARK SMILES IDX 23 27 24 28 25 30 26 31 27 32 88 33 28 34 87 35 29 36 30 37
REMARK SMILES IDX 31 38 81 39 32 40 86 41 80 42 82 43 33 44 85 45 79 46 78 47
REMARK SMILES IDX 34 49 66 50 46 51 65 52 47 53 50 54 64 55 83 56 48 57 49 58
REMARK SMILES IDX 63 60 84 61 51 62 35 63 36 64 44 65 37 66 39 67 45 68 38 69
REMARK SMILES IDX 40 70 41 71 42 72 43 73 67 74 68 75 76 76 69 77 71 78 77 79
REMARK SMILES IDX 70 80 72 81 73 82 74 83 75 84 52 85 53 86 61 87 54 88 56 89
REMARK SMILES IDX 62 90 55 91 57 92 58 93 59 94 60 95
REMARK H PARENT 19 6 3 11 5 14 8 17 23 29 82 48 50 59
REMARK Flexibility Score: inf
ROOT
ATOM      1  C   UNL     1       1.486   3.683   3.193  1.00  0.00     0.042 C 
ENDROOT
BRANCH   1   2
ATOM      2  C   UNL     1       0.212   3.039   2.658  1.00  0.00     0.117 C 
BRANCH   2   3
ATOM      3  N   UNL     1      -0.101   3.584   1.353  1.00  0.00    -0.354 N 
ATOM      4  C   UNL     1      -0.205   2.954   0.157  1.00  0.00     0.245 C 
ATOM      5  O   UNL     1       0.051   3.619  -0.853  1.00  0.00    -0.273 OA
ATOM      6  H   UNL     1      -0.261   4.555   1.331  1.00  0.00     0.163 HD
BRANCH   4   7
ATOM      7  C   UNL     1      -0.486   1.448   0.047  1.00  0.00     0.201 C 
BRANCH   7   8
ATOM      8  C   UNL     1       0.921   0.787  -0.035  1.00  0.00     0.143 C 
ATOM      9  C   UNL     1       0.914  -0.730   0.110  1.00  0.00     0.041 C 
BRANCH   8  10
ATOM     10  O   UNL     1       1.504   1.047  -1.322  1.00  0.00    -0.391 OA
ATOM     11  H   UNL     1       0.961   0.636  -2.012  1.00  0.00     0.211 HD
ENDBRANCH   8  10
ENDBRANCH   7   8
BRANCH   7  12
ATOM     12  N   UNL     1      -1.368   0.905   1.094  1.00  0.00    -0.323 N 
ATOM     13  C   UNL     1      -2.569   1.256   1.595  1.00  0.00     0.320 C 
ATOM     14  H   UNL     1      -0.996   0.103   1.526  1.00  0.00     0.166 HD
ATOM     15  O   UNL     1      -3.034   0.531   2.479  1.00  0.00    -0.248 OA
ATOM     16  N   UNL     1      -3.171   2.433   1.342  1.00  0.00    -0.305 N 
ATOM     17  H   UNL     1      -3.730   2.754   2.087  1.00  0.00     0.171 HD
BRANCH  16  18
ATOM     18  C   UNL     1      -3.166   3.296   0.241  1.00  0.00     0.079 A 
ATOM     19  C   UNL     1      -3.122   2.840  -1.076  1.00  0.00     0.032 A 
ATOM     20  C   UNL     1      -3.203   4.677   0.490  1.00  0.00     0.149 A 
ATOM     21  C   UNL     1      -3.004   3.763  -2.119  1.00  0.00     0.041 A 
ATOM     22  C   UNL     1      -3.067   5.598  -0.539  1.00  0.00     0.080 A 
ATOM     23  F   UNL     1      -3.271   5.121   1.755  1.00  0.00    -0.205 F 
ATOM     24  C   UNL     1      -2.953   5.127  -1.839  1.00  0.00     0.126 A 
ATOM     25  F   UNL     1      -2.796   5.999  -2.844  1.00  0.00    -0.207 F 
ENDBRANCH  16  18
ENDBRANCH   7  12
ENDBRANCH   4   7
ENDBRANCH   2   3
ENDBRANCH   1   2
BRANCH   1  26
ATOM     26  C   UNL     1       1.401   5.199   3.330  1.00  0.00     0.118 C 
BRANCH  26  27
ATOM     27  N   UNL     1       0.370   5.632   4.262  1.00  0.00    -0.352 N 
ATOM     28  C   UNL     1       0.439   6.692   5.138  1.00  0.00     0.251 C 
ATOM     29  H   UNL     1      -0.466   5.111   4.267  1.00  0.00     0.163 HD
ATOM     30  O   UNL     1      -0.435   6.894   5.964  1.00  0.00    -0.269 OA
BRANCH  28  31
ATOM     31  C   UNL     1       1.627   7.562   5.053  1.00  0.00     0.039 A 
ATOM     32  C   UNL     1       2.484   7.650   6.150  1.00  0.00     0.014 A 
ATOM     33  C   UNL     1       1.939   8.178   3.838  1.00  0.00     0.014 A 
ATOM     34  C   UNL     1       3.697   8.324   6.011  1.00  0.00     0.010 A 
ATOM     35  C   UNL     1       3.175   8.791   3.685  1.00  0.00     0.010 A 
ATOM     36  C   UNL     1       4.062   8.874   4.770  1.00  0.00    -0.014 A 
BRANCH  36  37
ATOM     37  C   UNL     1       5.372   9.543   4.581  1.00  0.00     0.031 A 
ATOM     38  C   UNL     1       5.419  11.010   4.257  1.00  0.00     0.074 A 
ATOM     39  C   UNL     1       6.505   8.814   4.607  1.00  0.00     0.049 A 
ATOM     40  N   UNL     1       6.456  11.763   4.001  1.00  0.00    -0.248 NA
ATOM     41  C   UNL     1       4.129  11.716   4.178  1.00  0.00     0.031 C 
ATOM     42  C   UNL     1       6.577   7.366   4.820  1.00  0.00     0.029 A 
ATOM     43  N   UNL     1       7.812   9.187   4.424  1.00  0.00    -0.354 N 
ATOM     44  C   UNL     1       5.944  13.017   3.694  1.00  0.00     0.074 A 
ATOM     45  C   UNL     1       4.503  12.916   3.758  1.00  0.00     0.031 C 
ATOM     46  C   UNL     1       7.861   6.976   4.760  1.00  0.00     0.029 A 
ATOM     47  C   UNL     1       8.700   8.138   4.486  1.00  0.00     0.049 A 
ATOM     48  H   UNL     1       8.089  10.118   4.264  1.00  0.00     0.167 HD
ATOM     49  C   UNL     1       6.613  14.162   3.420  1.00  0.00     0.034 A 
ATOM     50  C   UNL     1      10.040   8.119   4.342  1.00  0.00     0.034 A 
ATOM     51  C   UNL     1       8.045  14.270   3.418  1.00  0.00     0.049 A 
ATOM     52  C   UNL     1      10.764   9.418   4.107  1.00  0.00     0.074 A 
ATOM     53  C   UNL     1       8.822  15.402   3.252  1.00  0.00     0.029 A 
ATOM     54  N   UNL     1       8.917  13.207   3.594  1.00  0.00    -0.354 N 
ATOM     55  N   UNL     1      10.272  10.627   3.992  1.00  0.00    -0.248 NA
ATOM     56  C   UNL     1      12.231   9.357   4.021  1.00  0.00     0.031 C 
ATOM     57  C   UNL     1      10.167  15.021   3.320  1.00  0.00     0.029 A 
ATOM     58  C   UNL     1      10.225  13.654   3.540  1.00  0.00     0.049 A 
ATOM     59  H   UNL     1       8.645  12.272   3.737  1.00  0.00     0.167 HD
ATOM     60  C   UNL     1      11.366  11.474   3.856  1.00  0.00     0.074 A 
ATOM     61  C   UNL     1      12.549  10.641   3.925  1.00  0.00     0.031 C 
ATOM     62  C   UNL     1      11.390  12.817   3.673  1.00  0.00     0.034 A 
BRANCH  49  63
ATOM     63  C   UNL     1       5.797  15.402   3.172  1.00  0.00     0.023 A 
ATOM     64  C   UNL     1       5.134  16.018   4.253  1.00  0.00     0.012 A 
ATOM     65  C   UNL     1       5.720  15.982   1.892  1.00  0.00     0.148 A 
ATOM     66  C   UNL     1       4.378  17.173   4.059  1.00  0.00     0.002 A 
ATOM     67  C   UNL     1       4.998  17.158   1.714  1.00  0.00     0.091 A 
ATOM     68  F   UNL     1       6.335  15.369   0.872  1.00  0.00    -0.205 F 
ATOM     69  C   UNL     1       4.318  17.747   2.793  1.00  0.00     0.022 A 
BRANCH  67  70
ATOM     70  S   UNL     1       4.923  18.016   0.138  1.00  0.00     0.127 S 
ATOM     71  O   UNL     1       3.560  17.715  -0.297  1.00  0.00    -0.237 OA
ATOM     72  O   UNL     1       5.143  19.408   0.532  1.00  0.00    -0.237 OA
ATOM     73  O   UNL     1       5.984  17.443  -0.679  1.00  0.00    -0.744 OA
ENDBRANCH  67  70
ENDBRANCH  49  63
BRANCH  50  74
ATOM     74  C   UNL     1      10.790   6.842   4.511  1.00  0.00     0.023 A 
ATOM     75  C   UNL     1      11.582   6.658   5.660  1.00  0.00     0.012 A 
ATOM     76  C   UNL     1      10.698   5.801   3.567  1.00  0.00     0.148 A 
ATOM     77  C   UNL     1      12.295   5.474   5.853  1.00  0.00     0.002 A 
ATOM     78  C   UNL     1      11.369   4.603   3.790  1.00  0.00     0.091 A 
ATOM     79  F   UNL     1       9.951   5.999   2.472  1.00  0.00    -0.205 F 
ATOM     80  C   UNL     1      12.181   4.443   4.924  1.00  0.00     0.022 A 
BRANCH  78  81
ATOM     81  S   UNL     1      11.170   3.179   2.714  1.00  0.00     0.127 S 
ATOM     82  O   UNL     1      12.432   3.178   1.980  1.00  0.00    -0.237 OA
ATOM     83  O   UNL     1      11.015   2.087   3.677  1.00  0.00    -0.237 OA
ATOM     84  O   UNL     1       9.974   3.452   1.927  1.00  0.00    -0.744 OA
ENDBRANCH  78  81
ENDBRANCH  50  74
BRANCH  62  85
ATOM     85  C   UNL     1      12.735  13.483   3.563  1.00  0.00     0.023 A 
ATOM     86  C   UNL     1      13.486  13.343   2.380  1.00  0.00     0.012 A 
ATOM     87  C   UNL     1      13.213  14.317   4.594  1.00  0.00     0.148 A 
ATOM     88  C   UNL     1      14.706  14.001   2.234  1.00  0.00     0.002 A 
ATOM     89  C   UNL     1      14.408  15.005   4.423  1.00  0.00     0.091 A 
ATOM     90  F   UNL     1      12.492  14.420   5.720  1.00  0.00    -0.205 F 
ATOM     91  C   UNL     1      15.160  14.842   3.248  1.00  0.00     0.022 A 
BRANCH  89  92
ATOM     92  S   UNL     1      15.018  16.180   5.638  1.00  0.00     0.127 S 
ATOM     93  O   UNL     1      16.089  15.419   6.277  1.00  0.00    -0.237 OA
ATOM     94  O   UNL     1      15.473  17.290   4.800  1.00  0.00    -0.237 OA
ATOM     95  O   UNL     1      13.879  16.499   6.489  1.00  0.00    -0.744 OA
ENDBRANCH  89  92
ENDBRANCH  62  85
ENDBRANCH  36  37
ENDBRANCH  28  31
ENDBRANCH  26  27
ENDBRANCH   1  26
TORSDOF 17
