REMARK SMILES O=CN1CCN(S(=O)(=O)c2ccc(C(=O)NCCCNC(=O)c3ccc(-c4c5nc(c(-c6cccc(S(=O)(=O)[O-])c6F)c6ccc([nH]6)c(-c6cccc(S(=O)(=O)[O-])c6F)c6nc(c(-c7cccc(S(=O)(=O)[O-])c7F)c7ccc4[nH]7)C=C6)C=C5)cc3)cc2)CC1
REMARK SMILES IDX 18 1 17 2 16 3 14 4 15 5 13 7 10 8 11 9 87 10 12 11 86 12
REMARK SMILES IDX 7 13 8 14 9 15 6 16 1 17 2 18 3 19 4 20 89 21 5 22 88 23
REMARK SMILES IDX 19 24 20 25 21 26 22 28 23 29 24 30 85 31 25 32 84 33 26 34
REMARK SMILES IDX 27 35 28 36 78 37 29 38 83 39 77 40 79 41 30 42 82 43 76 44
REMARK SMILES IDX 75 45 31 47 63 48 43 49 62 50 44 51 47 52 61 53 80 54 45 55
REMARK SMILES IDX 46 56 60 58 81 59 48 60 32 61 33 62 41 63 34 64 36 65 42 66
REMARK SMILES IDX 35 67 37 68 38 69 39 70 40 71 64 72 65 73 73 74 66 75 68 76
REMARK SMILES IDX 74 77 67 78 69 79 70 80 71 81 72 82 49 83 50 84 58 85 51 86
REMARK SMILES IDX 53 87 59 88 52 89 54 90 55 91 56 92 57 93
REMARK H PARENT 16 6 20 27 79 46 47 57
REMARK Flexibility Score: inf
ROOT
ATOM      1  C   UNL     1       1.430  -0.972   9.416  1.00  0.00     0.042 C 
ENDROOT
BRANCH   1   2
ATOM      2  C   UNL     1       1.530   0.552   9.434  1.00  0.00     0.118 C 
BRANCH   2   3
ATOM      3  N   UNL     1       2.716   1.023  10.130  1.00  0.00    -0.352 N 
ATOM      4  C   UNL     1       3.842   1.648   9.656  1.00  0.00     0.251 C 
ATOM      5  O   UNL     1       4.629   2.149  10.457  1.00  0.00    -0.269 OA
ATOM      6  H   UNL     1       2.711   0.868  11.103  1.00  0.00     0.163 HD
BRANCH   4   7
ATOM      7  C   UNL     1       4.116   1.773   8.203  1.00  0.00     0.039 A 
ATOM      8  C   UNL     1       4.729   2.085   5.491  1.00  0.00     0.082 A 
ATOM      9  C   UNL     1       4.981   3.133   6.379  1.00  0.00     0.022 A 
ATOM     10  C   UNL     1       4.231   0.864   5.960  1.00  0.00     0.022 A 
ATOM     11  C   UNL     1       4.676   2.972   7.735  1.00  0.00     0.015 A 
ATOM     12  C   UNL     1       3.927   0.711   7.314  1.00  0.00     0.015 A 
BRANCH   8  13
ATOM     13  S   UNL     1       5.187   2.229   3.781  1.00  0.00     0.243 S 
ATOM     14  O   UNL     1       5.512   0.901   3.303  1.00  0.00    -0.207 OA
ATOM     15  O   UNL     1       6.149   3.303   3.663  1.00  0.00    -0.207 OA
BRANCH  13  16
ATOM     16  N   UNL     1       3.763   2.748   2.989  1.00  0.00    -0.194 NA
ATOM     17  O   UNL     1       1.163  -0.459   0.099  1.00  0.00    -0.279 OA
ATOM     18  C   UNL     1       2.144   0.257  -0.054  1.00  0.00     0.340 C 
ATOM     19  N   UNL     1       2.828   0.903   0.949  1.00  0.00    -0.343 N 
ATOM     20  C   UNL     1       3.994   1.742   0.680  1.00  0.00     0.136 C 
ATOM     21  C   UNL     1       2.506   0.650   2.351  1.00  0.00     0.136 C 
ATOM     22  C   UNL     1       3.976   3.030   1.524  1.00  0.00     0.124 C 
ATOM     23  C   UNL     1       2.509   1.944   3.171  1.00  0.00     0.124 C 
ENDBRANCH  13  16
ENDBRANCH   8  13
ENDBRANCH   4   7
ENDBRANCH   2   3
ENDBRANCH   1   2
BRANCH   1  24
ATOM     24  C   UNL     1       1.117  -1.599  10.773  1.00  0.00     0.118 C 
BRANCH  24  25
ATOM     25  N   UNL     1      -0.240  -1.316  11.216  1.00  0.00    -0.352 N 
ATOM     26  C   UNL     1      -1.241  -2.175  11.600  1.00  0.00     0.251 C 
ATOM     27  H   UNL     1      -0.478  -0.361  11.244  1.00  0.00     0.163 HD
ATOM     28  O   UNL     1      -2.377  -1.732  11.760  1.00  0.00    -0.269 OA
BRANCH  26  29
ATOM     29  C   UNL     1      -0.977  -3.618  11.810  1.00  0.00     0.039 A 
ATOM     30  C   UNL     1      -1.933  -4.544  11.380  1.00  0.00     0.014 A 
ATOM     31  C   UNL     1       0.173  -4.064  12.468  1.00  0.00     0.014 A 
ATOM     32  C   UNL     1      -1.714  -5.913  11.561  1.00  0.00     0.010 A 
ATOM     33  C   UNL     1       0.420  -5.432  12.594  1.00  0.00     0.010 A 
ATOM     34  C   UNL     1      -0.523  -6.370  12.148  1.00  0.00    -0.014 A 
BRANCH  34  35
ATOM     35  C   UNL     1      -0.242  -7.823  12.285  1.00  0.00     0.031 A 
ATOM     36  C   UNL     1      -0.126  -8.457  13.645  1.00  0.00     0.074 A 
ATOM     37  C   UNL     1      -0.005  -8.558  11.180  1.00  0.00     0.049 A 
ATOM     38  N   UNL     1       0.151  -9.697  13.954  1.00  0.00    -0.248 NA
ATOM     39  C   UNL     1      -0.324  -7.579  14.810  1.00  0.00     0.031 C 
ATOM     40  C   UNL     1      -0.004  -8.043   9.809  1.00  0.00     0.029 A 
ATOM     41  N   UNL     1       0.307  -9.887  11.037  1.00  0.00    -0.354 N 
ATOM     42  C   UNL     1       0.197  -9.743  15.342  1.00  0.00     0.074 A 
ATOM     43  C   UNL     1      -0.055  -8.399  15.816  1.00  0.00     0.031 C 
ATOM     44  C   UNL     1       0.294  -9.044   8.965  1.00  0.00     0.029 A 
ATOM     45  C   UNL     1       0.522 -10.265   9.732  1.00  0.00     0.049 A 
ATOM     46  H   UNL     1       0.371 -10.510  11.796  1.00  0.00     0.167 HD
ATOM     47  C   UNL     1       0.399 -10.811  16.151  1.00  0.00     0.034 A 
ATOM     48  C   UNL     1       0.863 -11.460   9.210  1.00  0.00     0.034 A 
ATOM     49  C   UNL     1       0.593 -12.156  15.680  1.00  0.00     0.049 A 
ATOM     50  C   UNL     1       1.020 -12.642  10.126  1.00  0.00     0.074 A 
ATOM     51  C   UNL     1       0.705 -13.320  16.420  1.00  0.00     0.029 A 
ATOM     52  N   UNL     1       0.706 -12.519  14.347  1.00  0.00    -0.354 N 
ATOM     53  N   UNL     1       0.886 -12.698  11.429  1.00  0.00    -0.248 NA
ATOM     54  C   UNL     1       1.335 -13.934   9.498  1.00  0.00     0.031 C 
ATOM     55  C   UNL     1       0.893 -14.387  15.534  1.00  0.00     0.029 A 
ATOM     56  C   UNL     1       0.890 -13.887  14.241  1.00  0.00     0.049 A 
ATOM     57  H   UNL     1       0.661 -11.896  13.586  1.00  0.00     0.167 HD
ATOM     58  C   UNL     1       1.069 -14.032  11.774  1.00  0.00     0.074 A 
ATOM     59  C   UNL     1       1.302 -14.755  10.540  1.00  0.00     0.031 C 
ATOM     60  C   UNL     1       1.064 -14.603  13.004  1.00  0.00     0.034 A 
BRANCH  47  61
ATOM     61  C   UNL     1       0.349 -10.580  17.639  1.00  0.00     0.023 A 
ATOM     62  C   UNL     1      -0.896 -10.350  18.258  1.00  0.00     0.012 A 
ATOM     63  C   UNL     1       1.512 -10.646  18.430  1.00  0.00     0.148 A 
ATOM     64  C   UNL     1      -0.981 -10.157  19.636  1.00  0.00     0.002 A 
ATOM     65  C   UNL     1       1.415 -10.491  19.809  1.00  0.00     0.091 A 
ATOM     66  F   UNL     1       2.692 -10.842  17.823  1.00  0.00    -0.205 F 
ATOM     67  C   UNL     1       0.172 -10.238  20.412  1.00  0.00     0.022 A 
BRANCH  65  68
ATOM     68  S   UNL     1       2.836 -10.650  20.898  1.00  0.00     0.127 S 
ATOM     69  O   UNL     1       3.131  -9.252  21.204  1.00  0.00    -0.237 OA
ATOM     70  O   UNL     1       2.287 -11.416  22.018  1.00  0.00    -0.237 OA
ATOM     71  O   UNL     1       3.849 -11.356  20.125  1.00  0.00    -0.744 OA
ENDBRANCH  65  68
ENDBRANCH  47  61
BRANCH  48  72
ATOM     72  C   UNL     1       0.987 -11.609   7.733  1.00  0.00     0.023 A 
ATOM     73  C   UNL     1      -0.009 -12.313   7.029  1.00  0.00     0.012 A 
ATOM     74  C   UNL     1       2.046 -11.018   7.018  1.00  0.00     0.148 A 
ATOM     75  C   UNL     1       0.059 -12.445   5.642  1.00  0.00     0.002 A 
ATOM     76  C   UNL     1       2.080 -11.109   5.631  1.00  0.00     0.091 A 
ATOM     77  F   UNL     1       2.994 -10.366   7.708  1.00  0.00    -0.205 F 
ATOM     78  C   UNL     1       1.095 -11.833   4.942  1.00  0.00     0.022 A 
BRANCH  76  79
ATOM     79  S   UNL     1       3.302 -10.235   4.646  1.00  0.00     0.127 S 
ATOM     80  O   UNL     1       4.204 -11.315   4.259  1.00  0.00    -0.237 OA
ATOM     81  O   UNL     1       2.487  -9.692   3.558  1.00  0.00    -0.237 OA
ATOM     82  O   UNL     1       3.861  -9.222   5.532  1.00  0.00    -0.744 OA
ENDBRANCH  76  79
ENDBRANCH  48  72
BRANCH  60  83
ATOM     83  C   UNL     1       1.298 -16.088  13.084  1.00  0.00     0.023 A 
ATOM     84  C   UNL     1       2.599 -16.596  12.896  1.00  0.00     0.012 A 
ATOM     85  C   UNL     1       0.253 -16.970  13.421  1.00  0.00     0.148 A 
ATOM     86  C   UNL     1       2.850 -17.962  13.017  1.00  0.00     0.002 A 
ATOM     87  C   UNL     1       0.519 -18.325  13.581  1.00  0.00     0.091 A 
ATOM     88  F   UNL     1      -0.983 -16.471  13.574  1.00  0.00    -0.205 F 
ATOM     89  C   UNL     1       1.815 -18.824  13.371  1.00  0.00     0.022 A 
BRANCH  87  90
ATOM     90  S   UNL     1      -0.739 -19.488  14.122  1.00  0.00     0.127 S 
ATOM     91  O   UNL     1      -1.100 -20.143  12.866  1.00  0.00    -0.237 OA
ATOM     92  O   UNL     1      -0.002 -20.335  15.061  1.00  0.00    -0.237 OA
ATOM     93  O   UNL     1      -1.785 -18.682  14.736  1.00  0.00    -0.744 OA
ENDBRANCH  87  90
ENDBRANCH  60  83
ENDBRANCH  34  35
ENDBRANCH  26  29
ENDBRANCH  24  25
ENDBRANCH   1  24
TORSDOF 15
