REMARK SMILES NC(=O)C[C@H](C(=O)NCCCNC(=O)c1ccc(-c2c3nc(c(-c4cccc(S(=O)(=O)[O-])c4F)c4ccc([nH]4)c(-c4cccc(S(=O)(=O)[O-])c4F)c4nc(c(-c5cccc(S(=O)(=O)[O-])c5F)c5ccc2[nH]5)C=C4)C=C3)cc1)N1C(=O)/C(=C/c2ccccc2)SC1=S
REMARK SMILES IDX 10 1 9 2 8 3 6 4 7 5 5 7 4 8 2 9 1 10 3 13 78 14 79 15 90 16
REMARK SMILES IDX 80 17 81 18 89 19 91 20 82 21 83 22 84 23 88 24 85 25 87 26
REMARK SMILES IDX 86 27 11 28 12 29 13 30 14 32 15 33 16 34 77 35 17 36 76 37
REMARK SMILES IDX 18 38 19 39 20 40 70 41 21 42 75 43 69 44 71 45 22 46 74 47
REMARK SMILES IDX 68 48 67 49 23 51 55 52 35 53 54 54 36 55 39 56 53 57 72 58
REMARK SMILES IDX 37 59 38 60 52 62 73 63 40 64 24 65 25 66 33 67 26 68 28 69
REMARK SMILES IDX 34 70 27 71 29 72 30 73 31 74 32 75 56 76 57 77 65 78 58 79
REMARK SMILES IDX 60 80 66 81 59 82 61 83 62 84 63 85 64 86 41 87 42 88 50 89
REMARK SMILES IDX 43 90 45 91 51 92 44 93 46 94 47 95 48 96 49 97
REMARK H PARENT 8 6 1 11 1 12 12 31 71 50 39 61
REMARK Flexibility Score: inf
ROOT
ATOM      1  C   UNL     1      -0.127  -4.596   3.776  1.00  0.00     0.042 C 
ENDROOT
BRANCH   1   2
ATOM      2  C   UNL     1      -0.454  -3.925   2.449  1.00  0.00     0.117 C 
BRANCH   2   3
ATOM      3  N   UNL     1       0.008  -2.552   2.401  1.00  0.00    -0.354 N 
ATOM      4  C   UNL     1       1.018  -1.983   1.680  1.00  0.00     0.243 C 
ATOM      5  O   UNL     1       1.073  -0.753   1.678  1.00  0.00    -0.273 OA
ATOM      6  H   UNL     1      -0.486  -1.930   2.983  1.00  0.00     0.163 HD
BRANCH   4   7
ATOM      7  C   UNL     1       1.919  -2.855   0.778  1.00  0.00     0.190 C 
BRANCH   7   8
ATOM      8  C   UNL     1       2.906  -2.018  -0.042  1.00  0.00     0.135 C 
BRANCH   8   9
ATOM      9  C   UNL     1       2.220  -1.297  -1.182  1.00  0.00     0.220 C 
ATOM     10  N   UNL     1       1.585  -2.081  -2.099  1.00  0.00    -0.370 N 
ATOM     11  H   UNL     1       1.121  -1.668  -2.863  1.00  0.00     0.159 HD
ATOM     12  H   UNL     1       1.590  -3.061  -1.997  1.00  0.00     0.159 HD
ATOM     13  O   UNL     1       2.272  -0.084  -1.349  1.00  0.00    -0.275 OA
ENDBRANCH   8   9
ENDBRANCH   7   8
BRANCH   7  14
ATOM     14  N   UNL     1       2.606  -3.927   1.536  1.00  0.00    -0.280 N 
ATOM     15  C   UNL     1       3.435  -3.581   2.595  1.00  0.00     0.266 C 
ATOM     16  C   UNL     1       2.611  -5.260   1.181  1.00  0.00     0.149 C 
ATOM     17  O   UNL     1       3.680  -2.446   2.962  1.00  0.00    -0.268 OA
ATOM     18  C   UNL     1       4.018  -4.801   3.221  1.00  0.00     0.081 C 
ATOM     19  S   UNL     1       3.474  -6.197   2.386  1.00  0.00    -0.054 SA
ATOM     20  S   UNL     1       1.954  -5.966  -0.184  1.00  0.00    -0.052 S 
ATOM     21  C   UNL     1       4.817  -4.725   4.296  1.00  0.00     0.029 C 
BRANCH  21  22
ATOM     22  C   UNL     1       5.419  -5.839   5.048  1.00  0.00    -0.024 A 
ATOM     23  C   UNL     1       5.331  -5.828   6.447  1.00  0.00     0.008 A 
ATOM     24  C   UNL     1       6.109  -6.887   4.425  1.00  0.00     0.008 A 
ATOM     25  C   UNL     1       5.874  -6.871   7.202  1.00  0.00     0.001 A 
ATOM     26  C   UNL     1       6.646  -7.933   5.181  1.00  0.00     0.001 A 
ATOM     27  C   UNL     1       6.521  -7.929   6.567  1.00  0.00     0.000 A 
ENDBRANCH  21  22
ENDBRANCH   7  14
ENDBRANCH   4   7
ENDBRANCH   2   3
ENDBRANCH   1   2
BRANCH   1  28
ATOM     28  C   UNL     1      -0.917  -4.037   4.955  1.00  0.00     0.118 C 
BRANCH  28  29
ATOM     29  N   UNL     1      -2.351  -4.243   4.809  1.00  0.00    -0.352 N 
ATOM     30  C   UNL     1      -3.252  -4.837   5.655  1.00  0.00     0.251 C 
ATOM     31  H   UNL     1      -2.735  -3.902   3.969  1.00  0.00     0.163 HD
ATOM     32  O   UNL     1      -4.384  -5.080   5.243  1.00  0.00    -0.269 OA
BRANCH  30  33
ATOM     33  C   UNL     1      -2.876  -5.191   7.041  1.00  0.00     0.039 A 
ATOM     34  C   UNL     1      -3.381  -6.373   7.590  1.00  0.00     0.014 A 
ATOM     35  C   UNL     1      -2.071  -4.352   7.818  1.00  0.00     0.014 A 
ATOM     36  C   UNL     1      -3.045  -6.731   8.896  1.00  0.00     0.010 A 
ATOM     37  C   UNL     1      -1.668  -4.753   9.089  1.00  0.00     0.010 A 
ATOM     38  C   UNL     1      -2.163  -5.938   9.650  1.00  0.00    -0.014 A 
BRANCH  38  39
ATOM     39  C   UNL     1      -1.754  -6.347  11.018  1.00  0.00     0.031 A 
ATOM     40  C   UNL     1      -2.085  -5.485  12.209  1.00  0.00     0.074 A 
ATOM     41  C   UNL     1      -1.030  -7.472  11.182  1.00  0.00     0.049 A 
ATOM     42  N   UNL     1      -1.813  -5.689  13.472  1.00  0.00    -0.248 NA
ATOM     43  C   UNL     1      -2.788  -4.218  11.947  1.00  0.00     0.031 C 
ATOM     44  C   UNL     1      -0.568  -8.344  10.100  1.00  0.00     0.029 A 
ATOM     45  N   UNL     1      -0.541  -8.067  12.318  1.00  0.00    -0.354 N 
ATOM     46  C   UNL     1      -2.279  -4.568  14.149  1.00  0.00     0.074 A 
ATOM     47  C   UNL     1      -2.818  -3.669  13.153  1.00  0.00     0.031 C 
ATOM     48  C   UNL     1       0.123  -9.368  10.624  1.00  0.00     0.029 A 
ATOM     49  C   UNL     1       0.179  -9.212  12.073  1.00  0.00     0.049 A 
ATOM     50  H   UNL     1      -0.693  -7.708  13.222  1.00  0.00     0.167 HD
ATOM     51  C   UNL     1      -2.286  -4.321  15.481  1.00  0.00     0.034 A 
ATOM     52  C   UNL     1       0.816 -10.044  12.921  1.00  0.00     0.034 A 
ATOM     53  C   UNL     1      -1.784  -5.235  16.472  1.00  0.00     0.049 A 
ATOM     54  C   UNL     1       0.743  -9.775  14.399  1.00  0.00     0.074 A 
ATOM     55  C   UNL     1      -1.826  -5.119  17.850  1.00  0.00     0.029 A 
ATOM     56  N   UNL     1      -1.137  -6.429  16.192  1.00  0.00    -0.354 N 
ATOM     57  N   UNL     1       0.150  -8.792  15.031  1.00  0.00    -0.248 NA
ATOM     58  C   UNL     1       1.390 -10.755  15.284  1.00  0.00     0.031 C 
ATOM     59  C   UNL     1      -1.177  -6.228  18.403  1.00  0.00     0.029 A 
ATOM     60  C   UNL     1      -0.766  -7.055  17.371  1.00  0.00     0.049 A 
ATOM     61  H   UNL     1      -0.967  -6.781  15.289  1.00  0.00     0.167 HD
ATOM     62  C   UNL     1       0.320  -9.052  16.386  1.00  0.00     0.074 A 
ATOM     63  C   UNL     1       1.049 -10.300  16.481  1.00  0.00     0.031 C 
ATOM     64  C   UNL     1      -0.080  -8.319  17.454  1.00  0.00     0.034 A 
BRANCH  51  65
ATOM     65  C   UNL     1      -2.900  -3.027  15.954  1.00  0.00     0.023 A 
ATOM     66  C   UNL     1      -4.295  -2.842  15.866  1.00  0.00     0.012 A 
ATOM     67  C   UNL     1      -2.107  -2.023  16.545  1.00  0.00     0.148 A 
ATOM     68  C   UNL     1      -4.888  -1.666  16.325  1.00  0.00     0.002 A 
ATOM     69  C   UNL     1      -2.711  -0.875  17.044  1.00  0.00     0.091 A 
ATOM     70  F   UNL     1      -0.781  -2.207  16.602  1.00  0.00    -0.205 F 
ATOM     71  C   UNL     1      -4.098  -0.689  16.924  1.00  0.00     0.022 A 
BRANCH  69  72
ATOM     72  S   UNL     1      -1.794   0.406  17.909  1.00  0.00     0.127 S 
ATOM     73  O   UNL     1      -1.866   1.513  16.957  1.00  0.00    -0.237 OA
ATOM     74  O   UNL     1      -2.594   0.590  19.120  1.00  0.00    -0.237 OA
ATOM     75  O   UNL     1      -0.462  -0.136  18.136  1.00  0.00    -0.744 OA
ENDBRANCH  69  72
ENDBRANCH  51  65
BRANCH  52  76
ATOM     76  C   UNL     1       1.523 -11.246  12.394  1.00  0.00     0.023 A 
ATOM     77  C   UNL     1       1.004 -12.529  12.655  1.00  0.00     0.012 A 
ATOM     78  C   UNL     1       2.692 -11.123  11.618  1.00  0.00     0.148 A 
ATOM     79  C   UNL     1       1.657 -13.669  12.187  1.00  0.00     0.002 A 
ATOM     80  C   UNL     1       3.305 -12.259  11.106  1.00  0.00     0.091 A 
ATOM     81  F   UNL     1       3.173  -9.893  11.386  1.00  0.00    -0.205 F 
ATOM     82  C   UNL     1       2.801 -13.534  11.405  1.00  0.00     0.022 A 
BRANCH  80  83
ATOM     83  S   UNL     1       4.706 -12.175   9.984  1.00  0.00     0.127 S 
ATOM     84  O   UNL     1       5.785 -12.708  10.812  1.00  0.00    -0.237 OA
ATOM     85  O   UNL     1       4.273 -13.052   8.896  1.00  0.00    -0.237 OA
ATOM     86  O   UNL     1       4.832 -10.772   9.611  1.00  0.00    -0.744 OA
ENDBRANCH  80  83
ENDBRANCH  52  76
BRANCH  64  87
ATOM     87  C   UNL     1       0.224  -8.865  18.825  1.00  0.00     0.023 A 
ATOM     88  C   UNL     1       1.552  -8.892  19.297  1.00  0.00     0.012 A 
ATOM     89  C   UNL     1      -0.816  -9.305  19.667  1.00  0.00     0.148 A 
ATOM     90  C   UNL     1       1.844  -9.391  20.565  1.00  0.00     0.002 A 
ATOM     91  C   UNL     1      -0.523  -9.751  20.950  1.00  0.00     0.091 A 
ATOM     92  F   UNL     1      -2.071  -9.290  19.196  1.00  0.00    -0.205 F 
ATOM     93  C   UNL     1       0.807  -9.810  21.395  1.00  0.00     0.022 A 
BRANCH  91  94
ATOM     94  S   UNL     1      -1.804 -10.214  22.121  1.00  0.00     0.127 S 
ATOM     95  O   UNL     1      -1.679 -11.671  22.138  1.00  0.00    -0.237 OA
ATOM     96  O   UNL     1      -1.360  -9.550  23.347  1.00  0.00    -0.237 OA
ATOM     97  O   UNL     1      -3.052  -9.698  21.574  1.00  0.00    -0.744 OA
ENDBRANCH  91  94
ENDBRANCH  64  87
ENDBRANCH  38  39
ENDBRANCH  30  33
ENDBRANCH  28  29
ENDBRANCH   1  28
TORSDOF 17
