REMARK SMILES CCCc1cc(OCC(=O)NCCCNC(=O)c2ccc(-c3c4nc(c(-c5cccc(S(=O)(=O)[O-])c5F)c5ccc([nH]5)c(-c5cccc(S(=O)(=O)[O-])c5F)c5nc(c(-c6cccc(S(=O)(=O)[O-])c6F)c6ccc3[nH]6)C=C5)C=C4)cc2)nc(Nc2ccc(C#N)cc2)n1
REMARK SMILES IDX 12 1 11 2 9 3 10 4 8 6 7 7 6 8 4 9 5 10 92 11 82 12 81 13
REMARK SMILES IDX 3 14 2 15 1 16 83 17 84 19 85 20 91 21 86 22 90 23 87 24
REMARK SMILES IDX 88 25 89 26 13 27 14 28 15 29 16 30 17 32 18 33 19 34 80 35
REMARK SMILES IDX 20 36 79 37 21 38 22 39 23 40 73 41 24 42 78 43 72 44 74 45
REMARK SMILES IDX 25 46 77 47 71 48 70 49 26 51 58 52 38 53 57 54 39 55 42 56
REMARK SMILES IDX 56 57 75 58 40 59 41 60 55 62 76 63 43 64 27 65 28 66 36 67
REMARK SMILES IDX 29 68 31 69 37 70 30 71 32 72 33 73 34 74 35 75 59 76 60 77
REMARK SMILES IDX 68 78 61 79 63 80 69 81 62 82 64 83 65 84 66 85 67 86 44 87
REMARK SMILES IDX 45 88 53 89 46 90 48 91 54 92 47 93 49 94 50 95 51 96 52 97
REMARK H PARENT 11 5 83 18 15 31 74 50 42 61
REMARK Flexibility Score: inf
ROOT
ATOM      1  C   UNL     1      -3.948  -1.672   6.068  1.00  0.00     0.117 C 
ENDROOT
BRANCH   1   2
ATOM      2  N   UNL     1      -3.502  -2.731   5.182  1.00  0.00    -0.353 N 
ATOM      3  C   UNL     1      -2.266  -3.300   5.108  1.00  0.00     0.258 C 
ATOM      4  O   UNL     1      -2.082  -4.231   4.321  1.00  0.00    -0.271 OA
ATOM      5  H   UNL     1      -4.176  -3.081   4.555  1.00  0.00     0.163 HD
BRANCH   3   6
ATOM      6  C   UNL     1      -1.142  -2.792   6.019  1.00  0.00     0.331 C 
BRANCH   6   7
ATOM      7  O   UNL     1      -0.794  -1.425   5.889  1.00  0.00    -0.467 OA
BRANCH   7   8
ATOM      8  C   UNL     1      -0.224  -1.011   4.716  1.00  0.00     0.218 A 
ATOM      9  C   UNL     1       0.626  -1.239   2.548  1.00  0.00     0.050 A 
ATOM     10  C   UNL     1       0.113  -1.842   3.671  1.00  0.00     0.092 A 
ATOM     11  N   UNL     1       0.831   0.084   2.503  1.00  0.00    -0.218 NA
ATOM     12  C   UNL     1       0.496   0.836   3.564  1.00  0.00     0.230 A 
ATOM     13  N   UNL     1      -0.023   0.320   4.685  1.00  0.00    -0.177 NA
BRANCH   9  14
ATOM     14  C   UNL     1       1.058  -2.054   1.356  1.00  0.00     0.056 C 
BRANCH  14  15
ATOM     15  C   UNL     1       0.455  -1.621   0.015  1.00  0.00     0.003 C 
ATOM     16  C   UNL     1       0.959  -0.279  -0.493  1.00  0.00     0.004 C 
ENDBRANCH  14  15
ENDBRANCH   9  14
BRANCH  12  17
ATOM     17  N   UNL     1       0.750   2.206   3.517  1.00  0.00    -0.324 N 
ATOM     18  H   UNL     1       0.617   2.712   4.350  1.00  0.00     0.170 HD
BRANCH  17  19
ATOM     19  C   UNL     1       1.176   2.929   2.398  1.00  0.00     0.041 A 
ATOM     20  C   UNL     1       2.419   3.566   2.390  1.00  0.00     0.027 A 
ATOM     21  C   UNL     1       0.410   2.942   1.225  1.00  0.00     0.027 A 
ATOM     22  C   UNL     1       2.926   4.119   1.207  1.00  0.00     0.021 A 
ATOM     23  C   UNL     1       0.902   3.503   0.044  1.00  0.00     0.021 A 
ATOM     24  C   UNL     1       2.178   4.066   0.025  1.00  0.00     0.052 A 
BRANCH  24  25
ATOM     25  C   UNL     1       2.740   4.531  -1.208  1.00  0.00     0.099 C 
ATOM     26  N   UNL     1       3.224   4.864  -2.212  1.00  0.00    -0.192 NA
ENDBRANCH  24  25
ENDBRANCH  17  19
ENDBRANCH  12  17
ENDBRANCH   7   8
ENDBRANCH   6   7
ENDBRANCH   3   6
ENDBRANCH   1   2
BRANCH   1  27
ATOM     27  C   UNL     1      -4.195  -0.357   5.339  1.00  0.00     0.042 C 
BRANCH  27  28
ATOM     28  C   UNL     1      -5.287  -0.423   4.274  1.00  0.00     0.118 C 
BRANCH  28  29
ATOM     29  N   UNL     1      -6.582  -0.827   4.809  1.00  0.00    -0.352 N 
ATOM     30  C   UNL     1      -7.784  -0.165   4.825  1.00  0.00     0.251 C 
ATOM     31  H   UNL     1      -6.596  -1.719   5.227  1.00  0.00     0.163 HD
ATOM     32  O   UNL     1      -8.711  -0.620   5.492  1.00  0.00    -0.269 OA
BRANCH  30  33
ATOM     33  C   UNL     1      -7.966   1.092   4.066  1.00  0.00     0.039 A 
ATOM     34  C   UNL     1      -8.676   2.139   4.660  1.00  0.00     0.014 A 
ATOM     35  C   UNL     1      -7.463   1.238   2.771  1.00  0.00     0.014 A 
ATOM     36  C   UNL     1      -8.816   3.353   3.984  1.00  0.00     0.010 A 
ATOM     37  C   UNL     1      -7.530   2.475   2.135  1.00  0.00     0.010 A 
ATOM     38  C   UNL     1      -8.207   3.548   2.733  1.00  0.00    -0.014 A 
BRANCH  38  39
ATOM     39  C   UNL     1      -8.247   4.872   2.058  1.00  0.00     0.031 A 
ATOM     40  C   UNL     1      -8.891   5.023   0.705  1.00  0.00     0.074 A 
ATOM     41  C   UNL     1      -7.635   5.928   2.632  1.00  0.00     0.049 A 
ATOM     42  N   UNL     1      -8.970   6.086  -0.053  1.00  0.00    -0.248 NA
ATOM     43  C   UNL     1      -9.511   3.823   0.118  1.00  0.00     0.031 C 
ATOM     44  C   UNL     1      -6.917   5.898   3.909  1.00  0.00     0.029 A 
ATOM     45  N   UNL     1      -7.492   7.226   2.205  1.00  0.00    -0.354 N 
ATOM     46  C   UNL     1      -9.610   5.678  -1.217  1.00  0.00     0.074 A 
ATOM     47  C   UNL     1      -9.882   4.265  -1.076  1.00  0.00     0.031 C 
ATOM     48  C   UNL     1      -6.414   7.116   4.162  1.00  0.00     0.029 A 
ATOM     49  C   UNL     1      -6.727   8.002   3.046  1.00  0.00     0.049 A 
ATOM     50  H   UNL     1      -7.897   7.568   1.376  1.00  0.00     0.167 HD
ATOM     51  C   UNL     1      -9.956   6.417  -2.298  1.00  0.00     0.034 A 
ATOM     52  C   UNL     1      -6.298   9.274   2.922  1.00  0.00     0.034 A 
ATOM     53  C   UNL     1      -9.705   7.827  -2.427  1.00  0.00     0.049 A 
ATOM     54  C   UNL     1      -6.704  10.069   1.710  1.00  0.00     0.074 A 
ATOM     55  C   UNL     1     -10.096   8.676  -3.449  1.00  0.00     0.029 A 
ATOM     56  N   UNL     1      -8.980   8.592  -1.528  1.00  0.00    -0.354 N 
ATOM     57  N   UNL     1      -7.442   9.702   0.692  1.00  0.00    -0.248 NA
ATOM     58  C   UNL     1      -6.244  11.464   1.645  1.00  0.00     0.031 C 
ATOM     59  C   UNL     1      -9.557   9.941  -3.196  1.00  0.00     0.029 A 
ATOM     60  C   UNL     1      -8.889   9.896  -1.984  1.00  0.00     0.049 A 
ATOM     61  H   UNL     1      -8.588   8.257  -0.689  1.00  0.00     0.167 HD
ATOM     62  C   UNL     1      -7.569  10.829  -0.112  1.00  0.00     0.074 A 
ATOM     63  C   UNL     1      -6.851  11.898   0.550  1.00  0.00     0.031 C 
ATOM     64  C   UNL     1      -8.212  10.965  -1.297  1.00  0.00     0.034 A 
BRANCH  51  65
ATOM     65  C   UNL     1     -10.662   5.726  -3.435  1.00  0.00     0.023 A 
ATOM     66  C   UNL     1     -11.996   5.298  -3.282  1.00  0.00     0.012 A 
ATOM     67  C   UNL     1     -10.033   5.593  -4.689  1.00  0.00     0.148 A 
ATOM     68  C   UNL     1     -12.685   4.726  -4.351  1.00  0.00     0.002 A 
ATOM     69  C   UNL     1     -10.742   5.069  -5.763  1.00  0.00     0.091 A 
ATOM     70  F   UNL     1      -8.759   5.992  -4.809  1.00  0.00    -0.205 F 
ATOM     71  C   UNL     1     -12.063   4.624  -5.593  1.00  0.00     0.022 A 
BRANCH  69  72
ATOM     72  S   UNL     1     -10.061   4.974  -7.422  1.00  0.00     0.127 S 
ATOM     73  O   UNL     1     -10.002   3.528  -7.633  1.00  0.00    -0.237 OA
ATOM     74  O   UNL     1     -11.082   5.665  -8.209  1.00  0.00    -0.237 OA
ATOM     75  O   UNL     1      -8.770   5.645  -7.369  1.00  0.00    -0.744 OA
ENDBRANCH  69  72
ENDBRANCH  51  65
BRANCH  52  76
ATOM     76  C   UNL     1      -5.436   9.886   3.974  1.00  0.00     0.023 A 
ATOM     77  C   UNL     1      -5.923  10.960   4.745  1.00  0.00     0.012 A 
ATOM     78  C   UNL     1      -4.127   9.418   4.199  1.00  0.00     0.148 A 
ATOM     79  C   UNL     1      -5.103  11.592   5.681  1.00  0.00     0.002 A 
ATOM     80  C   UNL     1      -3.338  10.010   5.178  1.00  0.00     0.091 A 
ATOM     81  F   UNL     1      -3.679   8.400   3.452  1.00  0.00    -0.205 F 
ATOM     82  C   UNL     1      -3.814  11.113   5.902  1.00  0.00     0.022 A 
BRANCH  80  83
ATOM     83  S   UNL     1      -1.718   9.376   5.620  1.00  0.00     0.127 S 
ATOM     84  O   UNL     1      -0.839  10.438   5.140  1.00  0.00    -0.237 OA
ATOM     85  O   UNL     1      -1.823   9.272   7.075  1.00  0.00    -0.237 OA
ATOM     86  O   UNL     1      -1.593   8.095   4.936  1.00  0.00    -0.744 OA
ENDBRANCH  80  83
ENDBRANCH  52  76
BRANCH  64  87
ATOM     87  C   UNL     1      -8.230  12.330  -1.935  1.00  0.00     0.023 A 
ATOM     88  C   UNL     1      -7.051  12.883  -2.473  1.00  0.00     0.012 A 
ATOM     89  C   UNL     1      -9.441  13.041  -2.053  1.00  0.00     0.148 A 
ATOM     90  C   UNL     1      -7.069  14.138  -3.080  1.00  0.00     0.002 A 
ATOM     91  C   UNL     1      -9.464  14.263  -2.711  1.00  0.00     0.091 A 
ATOM     92  F   UNL     1     -10.550  12.505  -1.522  1.00  0.00    -0.205 F 
ATOM     93  C   UNL     1      -8.276  14.822  -3.209  1.00  0.00     0.022 A 
BRANCH  91  94
ATOM     94  S   UNL     1     -10.985  15.169  -3.013  1.00  0.00     0.127 S 
ATOM     95  O   UNL     1     -10.806  16.343  -2.159  1.00  0.00    -0.237 OA
ATOM     96  O   UNL     1     -10.902  15.440  -4.448  1.00  0.00    -0.237 OA
ATOM     97  O   UNL     1     -12.070  14.279  -2.624  1.00  0.00    -0.744 OA
ENDBRANCH  91  94
ENDBRANCH  64  87
ENDBRANCH  38  39
ENDBRANCH  30  33
ENDBRANCH  28  29
ENDBRANCH  27  28
ENDBRANCH   1  27
TORSDOF 20
