REMARK SMILES C[C@H](C[NH3+])S[C@H](C)c1ccc(C(=O)NCCCNC(=O)c2ccc(-c3c4nc(c(-c5cccc(S(=O)(=O)[O-])c5F)c5ccc([nH]5)c(-c5cccc(S(=O)(=O)[O-])c5F)c5nc(c(-c6cccc(S(=O)(=O)[O-])c6F)c6ccc3[nH]6)C=C5)C=C4)cc2)o1
REMARK SMILES IDX 15 1 14 2 12 3 13 4 11 6 8 7 9 8 84 9 10 10 6 11 7 12 5 13
REMARK SMILES IDX 2 14 1 15 3 16 4 17 16 21 17 22 18 23 19 24 20 26 21 27
REMARK SMILES IDX 22 28 83 29 23 30 82 31 24 32 25 33 26 34 76 35 27 36 81 37
REMARK SMILES IDX 75 38 77 39 28 40 80 41 74 42 73 43 29 45 61 46 41 47 60 48
REMARK SMILES IDX 42 49 45 50 59 51 78 52 43 53 44 54 58 56 79 57 46 58 30 59
REMARK SMILES IDX 31 60 39 61 32 62 34 63 40 64 33 65 35 66 36 67 37 68 38 69
REMARK SMILES IDX 62 70 63 71 71 72 64 73 66 74 72 75 65 76 67 77 68 78 69 79
REMARK SMILES IDX 70 80 47 81 48 82 56 83 49 84 51 85 57 86 50 87 52 88 53 89
REMARK SMILES IDX 54 90 55 91
REMARK H PARENT 14 5 4 18 4 19 4 20 18 25 77 44 45 55
REMARK Flexibility Score: inf
ROOT
ATOM      1  C   UNL     1      -0.378  -4.738  -3.678  1.00  0.00     0.118 C 
ENDROOT
BRANCH   1   2
ATOM      2  N   UNL     1      -1.207  -4.708  -2.489  1.00  0.00    -0.349 N 
ATOM      3  C   UNL     1      -1.639  -3.640  -1.732  1.00  0.00     0.286 C 
ATOM      4  O   UNL     1      -2.517  -3.887  -0.903  1.00  0.00    -0.266 OA
ATOM      5  H   UNL     1      -1.510  -5.590  -2.173  1.00  0.00     0.163 HD
BRANCH   3   6
ATOM      6  C   UNL     1      -1.085  -2.311  -1.927  1.00  0.00     0.191 A 
ATOM      7  C   UNL     1      -1.125  -0.102  -1.704  1.00  0.00     0.117 A 
ATOM      8  C   UNL     1       0.066  -0.414  -2.322  1.00  0.00     0.047 A 
ATOM      9  O   UNL     1      -1.829  -1.248  -1.468  1.00  0.00    -0.455 OA
ATOM     10  C   UNL     1       0.096  -1.821  -2.453  1.00  0.00     0.056 A 
BRANCH   7  11
ATOM     11  C   UNL     1      -1.749   1.172  -1.215  1.00  0.00     0.110 C 
ATOM     12  C   UNL     1      -1.382   1.393   0.251  1.00  0.00     0.028 C 
BRANCH  11  13
ATOM     13  S   UNL     1      -1.172   2.583  -2.244  1.00  0.00    -0.142 SA
BRANCH  13  14
ATOM     14  C   UNL     1      -2.645   3.674  -2.375  1.00  0.00     0.099 C 
ATOM     15  C   UNL     1      -3.033   4.308  -1.044  1.00  0.00     0.025 C 
BRANCH  14  16
ATOM     16  C   UNL     1      -3.829   3.083  -3.177  1.00  0.00     0.273 C 
BRANCH  16  17
ATOM     17  N   UNL     1      -4.901   2.461  -2.397  1.00  0.00    -0.357 N 
ATOM     18  H   UNL     1      -4.533   1.651  -1.899  1.00  0.00     0.344 HD
ATOM     19  H   UNL     1      -5.649   2.165  -3.023  1.00  0.00     0.344 HD
ATOM     20  H   UNL     1      -5.267   3.135  -1.725  1.00  0.00     0.344 HD
ENDBRANCH  16  17
ENDBRANCH  14  16
ENDBRANCH  13  14
ENDBRANCH  11  13
ENDBRANCH   7  11
ENDBRANCH   3   6
ENDBRANCH   1   2
BRANCH   1  21
ATOM     21  C   UNL     1       1.057  -5.171  -3.383  1.00  0.00     0.042 C 
BRANCH  21  22
ATOM     22  C   UNL     1       1.220  -6.676  -3.175  1.00  0.00     0.118 C 
BRANCH  22  23
ATOM     23  N   UNL     1       0.945  -7.433  -4.390  1.00  0.00    -0.352 N 
ATOM     24  C   UNL     1       1.739  -8.290  -5.109  1.00  0.00     0.251 C 
ATOM     25  H   UNL     1       0.039  -7.308  -4.755  1.00  0.00     0.163 HD
ATOM     26  O   UNL     1       1.367  -8.647  -6.225  1.00  0.00    -0.269 OA
BRANCH  24  27
ATOM     27  C   UNL     1       3.025  -8.786  -4.569  1.00  0.00     0.039 A 
ATOM     28  C   UNL     1       4.104  -8.946  -5.446  1.00  0.00     0.014 A 
ATOM     29  C   UNL     1       3.161  -9.157  -3.229  1.00  0.00     0.014 A 
ATOM     30  C   UNL     1       5.327  -9.428  -4.971  1.00  0.00     0.010 A 
ATOM     31  C   UNL     1       4.400  -9.574  -2.742  1.00  0.00     0.010 A 
ATOM     32  C   UNL     1       5.493  -9.723  -3.608  1.00  0.00    -0.014 A 
BRANCH  32  33
ATOM     33  C   UNL     1       6.804 -10.171  -3.071  1.00  0.00     0.031 A 
ATOM     34  C   UNL     1       6.954 -11.536  -2.455  1.00  0.00     0.074 A 
ATOM     35  C   UNL     1       7.840  -9.308  -3.052  1.00  0.00     0.049 A 
ATOM     36  N   UNL     1       8.003 -12.073  -1.887  1.00  0.00    -0.248 NA
ATOM     37  C   UNL     1       5.763 -12.401  -2.451  1.00  0.00     0.031 C 
ATOM     38  C   UNL     1       7.795  -7.927  -3.537  1.00  0.00     0.029 A 
ATOM     39  N   UNL     1       9.120  -9.453  -2.579  1.00  0.00    -0.354 N 
ATOM     40  C   UNL     1       7.591 -13.316  -1.422  1.00  0.00     0.074 A 
ATOM     41  C   UNL     1       6.188 -13.444  -1.752  1.00  0.00     0.031 C 
ATOM     42  C   UNL     1       8.990  -7.350  -3.330  1.00  0.00     0.029 A 
ATOM     43  C   UNL     1       9.877  -8.309  -2.679  1.00  0.00     0.049 A 
ATOM     44  H   UNL     1       9.463 -10.295  -2.203  1.00  0.00     0.167 HD
ATOM     45  C   UNL     1       8.319 -14.276  -0.803  1.00  0.00     0.034 A 
ATOM     46  C   UNL     1      11.140  -8.056  -2.284  1.00  0.00     0.034 A 
ATOM     47  C   UNL     1       9.726 -14.167  -0.525  1.00  0.00     0.049 A 
ATOM     48  C   UNL     1      11.947  -9.161  -1.660  1.00  0.00     0.074 A 
ATOM     49  C   UNL     1      10.577 -15.125  -0.002  1.00  0.00     0.029 A 
ATOM     50  N   UNL     1      10.489 -13.030  -0.740  1.00  0.00    -0.354 N 
ATOM     51  N   UNL     1      11.588 -10.393  -1.393  1.00  0.00    -0.248 NA
ATOM     52  C   UNL     1      13.344  -8.855  -1.321  1.00  0.00     0.031 C 
ATOM     53  C   UNL     1      11.852 -14.560   0.116  1.00  0.00     0.029 A 
ATOM     54  C   UNL     1      11.799 -13.257  -0.352  1.00  0.00     0.049 A 
ATOM     55  H   UNL     1      10.150 -12.185  -1.114  1.00  0.00     0.167 HD
ATOM     56  C   UNL     1      12.720 -11.018  -0.882  1.00  0.00     0.074 A 
ATOM     57  C   UNL     1      13.784 -10.035  -0.902  1.00  0.00     0.031 C 
ATOM     58  C   UNL     1      12.861 -12.286  -0.423  1.00  0.00     0.034 A 
BRANCH  45  59
ATOM     59  C   UNL     1       7.619 -15.559  -0.434  1.00  0.00     0.023 A 
ATOM     60  C   UNL     1       7.249 -16.464  -1.450  1.00  0.00     0.012 A 
ATOM     61  C   UNL     1       7.381 -15.898   0.913  1.00  0.00     0.148 A 
ATOM     62  C   UNL     1       6.621 -17.669  -1.135  1.00  0.00     0.002 A 
ATOM     63  C   UNL     1       6.793 -17.120   1.221  1.00  0.00     0.091 A 
ATOM     64  F   UNL     1       7.719 -15.017   1.865  1.00  0.00    -0.205 F 
ATOM     65  C   UNL     1       6.403 -18.001   0.199  1.00  0.00     0.022 A 
BRANCH  63  66
ATOM     66  S   UNL     1       6.541 -17.673   2.912  1.00  0.00     0.127 S 
ATOM     67  O   UNL     1       5.094 -17.521   3.059  1.00  0.00    -0.237 OA
ATOM     68  O   UNL     1       7.005 -19.060   2.857  1.00  0.00    -0.237 OA
ATOM     69  O   UNL     1       7.352 -16.796   3.744  1.00  0.00    -0.744 OA
ENDBRANCH  63  66
ENDBRANCH  45  59
BRANCH  46  70
ATOM     70  C   UNL     1      11.738  -6.715  -2.539  1.00  0.00     0.023 A 
ATOM     71  C   UNL     1      12.731  -6.577  -3.527  1.00  0.00     0.012 A 
ATOM     72  C   UNL     1      11.295  -5.572  -1.845  1.00  0.00     0.148 A 
ATOM     73  C   UNL     1      13.293  -5.330  -3.802  1.00  0.00     0.002 A 
ATOM     74  C   UNL     1      11.819  -4.324  -2.163  1.00  0.00     0.091 A 
ATOM     75  F   UNL     1      10.358  -5.725  -0.899  1.00  0.00    -0.205 F 
ATOM     76  C   UNL     1      12.830  -4.203  -3.129  1.00  0.00     0.022 A 
BRANCH  74  77
ATOM     77  S   UNL     1      11.182  -2.804  -1.447  1.00  0.00     0.127 S 
ATOM     78  O   UNL     1      12.261  -2.425  -0.539  1.00  0.00    -0.237 OA
ATOM     79  O   UNL     1      11.039  -1.950  -2.627  1.00  0.00    -0.237 OA
ATOM     80  O   UNL     1       9.920  -3.168  -0.818  1.00  0.00    -0.744 OA
ENDBRANCH  74  77
ENDBRANCH  46  70
BRANCH  58  81
ATOM     81  C   UNL     1      14.220 -12.699   0.079  1.00  0.00     0.023 A 
ATOM     82  C   UNL     1      14.685 -12.210   1.315  1.00  0.00     0.012 A 
ATOM     83  C   UNL     1      15.002 -13.626  -0.637  1.00  0.00     0.148 A 
ATOM     84  C   UNL     1      15.921 -12.613   1.817  1.00  0.00     0.002 A 
ATOM     85  C   UNL     1      16.213 -14.059  -0.108  1.00  0.00     0.091 A 
ATOM     86  F   UNL     1      14.553 -14.065  -1.822  1.00  0.00    -0.205 F 
ATOM     87  C   UNL     1      16.679 -13.546   1.113  1.00  0.00     0.022 A 
BRANCH  85  88
ATOM     88  S   UNL     1      17.207 -15.328  -0.902  1.00  0.00     0.127 S 
ATOM     89  O   UNL     1      18.295 -14.538  -1.477  1.00  0.00    -0.237 OA
ATOM     90  O   UNL     1      17.598 -16.172   0.228  1.00  0.00    -0.237 OA
ATOM     91  O   UNL     1      16.328 -15.980  -1.864  1.00  0.00    -0.744 OA
ENDBRANCH  85  88
ENDBRANCH  58  81
ENDBRANCH  32  33
ENDBRANCH  24  27
ENDBRANCH  22  23
ENDBRANCH  21  22
ENDBRANCH   1  21
TORSDOF 18
