REMARK SMILES CC(C)=C1[C@H]2CC[C@@H]1[C@@H](C(=O)Nc1cc(C)cc(C)c1)[C@@H]2C(=O)NCCCNC(=O)c1ccc(-c2c3nc(c(-c4cccc(S(=O)(=O)[O-])c4F)c4ccc([nH]4)c(-c4cccc(S(=O)(=O)[O-])c4F)c4nc(c(-c5cccc(S(=O)(=O)[O-])c5F)c5ccc2[nH]5)C=C4)C=C3)cc1
REMARK SMILES IDX 26 1 25 2 24 3 22 4 23 5 21 7 1 8 2 9 3 10 4 11 5 12 8 13
REMARK SMILES IDX 6 14 7 15 9 16 10 17 11 18 12 19 13 21 14 22 20 23 15 24
REMARK SMILES IDX 18 25 16 26 17 27 19 28 27 29 28 30 29 31 30 33 31 34 32 35
REMARK SMILES IDX 93 36 33 37 92 38 34 39 35 40 36 41 86 42 37 43 91 44 85 45
REMARK SMILES IDX 87 46 38 47 90 48 84 49 83 50 39 52 71 53 51 54 70 55 52 56
REMARK SMILES IDX 55 57 69 58 88 59 53 60 54 61 68 63 89 64 56 65 40 66 41 67
REMARK SMILES IDX 49 68 42 69 44 70 50 71 43 72 45 73 46 74 47 75 48 76 72 77
REMARK SMILES IDX 73 78 81 79 74 80 76 81 82 82 75 83 77 84 78 85 79 86 80 87
REMARK SMILES IDX 57 88 58 89 66 90 59 91 61 92 67 93 60 94 62 95 63 96 64 97
REMARK SMILES IDX 65 98
REMARK H PARENT 24 6 12 20 28 32 87 51 55 62
REMARK Flexibility Score: inf
ROOT
ATOM      1  C   UNL     1      -1.808   1.471  -6.288  1.00  0.00     0.042 C 
ENDROOT
BRANCH   1   2
ATOM      2  C   UNL     1      -0.859   0.284  -6.449  1.00  0.00     0.117 C 
BRANCH   2   3
ATOM      3  N   UNL     1       0.511   0.707  -6.670  1.00  0.00    -0.356 N 
ATOM      4  C   UNL     1       1.564   0.852  -5.823  1.00  0.00     0.224 C 
ATOM      5  O   UNL     1       2.623   1.217  -6.337  1.00  0.00    -0.275 OA
ATOM      6  H   UNL     1       0.716   0.929  -7.607  1.00  0.00     0.163 HD
BRANCH   4   7
ATOM      7  C   UNL     1       1.468   0.458  -4.349  1.00  0.00     0.098 C 
ATOM      8  C   UNL     1       0.943   0.710   0.357  1.00  0.00     0.039 C 
ATOM      9  C   UNL     1       0.281   0.596  -0.989  1.00  0.00    -0.077 C 
ATOM     10  C   UNL     1      -1.130   0.077  -0.967  1.00  0.00     0.039 C 
ATOM     11  C   UNL     1       0.874   1.004  -2.124  1.00  0.00    -0.064 C 
ATOM     12  C   UNL     1       0.347   1.130  -3.530  1.00  0.00     0.028 C 
ATOM     13  C   UNL     1       2.208   1.651  -2.355  1.00  0.00     0.028 C 
ATOM     14  C   UNL     1       0.423   2.659  -3.643  1.00  0.00     0.009 C 
ATOM     15  C   UNL     1       1.687   3.017  -2.841  1.00  0.00     0.009 C 
ATOM     16  C   UNL     1       2.746   0.849  -3.564  1.00  0.00     0.099 C 
BRANCH  16  17
ATOM     17  C   UNL     1       3.807  -0.181  -3.142  1.00  0.00     0.228 C 
ATOM     18  O   UNL     1       4.998   0.062  -3.397  1.00  0.00    -0.274 OA
ATOM     19  N   UNL     1       3.605  -1.242  -2.313  1.00  0.00    -0.326 N 
ATOM     20  H   UNL     1       4.416  -1.524  -1.832  1.00  0.00     0.169 HD
BRANCH  19  21
ATOM     21  C   UNL     1       2.483  -2.009  -2.007  1.00  0.00     0.041 A 
ATOM     22  C   UNL     1       1.641  -2.517  -2.990  1.00  0.00     0.029 A 
ATOM     23  C   UNL     1       2.261  -2.350  -0.672  1.00  0.00     0.029 A 
ATOM     24  C   UNL     1       0.469  -3.197  -2.647  1.00  0.00    -0.049 A 
ATOM     25  C   UNL     1       1.108  -3.055  -0.304  1.00  0.00    -0.049 A 
ATOM     26  C   UNL     1      -0.543  -3.541  -3.699  1.00  0.00     0.044 C 
ATOM     27  C   UNL     1       0.204  -3.453  -1.297  1.00  0.00     0.007 A 
ATOM     28  C   UNL     1       0.775  -3.274   1.142  1.00  0.00     0.044 C 
ENDBRANCH  19  21
ENDBRANCH  16  17
ENDBRANCH   4   7
ENDBRANCH   2   3
ENDBRANCH   1   2
BRANCH   1  29
ATOM     29  C   UNL     1      -1.918   2.343  -7.536  1.00  0.00     0.118 C 
BRANCH  29  30
ATOM     30  N   UNL     1      -2.881   1.802  -8.482  1.00  0.00    -0.352 N 
ATOM     31  C   UNL     1      -4.095   2.317  -8.870  1.00  0.00     0.251 C 
ATOM     32  H   UNL     1      -2.628   0.948  -8.902  1.00  0.00     0.163 HD
ATOM     33  O   UNL     1      -4.896   1.589  -9.452  1.00  0.00    -0.269 OA
BRANCH  31  34
ATOM     34  C   UNL     1      -4.442   3.732  -8.597  1.00  0.00     0.039 A 
ATOM     35  C   UNL     1      -5.753   4.050  -8.227  1.00  0.00     0.014 A 
ATOM     36  C   UNL     1      -3.506   4.755  -8.772  1.00  0.00     0.014 A 
ATOM     37  C   UNL     1      -6.116   5.385  -8.013  1.00  0.00     0.010 A 
ATOM     38  C   UNL     1      -3.849   6.076  -8.485  1.00  0.00     0.010 A 
ATOM     39  C   UNL     1      -5.165   6.410  -8.132  1.00  0.00    -0.014 A 
BRANCH  39  40
ATOM     40  C   UNL     1      -5.535   7.840  -7.947  1.00  0.00     0.031 A 
ATOM     41  C   UNL     1      -5.417   8.802  -9.103  1.00  0.00     0.074 A 
ATOM     42  C   UNL     1      -5.912   8.291  -6.735  1.00  0.00     0.049 A 
ATOM     43  N   UNL     1      -5.627  10.093  -9.129  1.00  0.00    -0.248 NA
ATOM     44  C   UNL     1      -4.976   8.245 -10.393  1.00  0.00     0.031 C 
ATOM     45  C   UNL     1      -6.001   7.480  -5.519  1.00  0.00     0.029 A 
ATOM     46  N   UNL     1      -6.266   9.551  -6.319  1.00  0.00    -0.354 N 
ATOM     47  C   UNL     1      -5.304  10.507 -10.417  1.00  0.00     0.074 A 
ATOM     48  C   UNL     1      -4.849   9.336 -11.134  1.00  0.00     0.031 C 
ATOM     49  C   UNL     1      -6.390   8.260  -4.497  1.00  0.00     0.029 A 
ATOM     50  C   UNL     1      -6.556   9.629  -4.976  1.00  0.00     0.049 A 
ATOM     51  H   UNL     1      -6.310  10.326  -6.925  1.00  0.00     0.167 HD
ATOM     52  C   UNL     1      -5.409  11.739 -10.969  1.00  0.00     0.034 A 
ATOM     53  C   UNL     1      -6.914  10.684  -4.217  1.00  0.00     0.034 A 
ATOM     54  C   UNL     1      -5.923  12.889 -10.276  1.00  0.00     0.049 A 
ATOM     55  C   UNL     1      -7.081  12.032  -4.869  1.00  0.00     0.074 A 
ATOM     56  C   UNL     1      -6.146  14.163 -10.768  1.00  0.00     0.029 A 
ATOM     57  N   UNL     1      -6.304  12.903  -8.944  1.00  0.00    -0.354 N 
ATOM     58  N   UNL     1      -6.910  12.369  -6.124  1.00  0.00    -0.248 NA
ATOM     59  C   UNL     1      -7.531  13.136  -4.008  1.00  0.00     0.031 C 
ATOM     60  C   UNL     1      -6.657  14.949  -9.730  1.00  0.00     0.029 A 
ATOM     61  C   UNL     1      -6.765  14.160  -8.596  1.00  0.00     0.049 A 
ATOM     62  H   UNL     1      -6.254  12.131  -8.334  1.00  0.00     0.167 HD
ATOM     63  C   UNL     1      -7.270  13.709  -6.212  1.00  0.00     0.074 A 
ATOM     64  C   UNL     1      -7.686  14.118  -4.887  1.00  0.00     0.031 C 
ATOM     65  C   UNL     1      -7.242  14.532  -7.289  1.00  0.00     0.034 A 
BRANCH  52  66
ATOM     66  C   UNL     1      -5.025  11.892 -12.419  1.00  0.00     0.023 A 
ATOM     67  C   UNL     1      -5.858  11.343 -13.415  1.00  0.00     0.012 A 
ATOM     68  C   UNL     1      -3.880  12.618 -12.800  1.00  0.00     0.148 A 
ATOM     69  C   UNL     1      -5.538  11.479 -14.765  1.00  0.00     0.002 A 
ATOM     70  C   UNL     1      -3.591  12.788 -14.150  1.00  0.00     0.091 A 
ATOM     71  F   UNL     1      -3.088  13.117 -11.840  1.00  0.00    -0.205 F 
ATOM     72  C   UNL     1      -4.412  12.209 -15.133  1.00  0.00     0.022 A 
BRANCH  70  73
ATOM     73  S   UNL     1      -2.207  13.777 -14.729  1.00  0.00     0.127 S 
ATOM     74  O   UNL     1      -1.285  12.746 -15.202  1.00  0.00    -0.237 OA
ATOM     75  O   UNL     1      -2.821  14.579 -15.788  1.00  0.00    -0.237 OA
ATOM     76  O   UNL     1      -1.754  14.543 -13.575  1.00  0.00    -0.744 OA
ENDBRANCH  70  73
ENDBRANCH  52  66
BRANCH  53  77
ATOM     77  C   UNL     1      -7.227  10.492  -2.772  1.00  0.00     0.023 A 
ATOM     78  C   UNL     1      -8.564  10.598  -2.340  1.00  0.00     0.012 A 
ATOM     79  C   UNL     1      -6.225  10.182  -1.832  1.00  0.00     0.148 A 
ATOM     80  C   UNL     1      -8.893  10.432  -0.994  1.00  0.00     0.002 A 
ATOM     81  C   UNL     1      -6.568   9.965  -0.502  1.00  0.00     0.091 A 
ATOM     82  F   UNL     1      -4.957  10.101  -2.258  1.00  0.00    -0.205 F 
ATOM     83  C   UNL     1      -7.898  10.105  -0.077  1.00  0.00     0.022 A 
BRANCH  81  84
ATOM     84  S   UNL     1      -5.370   9.412   0.718  1.00  0.00     0.127 S 
ATOM     85  O   UNL     1      -5.150  10.628   1.496  1.00  0.00    -0.237 OA
ATOM     86  O   UNL     1      -6.110   8.359   1.416  1.00  0.00    -0.237 OA
ATOM     87  O   UNL     1      -4.229   8.930  -0.049  1.00  0.00    -0.744 OA
ENDBRANCH  81  84
ENDBRANCH  53  77
BRANCH  65  88
ATOM     88  C   UNL     1      -7.717  15.949  -7.101  1.00  0.00     0.023 A 
ATOM     89  C   UNL     1      -6.907  16.872  -6.411  1.00  0.00     0.012 A 
ATOM     90  C   UNL     1      -8.926  16.384  -7.679  1.00  0.00     0.148 A 
ATOM     91  C   UNL     1      -7.308  18.200  -6.274  1.00  0.00     0.002 A 
ATOM     92  C   UNL     1      -9.296  17.720  -7.578  1.00  0.00     0.091 A 
ATOM     93  F   UNL     1      -9.693  15.485  -8.314  1.00  0.00    -0.205 F 
ATOM     94  C   UNL     1      -8.494  18.627  -6.867  1.00  0.00     0.022 A 
BRANCH  92  95
ATOM     95  S   UNL     1     -10.760  18.373  -8.391  1.00  0.00     0.127 S 
ATOM     96  O   UNL     1     -11.683  18.522  -7.268  1.00  0.00    -0.237 OA
ATOM     97  O   UNL     1     -10.270  19.634  -8.950  1.00  0.00    -0.237 OA
ATOM     98  O   UNL     1     -11.137  17.380  -9.388  1.00  0.00    -0.744 OA
ENDBRANCH  92  95
ENDBRANCH  65  88
ENDBRANCH  39  40
ENDBRANCH  31  34
ENDBRANCH  29  30
ENDBRANCH   1  29
TORSDOF 15
