REMARK SMILES COc1ccc(-c2nc3ccc(C)cc3[nH]2)c(C(=O)NCCCNC(=O)c2ccc(-c3c4nc(c(-c5cccc(S(=O)(=O)[O-])c5F)c5ccc([nH]5)c(-c5cccc(S(=O)(=O)[O-])c5F)c5nc(c(-c6cccc(S(=O)(=O)[O-])c6F)c6ccc3[nH]6)C=C5)C=C4)cc2)c1OC
REMARK SMILES IDX 23 1 22 2 21 3 20 4 18 5 19 6 17 8 3 9 4 10 90 11 5 12 6 13
REMARK SMILES IDX 2 14 1 15 91 16 92 17 7 18 8 19 16 20 9 21 15 22 10 24 14 25
REMARK SMILES IDX 11 26 12 27 13 28 24 29 25 30 26 32 27 33 28 34 89 35 29 36
REMARK SMILES IDX 88 37 30 38 31 39 32 40 82 41 33 42 87 43 81 44 83 45 34 46
REMARK SMILES IDX 86 47 80 48 79 49 35 51 67 52 47 53 66 54 48 55 51 56 65 57
REMARK SMILES IDX 84 58 49 59 50 60 64 62 85 63 52 64 36 65 37 66 45 67 38 68
REMARK SMILES IDX 40 69 46 70 39 71 41 72 42 73 43 74 44 75 68 76 69 77 77 78
REMARK SMILES IDX 70 79 72 80 78 81 71 82 73 83 74 84 75 85 76 86 53 87 54 88
REMARK SMILES IDX 62 89 55 90 57 91 63 92 56 93 58 94 59 95 60 96 61 97
REMARK H PARENT 20 7 16 23 24 31 83 50 51 61
REMARK Flexibility Score: inf
ROOT
ATOM      1  C   UNL     1       7.224  -0.932   1.347  1.00  0.00     0.118 C 
ENDROOT
BRANCH   1   2
ATOM      2  C   UNL     1       5.832  -0.664   1.881  1.00  0.00     0.042 C 
BRANCH   2   3
ATOM      3  C   UNL     1       4.748  -1.550   1.323  1.00  0.00     0.118 C 
BRANCH   3   4
ATOM      4  N   UNL     1       4.820  -2.973   1.512  1.00  0.00    -0.352 N 
ATOM      5  C   UNL     1       3.745  -3.822   1.299  1.00  0.00     0.255 C 
ATOM      6  O   UNL     1       3.925  -4.960   0.871  1.00  0.00    -0.269 OA
ATOM      7  H   UNL     1       5.673  -3.363   1.809  1.00  0.00     0.163 HD
BRANCH   5   8
ATOM      8  C   UNL     1       2.377  -3.393   1.721  1.00  0.00     0.096 A 
ATOM      9  C   UNL     1       0.408  -1.962   1.587  1.00  0.00     0.161 A 
ATOM     10  C   UNL     1      -0.081  -2.632   2.727  1.00  0.00     0.051 A 
ATOM     11  C   UNL     1       1.639  -2.368   1.040  1.00  0.00     0.174 A 
ATOM     12  C   UNL     1       0.590  -3.696   3.322  1.00  0.00     0.017 A 
ATOM     13  C   UNL     1       1.835  -4.086   2.838  1.00  0.00     0.034 A 
BRANCH   9  14
ATOM     14  O   UNL     1      -0.513  -1.027   1.223  1.00  0.00    -0.493 OA
ATOM     15  C   UNL     1      -0.403  -0.211   0.084  1.00  0.00     0.278 C 
ENDBRANCH   9  14
BRANCH  11  16
ATOM     16  O   UNL     1       2.085  -2.027  -0.217  1.00  0.00    -0.492 OA
ATOM     17  C   UNL     1       2.428  -0.668  -0.479  1.00  0.00     0.278 C 
ENDBRANCH  11  16
BRANCH  13  18
ATOM     18  C   UNL     1       2.525  -5.204   3.497  1.00  0.00     0.139 A 
ATOM     19  N   UNL     1       3.730  -5.176   4.030  1.00  0.00    -0.228 NA
ATOM     20  N   UNL     1       1.997  -6.477   3.587  1.00  0.00    -0.338 N 
ATOM     21  C   UNL     1       4.040  -6.480   4.326  1.00  0.00     0.089 A 
ATOM     22  C   UNL     1       2.965  -7.322   4.072  1.00  0.00     0.066 A 
ATOM     23  H   UNL     1       1.079  -6.736   3.344  1.00  0.00     0.168 HD
ATOM     24  C   UNL     1       5.242  -7.028   4.791  1.00  0.00     0.031 A 
ATOM     25  C   UNL     1       3.012  -8.709   4.267  1.00  0.00     0.031 A 
ATOM     26  C   UNL     1       5.330  -8.416   4.962  1.00  0.00     0.006 A 
ATOM     27  C   UNL     1       4.233  -9.253   4.707  1.00  0.00    -0.049 A 
ATOM     28  C   UNL     1       4.396 -10.738   4.880  1.00  0.00     0.044 C 
ENDBRANCH  13  18
ENDBRANCH   5   8
ENDBRANCH   3   4
ENDBRANCH   2   3
ENDBRANCH   1   2
BRANCH   1  29
ATOM     29  N   UNL     1       7.362  -0.803  -0.102  1.00  0.00    -0.352 N 
ATOM     30  C   UNL     1       8.066   0.085  -0.891  1.00  0.00     0.251 C 
ATOM     31  H   UNL     1       6.858  -1.477  -0.612  1.00  0.00     0.163 HD
ATOM     32  O   UNL     1       7.957   0.018  -2.107  1.00  0.00    -0.269 OA
BRANCH  30  33
ATOM     33  C   UNL     1       8.920   1.139  -0.287  1.00  0.00     0.039 A 
ATOM     34  C   UNL     1       9.024   2.385  -0.915  1.00  0.00     0.014 A 
ATOM     35  C   UNL     1       9.626   0.912   0.889  1.00  0.00     0.014 A 
ATOM     36  C   UNL     1       9.766   3.411  -0.316  1.00  0.00     0.010 A 
ATOM     37  C   UNL     1      10.216   1.971   1.564  1.00  0.00     0.010 A 
ATOM     38  C   UNL     1      10.337   3.224   0.952  1.00  0.00    -0.014 A 
BRANCH  38  39
ATOM     39  C   UNL     1      11.131   4.279   1.637  1.00  0.00     0.031 A 
ATOM     40  C   UNL     1      12.551   3.983   2.062  1.00  0.00     0.074 A 
ATOM     41  C   UNL     1      10.559   5.454   1.968  1.00  0.00     0.049 A 
ATOM     42  N   UNL     1      13.376   4.719   2.761  1.00  0.00    -0.248 NA
ATOM     43  C   UNL     1      13.102   2.664   1.696  1.00  0.00     0.031 C 
ATOM     44  C   UNL     1       9.168   5.829   1.703  1.00  0.00     0.029 A 
ATOM     45  N   UNL     1      11.074   6.543   2.626  1.00  0.00    -0.354 N 
ATOM     46  C   UNL     1      14.505   3.932   2.966  1.00  0.00     0.074 A 
ATOM     47  C   UNL     1      14.239   2.644   2.372  1.00  0.00     0.031 C 
ATOM     48  C   UNL     1       8.947   7.066   2.175  1.00  0.00     0.029 A 
ATOM     49  C   UNL     1      10.166   7.562   2.806  1.00  0.00     0.049 A 
ATOM     50  H   UNL     1      12.005   6.592   2.940  1.00  0.00     0.167 HD
ATOM     51  C   UNL     1      15.679   4.261   3.553  1.00  0.00     0.034 A 
ATOM     52  C   UNL     1      10.303   8.758   3.410  1.00  0.00     0.034 A 
ATOM     53  C   UNL     1      15.970   5.569   4.070  1.00  0.00     0.049 A 
ATOM     54  C   UNL     1      11.644   9.134   3.982  1.00  0.00     0.074 A 
ATOM     55  C   UNL     1      17.159   6.044   4.591  1.00  0.00     0.029 A 
ATOM     56  N   UNL     1      15.060   6.613   4.125  1.00  0.00    -0.354 N 
ATOM     57  N   UNL     1      12.748   8.429   4.030  1.00  0.00    -0.248 NA
ATOM     58  C   UNL     1      11.772  10.486   4.543  1.00  0.00     0.031 C 
ATOM     59  C   UNL     1      16.961   7.372   4.982  1.00  0.00     0.029 A 
ATOM     60  C   UNL     1      15.660   7.733   4.669  1.00  0.00     0.049 A 
ATOM     61  H   UNL     1      14.125   6.564   3.820  1.00  0.00     0.167 HD
ATOM     62  C   UNL     1      13.713   9.266   4.579  1.00  0.00     0.074 A 
ATOM     63  C   UNL     1      13.065  10.536   4.835  1.00  0.00     0.031 C 
ATOM     64  C   UNL     1      15.014   9.006   4.856  1.00  0.00     0.034 A 
BRANCH  51  65
ATOM     65  C   UNL     1      16.757   3.208   3.607  1.00  0.00     0.023 A 
ATOM     66  C   UNL     1      17.382   2.783   2.416  1.00  0.00     0.012 A 
ATOM     67  C   UNL     1      17.181   2.668   4.837  1.00  0.00     0.148 A 
ATOM     68  C   UNL     1      18.375   1.805   2.441  1.00  0.00     0.002 A 
ATOM     69  C   UNL     1      18.209   1.733   4.860  1.00  0.00     0.091 A 
ATOM     70  F   UNL     1      16.564   3.067   5.958  1.00  0.00    -0.205 F 
ATOM     71  C   UNL     1      18.796   1.289   3.663  1.00  0.00     0.022 A 
BRANCH  69  72
ATOM     72  S   UNL     1      18.886   1.073   6.387  1.00  0.00     0.127 S 
ATOM     73  O   UNL     1      18.433  -0.316   6.334  1.00  0.00    -0.237 OA
ATOM     74  O   UNL     1      20.325   1.253   6.187  1.00  0.00    -0.237 OA
ATOM     75  O   UNL     1      18.316   1.875   7.460  1.00  0.00    -0.744 OA
ENDBRANCH  69  72
ENDBRANCH  51  65
BRANCH  52  76
ATOM     76  C   UNL     1       9.165   9.723   3.428  1.00  0.00     0.023 A 
ATOM     77  C   UNL     1       9.237  10.891   2.643  1.00  0.00     0.012 A 
ATOM     78  C   UNL     1       8.010   9.483   4.196  1.00  0.00     0.148 A 
ATOM     79  C   UNL     1       8.198  11.822   2.654  1.00  0.00     0.002 A 
ATOM     80  C   UNL     1       6.954  10.387   4.159  1.00  0.00     0.091 A 
ATOM     81  F   UNL     1       7.962   8.370   4.941  1.00  0.00    -0.205 F 
ATOM     82  C   UNL     1       7.053  11.567   3.404  1.00  0.00     0.022 A 
BRANCH  80  83
ATOM     83  S   UNL     1       5.390  10.080   4.988  1.00  0.00     0.127 S 
ATOM     84  O   UNL     1       5.415  11.079   6.053  1.00  0.00    -0.237 OA
ATOM     85  O   UNL     1       4.426  10.344   3.918  1.00  0.00    -0.237 OA
ATOM     86  O   UNL     1       5.441   8.691   5.421  1.00  0.00    -0.744 OA
ENDBRANCH  80  83
ENDBRANCH  52  76
BRANCH  64  87
ATOM     87  C   UNL     1      15.852  10.130   5.405  1.00  0.00     0.023 A 
ATOM     88  C   UNL     1      15.661  10.576   6.727  1.00  0.00     0.012 A 
ATOM     89  C   UNL     1      16.886  10.689   4.627  1.00  0.00     0.148 A 
ATOM     90  C   UNL     1      16.463  11.589   7.253  1.00  0.00     0.002 A 
ATOM     91  C   UNL     1      17.715  11.658   5.176  1.00  0.00     0.091 A 
ATOM     92  F   UNL     1      17.039  10.262   3.365  1.00  0.00    -0.205 F 
ATOM     93  C   UNL     1      17.496  12.119   6.484  1.00  0.00     0.022 A 
BRANCH  91  94
ATOM     94  S   UNL     1      19.133  12.318   4.294  1.00  0.00     0.127 S 
ATOM     95  O   UNL     1      18.667  13.657   3.941  1.00  0.00    -0.237 OA
ATOM     96  O   UNL     1      20.178  12.286   5.318  1.00  0.00    -0.237 OA
ATOM     97  O   UNL     1      19.361  11.418   3.172  1.00  0.00    -0.744 OA
ENDBRANCH  91  94
ENDBRANCH  64  87
ENDBRANCH  38  39
ENDBRANCH  30  33
ENDBRANCH   1  29
TORSDOF 16
