REMARK SMILES COc1cc([C@H]2CC(c3ccc(S(C)(=O)=O)cc3)=NN2c2ccc(C(=O)NCCCNC(=O)c3ccc(-c4c5nc(c(-c6cccc(S(=O)(=O)[O-])c6F)c6ccc([nH]6)c(-c6cccc(S(=O)(=O)[O-])c6F)c6nc(c(-c7cccc(S(=O)(=O)[O-])c7F)c7ccc4[nH]7)C=C6)C=C5)cc3)cc2)cc(OC)c1OC
REMARK SMILES IDX 29 1 28 2 27 3 25 4 26 5 24 7 21 8 22 9 98 10 23 11 97 12
REMARK SMILES IDX 20 13 6 14 7 15 8 16 19 17 5 18 3 19 4 20 103 21 100 22
REMARK SMILES IDX 99 23 2 24 1 25 104 26 105 27 101 28 102 29 9 30 10 31 18 32
REMARK SMILES IDX 11 33 17 34 12 35 13 36 14 37 15 38 16 39 30 40 31 41 32 42
REMARK SMILES IDX 33 44 34 45 35 46 96 47 36 48 95 49 37 50 38 51 39 52 89 53
REMARK SMILES IDX 40 54 94 55 88 56 90 57 41 58 93 59 87 60 86 61 42 63 74 64
REMARK SMILES IDX 54 65 73 66 55 67 58 68 72 69 91 70 56 71 57 72 71 74 92 75
REMARK SMILES IDX 59 76 43 77 44 78 52 79 45 80 47 81 53 82 46 83 48 84 49 85
REMARK SMILES IDX 50 86 51 87 75 88 76 89 84 90 77 91 79 92 85 93 78 94 80 95
REMARK SMILES IDX 81 96 82 97 83 98 60 99 61 100 69 101 62 102 64 103 70 104
REMARK SMILES IDX 63 105 65 106 66 107 67 108 68 109
REMARK H PARENT 27 6 31 43 90 62 58 73
REMARK Flexibility Score: inf
ROOT
ATOM      1  C   UNL     1      -1.287   5.278   6.846  1.00  0.00     0.042 C 
ENDROOT
BRANCH   1   2
ATOM      2  C   UNL     1      -0.134   4.840   5.944  1.00  0.00     0.118 C 
BRANCH   2   3
ATOM      3  N   UNL     1       1.116   4.788   6.678  1.00  0.00    -0.352 N 
ATOM      4  C   UNL     1       1.828   3.746   7.213  1.00  0.00     0.251 C 
ATOM      5  O   UNL     1       2.914   4.008   7.730  1.00  0.00    -0.269 OA
ATOM      6  H   UNL     1       1.532   5.669   6.820  1.00  0.00     0.163 HD
BRANCH   4   7
ATOM      7  C   UNL     1       1.382   2.327   7.138  1.00  0.00     0.039 A 
ATOM      8  C   UNL     1       0.729  -0.412   6.917  1.00  0.00     0.060 A 
ATOM      9  C   UNL     1       2.057  -0.004   7.069  1.00  0.00     0.029 A 
ATOM     10  C   UNL     1      -0.272   0.559   6.938  1.00  0.00     0.029 A 
ATOM     11  C   UNL     1       2.384   1.349   7.159  1.00  0.00     0.016 A 
ATOM     12  C   UNL     1       0.049   1.913   7.087  1.00  0.00     0.016 A 
BRANCH   8  13
ATOM     13  N   UNL     1       0.432  -1.751   6.760  1.00  0.00    -0.257 N 
ATOM     14  C   UNL     1      -0.186  -2.335   5.571  1.00  0.00     0.144 C 
ATOM     15  C   UNL     1      -0.352  -3.811   5.987  1.00  0.00     0.091 C 
ATOM     16  C   UNL     1       0.148  -3.746   7.406  1.00  0.00     0.071 C 
ATOM     17  N   UNL     1       0.584  -2.595   7.804  1.00  0.00    -0.176 NA
BRANCH  14  18
ATOM     18  C   UNL     1       0.691  -2.093   4.348  1.00  0.00    -0.015 A 
ATOM     19  C   UNL     1       1.200  -0.816   2.320  1.00  0.00     0.164 A 
ATOM     20  C   UNL     1       0.330  -1.144   3.379  1.00  0.00     0.056 A 
ATOM     21  C   UNL     1       2.469  -1.413   2.209  1.00  0.00     0.203 A 
ATOM     22  C   UNL     1       2.834  -2.362   3.186  1.00  0.00     0.164 A 
ATOM     23  C   UNL     1       1.949  -2.695   4.225  1.00  0.00     0.056 A 
BRANCH  19  24
ATOM     24  O   UNL     1       0.807   0.200   1.485  1.00  0.00    -0.493 OA
ATOM     25  C   UNL     1      -0.129  -0.244   0.503  1.00  0.00     0.278 C 
ENDBRANCH  19  24
BRANCH  21  26
ATOM     26  O   UNL     1       3.398  -1.179   1.234  1.00  0.00    -0.490 OA
ATOM     27  C   UNL     1       3.161  -0.236   0.204  1.00  0.00     0.278 C 
ENDBRANCH  21  26
BRANCH  22  28
ATOM     28  O   UNL     1       4.008  -3.074   3.262  1.00  0.00    -0.493 OA
ATOM     29  C   UNL     1       5.179  -2.463   2.736  1.00  0.00     0.278 C 
ENDBRANCH  22  28
ENDBRANCH  14  18
BRANCH  16  30
ATOM     30  C   UNL     1       0.109  -4.906   8.305  1.00  0.00    -0.002 A 
ATOM     31  C   UNL     1      -0.556  -4.773   9.530  1.00  0.00     0.011 A 
ATOM     32  C   UNL     1       0.784  -6.083   7.981  1.00  0.00     0.011 A 
ATOM     33  C   UNL     1      -0.563  -5.834  10.437  1.00  0.00     0.021 A 
ATOM     34  C   UNL     1       0.802  -7.137   8.899  1.00  0.00     0.021 A 
ATOM     35  C   UNL     1       0.132  -7.005  10.122  1.00  0.00     0.067 A 
BRANCH  35  36
ATOM     36  S   UNL     1       0.153  -8.345  11.293  1.00  0.00     0.175 S 
ATOM     37  C   UNL     1       0.892  -7.655  12.751  1.00  0.00     0.163 C 
ATOM     38  O   UNL     1      -1.235  -8.663  11.587  1.00  0.00    -0.224 OA
ATOM     39  O   UNL     1       1.054  -9.357  10.786  1.00  0.00    -0.224 OA
ENDBRANCH  35  36
ENDBRANCH  16  30
ENDBRANCH   8  13
ENDBRANCH   4   7
ENDBRANCH   2   3
ENDBRANCH   1   2
BRANCH   1  40
ATOM     40  C   UNL     1      -1.250   6.763   7.201  1.00  0.00     0.118 C 
BRANCH  40  41
ATOM     41  N   UNL     1      -1.496   7.602   6.037  1.00  0.00    -0.352 N 
ATOM     42  C   UNL     1      -2.437   8.577   5.832  1.00  0.00     0.251 C 
ATOM     43  H   UNL     1      -0.890   7.445   5.277  1.00  0.00     0.163 HD
ATOM     44  O   UNL     1      -2.616   8.997   4.690  1.00  0.00    -0.269 OA
BRANCH  42  45
ATOM     45  C   UNL     1      -3.234   9.123   6.953  1.00  0.00     0.039 A 
ATOM     46  C   UNL     1      -4.573   9.451   6.720  1.00  0.00     0.014 A 
ATOM     47  C   UNL     1      -2.663   9.380   8.204  1.00  0.00     0.014 A 
ATOM     48  C   UNL     1      -5.345  10.002   7.746  1.00  0.00     0.010 A 
ATOM     49  C   UNL     1      -3.452   9.867   9.245  1.00  0.00     0.010 A 
ATOM     50  C   UNL     1      -4.797  10.198   9.024  1.00  0.00    -0.014 A 
BRANCH  50  51
ATOM     51  C   UNL     1      -5.627  10.737  10.131  1.00  0.00     0.031 A 
ATOM     52  C   UNL     1      -5.315  12.074  10.747  1.00  0.00     0.074 A 
ATOM     53  C   UNL     1      -6.636   9.989  10.620  1.00  0.00     0.049 A 
ATOM     54  N   UNL     1      -5.940  12.704  11.709  1.00  0.00    -0.248 NA
ATOM     55  C   UNL     1      -4.134  12.789  10.235  1.00  0.00     0.031 C 
ATOM     56  C   UNL     1      -6.982   8.640  10.168  1.00  0.00     0.029 A 
ATOM     57  N   UNL     1      -7.543  10.248  11.617  1.00  0.00    -0.354 N 
ATOM     58  C   UNL     1      -5.217  13.868  11.937  1.00  0.00     0.074 A 
ATOM     59  C   UNL     1      -4.085  13.844  11.036  1.00  0.00     0.031 C 
ATOM     60  C   UNL     1      -8.032   8.195  10.876  1.00  0.00     0.029 A 
ATOM     61  C   UNL     1      -8.422   9.216  11.844  1.00  0.00     0.049 A 
ATOM     62  H   UNL     1      -7.561  11.093  12.122  1.00  0.00     0.167 HD
ATOM     63  C   UNL     1      -5.487  14.883  12.794  1.00  0.00     0.034 A 
ATOM     64  C   UNL     1      -9.435   9.107  12.726  1.00  0.00     0.034 A 
ATOM     65  C   UNL     1      -6.639  14.924  13.656  1.00  0.00     0.049 A 
ATOM     66  C   UNL     1      -9.751  10.273  13.621  1.00  0.00     0.074 A 
ATOM     67  C   UNL     1      -7.050  15.944  14.496  1.00  0.00     0.029 A 
ATOM     68  N   UNL     1      -7.562  13.899  13.793  1.00  0.00    -0.354 N 
ATOM     69  N   UNL     1      -9.157  11.440  13.698  1.00  0.00    -0.248 NA
ATOM     70  C   UNL     1     -10.905  10.126  14.520  1.00  0.00     0.031 C 
ATOM     71  C   UNL     1      -8.216  15.530  15.151  1.00  0.00     0.029 A 
ATOM     72  C   UNL     1      -8.539  14.258  14.706  1.00  0.00     0.049 A 
ATOM     73  H   UNL     1      -7.527  13.040  13.312  1.00  0.00     0.167 HD
ATOM     74  C   UNL     1      -9.880  12.175  14.630  1.00  0.00     0.074 A 
ATOM     75  C   UNL     1     -10.974  11.332  15.067  1.00  0.00     0.031 C 
ATOM     76  C   UNL     1      -9.650  13.428  15.096  1.00  0.00     0.034 A 
BRANCH  63  77
ATOM     77  C   UNL     1      -4.553  16.066  12.795  1.00  0.00     0.023 A 
ATOM     78  C   UNL     1      -4.564  16.954  11.699  1.00  0.00     0.012 A 
ATOM     79  C   UNL     1      -3.713  16.336  13.892  1.00  0.00     0.148 A 
ATOM     80  C   UNL     1      -3.731  18.072  11.680  1.00  0.00     0.002 A 
ATOM     81  C   UNL     1      -2.915  17.475  13.884  1.00  0.00     0.091 A 
ATOM     82  F   UNL     1      -3.699  15.471  14.916  1.00  0.00    -0.205 F 
ATOM     83  C   UNL     1      -2.915  18.337  12.775  1.00  0.00     0.022 A 
BRANCH  81  84
ATOM     84  S   UNL     1      -1.886  17.948  15.280  1.00  0.00     0.127 S 
ATOM     85  O   UNL     1      -0.547  17.655  14.770  1.00  0.00    -0.237 OA
ATOM     86  O   UNL     1      -2.187  19.373  15.418  1.00  0.00    -0.237 OA
ATOM     87  O   UNL     1      -2.325  17.125  16.398  1.00  0.00    -0.744 OA
ENDBRANCH  81  84
ENDBRANCH  63  77
BRANCH  64  88
ATOM     88  C   UNL     1     -10.277   7.878  12.738  1.00  0.00     0.023 A 
ATOM     89  C   UNL     1     -11.601   7.946  12.259  1.00  0.00     0.012 A 
ATOM     90  C   UNL     1      -9.769   6.641  13.178  1.00  0.00     0.148 A 
ATOM     91  C   UNL     1     -12.412   6.811  12.248  1.00  0.00     0.002 A 
ATOM     92  C   UNL     1     -10.565   5.503  13.112  1.00  0.00     0.091 A 
ATOM     93  F   UNL     1      -8.512   6.599  13.642  1.00  0.00    -0.205 F 
ATOM     94  C   UNL     1     -11.892   5.589  12.664  1.00  0.00     0.022 A 
BRANCH  92  95
ATOM     95  S   UNL     1      -9.932   3.866  13.496  1.00  0.00     0.127 S 
ATOM     96  O   UNL     1     -10.559   3.596  14.787  1.00  0.00    -0.237 OA
ATOM     97  O   UNL     1     -10.449   3.071  12.381  1.00  0.00    -0.237 OA
ATOM     98  O   UNL     1      -8.482   4.003  13.508  1.00  0.00    -0.744 OA
ENDBRANCH  92  95
ENDBRANCH  64  88
BRANCH  76  99
ATOM     99  C   UNL     1     -10.609  13.973  16.121  1.00  0.00     0.023 A 
ATOM    100  C   UNL     1     -10.584  13.468  17.437  1.00  0.00     0.012 A 
ATOM    101  C   UNL     1     -11.496  15.018  15.799  1.00  0.00     0.148 A 
ATOM    102  C   UNL     1     -11.453  13.969  18.405  1.00  0.00     0.002 A 
ATOM    103  C   UNL     1     -12.326  15.545  16.782  1.00  0.00     0.091 A 
ATOM    104  F   UNL     1     -11.523  15.472  14.537  1.00  0.00    -0.205 F 
ATOM    105  C   UNL     1     -12.315  15.014  18.082  1.00  0.00     0.022 A 
BRANCH 103 106
ATOM    106  S   UNL     1     -13.400  16.952  16.472  1.00  0.00     0.127 S 
ATOM    107  O   UNL     1     -14.702  16.305  16.317  1.00  0.00    -0.237 OA
ATOM    108  O   UNL     1     -13.252  17.737  17.698  1.00  0.00    -0.237 OA
ATOM    109  O   UNL     1     -12.870  17.598  15.278  1.00  0.00    -0.744 OA
ENDBRANCH 103 106
ENDBRANCH  76  99
ENDBRANCH  50  51
ENDBRANCH  42  45
ENDBRANCH  40  41
ENDBRANCH   1  40
TORSDOF 20
