REMARK SMILES O=C(CCN1C(=O)/C(=C2/C(=O)N(Cc3ccccc3)c3ccccc32)SC1=S)NCCCNC(=O)c1ccc(-c2c3nc(c(-c4cccc(S(=O)(=O)[O-])c4F)c4ccc([nH]4)c(-c4cccc(S(=O)(=O)[O-])c4F)c4nc(c(-c5cccc(S(=O)(=O)[O-])c5F)c5ccc2[nH]5)C=C4)C=C3)cc1
REMARK SMILES IDX 30 1 29 2 1 3 2 4 3 6 4 7 5 8 6 9 27 10 7 11 8 12 26 13
REMARK SMILES IDX 28 14 9 15 10 16 25 17 11 18 12 19 20 20 24 21 21 22 23 23
REMARK SMILES IDX 22 24 13 25 14 26 15 27 19 28 16 29 18 30 17 31 31 32 32 33
REMARK SMILES IDX 33 34 34 35 35 37 36 38 37 39 98 40 38 41 97 42 39 43 40 44
REMARK SMILES IDX 41 45 91 46 42 47 96 48 90 49 92 50 43 51 95 52 89 53 88 54
REMARK SMILES IDX 44 56 76 57 56 58 75 59 57 60 60 61 74 62 93 63 58 64 59 65
REMARK SMILES IDX 73 67 94 68 61 69 45 70 46 71 54 72 47 73 49 74 55 75 48 76
REMARK SMILES IDX 50 77 51 78 52 79 53 80 77 81 78 82 86 83 79 84 81 85 87 86
REMARK SMILES IDX 80 87 82 88 83 89 84 90 85 91 62 92 63 93 71 94 64 95 66 96
REMARK SMILES IDX 72 97 65 98 67 99 68 100 69 101 70 102
REMARK H PARENT 29 5 33 36 92 55 60 66
REMARK Flexibility Score: inf
ROOT
ATOM      1  C   UNL     1       2.107  -2.260  -1.435  1.00  0.00     0.117 C 
ENDROOT
BRANCH   1   2
ATOM      2  N   UNL     1       2.772  -1.062  -0.926  1.00  0.00    -0.356 N 
ATOM      3  O   UNL     1       1.107  -0.492   0.560  1.00  0.00    -0.275 OA
ATOM      4  C   UNL     1       2.223  -0.298   0.088  1.00  0.00     0.221 C 
ATOM      5  H   UNL     1       3.635  -0.791  -1.316  1.00  0.00     0.163 HD
BRANCH   4   6
ATOM      6  C   UNL     1       3.128   0.789   0.640  1.00  0.00     0.122 C 
BRANCH   6   7
ATOM      7  C   UNL     1       4.060   0.229   1.728  1.00  0.00     0.137 C 
BRANCH   7   8
ATOM      8  N   UNL     1       5.112  -0.590   1.121  1.00  0.00    -0.292 N 
ATOM      9  C   UNL     1       6.096   0.055   0.400  1.00  0.00     0.267 C 
ATOM     10  C   UNL     1       5.215  -1.959   1.149  1.00  0.00     0.148 C 
ATOM     11  O   UNL     1       6.529   1.167   0.647  1.00  0.00    -0.268 OA
ATOM     12  C   UNL     1       6.542  -0.842  -0.692  1.00  0.00     0.093 C 
ATOM     13  S   UNL     1       6.426  -2.448  -0.042  1.00  0.00    -0.053 SA
ATOM     14  S   UNL     1       4.356  -3.040   2.078  1.00  0.00    -0.052 S 
ATOM     15  C   UNL     1       6.676  -0.454  -1.975  1.00  0.00     0.069 C 
ATOM     16  C   UNL     1       6.818  -1.430  -3.128  1.00  0.00     0.260 C 
ATOM     17  C   UNL     1       6.584   0.885  -2.599  1.00  0.00     0.012 A 
ATOM     18  O   UNL     1       7.001  -2.629  -3.034  1.00  0.00    -0.269 OA
ATOM     19  N   UNL     1       6.664  -0.676  -4.290  1.00  0.00    -0.303 N 
ATOM     20  C   UNL     1       6.638   0.687  -3.985  1.00  0.00     0.052 A 
ATOM     21  C   UNL     1       6.492   2.181  -2.119  1.00  0.00     0.011 A 
ATOM     22  C   UNL     1       6.702   1.740  -4.881  1.00  0.00     0.027 A 
ATOM     23  C   UNL     1       6.502   3.254  -3.018  1.00  0.00     0.001 A 
ATOM     24  C   UNL     1       6.628   3.036  -4.390  1.00  0.00     0.002 A 
BRANCH  19  25
ATOM     25  C   UNL     1       6.649  -1.211  -5.645  1.00  0.00     0.161 C 
BRANCH  25  26
ATOM     26  C   UNL     1       5.361  -1.030  -6.442  1.00  0.00    -0.028 A 
ATOM     27  C   UNL     1       5.256  -0.041  -7.429  1.00  0.00     0.005 A 
ATOM     28  C   UNL     1       4.257  -1.880  -6.296  1.00  0.00     0.005 A 
ATOM     29  C   UNL     1       4.080   0.133  -8.171  1.00  0.00     0.000 A 
ATOM     30  C   UNL     1       3.075  -1.709  -7.022  1.00  0.00     0.000 A 
ATOM     31  C   UNL     1       2.984  -0.694  -7.960  1.00  0.00     0.000 A 
ENDBRANCH  25  26
ENDBRANCH  19  25
ENDBRANCH   7   8
ENDBRANCH   6   7
ENDBRANCH   4   6
ENDBRANCH   1   2
BRANCH   1  32
ATOM     32  C   UNL     1       2.552  -2.673  -2.848  1.00  0.00     0.042 C 
BRANCH  32  33
ATOM     33  C   UNL     1       3.941  -3.328  -2.914  1.00  0.00     0.118 C 
BRANCH  33  34
ATOM     34  N   UNL     1       3.963  -4.774  -2.756  1.00  0.00    -0.352 N 
ATOM     35  C   UNL     1       4.417  -5.801  -3.568  1.00  0.00     0.251 C 
ATOM     36  H   UNL     1       3.579  -5.084  -1.904  1.00  0.00     0.163 HD
ATOM     37  O   UNL     1       4.351  -6.952  -3.139  1.00  0.00    -0.269 OA
BRANCH  35  38
ATOM     38  C   UNL     1       4.917  -5.593  -4.956  1.00  0.00     0.039 A 
ATOM     39  C   UNL     1       6.042  -4.841  -5.244  1.00  0.00     0.014 A 
ATOM     40  C   UNL     1       4.319  -6.266  -6.022  1.00  0.00     0.014 A 
ATOM     41  C   UNL     1       6.360  -4.524  -6.586  1.00  0.00     0.010 A 
ATOM     42  C   UNL     1       4.701  -5.998  -7.360  1.00  0.00     0.010 A 
ATOM     43  C   UNL     1       5.607  -4.973  -7.680  1.00  0.00    -0.014 A 
BRANCH  43  44
ATOM     44  C   UNL     1       5.612  -4.278  -9.053  1.00  0.00     0.031 A 
ATOM     45  C   UNL     1       4.285  -4.059  -9.809  1.00  0.00     0.074 A 
ATOM     46  C   UNL     1       6.690  -3.683  -9.632  1.00  0.00     0.049 A 
ATOM     47  N   UNL     1       4.076  -3.629 -11.036  1.00  0.00    -0.248 NA
ATOM     48  C   UNL     1       3.031  -4.349  -9.092  1.00  0.00     0.031 C 
ATOM     49  C   UNL     1       8.051  -3.627  -9.103  1.00  0.00     0.029 A 
ATOM     50  N   UNL     1       6.797  -2.976 -10.825  1.00  0.00    -0.354 N 
ATOM     51  C   UNL     1       2.697  -3.669 -11.240  1.00  0.00     0.074 A 
ATOM     52  C   UNL     1       2.108  -4.164 -10.021  1.00  0.00     0.031 C 
ATOM     53  C   UNL     1       8.819  -2.866  -9.899  1.00  0.00     0.029 A 
ATOM     54  C   UNL     1       8.065  -2.501 -11.095  1.00  0.00     0.049 A 
ATOM     55  H   UNL     1       6.032  -2.826 -11.427  1.00  0.00     0.167 HD
ATOM     56  C   UNL     1       1.951  -3.313 -12.314  1.00  0.00     0.034 A 
ATOM     57  C   UNL     1       8.616  -1.914 -12.184  1.00  0.00     0.034 A 
ATOM     58  C   UNL     1       2.446  -2.746 -13.533  1.00  0.00     0.049 A 
ATOM     59  C   UNL     1       7.815  -1.688 -13.438  1.00  0.00     0.074 A 
ATOM     60  C   UNL     1       1.732  -2.416 -14.674  1.00  0.00     0.029 A 
ATOM     61  N   UNL     1       3.762  -2.410 -13.774  1.00  0.00    -0.354 N 
ATOM     62  N   UNL     1       6.527  -1.811 -13.626  1.00  0.00    -0.248 NA
ATOM     63  C   UNL     1       8.555  -1.264 -14.643  1.00  0.00     0.031 C 
ATOM     64  C   UNL     1       2.624  -1.905 -15.619  1.00  0.00     0.029 A 
ATOM     65  C   UNL     1       3.886  -1.897 -15.053  1.00  0.00     0.049 A 
ATOM     66  H   UNL     1       4.501  -2.519 -13.132  1.00  0.00     0.167 HD
ATOM     67  C   UNL     1       6.303  -1.475 -14.959  1.00  0.00     0.074 A 
ATOM     68  C   UNL     1       7.579  -1.121 -15.533  1.00  0.00     0.031 C 
ATOM     69  C   UNL     1       5.132  -1.486 -15.638  1.00  0.00     0.034 A 
BRANCH  56  70
ATOM     70  C   UNL     1       0.465  -3.538 -12.239  1.00  0.00     0.023 A 
ATOM     71  C   UNL     1      -0.364  -2.567 -11.645  1.00  0.00     0.012 A 
ATOM     72  C   UNL     1      -0.108  -4.670 -12.849  1.00  0.00     0.148 A 
ATOM     73  C   UNL     1      -1.749  -2.725 -11.656  1.00  0.00     0.002 A 
ATOM     74  C   UNL     1      -1.488  -4.808 -12.878  1.00  0.00     0.091 A 
ATOM     75  F   UNL     1       0.711  -5.579 -13.399  1.00  0.00    -0.205 F 
ATOM     76  C   UNL     1      -2.311  -3.838 -12.279  1.00  0.00     0.022 A 
BRANCH  74  77
ATOM     77  S   UNL     1      -2.309  -6.181 -13.692  1.00  0.00     0.127 S 
ATOM     78  O   UNL     1      -2.962  -6.843 -12.563  1.00  0.00    -0.237 OA
ATOM     79  O   UNL     1      -3.219  -5.494 -14.608  1.00  0.00    -0.237 OA
ATOM     80  O   UNL     1      -1.258  -6.957 -14.336  1.00  0.00    -0.744 OA
ENDBRANCH  74  77
ENDBRANCH  56  70
BRANCH  57  81
ATOM     81  C   UNL     1      10.068  -1.555 -12.178  1.00  0.00     0.023 A 
ATOM     82  C   UNL     1      10.462  -0.203 -12.210  1.00  0.00     0.012 A 
ATOM     83  C   UNL     1      11.058  -2.557 -12.132  1.00  0.00     0.148 A 
ATOM     84  C   UNL     1      11.816   0.142 -12.186  1.00  0.00     0.002 A 
ATOM     85  C   UNL     1      12.398  -2.206 -12.044  1.00  0.00     0.091 A 
ATOM     86  F   UNL     1      10.661  -3.837 -12.148  1.00  0.00    -0.205 F 
ATOM     87  C   UNL     1      12.781  -0.857 -12.085  1.00  0.00     0.022 A 
BRANCH  85  88
ATOM     88  S   UNL     1      13.695  -3.419 -11.782  1.00  0.00     0.127 S 
ATOM     89  O   UNL     1      14.486  -3.280 -13.003  1.00  0.00    -0.237 OA
ATOM     90  O   UNL     1      14.334  -2.908 -10.569  1.00  0.00    -0.237 OA
ATOM     91  O   UNL     1      13.015  -4.696 -11.616  1.00  0.00    -0.744 OA
ENDBRANCH  85  88
ENDBRANCH  57  81
BRANCH  69  92
ATOM     92  C   UNL     1       5.119  -1.083 -17.087  1.00  0.00     0.023 A 
ATOM     93  C   UNL     1       5.541  -2.002 -18.067  1.00  0.00     0.012 A 
ATOM     94  C   UNL     1       4.553   0.145 -17.485  1.00  0.00     0.148 A 
ATOM     95  C   UNL     1       5.404  -1.703 -19.423  1.00  0.00     0.002 A 
ATOM     96  C   UNL     1       4.389   0.422 -18.838  1.00  0.00     0.091 A 
ATOM     97  F   UNL     1       4.166   1.006 -16.534  1.00  0.00    -0.205 F 
ATOM     98  C   UNL     1       4.817  -0.499 -19.808  1.00  0.00     0.022 A 
BRANCH  96  99
ATOM     99  S   UNL     1       3.573   1.910 -19.430  1.00  0.00     0.127 S 
ATOM    100  O   UNL     1       4.679   2.622 -20.068  1.00  0.00    -0.237 OA
ATOM    101  O   UNL     1       2.578   1.371 -20.357  1.00  0.00    -0.237 OA
ATOM    102  O   UNL     1       3.016   2.561 -18.251  1.00  0.00    -0.744 OA
ENDBRANCH  96  99
ENDBRANCH  69  92
ENDBRANCH  43  44
ENDBRANCH  35  38
ENDBRANCH  33  34
ENDBRANCH  32  33
ENDBRANCH   1  32
TORSDOF 17
