REMARK SMILES O=C(NCCCNC(=O)[C@H](NC(=O)c1ccc(Br)nc1)c1ccccc1)c1ccc(-c2c3nc(c(-c4cccc(S(=O)(=O)[O-])c4F)c4ccc([nH]4)c(-c4cccc(S(=O)(=O)[O-])c4F)c4nc(c(-c5cccc(S(=O)(=O)[O-])c5F)c5ccc2[nH]5)C=C4)C=C3)cc1
REMARK SMILES IDX 4 1 3 2 1 3 2 4 27 6 28 7 89 8 29 9 88 10 30 11 31 12 32 13
REMARK SMILES IDX 82 14 33 15 87 16 81 17 83 18 34 19 86 20 80 21 79 22 35 24
REMARK SMILES IDX 67 25 47 26 66 27 48 28 51 29 65 30 84 31 49 32 50 33 64 35
REMARK SMILES IDX 85 36 52 37 36 38 37 39 45 40 38 41 40 42 46 43 39 44 41 45
REMARK SMILES IDX 42 46 43 47 44 48 68 49 69 50 77 51 70 52 72 53 78 54 71 55
REMARK SMILES IDX 73 56 74 57 75 58 76 59 53 60 54 61 62 62 55 63 57 64 63 65
REMARK SMILES IDX 56 66 58 67 59 68 60 69 61 70 5 71 6 72 7 73 8 74 9 76 10 77
REMARK SMILES IDX 21 78 22 79 26 80 23 81 25 82 24 83 11 84 12 85 13 87 14 88
REMARK SMILES IDX 15 89 20 90 16 91 19 92 17 93 18 94
REMARK H PARENT 3 5 83 23 51 34 7 75 11 86
REMARK Flexibility Score: inf
ROOT
ATOM      1  C   UNL     1      10.100   5.120  -5.356  1.00  0.00     0.118 C 
ENDROOT
BRANCH   1   2
ATOM      2  N   UNL     1      10.960   5.232  -6.527  1.00  0.00    -0.352 N 
ATOM      3  O   UNL     1      12.220   6.344  -8.026  1.00  0.00    -0.269 OA
ATOM      4  C   UNL     1      11.818   6.249  -6.868  1.00  0.00     0.251 C 
ATOM      5  H   UNL     1      10.921   4.478  -7.158  1.00  0.00     0.163 HD
BRANCH   4   6
ATOM      6  C   UNL     1      12.243   7.211  -5.832  1.00  0.00     0.039 A 
ATOM      7  C   UNL     1      12.496   6.754  -4.538  1.00  0.00     0.014 A 
ATOM      8  C   UNL     1      12.400   8.564  -6.142  1.00  0.00     0.014 A 
ATOM      9  C   UNL     1      12.727   7.661  -3.521  1.00  0.00     0.010 A 
ATOM     10  C   UNL     1      12.780   9.462  -5.139  1.00  0.00     0.010 A 
ATOM     11  C   UNL     1      12.928   9.019  -3.816  1.00  0.00    -0.014 A 
BRANCH  11  12
ATOM     12  C   UNL     1      13.424   9.892  -2.724  1.00  0.00     0.031 A 
ATOM     13  C   UNL     1      12.647  11.082  -2.241  1.00  0.00     0.074 A 
ATOM     14  C   UNL     1      14.587   9.546  -2.133  1.00  0.00     0.049 A 
ATOM     15  N   UNL     1      12.925  11.886  -1.248  1.00  0.00    -0.248 NA
ATOM     16  C   UNL     1      11.411  11.424  -2.961  1.00  0.00     0.031 C 
ATOM     17  C   UNL     1      15.448   8.437  -2.562  1.00  0.00     0.029 A 
ATOM     18  N   UNL     1      15.237  10.062  -1.044  1.00  0.00    -0.354 N 
ATOM     19  C   UNL     1      11.921  12.845  -1.238  1.00  0.00     0.074 A 
ATOM     20  C   UNL     1      11.031  12.531  -2.336  1.00  0.00     0.031 C 
ATOM     21  C   UNL     1      16.478   8.321  -1.714  1.00  0.00     0.029 A 
ATOM     22  C   UNL     1      16.400   9.396  -0.736  1.00  0.00     0.049 A 
ATOM     23  H   UNL     1      14.904  10.834  -0.532  1.00  0.00     0.167 HD
ATOM     24  C   UNL     1      11.753  13.881  -0.381  1.00  0.00     0.034 A 
ATOM     25  C   UNL     1      17.324   9.637   0.210  1.00  0.00     0.034 A 
ATOM     26  C   UNL     1      12.639  14.169   0.718  1.00  0.00     0.049 A 
ATOM     27  C   UNL     1      17.096  10.782   1.151  1.00  0.00     0.074 A 
ATOM     28  C   UNL     1      12.539  15.176   1.663  1.00  0.00     0.029 A 
ATOM     29  N   UNL     1      13.793  13.458   1.018  1.00  0.00    -0.354 N 
ATOM     30  N   UNL     1      16.084  11.612   1.207  1.00  0.00    -0.248 NA
ATOM     31  C   UNL     1      18.122  11.007   2.175  1.00  0.00     0.031 C 
ATOM     32  C   UNL     1      13.644  15.089   2.517  1.00  0.00     0.029 A 
ATOM     33  C   UNL     1      14.415  14.006   2.128  1.00  0.00     0.049 A 
ATOM     34  H   UNL     1      14.121  12.678   0.515  1.00  0.00     0.167 HD
ATOM     35  C   UNL     1      16.341  12.450   2.282  1.00  0.00     0.074 A 
ATOM     36  C   UNL     1      17.583  11.994   2.876  1.00  0.00     0.031 C 
ATOM     37  C   UNL     1      15.632  13.517   2.724  1.00  0.00     0.034 A 
BRANCH  24  38
ATOM     38  C   UNL     1      10.546  14.765  -0.567  1.00  0.00     0.023 A 
ATOM     39  C   UNL     1       9.266  14.275  -0.236  1.00  0.00     0.012 A 
ATOM     40  C   UNL     1      10.684  16.105  -0.984  1.00  0.00     0.148 A 
ATOM     41  C   UNL     1       8.142  15.095  -0.339  1.00  0.00     0.002 A 
ATOM     42  C   UNL     1       9.566  16.928  -1.042  1.00  0.00     0.091 A 
ATOM     43  F   UNL     1      11.907  16.548  -1.310  1.00  0.00    -0.205 F 
ATOM     44  C   UNL     1       8.293  16.423  -0.730  1.00  0.00     0.022 A 
BRANCH  42  45
ATOM     45  S   UNL     1       9.660  18.674  -1.457  1.00  0.00     0.127 S 
ATOM     46  O   UNL     1       8.936  18.716  -2.727  1.00  0.00    -0.237 OA
ATOM     47  O   UNL     1       8.957  19.294  -0.334  1.00  0.00    -0.237 OA
ATOM     48  O   UNL     1      11.078  18.994  -1.542  1.00  0.00    -0.744 OA
ENDBRANCH  42  45
ENDBRANCH  24  38
BRANCH  25  49
ATOM     49  C   UNL     1      18.539   8.781   0.303  1.00  0.00     0.023 A 
ATOM     50  C   UNL     1      18.742   7.964   1.431  1.00  0.00     0.012 A 
ATOM     51  C   UNL     1      19.485   8.758  -0.740  1.00  0.00     0.148 A 
ATOM     52  C   UNL     1      19.887   7.172   1.536  1.00  0.00     0.002 A 
ATOM     53  C   UNL     1      20.586   7.916  -0.661  1.00  0.00     0.091 A 
ATOM     54  F   UNL     1      19.283   9.553  -1.801  1.00  0.00    -0.205 F 
ATOM     55  C   UNL     1      20.801   7.139   0.486  1.00  0.00     0.022 A 
BRANCH  53  56
ATOM     56  S   UNL     1      21.721   7.702  -2.035  1.00  0.00     0.127 S 
ATOM     57  O   UNL     1      22.890   8.447  -1.576  1.00  0.00    -0.237 OA
ATOM     58  O   UNL     1      21.890   6.249  -2.068  1.00  0.00    -0.237 OA
ATOM     59  O   UNL     1      21.033   8.248  -3.198  1.00  0.00    -0.744 OA
ENDBRANCH  53  56
ENDBRANCH  25  49
BRANCH  37  60
ATOM     60  C   UNL     1      16.176  14.243   3.926  1.00  0.00     0.023 A 
ATOM     61  C   UNL     1      17.358  15.004   3.810  1.00  0.00     0.012 A 
ATOM     62  C   UNL     1      15.508  14.186   5.163  1.00  0.00     0.148 A 
ATOM     63  C   UNL     1      17.894  15.653   4.921  1.00  0.00     0.002 A 
ATOM     64  C   UNL     1      16.017  14.882   6.252  1.00  0.00     0.091 A 
ATOM     65  F   UNL     1      14.396  13.442   5.258  1.00  0.00    -0.205 F 
ATOM     66  C   UNL     1      17.219  15.600   6.138  1.00  0.00     0.022 A 
BRANCH  64  67
ATOM     67  S   UNL     1      15.168  14.949   7.832  1.00  0.00     0.127 S 
ATOM     68  O   UNL     1      16.015  14.094   8.662  1.00  0.00    -0.237 OA
ATOM     69  O   UNL     1      15.234  16.374   8.159  1.00  0.00    -0.237 OA
ATOM     70  O   UNL     1      13.822  14.448   7.586  1.00  0.00    -0.744 OA
ENDBRANCH  64  67
ENDBRANCH  37  60
ENDBRANCH  11  12
ENDBRANCH   4   6
ENDBRANCH   1   2
BRANCH   1  71
ATOM     71  C   UNL     1       8.640   5.299  -5.732  1.00  0.00     0.042 C 
BRANCH  71  72
ATOM     72  C   UNL     1       8.114   4.103  -6.516  1.00  0.00     0.117 C 
BRANCH  72  73
ATOM     73  N   UNL     1       7.946   2.953  -5.646  1.00  0.00    -0.354 N 
ATOM     74  C   UNL     1       6.925   2.748  -4.753  1.00  0.00     0.247 C 
ATOM     75  H   UNL     1       8.632   2.249  -5.704  1.00  0.00     0.163 HD
ATOM     76  O   UNL     1       6.989   1.793  -3.976  1.00  0.00    -0.272 OA
BRANCH  74  77
ATOM     77  C   UNL     1       5.722   3.723  -4.778  1.00  0.00     0.202 C 
BRANCH  77  78
ATOM     78  C   UNL     1       4.598   3.192  -5.646  1.00  0.00    -0.016 A 
ATOM     79  C   UNL     1       4.121   3.971  -6.714  1.00  0.00     0.006 A 
ATOM     80  C   UNL     1       4.026   1.931  -5.432  1.00  0.00     0.006 A 
ATOM     81  C   UNL     1       3.047   3.546  -7.492  1.00  0.00     0.000 A 
ATOM     82  C   UNL     1       2.977   1.486  -6.239  1.00  0.00     0.000 A 
ATOM     83  C   UNL     1       2.473   2.302  -7.252  1.00  0.00     0.000 A 
ENDBRANCH  77  78
BRANCH  77  84
ATOM     84  N   UNL     1       5.306   4.035  -3.412  1.00  0.00    -0.336 N 
ATOM     85  C   UNL     1       5.035   5.281  -2.895  1.00  0.00     0.253 C 
ATOM     86  H   UNL     1       5.209   3.272  -2.796  1.00  0.00     0.165 HD
ATOM     87  O   UNL     1       4.995   5.486  -1.689  1.00  0.00    -0.269 OA
BRANCH  85  88
ATOM     88  C   UNL     1       4.796   6.393  -3.828  1.00  0.00     0.058 A 
ATOM     89  C   UNL     1       3.672   6.401  -4.651  1.00  0.00     0.018 A 
ATOM     90  C   UNL     1       5.728   7.408  -3.964  1.00  0.00     0.126 A 
ATOM     91  C   UNL     1       3.564   7.375  -5.641  1.00  0.00     0.037 A 
ATOM     92  N   UNL     1       5.653   8.356  -4.932  1.00  0.00    -0.249 NA
ATOM     93  C   UNL     1       4.579   8.316  -5.754  1.00  0.00     0.106 A 
ATOM     94  Br  UNL     1       4.500   9.570  -7.174  1.00  0.00    -0.029 Br
ENDBRANCH  85  88
ENDBRANCH  77  84
ENDBRANCH  74  77
ENDBRANCH  72  73
ENDBRANCH  71  72
ENDBRANCH   1  71
TORSDOF 16
