REMARK SMILES CCOC(=O)[C@H]1CCCN(c2cc(C(=O)NCCCNC(=O)c3ccc(-c4c5nc(c(-c6cccc(S(=O)(=O)[O-])c6F)c6ccc([nH]6)c(-c6cccc(S(=O)(=O)[O-])c6F)c6nc(c(-c7cccc(S(=O)(=O)[O-])c7F)c7ccc4[nH]7)C=C6)C=C5)cc3)c3cc(NC(=O)c4ccc(Cl)cc4)ccc3n2)C1
REMARK SMILES IDX 17 1 16 2 14 3 15 4 13 6 11 7 12 8 102 9 101 10 86 11 100 12
REMARK SMILES IDX 87 13 99 14 88 15 10 16 6 17 7 18 103 19 8 20 9 21 4 22 5 23
REMARK SMILES IDX 3 24 2 25 1 26 89 27 90 28 91 30 92 31 93 32 98 33 94 34
REMARK SMILES IDX 97 35 95 36 96 37 18 38 19 39 20 40 21 41 22 43 23 44 24 45
REMARK SMILES IDX 85 46 25 47 84 48 26 49 27 50 28 51 78 52 29 53 83 54 77 55
REMARK SMILES IDX 79 56 30 57 82 58 76 59 75 60 31 62 63 63 43 64 62 65 44 66
REMARK SMILES IDX 47 67 61 68 80 69 45 70 46 71 60 73 81 74 48 75 32 76 33 77
REMARK SMILES IDX 41 78 34 79 36 80 42 81 35 82 37 83 38 84 39 85 40 86 64 87
REMARK SMILES IDX 65 88 73 89 66 90 68 91 74 92 67 93 69 94 70 95 71 96 72 97
REMARK SMILES IDX 49 98 50 99 58 100 51 101 53 102 59 103 52 104 54 105 55 106
REMARK SMILES IDX 56 107 57 108
REMARK H PARENT 16 5 89 29 20 42 79 61 47 72
REMARK Flexibility Score: inf
ROOT
ATOM      1  C   UNL     1       6.571   0.414  -3.333  1.00  0.00     0.118 C 
ENDROOT
BRANCH   1   2
ATOM      2  N   UNL     1       5.555  -0.219  -2.515  1.00  0.00    -0.352 N 
ATOM      3  C   UNL     1       4.732   0.290  -1.525  1.00  0.00     0.252 C 
ATOM      4  O   UNL     1       3.781  -0.426  -1.191  1.00  0.00    -0.269 OA
ATOM      5  H   UNL     1       5.428  -1.178  -2.695  1.00  0.00     0.163 HD
BRANCH   3   6
ATOM      6  C   UNL     1       4.908   1.589  -0.772  1.00  0.00     0.052 A 
ATOM      7  C   UNL     1       4.448   2.680   1.348  1.00  0.00     0.130 A 
ATOM      8  C   UNL     1       4.478   1.535   0.562  1.00  0.00     0.061 A 
ATOM      9  N   UNL     1       4.930   3.850   0.888  1.00  0.00    -0.231 NA
ATOM     10  C   UNL     1       5.357   3.939  -0.377  1.00  0.00     0.074 A 
ATOM     11  C   UNL     1       5.287   2.856  -1.267  1.00  0.00     0.015 A 
ATOM     12  C   UNL     1       5.816   5.172  -0.843  1.00  0.00     0.031 A 
ATOM     13  C   UNL     1       5.490   3.151  -2.616  1.00  0.00     0.037 A 
ATOM     14  C   UNL     1       6.085   5.408  -2.198  1.00  0.00     0.028 A 
ATOM     15  C   UNL     1       5.820   4.405  -3.111  1.00  0.00     0.042 A 
BRANCH   7  16
ATOM     16  N   UNL     1       3.836   2.671   2.579  1.00  0.00    -0.356 N 
ATOM     17  C   UNL     1       2.773   1.021   4.025  1.00  0.00     0.118 C 
ATOM     18  C   UNL     1       1.776   2.119   4.447  1.00  0.00     0.019 C 
ATOM     19  C   UNL     1       4.097   1.639   3.571  1.00  0.00     0.133 C 
ATOM     20  C   UNL     1       1.620   3.199   3.375  1.00  0.00     0.022 C 
ATOM     21  C   UNL     1       2.976   3.779   2.961  1.00  0.00     0.118 C 
BRANCH  17  22
ATOM     22  C   UNL     1       3.011   0.055   5.168  1.00  0.00     0.310 C 
ATOM     23  O   UNL     1       2.361   0.031   6.205  1.00  0.00    -0.252 OA
BRANCH  22  24
ATOM     24  O   UNL     1       4.009  -0.820   4.861  1.00  0.00    -0.466 OA
BRANCH  24  25
ATOM     25  C   UNL     1       4.285  -1.830   5.843  1.00  0.00     0.229 C 
ATOM     26  C   UNL     1       5.174  -1.281   6.944  1.00  0.00     0.049 C 
ENDBRANCH  24  25
ENDBRANCH  22  24
ENDBRANCH  17  22
ENDBRANCH   7  16
BRANCH  15  27
ATOM     27  N   UNL     1       5.865   4.668  -4.491  1.00  0.00    -0.322 N 
ATOM     28  C   UNL     1       5.293   3.998  -5.565  1.00  0.00     0.255 C 
ATOM     29  H   UNL     1       6.391   5.462  -4.739  1.00  0.00     0.170 HD
ATOM     30  O   UNL     1       5.683   4.256  -6.703  1.00  0.00    -0.269 OA
BRANCH  28  31
ATOM     31  C   UNL     1       4.194   2.992  -5.397  1.00  0.00     0.040 A 
ATOM     32  C   UNL     1       4.215   1.856  -6.211  1.00  0.00     0.015 A 
ATOM     33  C   UNL     1       3.197   3.096  -4.418  1.00  0.00     0.015 A 
ATOM     34  C   UNL     1       3.351   0.781  -5.962  1.00  0.00     0.021 A 
ATOM     35  C   UNL     1       2.379   1.996  -4.122  1.00  0.00     0.021 A 
ATOM     36  C   UNL     1       2.477   0.833  -4.882  1.00  0.00     0.041 A 
ATOM     37  Cl  UNL     1       1.536  -0.546  -4.474  1.00  0.00    -0.084 Cl
ENDBRANCH  28  31
ENDBRANCH  15  27
ENDBRANCH   3   6
ENDBRANCH   1   2
BRANCH   1  38
ATOM     38  C   UNL     1       7.630  -0.435  -4.007  1.00  0.00     0.042 C 
BRANCH  38  39
ATOM     39  C   UNL     1       7.159  -1.383  -5.104  1.00  0.00     0.118 C 
BRANCH  39  40
ATOM     40  N   UNL     1       6.399  -0.777  -6.204  1.00  0.00    -0.352 N 
ATOM     41  C   UNL     1       6.718  -0.463  -7.509  1.00  0.00     0.251 C 
ATOM     42  H   UNL     1       5.472  -0.549  -5.962  1.00  0.00     0.163 HD
ATOM     43  O   UNL     1       5.880   0.039  -8.261  1.00  0.00    -0.269 OA
BRANCH  41  44
ATOM     44  C   UNL     1       8.055  -0.749  -8.035  1.00  0.00     0.039 A 
ATOM     45  C   UNL     1       8.760   0.184  -8.806  1.00  0.00     0.014 A 
ATOM     46  C   UNL     1       8.601  -1.991  -7.750  1.00  0.00     0.014 A 
ATOM     47  C   UNL     1      10.068  -0.110  -9.201  1.00  0.00     0.010 A 
ATOM     48  C   UNL     1       9.937  -2.205  -7.987  1.00  0.00     0.010 A 
ATOM     49  C   UNL     1      10.675  -1.289  -8.748  1.00  0.00    -0.014 A 
BRANCH  49  50
ATOM     50  C   UNL     1      12.071  -1.675  -9.044  1.00  0.00     0.031 A 
ATOM     51  C   UNL     1      12.308  -3.026  -9.671  1.00  0.00     0.074 A 
ATOM     52  C   UNL     1      13.075  -0.941  -8.529  1.00  0.00     0.049 A 
ATOM     53  N   UNL     1      13.404  -3.729  -9.728  1.00  0.00    -0.248 NA
ATOM     54  C   UNL     1      11.124  -3.724 -10.216  1.00  0.00     0.031 C 
ATOM     55  C   UNL     1      12.919   0.320  -7.796  1.00  0.00     0.029 A 
ATOM     56  N   UNL     1      14.422  -1.185  -8.482  1.00  0.00    -0.354 N 
ATOM     57  C   UNL     1      13.026  -4.973 -10.222  1.00  0.00     0.074 A 
ATOM     58  C   UNL     1      11.596  -4.947 -10.410  1.00  0.00     0.031 C 
ATOM     59  C   UNL     1      14.121   0.732  -7.364  1.00  0.00     0.029 A 
ATOM     60  C   UNL     1      15.123  -0.252  -7.750  1.00  0.00     0.049 A 
ATOM     61  H   UNL     1      14.848  -1.952  -8.927  1.00  0.00     0.167 HD
ATOM     62  C   UNL     1      13.814  -6.032 -10.513  1.00  0.00     0.034 A 
ATOM     63  C   UNL     1      16.426  -0.218  -7.414  1.00  0.00     0.034 A 
ATOM     64  C   UNL     1      15.244  -5.980 -10.407  1.00  0.00     0.049 A 
ATOM     65  C   UNL     1      17.302  -1.340  -7.899  1.00  0.00     0.074 A 
ATOM     66  C   UNL     1      16.175  -6.908 -10.830  1.00  0.00     0.029 A 
ATOM     67  N   UNL     1      15.947  -4.927  -9.841  1.00  0.00    -0.354 N 
ATOM     68  N   UNL     1      16.958  -2.438  -8.530  1.00  0.00    -0.248 NA
ATOM     69  C   UNL     1      18.745  -1.204  -7.668  1.00  0.00     0.031 C 
ATOM     70  C   UNL     1      17.443  -6.427 -10.493  1.00  0.00     0.029 A 
ATOM     71  C   UNL     1      17.302  -5.182  -9.897  1.00  0.00     0.049 A 
ATOM     72  H   UNL     1      15.540  -4.117  -9.456  1.00  0.00     0.167 HD
ATOM     73  C   UNL     1      18.142  -3.106  -8.808  1.00  0.00     0.074 A 
ATOM     74  C   UNL     1      19.214  -2.275  -8.294  1.00  0.00     0.031 C 
ATOM     75  C   UNL     1      18.335  -4.301  -9.418  1.00  0.00     0.034 A 
BRANCH  62  76
ATOM     76  C   UNL     1      13.169  -7.295 -11.025  1.00  0.00     0.023 A 
ATOM     77  C   UNL     1      12.549  -7.310 -12.292  1.00  0.00     0.012 A 
ATOM     78  C   UNL     1      13.239  -8.489 -10.281  1.00  0.00     0.148 A 
ATOM     79  C   UNL     1      11.979  -8.480 -12.794  1.00  0.00     0.002 A 
ATOM     80  C   UNL     1      12.717  -9.664 -10.810  1.00  0.00     0.091 A 
ATOM     81  F   UNL     1      13.810  -8.454  -9.069  1.00  0.00    -0.205 F 
ATOM     82  C   UNL     1      12.075  -9.658 -12.059  1.00  0.00     0.022 A 
BRANCH  80  83
ATOM     83  S   UNL     1      12.866 -11.254  -9.987  1.00  0.00     0.127 S 
ATOM     84  O   UNL     1      11.466 -11.575  -9.710  1.00  0.00    -0.237 OA
ATOM     85  O   UNL     1      13.487 -12.076 -11.025  1.00  0.00    -0.237 OA
ATOM     86  O   UNL     1      13.691 -11.025  -8.809  1.00  0.00    -0.744 OA
ENDBRANCH  80  83
ENDBRANCH  62  76
BRANCH  63  87
ATOM     87  C   UNL     1      16.979   0.938  -6.654  1.00  0.00     0.023 A 
ATOM     88  C   UNL     1      17.835   1.847  -7.307  1.00  0.00     0.012 A 
ATOM     89  C   UNL     1      16.638   1.170  -5.307  1.00  0.00     0.148 A 
ATOM     90  C   UNL     1      18.374   2.939  -6.624  1.00  0.00     0.002 A 
ATOM     91  C   UNL     1      17.133   2.291  -4.648  1.00  0.00     0.091 A 
ATOM     92  F   UNL     1      15.825   0.295  -4.697  1.00  0.00    -0.205 F 
ATOM     93  C   UNL     1      18.017   3.165  -5.299  1.00  0.00     0.022 A 
BRANCH  91  94
ATOM     94  S   UNL     1      16.613   2.735  -2.987  1.00  0.00     0.127 S 
ATOM     95  O   UNL     1      17.792   2.386  -2.200  1.00  0.00    -0.237 OA
ATOM     96  O   UNL     1      16.363   4.171  -3.119  1.00  0.00    -0.237 OA
ATOM     97  O   UNL     1      15.417   1.944  -2.728  1.00  0.00    -0.744 OA
ENDBRANCH  91  94
ENDBRANCH  63  87
BRANCH  75  98
ATOM     98  C   UNL     1      19.754  -4.754  -9.607  1.00  0.00     0.023 A 
ATOM     99  C   UNL     1      20.502  -5.203  -8.503  1.00  0.00     0.012 A 
ATOM    100  C   UNL     1      20.309  -4.811 -10.899  1.00  0.00     0.148 A 
ATOM    101  C   UNL     1      21.802  -5.671  -8.679  1.00  0.00     0.002 A 
ATOM    102  C   UNL     1      21.582  -5.333 -11.074  1.00  0.00     0.091 A 
ATOM    103  F   UNL     1      19.579  -4.362 -11.931  1.00  0.00    -0.205 F 
ATOM    104  C   UNL     1      22.336  -5.749  -9.964  1.00  0.00     0.022 A 
BRANCH 102 105
ATOM    105  S   UNL     1      22.302  -5.575 -12.700  1.00  0.00     0.127 S 
ATOM    106  O   UNL     1      23.337  -4.543 -12.722  1.00  0.00    -0.237 OA
ATOM    107  O   UNL     1      22.807  -6.946 -12.612  1.00  0.00    -0.237 OA
ATOM    108  O   UNL     1      21.216  -5.392 -13.653  1.00  0.00    -0.744 OA
ENDBRANCH 102 105
ENDBRANCH  75  98
ENDBRANCH  49  50
ENDBRANCH  41  44
ENDBRANCH  39  40
ENDBRANCH  38  39
ENDBRANCH   1  38
TORSDOF 19
