REMARK SMILES O=C(NCCCNC(=O)[C@@H]1CCCN(C(=O)CCCc2ccc(Br)s2)C1)c1ccc(-c2c3nc(c(-c4cccc(S(=O)(=O)[O-])c4F)c4ccc([nH]4)c(-c4cccc(S(=O)(=O)[O-])c4F)c4nc(c(-c5cccc(S(=O)(=O)[O-])c5F)c5ccc2[nH]5)C=C4)C=C3)cc1
REMARK SMILES IDX 6 1 5 2 4 3 3 4 1 5 2 6 27 8 28 9 89 10 29 11 88 12 30 13
REMARK SMILES IDX 31 14 32 15 82 16 33 17 87 18 81 19 83 20 34 21 86 22 80 23
REMARK SMILES IDX 79 24 35 26 67 27 47 28 66 29 48 30 51 31 65 32 84 33 49 34
REMARK SMILES IDX 50 35 64 37 85 38 52 39 36 40 37 41 45 42 38 43 40 44 46 45
REMARK SMILES IDX 39 46 41 47 42 48 43 49 44 50 68 51 69 52 77 53 70 54 72 55
REMARK SMILES IDX 78 56 71 57 73 58 74 59 75 60 76 61 53 62 54 63 62 64 55 65
REMARK SMILES IDX 57 66 63 67 56 68 58 69 59 70 60 71 61 72 7 73 8 74 9 76
REMARK SMILES IDX 10 77 11 78 26 79 12 80 14 81 13 82 15 83 16 84 17 85 18 86
REMARK SMILES IDX 19 87 20 88 21 89 25 90 22 91 23 92 24 93
REMARK H PARENT 3 7 83 25 51 36 7 75
REMARK Flexibility Score: inf
ROOT
ATOM      1  C   UNL     1       4.211   2.818   2.378  1.00  0.00     0.117 C 
ENDROOT
BRANCH   1   2
ATOM      2  C   UNL     1       4.890   2.028   1.272  1.00  0.00     0.042 C 
BRANCH   2   3
ATOM      3  C   UNL     1       4.492   0.561   1.228  1.00  0.00     0.118 C 
BRANCH   3   4
ATOM      4  N   UNL     1       3.061   0.371   1.048  1.00  0.00    -0.352 N 
ATOM      5  O   UNL     1       1.131   0.021  -0.044  1.00  0.00    -0.269 OA
ATOM      6  C   UNL     1       2.351  -0.088  -0.036  1.00  0.00     0.251 C 
ATOM      7  H   UNL     1       2.511   0.611   1.828  1.00  0.00     0.163 HD
BRANCH   6   8
ATOM      8  C   UNL     1       3.058  -0.691  -1.187  1.00  0.00     0.039 A 
ATOM      9  C   UNL     1       4.122  -1.572  -0.988  1.00  0.00     0.014 A 
ATOM     10  C   UNL     1       2.623  -0.402  -2.483  1.00  0.00     0.014 A 
ATOM     11  C   UNL     1       4.843  -2.047  -2.076  1.00  0.00     0.010 A 
ATOM     12  C   UNL     1       3.285  -0.963  -3.578  1.00  0.00     0.010 A 
ATOM     13  C   UNL     1       4.414  -1.775  -3.383  1.00  0.00    -0.014 A 
BRANCH  13  14
ATOM     14  C   UNL     1       5.079  -2.455  -4.522  1.00  0.00     0.031 A 
ATOM     15  C   UNL     1       5.792  -1.679  -5.592  1.00  0.00     0.074 A 
ATOM     16  C   UNL     1       4.997  -3.799  -4.593  1.00  0.00     0.049 A 
ATOM     17  N   UNL     1       6.397  -2.128  -6.661  1.00  0.00    -0.248 NA
ATOM     18  C   UNL     1       5.828  -0.214  -5.455  1.00  0.00     0.031 C 
ATOM     19  C   UNL     1       4.288  -4.651  -3.632  1.00  0.00     0.029 A 
ATOM     20  N   UNL     1       5.489  -4.684  -5.517  1.00  0.00    -0.354 N 
ATOM     21  C   UNL     1       6.842  -1.008  -7.349  1.00  0.00     0.074 A 
ATOM     22  C   UNL     1       6.448   0.148  -6.572  1.00  0.00     0.031 C 
ATOM     23  C   UNL     1       4.391  -5.930  -4.015  1.00  0.00     0.029 A 
ATOM     24  C   UNL     1       5.114  -5.986  -5.279  1.00  0.00     0.049 A 
ATOM     25  H   UNL     1       6.056  -4.415  -6.276  1.00  0.00     0.167 HD
ATOM     26  C   UNL     1       7.519  -0.954  -8.521  1.00  0.00     0.034 A 
ATOM     27  C   UNL     1       5.287  -7.099  -6.016  1.00  0.00     0.034 A 
ATOM     28  C   UNL     1       7.932  -2.112  -9.269  1.00  0.00     0.049 A 
ATOM     29  C   UNL     1       6.042  -7.000  -7.309  1.00  0.00     0.074 A 
ATOM     30  C   UNL     1       8.712  -2.161 -10.412  1.00  0.00     0.029 A 
ATOM     31  N   UNL     1       7.574  -3.418  -8.974  1.00  0.00    -0.354 N 
ATOM     32  N   UNL     1       6.604  -5.950  -7.855  1.00  0.00    -0.248 NA
ATOM     33  C   UNL     1       6.206  -8.241  -8.079  1.00  0.00     0.031 C 
ATOM     34  C   UNL     1       8.785  -3.492 -10.834  1.00  0.00     0.029 A 
ATOM     35  C   UNL     1       8.085  -4.277  -9.933  1.00  0.00     0.049 A 
ATOM     36  H   UNL     1       7.036  -3.695  -8.197  1.00  0.00     0.167 HD
ATOM     37  C   UNL     1       7.205  -6.405  -9.021  1.00  0.00     0.074 A 
ATOM     38  C   UNL     1       6.967  -7.832  -9.085  1.00  0.00     0.031 C 
ATOM     39  C   UNL     1       7.877  -5.701  -9.964  1.00  0.00     0.034 A 
BRANCH  26  40
ATOM     40  C   UNL     1       7.879   0.398  -9.080  1.00  0.00     0.023 A 
ATOM     41  C   UNL     1       8.918   1.148  -8.496  1.00  0.00     0.012 A 
ATOM     42  C   UNL     1       7.262   0.870 -10.257  1.00  0.00     0.148 A 
ATOM     43  C   UNL     1       9.325   2.356  -9.063  1.00  0.00     0.002 A 
ATOM     44  C   UNL     1       7.701   2.052 -10.839  1.00  0.00     0.091 A 
ATOM     45  F   UNL     1       6.264   0.148 -10.787  1.00  0.00    -0.205 F 
ATOM     46  C   UNL     1       8.727   2.801 -10.239  1.00  0.00     0.022 A 
BRANCH  44  47
ATOM     47  S   UNL     1       7.052   2.668 -12.397  1.00  0.00     0.127 S 
ATOM     48  O   UNL     1       6.356   3.880 -11.967  1.00  0.00    -0.237 OA
ATOM     49  O   UNL     1       8.275   2.908 -13.164  1.00  0.00    -0.237 OA
ATOM     50  O   UNL     1       6.198   1.614 -12.924  1.00  0.00    -0.744 OA
ENDBRANCH  44  47
ENDBRANCH  26  40
BRANCH  27  51
ATOM     51  C   UNL     1       4.725  -8.396  -5.547  1.00  0.00     0.023 A 
ATOM     52  C   UNL     1       5.591  -9.436  -5.162  1.00  0.00     0.012 A 
ATOM     53  C   UNL     1       3.332  -8.594  -5.462  1.00  0.00     0.148 A 
ATOM     54  C   UNL     1       5.081 -10.663  -4.736  1.00  0.00     0.002 A 
ATOM     55  C   UNL     1       2.831  -9.795  -4.976  1.00  0.00     0.091 A 
ATOM     56  F   UNL     1       2.523  -7.596  -5.846  1.00  0.00    -0.205 F 
ATOM     57  C   UNL     1       3.703 -10.838  -4.632  1.00  0.00     0.022 A 
BRANCH  55  58
ATOM     58  S   UNL     1       1.079 -10.050  -4.678  1.00  0.00     0.127 S 
ATOM     59  O   UNL     1       0.718 -10.948  -5.772  1.00  0.00    -0.237 OA
ATOM     60  O   UNL     1       1.083 -10.664  -3.350  1.00  0.00    -0.237 OA
ATOM     61  O   UNL     1       0.478  -8.723  -4.720  1.00  0.00    -0.744 OA
ENDBRANCH  55  58
ENDBRANCH  27  51
BRANCH  39  62
ATOM     62  C   UNL     1       8.425  -6.463 -11.141  1.00  0.00     0.023 A 
ATOM     63  C   UNL     1       7.546  -6.950 -12.128  1.00  0.00     0.012 A 
ATOM     64  C   UNL     1       9.814  -6.625 -11.307  1.00  0.00     0.148 A 
ATOM     65  C   UNL     1       8.041  -7.613 -13.251  1.00  0.00     0.002 A 
ATOM     66  C   UNL     1      10.303  -7.239 -12.453  1.00  0.00     0.091 A 
ATOM     67  F   UNL     1      10.630  -6.166 -10.347  1.00  0.00    -0.205 F 
ATOM     68  C   UNL     1       9.418  -7.745 -13.419  1.00  0.00     0.022 A 
BRANCH  66  69
ATOM     69  S   UNL     1      12.059  -7.371 -12.805  1.00  0.00     0.127 S 
ATOM     70  O   UNL     1      12.271  -8.816 -12.724  1.00  0.00    -0.237 OA
ATOM     71  O   UNL     1      12.144  -6.816 -14.156  1.00  0.00    -0.237 OA
ATOM     72  O   UNL     1      12.737  -6.588 -11.782  1.00  0.00    -0.744 OA
ENDBRANCH  66  69
ENDBRANCH  39  62
ENDBRANCH  13  14
ENDBRANCH   6   8
ENDBRANCH   3   4
ENDBRANCH   2   3
ENDBRANCH   1   2
BRANCH   1  73
ATOM     73  N   UNL     1       4.416   2.255   3.701  1.00  0.00    -0.356 N 
ATOM     74  C   UNL     1       5.340   2.522   4.664  1.00  0.00     0.224 C 
ATOM     75  H   UNL     1       3.770   1.553   3.946  1.00  0.00     0.163 HD
ATOM     76  O   UNL     1       5.274   1.864   5.705  1.00  0.00    -0.275 OA
BRANCH  74  77
ATOM     77  C   UNL     1       6.441   3.548   4.416  1.00  0.00     0.098 C 
ATOM     78  C   UNL     1       7.561   3.438   5.476  1.00  0.00     0.017 C 
ATOM     79  C   UNL     1       5.912   4.984   4.343  1.00  0.00     0.132 C 
ATOM     80  C   UNL     1       7.191   4.107   6.803  1.00  0.00     0.022 C 
ATOM     81  N   UNL     1       5.607   5.558   5.647  1.00  0.00    -0.342 N 
ATOM     82  C   UNL     1       6.726   5.542   6.577  1.00  0.00     0.119 C 
BRANCH  81  83
ATOM     83  C   UNL     1       4.336   6.060   5.875  1.00  0.00     0.222 C 
ATOM     84  O   UNL     1       3.424   5.934   5.053  1.00  0.00    -0.275 OA
BRANCH  83  85
ATOM     85  C   UNL     1       4.059   6.840   7.146  1.00  0.00     0.100 C 
BRANCH  85  86
ATOM     86  C   UNL     1       3.408   6.024   8.267  1.00  0.00     0.015 C 
BRANCH  86  87
ATOM     87  C   UNL     1       4.343   5.239   9.194  1.00  0.00     0.047 C 
BRANCH  87  88
ATOM     88  C   UNL     1       5.422   6.050   9.867  1.00  0.00     0.006 A 
ATOM     89  C   UNL     1       5.533   7.417  10.061  1.00  0.00     0.016 A 
ATOM     90  S   UNL     1       6.803   5.232  10.496  1.00  0.00    -0.133 S 
ATOM     91  C   UNL     1       6.814   7.795  10.567  1.00  0.00     0.028 A 
ATOM     92  C   UNL     1       7.588   6.694  10.826  1.00  0.00     0.070 A 
ATOM     93  Br  UNL     1       9.343   6.793  11.473  1.00  0.00    -0.039 Br
ENDBRANCH  87  88
ENDBRANCH  86  87
ENDBRANCH  85  86
ENDBRANCH  83  85
ENDBRANCH  81  83
ENDBRANCH  74  77
ENDBRANCH   1  73
TORSDOF 18
