REMARK SMILES Cc1nn([C@H]2CCS(=O)(=O)C2)c(C)c1[C@@H]([NH3+])C(=O)NCCCNC(=O)c1ccc(-c2c3nc(c(-c4cccc(S(=O)(=O)[O-])c4F)c4ccc([nH]4)c(-c4cccc(S(=O)(=O)[O-])c4F)c4nc(c(-c5cccc(S(=O)(=O)[O-])c5F)c5ccc2[nH]5)C=C4)C=C3)cc1
REMARK SMILES IDX 21 1 20 2 19 3 17 4 18 5 15 7 14 8 1 9 2 10 3 11 4 12 12 13
REMARK SMILES IDX 13 14 5 15 6 16 11 17 7 18 8 19 9 20 10 21 16 22 22 26 23 27
REMARK SMILES IDX 24 28 25 30 26 31 27 32 88 33 28 34 87 35 29 36 30 37 31 38
REMARK SMILES IDX 81 39 32 40 86 41 80 42 82 43 33 44 85 45 79 46 78 47 34 49
REMARK SMILES IDX 66 50 46 51 65 52 47 53 50 54 64 55 83 56 48 57 49 58 63 60
REMARK SMILES IDX 84 61 51 62 35 63 36 64 44 65 37 66 39 67 45 68 38 69 40 70
REMARK SMILES IDX 41 71 42 72 43 73 67 74 68 75 76 76 69 77 71 78 77 79 70 80
REMARK SMILES IDX 72 81 73 82 74 83 75 84 52 85 53 86 61 87 54 88 56 89 62 90
REMARK SMILES IDX 55 91 57 92 58 93 59 94 60 95
REMARK H PARENT 19 6 16 23 16 24 16 25 23 29 82 48 50 59
REMARK Flexibility Score: inf
ROOT
ATOM      1  C   UNL     1       1.955  -2.620   7.072  1.00  0.00     0.042 C 
ENDROOT
BRANCH   1   2
ATOM      2  C   UNL     1       3.272  -3.233   6.597  1.00  0.00     0.118 C 
BRANCH   2   3
ATOM      3  N   UNL     1       3.163  -4.661   6.381  1.00  0.00    -0.351 N 
ATOM      4  C   UNL     1       2.837  -5.337   5.239  1.00  0.00     0.283 C 
ATOM      5  O   UNL     1       2.911  -6.571   5.273  1.00  0.00    -0.268 OA
ATOM      6  H   UNL     1       3.349  -5.224   7.167  1.00  0.00     0.163 HD
BRANCH   4   7
ATOM      7  C   UNL     1       2.490  -4.628   3.900  1.00  0.00     0.306 C 
BRANCH   7   8
ATOM      8  C   UNL     1       1.257  -3.761   3.937  1.00  0.00     0.063 A 
ATOM      9  C   UNL     1      -0.509  -5.543   3.167  1.00  0.00     0.069 C 
ATOM     10  C   UNL     1      -0.079  -4.224   3.711  1.00  0.00     0.069 A 
ATOM     11  N   UNL     1      -0.989  -3.275   3.962  1.00  0.00    -0.177 NA
ATOM     12  N   UNL     1      -0.263  -2.200   4.297  1.00  0.00    -0.265 N 
ATOM     13  C   UNL     1       1.081  -2.378   4.022  1.00  0.00     0.046 A 
ATOM     14  C   UNL     1       2.035  -1.243   3.886  1.00  0.00     0.067 C 
BRANCH  12  15
ATOM     15  C   UNL     1      -0.923  -0.967   4.689  1.00  0.00     0.123 C 
ATOM     16  C   UNL     1      -2.443  -1.027   4.961  1.00  0.00     0.044 C 
ATOM     17  C   UNL     1      -0.377  -0.362   5.982  1.00  0.00     0.164 C 
ATOM     18  C   UNL     1      -2.846   0.379   5.421  1.00  0.00     0.139 C 
ATOM     19  S   UNL     1      -1.401   1.060   6.216  1.00  0.00     0.152 S 
ATOM     20  O   UNL     1      -0.869   2.116   5.383  1.00  0.00    -0.229 OA
ATOM     21  O   UNL     1      -1.649   1.243   7.633  1.00  0.00    -0.229 OA
ENDBRANCH  12  15
ENDBRANCH   7   8
BRANCH   7  22
ATOM     22  N   UNL     1       3.664  -3.905   3.378  1.00  0.00    -0.343 N 
ATOM     23  H   UNL     1       3.918  -3.157   4.024  1.00  0.00     0.345 HD
ATOM     24  H   UNL     1       3.440  -3.505   2.466  1.00  0.00     0.345 HD
ATOM     25  H   UNL     1       4.447  -4.552   3.282  1.00  0.00     0.345 HD
ENDBRANCH   7  22
ENDBRANCH   4   7
ENDBRANCH   2   3
ENDBRANCH   1   2
BRANCH   1  26
ATOM     26  C   UNL     1       1.896  -2.409   8.562  1.00  0.00     0.118 C 
BRANCH  26  27
ATOM     27  N   UNL     1       2.650  -1.223   9.021  1.00  0.00    -0.352 N 
ATOM     28  C   UNL     1       2.746  -0.696  10.310  1.00  0.00     0.251 C 
ATOM     29  H   UNL     1       3.150  -0.740   8.324  1.00  0.00     0.163 HD
ATOM     30  O   UNL     1       3.141   0.450  10.491  1.00  0.00    -0.269 OA
BRANCH  28  31
ATOM     31  C   UNL     1       2.374  -1.556  11.452  1.00  0.00     0.039 A 
ATOM     32  C   UNL     1       1.792  -1.129  12.649  1.00  0.00     0.014 A 
ATOM     33  C   UNL     1       2.555  -2.900  11.255  1.00  0.00     0.014 A 
ATOM     34  C   UNL     1       1.371  -2.113  13.553  1.00  0.00     0.010 A 
ATOM     35  C   UNL     1       1.589  -3.675  11.786  1.00  0.00     0.010 A 
ATOM     36  C   UNL     1       1.300  -3.431  13.097  1.00  0.00    -0.014 A 
BRANCH  36  37
ATOM     37  C   UNL     1       0.773  -4.576  13.815  1.00  0.00     0.031 A 
ATOM     38  C   UNL     1      -0.633  -4.393  14.209  1.00  0.00     0.074 A 
ATOM     39  C   UNL     1       1.385  -5.786  13.842  1.00  0.00     0.049 A 
ATOM     40  N   UNL     1      -1.066  -3.985  15.353  1.00  0.00    -0.248 NA
ATOM     41  C   UNL     1      -1.654  -4.412  13.150  1.00  0.00     0.031 C 
ATOM     42  C   UNL     1       2.600  -6.227  13.134  1.00  0.00     0.029 A 
ATOM     43  N   UNL     1       0.965  -6.937  14.430  1.00  0.00    -0.354 N 
ATOM     44  C   UNL     1      -2.448  -4.013  15.231  1.00  0.00     0.074 A 
ATOM     45  C   UNL     1      -2.713  -3.951  13.820  1.00  0.00     0.031 C 
ATOM     46  C   UNL     1       2.684  -7.579  13.165  1.00  0.00     0.029 A 
ATOM     47  C   UNL     1       1.636  -8.090  14.025  1.00  0.00     0.049 A 
ATOM     48  H   UNL     1       0.239  -6.955  15.095  1.00  0.00     0.167 HD
ATOM     49  C   UNL     1      -3.222  -4.449  16.263  1.00  0.00     0.034 A 
ATOM     50  C   UNL     1       1.313  -9.366  14.359  1.00  0.00     0.034 A 
ATOM     51  C   UNL     1      -2.430  -4.579  17.471  1.00  0.00     0.049 A 
ATOM     52  C   UNL     1       0.466  -9.283  15.573  1.00  0.00     0.074 A 
ATOM     53  C   UNL     1      -1.619  -3.738  18.208  1.00  0.00     0.029 A 
ATOM     54  N   UNL     1      -2.068  -5.858  17.826  1.00  0.00    -0.354 N 
ATOM     55  N   UNL     1       0.903  -8.869  16.729  1.00  0.00    -0.248 NA
ATOM     56  C   UNL     1      -0.975  -9.237  15.394  1.00  0.00     0.031 C 
ATOM     57  C   UNL     1      -0.513  -4.547  18.608  1.00  0.00     0.029 A 
ATOM     58  C   UNL     1      -0.744  -5.854  18.175  1.00  0.00     0.049 A 
ATOM     59  H   UNL     1      -2.660  -6.644  17.828  1.00  0.00     0.167 HD
ATOM     60  C   UNL     1      -0.127  -8.077  17.218  1.00  0.00     0.074 A 
ATOM     61  C   UNL     1      -1.296  -8.443  16.419  1.00  0.00     0.031 C 
ATOM     62  C   UNL     1       0.138  -6.991  18.005  1.00  0.00     0.034 A 
BRANCH  49  63
ATOM     63  C   UNL     1      -4.554  -5.163  16.126  1.00  0.00     0.023 A 
ATOM     64  C   UNL     1      -5.231  -5.458  17.331  1.00  0.00     0.012 A 
ATOM     65  C   UNL     1      -5.054  -5.779  14.954  1.00  0.00     0.148 A 
ATOM     66  C   UNL     1      -6.286  -6.374  17.382  1.00  0.00     0.002 A 
ATOM     67  C   UNL     1      -6.153  -6.630  14.996  1.00  0.00     0.091 A 
ATOM     68  F   UNL     1      -4.410  -5.660  13.794  1.00  0.00    -0.205 F 
ATOM     69  C   UNL     1      -6.750  -6.960  16.212  1.00  0.00     0.022 A 
BRANCH  67  70
ATOM     70  S   UNL     1      -6.824  -7.381  13.504  1.00  0.00     0.127 S 
ATOM     71  O   UNL     1      -6.427  -8.775  13.677  1.00  0.00    -0.237 OA
ATOM     72  O   UNL     1      -8.254  -7.117  13.658  1.00  0.00    -0.237 OA
ATOM     73  O   UNL     1      -6.204  -6.674  12.390  1.00  0.00    -0.744 OA
ENDBRANCH  67  70
ENDBRANCH  49  63
BRANCH  50  74
ATOM     74  C   UNL     1       1.462 -10.647  13.625  1.00  0.00     0.023 A 
ATOM     75  C   UNL     1       1.343 -11.864  14.332  1.00  0.00     0.012 A 
ATOM     76  C   UNL     1       1.385 -10.689  12.216  1.00  0.00     0.148 A 
ATOM     77  C   UNL     1       1.090 -13.069  13.666  1.00  0.00     0.002 A 
ATOM     78  C   UNL     1       1.131 -11.891  11.559  1.00  0.00     0.091 A 
ATOM     79  F   UNL     1       1.461  -9.539  11.533  1.00  0.00    -0.205 F 
ATOM     80  C   UNL     1       0.967 -13.080  12.281  1.00  0.00     0.022 A 
BRANCH  78  81
ATOM     81  S   UNL     1       0.910 -11.980   9.776  1.00  0.00     0.127 S 
ATOM     82  O   UNL     1       1.746 -13.129   9.423  1.00  0.00    -0.237 OA
ATOM     83  O   UNL     1      -0.527 -12.211   9.662  1.00  0.00    -0.237 OA
ATOM     84  O   UNL     1       1.391 -10.706   9.257  1.00  0.00    -0.744 OA
ENDBRANCH  78  81
ENDBRANCH  50  74
BRANCH  62  85
ATOM     85  C   UNL     1       1.537  -6.847  18.560  1.00  0.00     0.023 A 
ATOM     86  C   UNL     1       2.675  -6.681  17.742  1.00  0.00     0.012 A 
ATOM     87  C   UNL     1       1.684  -6.728  19.952  1.00  0.00     0.148 A 
ATOM     88  C   UNL     1       3.932  -6.429  18.302  1.00  0.00     0.002 A 
ATOM     89  C   UNL     1       2.924  -6.431  20.502  1.00  0.00     0.091 A 
ATOM     90  F   UNL     1       0.595  -6.888  20.719  1.00  0.00    -0.205 F 
ATOM     91  C   UNL     1       4.054  -6.291  19.682  1.00  0.00     0.022 A 
BRANCH  89  92
ATOM     92  S   UNL     1       3.116  -6.124  22.259  1.00  0.00     0.127 S 
ATOM     93  O   UNL     1       3.736  -7.364  22.720  1.00  0.00    -0.237 OA
ATOM     94  O   UNL     1       3.996  -4.954  22.281  1.00  0.00    -0.237 OA
ATOM     95  O   UNL     1       1.774  -5.865  22.767  1.00  0.00    -0.744 OA
ENDBRANCH  89  92
ENDBRANCH  62  85
ENDBRANCH  36  37
ENDBRANCH  28  31
ENDBRANCH  26  27
ENDBRANCH   1  26
TORSDOF 16
