REMARK SMILES CC[C@@](C)(NC(=O)Nc1ccccc1C#N)C(=O)NCCCNC(=O)c1ccc(-c2c3nc(c(-c4cccc(S(=O)(=O)[O-])c4F)c4ccc([nH]4)c(-c4cccc(S(=O)(=O)[O-])c4F)c4nc(c(-c5cccc(S(=O)(=O)[O-])c5F)c5ccc2[nH]5)C=C4)C=C3)cc1
REMARK SMILES IDX 21 1 20 2 19 3 17 4 18 5 3 7 4 8 2 9 1 10 5 11 6 12 7 14
REMARK SMILES IDX 8 15 9 17 10 18 14 19 11 20 13 21 12 22 15 23 16 24 22 25
REMARK SMILES IDX 23 26 24 27 25 29 26 30 27 31 88 32 28 33 87 34 29 35 30 36
REMARK SMILES IDX 31 37 81 38 32 39 86 40 80 41 82 42 33 43 85 44 79 45 78 46
REMARK SMILES IDX 34 48 66 49 46 50 65 51 47 52 50 53 64 54 83 55 48 56 49 57
REMARK SMILES IDX 63 59 84 60 51 61 35 62 36 63 44 64 37 65 39 66 45 67 38 68
REMARK SMILES IDX 40 69 41 70 42 71 43 72 67 73 68 74 76 75 69 76 71 77 77 78
REMARK SMILES IDX 70 79 72 80 73 81 74 82 75 83 52 84 53 85 61 86 54 87 56 88
REMARK SMILES IDX 62 89 55 90 57 91 58 92 59 93 60 94
REMARK H PARENT 19 6 5 13 8 16 23 28 82 47 50 58
REMARK Flexibility Score: inf
ROOT
ATOM      1  C   UNL     1       2.320  -3.587  -5.424  1.00  0.00     0.042 C 
ENDROOT
BRANCH   1   2
ATOM      2  C   UNL     1       1.487  -3.791  -4.131  1.00  0.00     0.117 C 
BRANCH   2   3
ATOM      3  N   UNL     1       1.990  -3.019  -3.001  1.00  0.00    -0.354 N 
ATOM      4  C   UNL     1       1.359  -2.399  -1.930  1.00  0.00     0.245 C 
ATOM      5  O   UNL     1       1.457  -2.814  -0.778  1.00  0.00    -0.272 OA
ATOM      6  H   UNL     1       2.969  -2.917  -2.996  1.00  0.00     0.163 HD
BRANCH   4   7
ATOM      7  C   UNL     1       0.526  -1.158  -2.300  1.00  0.00     0.117 C 
ATOM      8  C   UNL     1      -0.890  -1.809  -2.295  1.00  0.00     0.045 C 
BRANCH   7   9
ATOM      9  C   UNL     1       0.414   0.137  -1.459  1.00  0.00     0.035 C 
ATOM     10  C   UNL     1       0.732   0.098   0.017  1.00  0.00     0.007 C 
ENDBRANCH   7   9
BRANCH   7  11
ATOM     11  N   UNL     1       0.997  -0.735  -3.630  1.00  0.00    -0.324 N 
ATOM     12  C   UNL     1       2.188  -0.338  -4.113  1.00  0.00     0.320 C 
ATOM     13  H   UNL     1       0.287  -0.744  -4.312  1.00  0.00     0.166 HD
ATOM     14  O   UNL     1       2.162   0.179  -5.235  1.00  0.00    -0.248 OA
ATOM     15  N   UNL     1       3.434  -0.577  -3.604  1.00  0.00    -0.307 N 
ATOM     16  H   UNL     1       4.075  -0.758  -4.329  1.00  0.00     0.171 HD
BRANCH  15  17
ATOM     17  C   UNL     1       4.088  -0.642  -2.323  1.00  0.00     0.060 A 
ATOM     18  C   UNL     1       4.864   0.497  -2.040  1.00  0.00     0.027 A 
ATOM     19  C   UNL     1       4.346  -1.757  -1.475  1.00  0.00     0.076 A 
ATOM     20  C   UNL     1       5.628   0.614  -0.869  1.00  0.00     0.002 A 
ATOM     21  C   UNL     1       4.969  -1.577  -0.222  1.00  0.00     0.021 A 
ATOM     22  C   UNL     1       5.606  -0.390   0.084  1.00  0.00     0.002 A 
BRANCH  19  23
ATOM     23  C   UNL     1       4.327  -3.156  -1.818  1.00  0.00     0.101 C 
ATOM     24  N   UNL     1       4.409  -4.305  -2.015  1.00  0.00    -0.192 NA
ENDBRANCH  19  23
ENDBRANCH  15  17
ENDBRANCH   7  11
ENDBRANCH   4   7
ENDBRANCH   2   3
ENDBRANCH   1   2
BRANCH   1  25
ATOM     25  C   UNL     1       3.854  -3.577  -5.347  1.00  0.00     0.118 C 
BRANCH  25  26
ATOM     26  N   UNL     1       4.455  -4.814  -4.892  1.00  0.00    -0.352 N 
ATOM     27  C   UNL     1       5.294  -5.685  -5.546  1.00  0.00     0.251 C 
ATOM     28  H   UNL     1       4.227  -5.072  -3.970  1.00  0.00     0.163 HD
ATOM     29  O   UNL     1       5.678  -6.717  -5.002  1.00  0.00    -0.269 OA
BRANCH  27  30
ATOM     30  C   UNL     1       5.709  -5.410  -6.938  1.00  0.00     0.039 A 
ATOM     31  C   UNL     1       5.471  -6.392  -7.903  1.00  0.00     0.014 A 
ATOM     32  C   UNL     1       6.322  -4.208  -7.297  1.00  0.00     0.014 A 
ATOM     33  C   UNL     1       5.764  -6.133  -9.244  1.00  0.00     0.010 A 
ATOM     34  C   UNL     1       6.551  -3.926  -8.646  1.00  0.00     0.010 A 
ATOM     35  C   UNL     1       6.259  -4.879  -9.637  1.00  0.00    -0.014 A 
BRANCH  35  36
ATOM     36  C   UNL     1       6.429  -4.535 -11.077  1.00  0.00     0.031 A 
ATOM     37  C   UNL     1       7.783  -4.176 -11.626  1.00  0.00     0.074 A 
ATOM     38  C   UNL     1       5.344  -4.459 -11.876  1.00  0.00     0.049 A 
ATOM     39  N   UNL     1       8.104  -3.764 -12.825  1.00  0.00    -0.248 NA
ATOM     40  C   UNL     1       8.924  -4.271 -10.700  1.00  0.00     0.031 C 
ATOM     41  C   UNL     1       3.966  -4.728 -11.459  1.00  0.00     0.029 A 
ATOM     42  N   UNL     1       5.223  -4.104 -13.199  1.00  0.00    -0.354 N 
ATOM     43  C   UNL     1       9.471  -3.513 -12.790  1.00  0.00     0.074 A 
ATOM     44  C   UNL     1       9.914  -3.795 -11.442  1.00  0.00     0.031 C 
ATOM     45  C   UNL     1       3.142  -4.530 -12.500  1.00  0.00     0.029 A 
ATOM     46  C   UNL     1       3.921  -4.072 -13.646  1.00  0.00     0.049 A 
ATOM     47  H   UNL     1       5.995  -3.892 -13.773  1.00  0.00     0.167 HD
ATOM     48  C   UNL     1      10.287  -3.104 -13.791  1.00  0.00     0.034 A 
ATOM     49  C   UNL     1       3.405  -3.694 -14.833  1.00  0.00     0.034 A 
ATOM     50  C   UNL     1       9.848  -2.846 -15.137  1.00  0.00     0.049 A 
ATOM     51  C   UNL     1       4.333  -3.237 -15.926  1.00  0.00     0.074 A 
ATOM     52  C   UNL     1      10.614  -2.502 -16.238  1.00  0.00     0.029 A 
ATOM     53  N   UNL     1       8.530  -2.881 -15.563  1.00  0.00    -0.354 N 
ATOM     54  N   UNL     1       5.639  -3.135 -15.910  1.00  0.00    -0.248 NA
ATOM     55  C   UNL     1       3.720  -2.870 -17.212  1.00  0.00     0.031 C 
ATOM     56  C   UNL     1       9.754  -2.278 -17.316  1.00  0.00     0.029 A 
ATOM     57  C   UNL     1       8.458  -2.543 -16.904  1.00  0.00     0.049 A 
ATOM     58  H   UNL     1       7.759  -3.111 -14.997  1.00  0.00     0.167 HD
ATOM     59  C   UNL     1       6.007  -2.737 -17.190  1.00  0.00     0.074 A 
ATOM     60  C   UNL     1       4.787  -2.626 -17.961  1.00  0.00     0.031 C 
ATOM     61  C   UNL     1       7.245  -2.484 -17.679  1.00  0.00     0.034 A 
BRANCH  48  62
ATOM     62  C   UNL     1      11.751  -2.926 -13.478  1.00  0.00     0.023 A 
ATOM     63  C   UNL     1      12.555  -4.052 -13.209  1.00  0.00     0.012 A 
ATOM     64  C   UNL     1      12.344  -1.648 -13.514  1.00  0.00     0.148 A 
ATOM     65  C   UNL     1      13.915  -3.906 -12.937  1.00  0.00     0.002 A 
ATOM     66  C   UNL     1      13.710  -1.516 -13.294  1.00  0.00     0.091 A 
ATOM     67  F   UNL     1      11.563  -0.587 -13.760  1.00  0.00    -0.205 F 
ATOM     68  C   UNL     1      14.494  -2.641 -12.990  1.00  0.00     0.022 A 
BRANCH  66  69
ATOM     69  S   UNL     1      14.566   0.058 -13.422  1.00  0.00     0.127 S 
ATOM     70  O   UNL     1      14.957   0.294 -12.032  1.00  0.00    -0.237 OA
ATOM     71  O   UNL     1      15.674  -0.269 -14.319  1.00  0.00    -0.237 OA
ATOM     72  O   UNL     1      13.599   1.002 -13.964  1.00  0.00    -0.744 OA
ENDBRANCH  66  69
ENDBRANCH  48  62
BRANCH  49  73
ATOM     73  C   UNL     1       1.932  -3.755 -15.063  1.00  0.00     0.023 A 
ATOM     74  C   UNL     1       1.408  -4.689 -15.978  1.00  0.00     0.012 A 
ATOM     75  C   UNL     1       1.050  -2.897 -14.377  1.00  0.00     0.148 A 
ATOM     76  C   UNL     1       0.037  -4.742 -16.235  1.00  0.00     0.002 A 
ATOM     77  C   UNL     1      -0.320  -2.995 -14.594  1.00  0.00     0.091 A 
ATOM     78  F   UNL     1       1.568  -2.010 -13.517  1.00  0.00    -0.205 F 
ATOM     79  C   UNL     1      -0.827  -3.902 -15.537  1.00  0.00     0.022 A 
BRANCH  77  80
ATOM     80  S   UNL     1      -1.517  -2.043 -13.653  1.00  0.00     0.127 S 
ATOM     81  O   UNL     1      -2.089  -1.180 -14.684  1.00  0.00    -0.237 OA
ATOM     82  O   UNL     1      -2.412  -3.091 -13.160  1.00  0.00    -0.237 OA
ATOM     83  O   UNL     1      -0.756  -1.363 -12.614  1.00  0.00    -0.744 OA
ENDBRANCH  77  80
ENDBRANCH  49  73
BRANCH  61  84
ATOM     84  C   UNL     1       7.372  -2.122 -19.137  1.00  0.00     0.023 A 
ATOM     85  C   UNL     1       6.946  -0.862 -19.599  1.00  0.00     0.012 A 
ATOM     86  C   UNL     1       8.012  -3.006 -20.029  1.00  0.00     0.148 A 
ATOM     87  C   UNL     1       7.133  -0.497 -20.932  1.00  0.00     0.002 A 
ATOM     88  C   UNL     1       8.245  -2.614 -21.341  1.00  0.00     0.091 A 
ATOM     89  F   UNL     1       8.396  -4.207 -19.572  1.00  0.00    -0.205 F 
ATOM     90  C   UNL     1       7.795  -1.365 -21.798  1.00  0.00     0.022 A 
BRANCH  88  91
ATOM     91  S   UNL     1       9.178  -3.622 -22.499  1.00  0.00     0.127 S 
ATOM     92  O   UNL     1       8.155  -3.966 -23.485  1.00  0.00    -0.237 OA
ATOM     93  O   UNL     1      10.193  -2.682 -22.975  1.00  0.00    -0.237 OA
ATOM     94  O   UNL     1       9.700  -4.745 -21.732  1.00  0.00    -0.744 OA
ENDBRANCH  88  91
ENDBRANCH  61  84
ENDBRANCH  35  36
ENDBRANCH  27  30
ENDBRANCH  25  26
ENDBRANCH   1  25
TORSDOF 17
