REMARK SMILES O=C(CN1C(=O)/C(=C2/Sc3ccccc3N2CCCS(=O)(=O)[O-])SC1=S)NCCCNC(=O)c1ccc(-c2c3nc(c(-c4cccc(S(=O)(=O)[O-])c4F)c4ccc([nH]4)c(-c4cccc(S(=O)(=O)[O-])c4F)c4nc(c(-c5cccc(S(=O)(=O)[O-])c5F)c5ccc2[nH]5)C=C4)C=C3)cc1
REMARK SMILES IDX 28 1 27 2 1 3 2 4 3 6 4 7 5 8 25 9 6 10 7 11 24 12 26 13
REMARK SMILES IDX 8 14 9 15 16 16 10 17 15 18 11 19 14 20 12 21 13 22 17 23
REMARK SMILES IDX 18 24 19 25 20 26 21 27 22 28 23 29 29 30 30 31 31 32 32 33
REMARK SMILES IDX 33 35 34 36 35 37 96 38 36 39 95 40 37 41 38 42 39 43 89 44
REMARK SMILES IDX 40 45 94 46 88 47 90 48 41 49 93 50 87 51 86 52 42 54 74 55
REMARK SMILES IDX 54 56 73 57 55 58 58 59 72 60 91 61 56 62 57 63 71 65 92 66
REMARK SMILES IDX 59 67 43 68 44 69 52 70 45 71 47 72 53 73 46 74 48 75 49 76
REMARK SMILES IDX 50 77 51 78 75 79 76 80 84 81 77 82 79 83 85 84 78 85 80 86
REMARK SMILES IDX 81 87 82 88 83 89 60 90 61 91 69 92 62 93 64 94 70 95 63 96
REMARK SMILES IDX 65 97 66 98 67 99 68 100
REMARK H PARENT 27 5 31 34 90 53 58 64
REMARK Flexibility Score: inf
ROOT
ATOM      1  C   UNL     1       1.864   1.238   1.772  1.00  0.00     0.117 C 
ENDROOT
BRANCH   1   2
ATOM      2  N   UNL     1       2.679   0.222   1.049  1.00  0.00    -0.354 N 
ATOM      3  O   UNL     1       1.178  -0.011  -0.676  1.00  0.00    -0.273 OA
ATOM      4  C   UNL     1       2.278  -0.304  -0.199  1.00  0.00     0.240 C 
ATOM      5  H   UNL     1       3.521  -0.092   1.452  1.00  0.00     0.163 HD
BRANCH   4   6
ATOM      6  C   UNL     1       3.273  -1.227  -1.027  1.00  0.00     0.227 C 
BRANCH   6   7
ATOM      7  N   UNL     1       3.376  -0.904  -2.508  1.00  0.00    -0.283 N 
ATOM      8  C   UNL     1       4.146   0.135  -2.975  1.00  0.00     0.269 C 
ATOM      9  C   UNL     1       3.067  -1.741  -3.552  1.00  0.00     0.148 C 
ATOM     10  O   UNL     1       5.200   0.493  -2.474  1.00  0.00    -0.268 OA
ATOM     11  C   UNL     1       3.718   0.605  -4.322  1.00  0.00     0.111 C 
ATOM     12  S   UNL     1       3.283  -0.890  -5.110  1.00  0.00    -0.052 SA
ATOM     13  S   UNL     1       2.648  -3.354  -3.495  1.00  0.00    -0.052 S 
ATOM     14  C   UNL     1       3.544   1.873  -4.799  1.00  0.00     0.100 C 
ATOM     15  S   UNL     1       3.231   2.066  -6.598  1.00  0.00    -0.068 SA
ATOM     16  N   UNL     1       3.519   3.151  -4.170  1.00  0.00    -0.334 N 
ATOM     17  C   UNL     1       3.046   3.829  -6.390  1.00  0.00     0.037 A 
ATOM     18  C   UNL     1       3.105   4.198  -5.043  1.00  0.00     0.056 A 
ATOM     19  C   UNL     1       2.887   4.786  -7.384  1.00  0.00     0.017 A 
ATOM     20  C   UNL     1       2.807   5.518  -4.682  1.00  0.00     0.027 A 
ATOM     21  C   UNL     1       2.687   6.123  -7.019  1.00  0.00     0.001 A 
ATOM     22  C   UNL     1       2.603   6.481  -5.671  1.00  0.00     0.002 A 
BRANCH  16  23
ATOM     23  C   UNL     1       4.244   3.650  -3.009  1.00  0.00     0.124 C 
BRANCH  23  24
ATOM     24  C   UNL     1       3.365   3.680  -1.778  1.00  0.00     0.037 C 
BRANCH  24  25
ATOM     25  C   UNL     1       3.511   2.405  -1.022  1.00  0.00     0.124 C 
BRANCH  25  26
ATOM     26  S   UNL     1       5.046   2.161  -0.106  1.00  0.00     0.095 S 
ATOM     27  O   UNL     1       5.172   3.233   0.847  1.00  0.00    -0.243 OA
ATOM     28  O   UNL     1       5.192   0.795   0.327  1.00  0.00    -0.243 OA
ATOM     29  O   UNL     1       6.196   2.479  -1.175  1.00  0.00    -0.748 OA
ENDBRANCH  25  26
ENDBRANCH  24  25
ENDBRANCH  23  24
ENDBRANCH  16  23
ENDBRANCH   6   7
ENDBRANCH   4   6
ENDBRANCH   1   2
BRANCH   1  30
ATOM     30  C   UNL     1       2.246   1.760   3.176  1.00  0.00     0.042 C 
BRANCH  30  31
ATOM     31  C   UNL     1       3.533   2.559   3.447  1.00  0.00     0.118 C 
BRANCH  31  32
ATOM     32  N   UNL     1       3.701   3.850   2.778  1.00  0.00    -0.352 N 
ATOM     33  C   UNL     1       4.609   4.871   3.061  1.00  0.00     0.251 C 
ATOM     34  H   UNL     1       3.090   4.022   2.026  1.00  0.00     0.163 HD
ATOM     35  O   UNL     1       4.798   5.787   2.263  1.00  0.00    -0.269 OA
BRANCH  33  36
ATOM     36  C   UNL     1       5.293   4.898   4.366  1.00  0.00     0.039 A 
ATOM     37  C   UNL     1       5.904   3.756   4.871  1.00  0.00     0.014 A 
ATOM     38  C   UNL     1       5.161   6.045   5.152  1.00  0.00     0.014 A 
ATOM     39  C   UNL     1       6.077   3.650   6.241  1.00  0.00     0.010 A 
ATOM     40  C   UNL     1       5.441   5.972   6.514  1.00  0.00     0.010 A 
ATOM     41  C   UNL     1       5.788   4.738   7.082  1.00  0.00    -0.014 A 
BRANCH  41  42
ATOM     42  C   UNL     1       5.767   4.535   8.551  1.00  0.00     0.031 A 
ATOM     43  C   UNL     1       4.485   4.702   9.331  1.00  0.00     0.074 A 
ATOM     44  C   UNL     1       6.888   4.123   9.171  1.00  0.00     0.049 A 
ATOM     45  N   UNL     1       4.279   4.534  10.612  1.00  0.00    -0.248 NA
ATOM     46  C   UNL     1       3.278   5.108   8.587  1.00  0.00     0.031 C 
ATOM     47  C   UNL     1       8.183   3.920   8.518  1.00  0.00     0.029 A 
ATOM     48  N   UNL     1       7.115   3.784  10.478  1.00  0.00    -0.354 N 
ATOM     49  C   UNL     1       2.945   4.856  10.833  1.00  0.00     0.074 A 
ATOM     50  C   UNL     1       2.382   5.234   9.557  1.00  0.00     0.031 C 
ATOM     51  C   UNL     1       9.059   3.455   9.418  1.00  0.00     0.029 A 
ATOM     52  C   UNL     1       8.406   3.387  10.722  1.00  0.00     0.049 A 
ATOM     53  H   UNL     1       6.420   3.821  11.175  1.00  0.00     0.167 HD
ATOM     54  C   UNL     1       2.248   4.820  11.992  1.00  0.00     0.034 A 
ATOM     55  C   UNL     1       9.010   3.027  11.869  1.00  0.00     0.034 A 
ATOM     56  C   UNL     1       2.795   4.390  13.249  1.00  0.00     0.049 A 
ATOM     57  C   UNL     1       8.217   3.006  13.140  1.00  0.00     0.074 A 
ATOM     58  C   UNL     1       2.149   4.276  14.467  1.00  0.00     0.029 A 
ATOM     59  N   UNL     1       4.109   4.004  13.451  1.00  0.00    -0.354 N 
ATOM     60  N   UNL     1       6.943   3.256  13.314  1.00  0.00    -0.248 NA
ATOM     61  C   UNL     1       8.935   2.643  14.369  1.00  0.00     0.031 C 
ATOM     62  C   UNL     1       3.079   3.839  15.413  1.00  0.00     0.029 A 
ATOM     63  C   UNL     1       4.297   3.658  14.777  1.00  0.00     0.049 A 
ATOM     64  H   UNL     1       4.805   3.980  12.756  1.00  0.00     0.167 HD
ATOM     65  C   UNL     1       6.700   3.064  14.667  1.00  0.00     0.074 A 
ATOM     66  C   UNL     1       7.957   2.663  15.266  1.00  0.00     0.031 C 
ATOM     67  C   UNL     1       5.541   3.218  15.350  1.00  0.00     0.034 A 
BRANCH  54  68
ATOM     68  C   UNL     1       0.796   5.215  11.970  1.00  0.00     0.023 A 
ATOM     69  C   UNL     1      -0.165   4.298  11.501  1.00  0.00     0.012 A 
ATOM     70  C   UNL     1       0.375   6.436  12.535  1.00  0.00     0.148 A 
ATOM     71  C   UNL     1      -1.525   4.591  11.591  1.00  0.00     0.002 A 
ATOM     72  C   UNL     1      -0.983   6.708  12.649  1.00  0.00     0.091 A 
ATOM     73  F   UNL     1       1.310   7.294  12.968  1.00  0.00    -0.205 F 
ATOM     74  C   UNL     1      -1.934   5.788  12.175  1.00  0.00     0.022 A 
BRANCH  72  75
ATOM     75  S   UNL     1      -1.618   8.195  13.432  1.00  0.00     0.127 S 
ATOM     76  O   UNL     1      -2.291   8.852  12.312  1.00  0.00    -0.237 OA
ATOM     77  O   UNL     1      -2.517   7.646  14.446  1.00  0.00    -0.237 OA
ATOM     78  O   UNL     1      -0.459   8.903  13.957  1.00  0.00    -0.744 OA
ENDBRANCH  72  75
ENDBRANCH  54  68
BRANCH  55  79
ATOM     79  C   UNL     1      10.442   2.632  11.834  1.00  0.00     0.023 A 
ATOM     80  C   UNL     1      10.786   1.272  11.938  1.00  0.00     0.012 A 
ATOM     81  C   UNL     1      11.448   3.588  11.598  1.00  0.00     0.148 A 
ATOM     82  C   UNL     1      12.115   0.870  11.811  1.00  0.00     0.002 A 
ATOM     83  C   UNL     1      12.763   3.176  11.431  1.00  0.00     0.091 A 
ATOM     84  F   UNL     1      11.087   4.875  11.496  1.00  0.00    -0.205 F 
ATOM     85  C   UNL     1      13.101   1.818  11.547  1.00  0.00     0.022 A 
BRANCH  83  86
ATOM     86  S   UNL     1      14.083   4.309  10.984  1.00  0.00     0.127 S 
ATOM     87  O   UNL     1      14.960   4.216  12.149  1.00  0.00    -0.237 OA
ATOM     88  O   UNL     1      14.606   3.689   9.766  1.00  0.00    -0.237 OA
ATOM     89  O   UNL     1      13.447   5.603  10.783  1.00  0.00    -0.744 OA
ENDBRANCH  83  86
ENDBRANCH  55  79
BRANCH  67  90
ATOM     90  C   UNL     1       5.544   2.937  16.826  1.00  0.00     0.023 A 
ATOM     91  C   UNL     1       6.047   3.907  17.713  1.00  0.00     0.012 A 
ATOM     92  C   UNL     1       4.916   1.783  17.332  1.00  0.00     0.148 A 
ATOM     93  C   UNL     1       5.924   3.730  19.091  1.00  0.00     0.002 A 
ATOM     94  C   UNL     1       4.767   1.630  18.704  1.00  0.00     0.091 A 
ATOM     95  F   UNL     1       4.451   0.876  16.460  1.00  0.00    -0.205 F 
ATOM     96  C   UNL     1       5.274   2.600  19.585  1.00  0.00     0.022 A 
BRANCH  94  97
ATOM     97  S   UNL     1       3.883   0.248  19.434  1.00  0.00     0.127 S 
ATOM     98  O   UNL     1       4.945  -0.422  20.183  1.00  0.00    -0.237 OA
ATOM     99  O   UNL     1       2.885   0.925  20.262  1.00  0.00    -0.237 OA
ATOM    100  O   UNL     1       3.337  -0.519  18.322  1.00  0.00    -0.744 OA
ENDBRANCH  94  97
ENDBRANCH  67  90
ENDBRANCH  41  42
ENDBRANCH  33  36
ENDBRANCH  31  32
ENDBRANCH  30  31
ENDBRANCH   1  30
TORSDOF 18
