REMARK SMILES C[NH+](C)Cc1noc(C[C@@](C)(C(=O)NCCCNC(=O)c2ccc(-c3c4nc(c(-c5cccc(S(=O)(=O)[O-])c5F)c5ccc([nH]5)c(-c5cccc(S(=O)(=O)[O-])c5F)c5nc(c(-c6cccc(S(=O)(=O)[O-])c6F)c6ccc3[nH]6)C=C5)C=C4)cc2)c2ccccc2)n1
REMARK SMILES IDX 15 1 14 2 12 3 13 4 10 6 11 7 9 8 8 9 5 10 6 11 90 12 7 13
REMARK SMILES IDX 4 14 2 15 1 16 3 17 84 19 85 20 89 21 86 22 88 23 87 24
REMARK SMILES IDX 16 25 17 26 18 27 19 28 20 30 21 31 22 32 83 33 23 34 82 35
REMARK SMILES IDX 24 36 25 37 26 38 76 39 27 40 81 41 75 42 77 43 28 44 80 45
REMARK SMILES IDX 74 46 73 47 29 49 61 50 41 51 60 52 42 53 45 54 59 55 78 56
REMARK SMILES IDX 43 57 44 58 58 60 79 61 46 62 30 63 31 64 39 65 32 66 34 67
REMARK SMILES IDX 40 68 33 69 35 70 36 71 37 72 38 73 62 74 63 75 71 76 64 77
REMARK SMILES IDX 66 78 72 79 65 80 67 81 68 82 69 83 70 84 47 85 48 86 56 87
REMARK SMILES IDX 49 88 51 89 57 90 50 91 52 92 53 93 54 94 55 95
REMARK H PARENT 14 5 2 18 18 29 77 48 45 59
REMARK Flexibility Score: inf
ROOT
ATOM      1  C   UNL     1      -0.941   5.152  -6.663  1.00  0.00     0.117 C 
ENDROOT
BRANCH   1   2
ATOM      2  N   UNL     1      -2.312   4.731  -6.412  1.00  0.00    -0.355 N 
ATOM      3  C   UNL     1      -2.897   3.902  -5.500  1.00  0.00     0.230 C 
ATOM      4  O   UNL     1      -4.121   3.781  -5.627  1.00  0.00    -0.274 OA
ATOM      5  H   UNL     1      -2.958   5.132  -7.038  1.00  0.00     0.163 HD
BRANCH   3   6
ATOM      6  C   UNL     1      -2.106   3.174  -4.372  1.00  0.00     0.080 C 
ATOM      7  C   UNL     1      -1.390   4.239  -3.496  1.00  0.00     0.027 C 
BRANCH   6   8
ATOM      8  C   UNL     1      -1.074   2.233  -5.058  1.00  0.00     0.122 C 
BRANCH   8   9
ATOM      9  C   UNL     1      -0.180   1.507  -4.122  1.00  0.00     0.228 A 
ATOM     10  C   UNL     1       0.851   0.181  -2.881  1.00  0.00     0.226 A 
ATOM     11  N   UNL     1       1.542   1.325  -2.748  1.00  0.00    -0.056 NA
ATOM     12  N   UNL     1      -0.222   0.254  -3.735  1.00  0.00    -0.190 NA
ATOM     13  O   UNL     1       0.862   2.206  -3.588  1.00  0.00    -0.339 OA
BRANCH  10  14
ATOM     14  C   UNL     1       1.195  -1.073  -2.141  1.00  0.00     0.344 C 
BRANCH  14  15
ATOM     15  N   UNL     1       0.585  -1.188  -0.792  1.00  0.00    -0.333 N 
ATOM     16  C   UNL     1       1.062  -0.151   0.119  1.00  0.00     0.332 C 
ATOM     17  C   UNL     1      -0.876  -1.205  -0.848  1.00  0.00     0.332 C 
ATOM     18  H   UNL     1       0.888  -2.087  -0.418  1.00  0.00     0.348 HD
ENDBRANCH  14  15
ENDBRANCH  10  14
ENDBRANCH   8   9
ENDBRANCH   6   8
BRANCH   6  19
ATOM     19  C   UNL     1      -3.106   2.407  -3.441  1.00  0.00    -0.032 A 
ATOM     20  C   UNL     1      -3.867   3.106  -2.479  1.00  0.00     0.005 A 
ATOM     21  C   UNL     1      -3.280   1.013  -3.492  1.00  0.00     0.005 A 
ATOM     22  C   UNL     1      -4.664   2.434  -1.547  1.00  0.00     0.000 A 
ATOM     23  C   UNL     1      -4.069   0.339  -2.554  1.00  0.00     0.000 A 
ATOM     24  C   UNL     1      -4.745   1.047  -1.568  1.00  0.00     0.000 A 
ENDBRANCH   6  19
ENDBRANCH   3   6
ENDBRANCH   1   2
BRANCH   1  25
ATOM     25  C   UNL     1      -0.383   4.569  -7.958  1.00  0.00     0.042 C 
BRANCH  25  26
ATOM     26  C   UNL     1      -1.020   5.144  -9.218  1.00  0.00     0.118 C 
BRANCH  26  27
ATOM     27  N   UNL     1      -0.748   6.569  -9.381  1.00  0.00    -0.352 N 
ATOM     28  C   UNL     1       0.022   7.224 -10.311  1.00  0.00     0.251 C 
ATOM     29  H   UNL     1      -1.185   7.152  -8.719  1.00  0.00     0.163 HD
ATOM     30  O   UNL     1       0.292   8.412 -10.145  1.00  0.00    -0.269 OA
BRANCH  28  31
ATOM     31  C   UNL     1       0.540   6.504 -11.493  1.00  0.00     0.039 A 
ATOM     32  C   UNL     1       1.871   6.694 -11.876  1.00  0.00     0.014 A 
ATOM     33  C   UNL     1      -0.280   5.639 -12.221  1.00  0.00     0.014 A 
ATOM     34  C   UNL     1       2.404   5.942 -12.926  1.00  0.00     0.010 A 
ATOM     35  C   UNL     1       0.271   4.835 -13.214  1.00  0.00     0.010 A 
ATOM     36  C   UNL     1       1.623   4.966 -13.566  1.00  0.00    -0.014 A 
BRANCH  36  37
ATOM     37  C   UNL     1       2.208   4.023 -14.554  1.00  0.00     0.031 A 
ATOM     38  C   UNL     1       1.698   3.985 -15.968  1.00  0.00     0.074 A 
ATOM     39  C   UNL     1       3.119   3.119 -14.140  1.00  0.00     0.049 A 
ATOM     40  N   UNL     1       2.000   3.153 -16.930  1.00  0.00    -0.248 NA
ATOM     41  C   UNL     1       0.700   5.001 -16.346  1.00  0.00     0.031 C 
ATOM     42  C   UNL     1       3.645   3.011 -12.776  1.00  0.00     0.029 A 
ATOM     43  N   UNL     1       3.738   2.094 -14.812  1.00  0.00    -0.354 N 
ATOM     44  C   UNL     1       1.215   3.522 -18.015  1.00  0.00     0.074 A 
ATOM     45  C   UNL     1       0.399   4.637 -17.585  1.00  0.00     0.031 C 
ATOM     46  C   UNL     1       4.498   1.977 -12.712  1.00  0.00     0.029 A 
ATOM     47  C   UNL     1       4.549   1.320 -14.013  1.00  0.00     0.049 A 
ATOM     48  H   UNL     1       3.613   1.927 -15.775  1.00  0.00     0.167 HD
ATOM     49  C   UNL     1       1.193   2.998 -19.264  1.00  0.00     0.034 A 
ATOM     50  C   UNL     1       5.234   0.193 -14.287  1.00  0.00     0.034 A 
ATOM     51  C   UNL     1       2.027   1.908 -19.695  1.00  0.00     0.049 A 
ATOM     52  C   UNL     1       5.179  -0.375 -15.680  1.00  0.00     0.074 A 
ATOM     53  C   UNL     1       2.136   1.360 -20.961  1.00  0.00     0.029 A 
ATOM     54  N   UNL     1       2.882   1.190 -18.874  1.00  0.00    -0.354 N 
ATOM     55  N   UNL     1       4.552   0.086 -16.734  1.00  0.00    -0.248 NA
ATOM     56  C   UNL     1       5.944  -1.606 -15.927  1.00  0.00     0.031 C 
ATOM     57  C   UNL     1       3.034   0.290 -20.899  1.00  0.00     0.029 A 
ATOM     58  C   UNL     1       3.506   0.190 -19.600  1.00  0.00     0.049 A 
ATOM     59  H   UNL     1       3.026   1.366 -17.916  1.00  0.00     0.167 HD
ATOM     60  C   UNL     1       4.868  -0.781 -17.774  1.00  0.00     0.074 A 
ATOM     61  C   UNL     1       5.766  -1.778 -17.230  1.00  0.00     0.031 C 
ATOM     62  C   UNL     1       4.436  -0.767 -19.058  1.00  0.00     0.034 A 
BRANCH  49  63
ATOM     63  C   UNL     1       0.275   3.628 -20.278  1.00  0.00     0.023 A 
ATOM     64  C   UNL     1       0.591   4.898 -20.802  1.00  0.00     0.012 A 
ATOM     65  C   UNL     1      -0.845   2.933 -20.776  1.00  0.00     0.148 A 
ATOM     66  C   UNL     1      -0.208   5.479 -21.786  1.00  0.00     0.002 A 
ATOM     67  C   UNL     1      -1.611   3.500 -21.787  1.00  0.00     0.091 A 
ATOM     68  F   UNL     1      -1.137   1.734 -20.253  1.00  0.00    -0.205 F 
ATOM     69  C   UNL     1      -1.301   4.776 -22.286  1.00  0.00     0.022 A 
BRANCH  67  70
ATOM     70  S   UNL     1      -2.994   2.648 -22.555  1.00  0.00     0.127 S 
ATOM     71  O   UNL     1      -4.124   3.466 -22.117  1.00  0.00    -0.237 OA
ATOM     72  O   UNL     1      -2.672   2.764 -23.978  1.00  0.00    -0.237 OA
ATOM     73  O   UNL     1      -2.972   1.289 -22.032  1.00  0.00    -0.744 OA
ENDBRANCH  67  70
ENDBRANCH  49  63
BRANCH  50  74
ATOM     74  C   UNL     1       6.056  -0.465 -13.230  1.00  0.00     0.023 A 
ATOM     75  C   UNL     1       7.459  -0.478 -13.352  1.00  0.00     0.012 A 
ATOM     76  C   UNL     1       5.460  -1.073 -12.108  1.00  0.00     0.148 A 
ATOM     77  C   UNL     1       8.250  -1.118 -12.398  1.00  0.00     0.002 A 
ATOM     78  C   UNL     1       6.257  -1.658 -11.132  1.00  0.00     0.091 A 
ATOM     79  F   UNL     1       4.122  -1.064 -12.015  1.00  0.00    -0.205 F 
ATOM     80  C   UNL     1       7.651  -1.700 -11.284  1.00  0.00     0.022 A 
BRANCH  78  81
ATOM     81  S   UNL     1       5.578  -2.309  -9.601  1.00  0.00     0.127 S 
ATOM     82  O   UNL     1       5.715  -3.749  -9.802  1.00  0.00    -0.237 OA
ATOM     83  O   UNL     1       6.480  -1.736  -8.601  1.00  0.00    -0.237 OA
ATOM     84  O   UNL     1       4.213  -1.804  -9.534  1.00  0.00    -0.744 OA
ENDBRANCH  78  81
ENDBRANCH  50  74
BRANCH  62  85
ATOM     85  C   UNL     1       4.939  -1.848 -19.978  1.00  0.00     0.023 A 
ATOM     86  C   UNL     1       4.455  -3.164 -19.835  1.00  0.00     0.012 A 
ATOM     87  C   UNL     1       5.821  -1.545 -21.034  1.00  0.00     0.148 A 
ATOM     88  C   UNL     1       4.862  -4.168 -20.713  1.00  0.00     0.002 A 
ATOM     89  C   UNL     1       6.184  -2.539 -21.934  1.00  0.00     0.091 A 
ATOM     90  F   UNL     1       6.279  -0.290 -21.143  1.00  0.00    -0.205 F 
ATOM     91  C   UNL     1       5.715  -3.853 -21.768  1.00  0.00     0.022 A 
BRANCH  89  92
ATOM     92  S   UNL     1       7.203  -2.216 -23.377  1.00  0.00     0.127 S 
ATOM     93  O   UNL     1       8.412  -2.976 -23.065  1.00  0.00    -0.237 OA
ATOM     94  O   UNL     1       6.392  -2.777 -24.458  1.00  0.00    -0.237 OA
ATOM     95  O   UNL     1       7.378  -0.771 -23.434  1.00  0.00    -0.744 OA
ENDBRANCH  89  92
ENDBRANCH  62  85
ENDBRANCH  36  37
ENDBRANCH  28  31
ENDBRANCH  26  27
ENDBRANCH  25  26
ENDBRANCH   1  25
TORSDOF 18
