REMARK SMILES O=C(Cc1ccccc1Nc1c(Cl)cccc1Cl)NCCCNC(=O)c1ccc(-c2c3nc(c(-c4cccc(S(=O)(=O)[O-])c4F)c4ccc([nH]4)c(-c4cccc(S(=O)(=O)[O-])c4F)c4nc(c(-c5cccc(S(=O)(=O)[O-])c5F)c5ccc2[nH]5)C=C4)C=C3)cc1
REMARK SMILES IDX 21 1 20 2 19 3 1 4 2 5 3 7 4 8 5 9 9 10 6 11 8 12 7 13 10 14
REMARK SMILES IDX 11 16 12 17 17 18 13 19 14 20 16 21 18 22 15 23 22 24 23 25
REMARK SMILES IDX 24 26 25 28 26 29 27 30 88 31 28 32 87 33 29 34 30 35 31 36
REMARK SMILES IDX 81 37 32 38 86 39 80 40 82 41 33 42 85 43 79 44 78 45 34 47
REMARK SMILES IDX 66 48 46 49 65 50 47 51 50 52 64 53 83 54 48 55 49 56 63 58
REMARK SMILES IDX 84 59 51 60 35 61 36 62 44 63 37 64 39 65 45 66 38 67 40 68
REMARK SMILES IDX 41 69 42 70 43 71 67 72 68 73 76 74 69 75 71 76 77 77 70 78
REMARK SMILES IDX 72 79 73 80 74 81 75 82 52 83 53 84 61 85 54 86 56 87 62 88
REMARK SMILES IDX 55 89 57 90 58 91 59 92 60 93
REMARK H PARENT 19 6 10 15 23 27 82 46 50 57
REMARK Flexibility Score: inf
ROOT
ATOM      1  C   UNL     1       2.386   1.306   3.324  1.00  0.00     0.042 C 
ENDROOT
BRANCH   1   2
ATOM      2  C   UNL     1       1.911   1.329   1.879  1.00  0.00     0.117 C 
BRANCH   2   3
ATOM      3  N   UNL     1       2.674   0.473   0.992  1.00  0.00    -0.356 N 
ATOM      4  O   UNL     1       0.862  -0.205  -0.239  1.00  0.00    -0.275 OA
ATOM      5  C   UNL     1       2.074  -0.215  -0.039  1.00  0.00     0.224 C 
ATOM      6  H   UNL     1       3.645   0.381   1.130  1.00  0.00     0.163 HD
BRANCH   5   7
ATOM      7  C   UNL     1       3.022  -0.920  -0.978  1.00  0.00     0.137 C 
BRANCH   7   8
ATOM      8  C   UNL     1       3.861  -0.072  -1.924  1.00  0.00    -0.015 A 
ATOM      9  C   UNL     1       4.897  -0.783  -2.576  1.00  0.00     0.006 A 
ATOM     10  C   UNL     1       3.686   1.300  -2.227  1.00  0.00     0.042 A 
ATOM     11  C   UNL     1       5.782  -0.154  -3.447  1.00  0.00     0.000 A 
ATOM     12  C   UNL     1       4.637   1.924  -3.058  1.00  0.00     0.026 A 
ATOM     13  C   UNL     1       5.665   1.208  -3.670  1.00  0.00     0.002 A 
BRANCH  10  14
ATOM     14  N   UNL     1       2.647   2.071  -1.668  1.00  0.00    -0.353 N 
ATOM     15  H   UNL     1       2.068   1.593  -1.030  1.00  0.00     0.167 HD
BRANCH  14  16
ATOM     16  C   UNL     1       2.310   3.431  -1.886  1.00  0.00     0.076 A 
ATOM     17  C   UNL     1       2.647   4.419  -0.943  1.00  0.00     0.066 A 
ATOM     18  C   UNL     1       1.465   3.809  -2.945  1.00  0.00     0.066 A 
ATOM     19  Cl  UNL     1       3.806   4.112   0.293  1.00  0.00    -0.082 Cl
ATOM     20  C   UNL     1       2.097   5.704  -1.003  1.00  0.00     0.023 A 
ATOM     21  C   UNL     1       0.952   5.108  -3.033  1.00  0.00     0.023 A 
ATOM     22  Cl  UNL     1       1.019   2.685  -4.184  1.00  0.00    -0.082 Cl
ATOM     23  C   UNL     1       1.242   6.047  -2.045  1.00  0.00     0.003 A 
ENDBRANCH  14  16
ENDBRANCH  10  14
ENDBRANCH   7   8
ENDBRANCH   5   7
ENDBRANCH   2   3
ENDBRANCH   1   2
BRANCH   1  24
ATOM     24  C   UNL     1       3.866   1.586   3.551  1.00  0.00     0.118 C 
BRANCH  24  25
ATOM     25  N   UNL     1       4.282   2.932   3.193  1.00  0.00    -0.352 N 
ATOM     26  C   UNL     1       5.008   3.863   3.902  1.00  0.00     0.251 C 
ATOM     27  H   UNL     1       3.999   3.226   2.298  1.00  0.00     0.163 HD
ATOM     28  O   UNL     1       5.179   4.985   3.439  1.00  0.00    -0.269 OA
BRANCH  26  29
ATOM     29  C   UNL     1       5.550   3.535   5.240  1.00  0.00     0.039 A 
ATOM     30  C   UNL     1       5.468   4.502   6.246  1.00  0.00     0.014 A 
ATOM     31  C   UNL     1       6.126   2.293   5.513  1.00  0.00     0.014 A 
ATOM     32  C   UNL     1       5.887   4.192   7.541  1.00  0.00     0.010 A 
ATOM     33  C   UNL     1       6.448   1.952   6.824  1.00  0.00     0.010 A 
ATOM     34  C   UNL     1       6.337   2.898   7.852  1.00  0.00    -0.014 A 
BRANCH  34  35
ATOM     35  C   UNL     1       6.671   2.521   9.250  1.00  0.00     0.031 A 
ATOM     36  C   UNL     1       8.059   2.063   9.609  1.00  0.00     0.074 A 
ATOM     37  C   UNL     1       5.699   2.527  10.184  1.00  0.00     0.049 A 
ATOM     38  N   UNL     1       8.526   1.690  10.772  1.00  0.00    -0.248 NA
ATOM     39  C   UNL     1       9.043   1.985   8.517  1.00  0.00     0.031 C 
ATOM     40  C   UNL     1       4.292   2.860   9.941  1.00  0.00     0.029 A 
ATOM     41  N   UNL     1       5.739   2.227  11.523  1.00  0.00    -0.354 N 
ATOM     42  C   UNL     1       9.842   1.304  10.547  1.00  0.00     0.074 A 
ATOM     43  C   UNL     1      10.088   1.446   9.130  1.00  0.00     0.031 C 
ATOM     44  C   UNL     1       3.611   2.766  11.094  1.00  0.00     0.029 A 
ATOM     45  C   UNL     1       4.519   2.337  12.151  1.00  0.00     0.049 A 
ATOM     46  H   UNL     1       6.563   1.959  11.991  1.00  0.00     0.167 HD
ATOM     47  C   UNL     1      10.774   0.898  11.443  1.00  0.00     0.034 A 
ATOM     48  C   UNL     1       4.171   2.114  13.433  1.00  0.00     0.034 A 
ATOM     49  C   UNL     1      10.535   0.792  12.857  1.00  0.00     0.049 A 
ATOM     50  C   UNL     1       5.236   1.711  14.416  1.00  0.00     0.074 A 
ATOM     51  C   UNL     1      11.434   0.475  13.860  1.00  0.00     0.029 A 
ATOM     52  N   UNL     1       9.306   0.990  13.469  1.00  0.00    -0.354 N 
ATOM     53  N   UNL     1       6.515   1.510  14.211  1.00  0.00    -0.248 NA
ATOM     54  C   UNL     1       4.817   1.543  15.815  1.00  0.00     0.031 C 
ATOM     55  C   UNL     1      10.741   0.449  15.075  1.00  0.00     0.029 A 
ATOM     56  C   UNL     1       9.420   0.790  14.835  1.00  0.00     0.049 A 
ATOM     57  H   UNL     1       8.476   1.235  13.002  1.00  0.00     0.167 HD
ATOM     58  C   UNL     1       7.061   1.229  15.458  1.00  0.00     0.074 A 
ATOM     59  C   UNL     1       5.977   1.312  16.415  1.00  0.00     0.031 C 
ATOM     60  C   UNL     1       8.341   0.919  15.781  1.00  0.00     0.034 A 
BRANCH  47  61
ATOM     61  C   UNL     1      12.154   0.583  10.925  1.00  0.00     0.023 A 
ATOM     62  C   UNL     1      12.977   1.625  10.451  1.00  0.00     0.012 A 
ATOM     63  C   UNL     1      12.658  -0.732  10.957  1.00  0.00     0.148 A 
ATOM     64  C   UNL     1      14.263   1.360   9.981  1.00  0.00     0.002 A 
ATOM     65  C   UNL     1      13.959  -0.981  10.534  1.00  0.00     0.091 A 
ATOM     66  F   UNL     1      11.856  -1.714  11.392  1.00  0.00    -0.205 F 
ATOM     67  C   UNL     1      14.757   0.060  10.033  1.00  0.00     0.022 A 
BRANCH  65  68
ATOM     68  S   UNL     1      14.719  -2.606  10.637  1.00  0.00     0.127 S 
ATOM     69  O   UNL     1      14.836  -2.966   9.225  1.00  0.00    -0.237 OA
ATOM     70  O   UNL     1      15.991  -2.307  11.297  1.00  0.00    -0.237 OA
ATOM     71  O   UNL     1      13.807  -3.429  11.417  1.00  0.00    -0.744 OA
ENDBRANCH  65  68
ENDBRANCH  47  61
BRANCH  48  72
ATOM     72  C   UNL     1       2.764   2.335  13.874  1.00  0.00     0.023 A 
ATOM     73  C   UNL     1       2.466   3.414  14.730  1.00  0.00     0.012 A 
ATOM     74  C   UNL     1       1.721   1.498  13.436  1.00  0.00     0.148 A 
ATOM     75  C   UNL     1       1.160   3.631  15.172  1.00  0.00     0.002 A 
ATOM     76  C   UNL     1       0.414   1.755  13.833  1.00  0.00     0.091 A 
ATOM     77  F   UNL     1       2.026   0.472  12.629  1.00  0.00    -0.205 F 
ATOM     78  C   UNL     1       0.134   2.809  14.716  1.00  0.00     0.022 A 
BRANCH  76  79
ATOM     79  S   UNL     1      -0.987   0.831  13.194  1.00  0.00     0.127 S 
ATOM     80  O   UNL     1      -1.417   0.084  14.373  1.00  0.00    -0.237 OA
ATOM     81  O   UNL     1      -1.891   1.904  12.779  1.00  0.00    -0.237 OA
ATOM     82  O   UNL     1      -0.462   0.030  12.095  1.00  0.00    -0.744 OA
ENDBRANCH  76  79
ENDBRANCH  48  72
BRANCH  60  83
ATOM     83  C   UNL     1       8.653   0.687  17.237  1.00  0.00     0.023 A 
ATOM     84  C   UNL     1       8.174  -0.468  17.887  1.00  0.00     0.012 A 
ATOM     85  C   UNL     1       9.470   1.590  17.946  1.00  0.00     0.148 A 
ATOM     86  C   UNL     1       8.464  -0.697  19.231  1.00  0.00     0.002 A 
ATOM     87  C   UNL     1       9.800   1.327  19.270  1.00  0.00     0.091 A 
ATOM     88  F   UNL     1       9.902   2.692  17.317  1.00  0.00    -0.205 F 
ATOM     89  C   UNL     1       9.286   0.194  19.919  1.00  0.00     0.022 A 
BRANCH  87  90
ATOM     90  S   UNL     1      10.932   2.365  20.201  1.00  0.00     0.127 S 
ATOM     91  O   UNL     1      10.024   3.045  21.122  1.00  0.00    -0.237 OA
ATOM     92  O   UNL     1      11.812   1.378  20.829  1.00  0.00    -0.237 OA
ATOM     93  O   UNL     1      11.589   3.221  19.223  1.00  0.00    -0.744 OA
ENDBRANCH  87  90
ENDBRANCH  60  83
ENDBRANCH  34  35
ENDBRANCH  26  29
ENDBRANCH  24  25
ENDBRANCH   1  24
TORSDOF 16
