REMARK SMILES O=C(NCCCNC(=O)c1cccc([C@@H]2CCC[N@@H+](Cc3cccc(OCCO)c3)C2)c1)c1ccc(-c2c3nc(c(-c4cccc(S(=O)(=O)[O-])c4F)c4ccc([nH]4)c(-c4cccc(S(=O)(=O)[O-])c4F)c4nc(c(-c5cccc(S(=O)(=O)[O-])c5F)c5ccc2[nH]5)C=C4)C=C3)cc1
REMARK SMILES IDX 7 1 8 2 9 3 6 5 5 6 4 7 3 8 1 9 2 10 33 12 34 13 95 14 35 15
REMARK SMILES IDX 94 16 36 17 37 18 38 19 88 20 39 21 93 22 87 23 89 24 40 25
REMARK SMILES IDX 92 26 86 27 85 28 41 30 73 31 53 32 72 33 54 34 57 35 71 36
REMARK SMILES IDX 90 37 55 38 56 39 70 41 91 42 58 43 42 44 43 45 51 46 44 47
REMARK SMILES IDX 46 48 52 49 45 50 47 51 48 52 49 53 50 54 74 55 75 56 83 57
REMARK SMILES IDX 76 58 78 59 84 60 77 61 79 62 80 63 81 64 82 65 59 66 60 67
REMARK SMILES IDX 68 68 61 69 63 70 69 71 62 72 64 73 65 74 66 75 67 76 10 77
REMARK SMILES IDX 11 78 32 79 12 80 14 81 13 82 15 83 16 84 31 85 17 86 19 87
REMARK SMILES IDX 18 88 20 90 21 91 22 92 30 93 23 94 25 95 24 96 26 97 27 98
REMARK SMILES IDX 28 99 29 100
REMARK H PARENT 7 4 3 11 89 29 57 40 19 89 29 101
REMARK Flexibility Score: inf
ROOT
ATOM      1  N   UNL     1       6.189   0.524   4.540  1.00  0.00    -0.352 N 
ATOM      2  C   UNL     1       6.725   0.889   5.759  1.00  0.00     0.251 C 
ATOM      3  O   UNL     1       7.216   0.047   6.502  1.00  0.00    -0.269 OA
ATOM      4  H   UNL     1       6.290  -0.422   4.284  1.00  0.00     0.163 HD
ENDROOT
BRANCH   1   5
ATOM      5  C   UNL     1       5.496   1.375   3.596  1.00  0.00     0.118 C 
BRANCH   5   6
ATOM      6  C   UNL     1       5.806   1.127   2.129  1.00  0.00     0.042 C 
BRANCH   6   7
ATOM      7  C   UNL     1       5.093  -0.069   1.517  1.00  0.00     0.118 C 
BRANCH   7   8
ATOM      8  N   UNL     1       3.650   0.105   1.376  1.00  0.00    -0.352 N 
ATOM      9  O   UNL     1       1.637   0.306   0.405  1.00  0.00    -0.269 OA
ATOM     10  C   UNL     1       2.827   0.062   0.266  1.00  0.00     0.251 C 
ATOM     11  H   UNL     1       3.179   0.285   2.222  1.00  0.00     0.163 HD
BRANCH  10  12
ATOM     12  C   UNL     1       3.371  -0.247  -1.083  1.00  0.00     0.039 A 
ATOM     13  C   UNL     1       4.372  -1.198  -1.262  1.00  0.00     0.014 A 
ATOM     14  C   UNL     1       2.851   0.414  -2.204  1.00  0.00     0.014 A 
ATOM     15  C   UNL     1       4.992  -1.337  -2.499  1.00  0.00     0.010 A 
ATOM     16  C   UNL     1       3.397   0.183  -3.476  1.00  0.00     0.010 A 
ATOM     17  C   UNL     1       4.508  -0.658  -3.630  1.00  0.00    -0.014 A 
BRANCH  17  18
ATOM     18  C   UNL     1       5.153  -0.907  -4.950  1.00  0.00     0.031 A 
ATOM     19  C   UNL     1       5.817   0.199  -5.728  1.00  0.00     0.074 A 
ATOM     20  C   UNL     1       5.174  -2.167  -5.432  1.00  0.00     0.049 A 
ATOM     21  N   UNL     1       6.482   0.125  -6.854  1.00  0.00    -0.248 NA
ATOM     22  C   UNL     1       5.720   1.563  -5.185  1.00  0.00     0.031 C 
ATOM     23  C   UNL     1       4.528  -3.319  -4.798  1.00  0.00     0.029 A 
ATOM     24  N   UNL     1       5.766  -2.697  -6.551  1.00  0.00    -0.354 N 
ATOM     25  C   UNL     1       6.848   1.427  -7.174  1.00  0.00     0.074 A 
ATOM     26  C   UNL     1       6.324   2.277  -6.127  1.00  0.00     0.031 C 
ATOM     27  C   UNL     1       4.795  -4.423  -5.509  1.00  0.00     0.029 A 
ATOM     28  C   UNL     1       5.578  -4.053  -6.682  1.00  0.00     0.049 A 
ATOM     29  H   UNL     1       6.277  -2.158  -7.198  1.00  0.00     0.167 HD
ATOM     30  C   UNL     1       7.568   1.873  -8.233  1.00  0.00     0.034 A 
ATOM     31  C   UNL     1       5.975  -4.910  -7.643  1.00  0.00     0.034 A 
ATOM     32  C   UNL     1       8.126   1.021  -9.251  1.00  0.00     0.049 A 
ATOM     33  C   UNL     1       6.793  -4.391  -8.789  1.00  0.00     0.074 A 
ATOM     34  C   UNL     1       8.928   1.375 -10.323  1.00  0.00     0.029 A 
ATOM     35  N   UNL     1       7.937  -0.350  -9.332  1.00  0.00    -0.354 N 
ATOM     36  N   UNL     1       7.236  -3.176  -9.000  1.00  0.00    -0.248 NA
ATOM     37  C   UNL     1       7.184  -5.363  -9.819  1.00  0.00     0.031 C 
ATOM     38  C   UNL     1       9.207   0.221 -11.063  1.00  0.00     0.029 A 
ATOM     39  C   UNL     1       8.595  -0.855 -10.442  1.00  0.00     0.049 A 
ATOM     40  H   UNL     1       7.413  -0.886  -8.694  1.00  0.00     0.167 HD
ATOM     41  C   UNL     1       7.972  -3.238 -10.176  1.00  0.00     0.074 A 
ATOM     42  C   UNL     1       7.942  -4.619 -10.614  1.00  0.00     0.031 C 
ATOM     43  C   UNL     1       8.596  -2.238 -10.844  1.00  0.00     0.034 A 
BRANCH  30  44
ATOM     44  C   UNL     1       7.838   3.353  -8.332  1.00  0.00     0.023 A 
ATOM     45  C   UNL     1       8.791   3.944  -7.477  1.00  0.00     0.012 A 
ATOM     46  C   UNL     1       7.215   4.141  -9.320  1.00  0.00     0.148 A 
ATOM     47  C   UNL     1       9.101   5.299  -7.588  1.00  0.00     0.002 A 
ATOM     48  C   UNL     1       7.557   5.484  -9.448  1.00  0.00     0.091 A 
ATOM     49  F   UNL     1       6.298   3.568 -10.112  1.00  0.00    -0.205 F 
ATOM     50  C   UNL     1       8.493   6.066  -8.578  1.00  0.00     0.022 A 
BRANCH  48  51
ATOM     51  S   UNL     1       6.884   6.535 -10.741  1.00  0.00     0.127 S 
ATOM     52  O   UNL     1       5.957   7.375  -9.984  1.00  0.00    -0.237 OA
ATOM     53  O   UNL     1       8.076   7.231 -11.228  1.00  0.00    -0.237 OA
ATOM     54  O   UNL     1       6.270   5.636 -11.708  1.00  0.00    -0.744 OA
ENDBRANCH  48  51
ENDBRANCH  30  44
BRANCH  31  55
ATOM     55  C   UNL     1       5.627  -6.354  -7.530  1.00  0.00     0.023 A 
ATOM     56  C   UNL     1       6.640  -7.297  -7.274  1.00  0.00     0.012 A 
ATOM     57  C   UNL     1       4.290  -6.789  -7.615  1.00  0.00     0.148 A 
ATOM     58  C   UNL     1       6.330  -8.649  -7.121  1.00  0.00     0.002 A 
ATOM     59  C   UNL     1       3.980  -8.126  -7.399  1.00  0.00     0.091 A 
ATOM     60  F   UNL     1       3.341  -5.880  -7.882  1.00  0.00    -0.205 F 
ATOM     61  C   UNL     1       5.000  -9.061  -7.168  1.00  0.00     0.022 A 
BRANCH  59  62
ATOM     62  S   UNL     1       2.283  -8.704  -7.288  1.00  0.00     0.127 S 
ATOM     63  O   UNL     1       2.111  -9.376  -8.573  1.00  0.00    -0.237 OA
ATOM     64  O   UNL     1       2.339  -9.595  -6.128  1.00  0.00    -0.237 OA
ATOM     65  O   UNL     1       1.479  -7.507  -7.080  1.00  0.00    -0.744 OA
ENDBRANCH  59  62
ENDBRANCH  31  55
BRANCH  43  66
ATOM     66  C   UNL     1       9.312  -2.598 -12.119  1.00  0.00     0.023 A 
ATOM     67  C   UNL     1       8.564  -2.886 -13.278  1.00  0.00     0.012 A 
ATOM     68  C   UNL     1      10.718  -2.588 -12.186  1.00  0.00     0.148 A 
ATOM     69  C   UNL     1       9.206  -3.187 -14.478  1.00  0.00     0.002 A 
ATOM     70  C   UNL     1      11.351  -2.845 -13.397  1.00  0.00     0.091 A 
ATOM     71  F   UNL     1      11.411  -2.332 -11.067  1.00  0.00    -0.205 F 
ATOM     72  C   UNL     1      10.597  -3.156 -14.541  1.00  0.00     0.022 A 
BRANCH  70  73
ATOM     73  S   UNL     1      13.134  -2.741 -13.592  1.00  0.00     0.127 S 
ATOM     74  O   UNL     1      13.506  -4.151 -13.690  1.00  0.00    -0.237 OA
ATOM     75  O   UNL     1      13.267  -1.986 -14.838  1.00  0.00    -0.237 OA
ATOM     76  O   UNL     1      13.625  -2.044 -12.410  1.00  0.00    -0.744 OA
ENDBRANCH  70  73
ENDBRANCH  43  66
ENDBRANCH  17  18
ENDBRANCH  10  12
ENDBRANCH   7   8
ENDBRANCH   6   7
ENDBRANCH   5   6
ENDBRANCH   1   5
BRANCH   2  77
ATOM     77  C   UNL     1       6.784   2.324   6.132  1.00  0.00     0.040 A 
ATOM     78  C   UNL     1       8.045   2.890   6.320  1.00  0.00     0.014 A 
ATOM     79  C   UNL     1       5.633   3.122   6.184  1.00  0.00     0.018 A 
ATOM     80  C   UNL     1       8.158   4.265   6.509  1.00  0.00     0.001 A 
ATOM     81  C   UNL     1       5.739   4.520   6.272  1.00  0.00    -0.039 A 
ATOM     82  C   UNL     1       7.017   5.074   6.468  1.00  0.00     0.004 A 
BRANCH  81  83
ATOM     83  C   UNL     1       4.565   5.452   5.967  1.00  0.00     0.074 C 
ATOM     84  C   UNL     1       3.482   5.562   7.051  1.00  0.00     0.020 C 
ATOM     85  C   UNL     1       3.929   5.133   4.593  1.00  0.00     0.270 C 
ATOM     86  C   UNL     1       2.404   4.479   6.968  1.00  0.00     0.062 C 
ATOM     87  N   UNL     1       3.026   3.983   4.661  1.00  0.00    -0.331 N 
ATOM     88  C   UNL     1       1.893   4.231   5.540  1.00  0.00     0.262 C 
ATOM     89  H   UNL     1       3.569   3.250   5.116  1.00  0.00     0.348 HD
BRANCH  87  90
ATOM     90  C   UNL     1       2.730   3.305   3.402  1.00  0.00     0.299 C 
BRANCH  90  91
ATOM     91  C   UNL     1       1.951   3.997   2.318  1.00  0.00     0.010 A 
ATOM     92  C   UNL     1       0.818   3.392   1.766  1.00  0.00     0.010 A 
ATOM     93  C   UNL     1       2.457   5.152   1.710  1.00  0.00     0.056 A 
ATOM     94  C   UNL     1       0.195   3.953   0.651  1.00  0.00     0.004 A 
ATOM     95  C   UNL     1       1.815   5.752   0.630  1.00  0.00     0.119 A 
ATOM     96  C   UNL     1       0.685   5.137   0.096  1.00  0.00     0.046 A 
BRANCH  95  97
ATOM     97  O   UNL     1       2.187   6.929   0.043  1.00  0.00    -0.491 OA
BRANCH  97  98
ATOM     98  C   UNL     1       3.376   7.585   0.501  1.00  0.00     0.257 C 
BRANCH  98  99
ATOM     99  C   UNL     1       3.077   8.594   1.616  1.00  0.00     0.197 C 
BRANCH  99 100
ATOM    100  O   UNL     1       2.553   7.990   2.795  1.00  0.00    -0.393 OA
ATOM    101  H   UNL     1       1.709   7.559   2.590  1.00  0.00     0.210 HD
ENDBRANCH  99 100
ENDBRANCH  98  99
ENDBRANCH  97  98
ENDBRANCH  95  97
ENDBRANCH  90  91
ENDBRANCH  87  90
ENDBRANCH  81  83
ENDBRANCH   2  77
TORSDOF 20
