REMARK SMILES Cc1nsc(N(C)C(=O)[C@@H](C)CCC[C@H](C)[NH3+])c1C(=O)NCCCNC(=O)c1ccc(-c2c3nc(c(-c4cccc(S(=O)(=O)[O-])c4F)c4ccc([nH]4)c(-c4cccc(S(=O)(=O)[O-])c4F)c4nc(c(-c5cccc(S(=O)(=O)[O-])c5F)c5ccc2[nH]5)C=C4)C=C3)cc1
REMARK SMILES IDX 1 1 2 2 3 3 4 4 5 5 18 6 19 7 20 8 21 9 22 11 23 12 24 13
REMARK SMILES IDX 25 14 26 15 27 17 28 18 29 19 90 20 30 21 89 22 31 23 32 24
REMARK SMILES IDX 33 25 83 26 34 27 88 28 82 29 84 30 35 31 87 32 81 33 80 34
REMARK SMILES IDX 36 36 68 37 48 38 67 39 49 40 52 41 66 42 85 43 50 44 51 45
REMARK SMILES IDX 65 47 86 48 53 49 37 50 38 51 46 52 39 53 41 54 47 55 40 56
REMARK SMILES IDX 42 57 43 58 44 59 45 60 69 61 70 62 78 63 71 64 73 65 79 66
REMARK SMILES IDX 72 67 74 68 75 69 76 70 77 71 54 72 55 73 63 74 56 75 58 76
REMARK SMILES IDX 64 77 57 78 59 79 60 80 61 81 62 82 6 83 7 84 8 85 9 86
REMARK SMILES IDX 10 87 11 88 12 89 13 90 14 91 15 92 16 93 17 94
REMARK H PARENT 21 10 25 16 84 35 52 46 17 95 17 96 17 97
REMARK Flexibility Score: inf
ROOT
ATOM      1  C   UNL     1     -12.217   1.058  -9.357  1.00  0.00     0.069 C 
ATOM      2  C   UNL     1     -10.751   1.160  -9.659  1.00  0.00     0.066 A 
ATOM      3  N   UNL     1     -10.502   0.952 -10.949  1.00  0.00    -0.195 NA
ATOM      4  S   UNL     1      -8.924   1.160 -11.239  1.00  0.00    -0.017 S 
ATOM      5  C   UNL     1      -8.425   1.483  -9.629  1.00  0.00     0.131 A 
ATOM      6  C   UNL     1      -9.572   1.453  -8.803  1.00  0.00     0.097 A 
ENDROOT
BRANCH   6   7
ATOM      7  C   UNL     1      -9.504   1.807  -7.365  1.00  0.00     0.256 C 
ATOM      8  O   UNL     1      -8.878   2.803  -6.992  1.00  0.00    -0.269 OA
ATOM      9  N   UNL     1     -10.117   1.034  -6.383  1.00  0.00    -0.352 N 
ATOM     10  H   UNL     1      -9.649   0.934  -5.522  1.00  0.00     0.163 HD
BRANCH   9  11
ATOM     11  C   UNL     1     -11.381   0.373  -6.531  1.00  0.00     0.118 C 
BRANCH  11  12
ATOM     12  C   UNL     1     -11.694  -0.969  -5.912  1.00  0.00     0.042 C 
BRANCH  12  13
ATOM     13  C   UNL     1     -11.779  -0.965  -4.418  1.00  0.00     0.118 C 
BRANCH  13  14
ATOM     14  N   UNL     1     -12.906  -0.207  -3.851  1.00  0.00    -0.352 N 
ATOM     15  C   UNL     1     -13.350  -0.280  -2.534  1.00  0.00     0.251 C 
ATOM     16  H   UNL     1     -13.387   0.403  -4.455  1.00  0.00     0.163 HD
ATOM     17  O   UNL     1     -14.463   0.129  -2.204  1.00  0.00    -0.269 OA
BRANCH  15  18
ATOM     18  C   UNL     1     -12.408  -0.835  -1.541  1.00  0.00     0.039 A 
ATOM     19  C   UNL     1     -12.744  -1.790  -0.585  1.00  0.00     0.014 A 
ATOM     20  C   UNL     1     -11.082  -0.482  -1.749  1.00  0.00     0.014 A 
ATOM     21  C   UNL     1     -11.699  -2.401   0.112  1.00  0.00     0.010 A 
ATOM     22  C   UNL     1     -10.127  -1.386  -1.403  1.00  0.00     0.010 A 
ATOM     23  C   UNL     1     -10.373  -2.200  -0.327  1.00  0.00    -0.014 A 
BRANCH  23  24
ATOM     24  C   UNL     1      -9.227  -2.962   0.155  1.00  0.00     0.031 A 
ATOM     25  C   UNL     1      -9.521  -4.410   0.146  1.00  0.00     0.074 A 
ATOM     26  C   UNL     1      -8.004  -2.436   0.427  1.00  0.00     0.049 A 
ATOM     27  N   UNL     1      -9.956  -5.078   1.160  1.00  0.00    -0.248 NA
ATOM     28  C   UNL     1      -9.653  -5.129  -1.132  1.00  0.00     0.031 C 
ATOM     29  C   UNL     1      -7.498  -1.069   0.217  1.00  0.00     0.029 A 
ATOM     30  N   UNL     1      -6.895  -3.055   0.920  1.00  0.00    -0.354 N 
ATOM     31  C   UNL     1     -10.072  -6.384   0.714  1.00  0.00     0.074 A 
ATOM     32  C   UNL     1     -10.148  -6.301  -0.719  1.00  0.00     0.031 C 
ATOM     33  C   UNL     1      -6.148  -1.042   0.355  1.00  0.00     0.029 A 
ATOM     34  C   UNL     1      -5.697  -2.339   0.826  1.00  0.00     0.049 A 
ATOM     35  H   UNL     1      -6.934  -3.954   1.320  1.00  0.00     0.167 HD
ATOM     36  C   UNL     1      -9.751  -7.401   1.560  1.00  0.00     0.034 A 
ATOM     37  C   UNL     1      -4.442  -2.776   1.139  1.00  0.00     0.034 A 
ATOM     38  C   UNL     1      -9.646  -6.907   2.920  1.00  0.00     0.049 A 
ATOM     39  C   UNL     1      -4.615  -3.912   2.074  1.00  0.00     0.074 A 
ATOM     40  C   UNL     1     -10.494  -6.245   3.788  1.00  0.00     0.029 A 
ATOM     41  N   UNL     1      -8.371  -6.656   3.370  1.00  0.00    -0.354 N 
ATOM     42  N   UNL     1      -5.102  -3.765   3.273  1.00  0.00    -0.248 NA
ATOM     43  C   UNL     1      -4.745  -5.236   1.489  1.00  0.00     0.031 C 
ATOM     44  C   UNL     1      -9.678  -5.256   4.417  1.00  0.00     0.029 A 
ATOM     45  C   UNL     1      -8.359  -5.441   4.001  1.00  0.00     0.049 A 
ATOM     46  H   UNL     1      -7.596  -7.252   3.258  1.00  0.00     0.167 HD
ATOM     47  C   UNL     1      -6.039  -4.783   3.372  1.00  0.00     0.074 A 
ATOM     48  C   UNL     1      -5.722  -5.702   2.273  1.00  0.00     0.031 C 
ATOM     49  C   UNL     1      -7.173  -4.621   4.114  1.00  0.00     0.034 A 
BRANCH  36  50
ATOM     50  C   UNL     1      -9.078  -8.692   1.148  1.00  0.00     0.023 A 
ATOM     51  C   UNL     1      -8.865  -9.641   2.174  1.00  0.00     0.012 A 
ATOM     52  C   UNL     1      -8.395  -8.907  -0.071  1.00  0.00     0.148 A 
ATOM     53  C   UNL     1      -7.960 -10.696   2.026  1.00  0.00     0.002 A 
ATOM     54  C   UNL     1      -7.542  -9.992  -0.237  1.00  0.00     0.091 A 
ATOM     55  F   UNL     1      -8.466  -8.008  -1.053  1.00  0.00    -0.205 F 
ATOM     56  C   UNL     1      -7.296 -10.870   0.820  1.00  0.00     0.022 A 
BRANCH  54  57
ATOM     57  S   UNL     1      -6.670 -10.293  -1.782  1.00  0.00     0.127 S 
ATOM     58  O   UNL     1      -5.282 -10.090  -1.376  1.00  0.00    -0.237 OA
ATOM     59  O   UNL     1      -7.040 -11.680  -2.060  1.00  0.00    -0.237 OA
ATOM     60  O   UNL     1      -7.199  -9.326  -2.735  1.00  0.00    -0.744 OA
ENDBRANCH  54  57
ENDBRANCH  36  50
BRANCH  37  61
ATOM     61  C   UNL     1      -3.119  -2.550   0.482  1.00  0.00     0.023 A 
ATOM     62  C   UNL     1      -1.925  -2.965   1.124  1.00  0.00     0.012 A 
ATOM     63  C   UNL     1      -3.050  -2.265  -0.897  1.00  0.00     0.148 A 
ATOM     64  C   UNL     1      -0.729  -3.138   0.408  1.00  0.00     0.002 A 
ATOM     65  C   UNL     1      -1.863  -2.452  -1.607  1.00  0.00     0.091 A 
ATOM     66  F   UNL     1      -4.173  -1.904  -1.529  1.00  0.00    -0.205 F 
ATOM     67  C   UNL     1      -0.703  -2.899  -0.961  1.00  0.00     0.022 A 
BRANCH  65  68
ATOM     68  S   UNL     1      -1.770  -2.225  -3.389  1.00  0.00     0.127 S 
ATOM     69  O   UNL     1      -0.598  -1.360  -3.524  1.00  0.00    -0.237 OA
ATOM     70  O   UNL     1      -1.576  -3.594  -3.859  1.00  0.00    -0.237 OA
ATOM     71  O   UNL     1      -3.026  -1.597  -3.776  1.00  0.00    -0.744 OA
ENDBRANCH  65  68
ENDBRANCH  37  61
BRANCH  49  72
ATOM     72  C   UNL     1      -7.263  -3.407   5.010  1.00  0.00     0.023 A 
ATOM     73  C   UNL     1      -7.272  -2.076   4.535  1.00  0.00     0.012 A 
ATOM     74  C   UNL     1      -7.471  -3.635   6.378  1.00  0.00     0.148 A 
ATOM     75  C   UNL     1      -7.453  -1.001   5.415  1.00  0.00     0.002 A 
ATOM     76  C   UNL     1      -7.690  -2.571   7.242  1.00  0.00     0.091 A 
ATOM     77  F   UNL     1      -7.470  -4.904   6.811  1.00  0.00    -0.205 F 
ATOM     78  C   UNL     1      -7.670  -1.250   6.769  1.00  0.00     0.022 A 
BRANCH  76  79
ATOM     79  S   UNL     1      -8.073  -2.845   8.971  1.00  0.00     0.127 S 
ATOM     80  O   UNL     1      -6.833  -2.433   9.625  1.00  0.00    -0.237 OA
ATOM     81  O   UNL     1      -9.208  -1.946   9.186  1.00  0.00    -0.237 OA
ATOM     82  O   UNL     1      -8.404  -4.260   9.091  1.00  0.00    -0.744 OA
ENDBRANCH  76  79
ENDBRANCH  49  72
ENDBRANCH  23  24
ENDBRANCH  15  18
ENDBRANCH  13  14
ENDBRANCH  12  13
ENDBRANCH  11  12
ENDBRANCH   9  11
ENDBRANCH   6   7
BRANCH   5  83
ATOM     83  N   UNL     1      -7.023   1.704  -9.443  1.00  0.00    -0.305 N 
ATOM     84  C   UNL     1      -6.135   2.026 -10.563  1.00  0.00     0.154 C 
BRANCH  83  85
ATOM     85  C   UNL     1      -6.484   1.474  -8.168  1.00  0.00     0.230 C 
ATOM     86  O   UNL     1      -7.030   0.702  -7.370  1.00  0.00    -0.274 OA
BRANCH  85  87
ATOM     87  C   UNL     1      -5.119   2.094  -7.747  1.00  0.00     0.076 C 
ATOM     88  C   UNL     1      -3.942   1.173  -8.087  1.00  0.00     0.018 C 
BRANCH  87  89
ATOM     89  C   UNL     1      -4.808   3.552  -8.139  1.00  0.00     0.013 C 
BRANCH  89  90
ATOM     90  C   UNL     1      -5.757   4.609  -7.557  1.00  0.00     0.007 C 
BRANCH  90  91
ATOM     91  C   UNL     1      -5.711   4.723  -6.027  1.00  0.00     0.064 C 
BRANCH  91  92
ATOM     92  C   UNL     1      -4.348   5.209  -5.479  1.00  0.00     0.177 C 
ATOM     93  C   UNL     1      -3.868   4.368  -4.293  1.00  0.00     0.075 C 
BRANCH  92  94
ATOM     94  N   UNL     1      -4.424   6.627  -5.100  1.00  0.00    -0.355 N 
ATOM     95  H   UNL     1      -5.107   6.742  -4.351  1.00  0.00     0.344 HD
ATOM     96  H   UNL     1      -4.710   7.180  -5.908  1.00  0.00     0.344 HD
ATOM     97  H   UNL     1      -3.510   6.942  -4.778  1.00  0.00     0.344 HD
ENDBRANCH  92  94
ENDBRANCH  91  92
ENDBRANCH  90  91
ENDBRANCH  89  90
ENDBRANCH  87  89
ENDBRANCH  85  87
ENDBRANCH  83  85
ENDBRANCH   5  83
TORSDOF 21
