REMARK SMILES COc1cc(CC(=O)N[C@@H](CC(=O)NCCCNC(=O)c2ccc(-c3c4nc(c(-c5cccc(S(=O)(=O)[O-])c5F)c5ccc([nH]5)c(-c5cccc(S(=O)(=O)[O-])c5F)c5nc(c(-c6cccc(S(=O)(=O)[O-])c6F)c6ccc3[nH]6)C=C5)C=C4)cc2)c2cccs2)ccc1C
REMARK SMILES IDX 15 1 14 2 12 3 13 4 11 6 10 7 9 8 7 9 8 10 6 12 5 13 3 14
REMARK SMILES IDX 4 15 91 16 90 17 92 18 89 19 2 20 1 21 84 22 85 23 88 24
REMARK SMILES IDX 86 25 87 26 16 27 17 28 18 29 19 30 20 32 21 33 22 34 83 35
REMARK SMILES IDX 23 36 82 37 24 38 25 39 26 40 76 41 27 42 81 43 75 44 77 45
REMARK SMILES IDX 28 46 80 47 74 48 73 49 29 51 61 52 41 53 60 54 42 55 45 56
REMARK SMILES IDX 59 57 78 58 43 59 44 60 58 62 79 63 46 64 30 65 31 66 39 67
REMARK SMILES IDX 32 68 34 69 40 70 33 71 35 72 36 73 37 74 38 75 62 76 63 77
REMARK SMILES IDX 71 78 64 79 66 80 72 81 65 82 67 83 68 84 69 85 70 86 47 87
REMARK SMILES IDX 48 88 56 89 49 90 51 91 57 92 50 93 52 94 53 95 54 96 55 97
REMARK H PARENT 14 5 9 11 18 31 77 50 45 61
REMARK Flexibility Score: inf
ROOT
ATOM      1  C   UNL     1       3.623   6.883   2.975  1.00  0.00     0.117 C 
ENDROOT
BRANCH   1   2
ATOM      2  N   UNL     1       3.767   7.058   1.541  1.00  0.00    -0.356 N 
ATOM      3  C   UNL     1       3.618   6.160   0.527  1.00  0.00     0.222 C 
ATOM      4  O   UNL     1       3.744   6.573  -0.628  1.00  0.00    -0.275 OA
ATOM      5  H   UNL     1       4.010   7.969   1.256  1.00  0.00     0.163 HD
BRANCH   3   6
ATOM      6  C   UNL     1       3.252   4.711   0.790  1.00  0.00     0.130 C 
BRANCH   6   7
ATOM      7  C   UNL     1       4.370   3.661   0.922  1.00  0.00     0.131 C 
BRANCH   7   8
ATOM      8  N   UNL     1       5.068   3.668   2.201  1.00  0.00    -0.348 N 
ATOM      9  C   UNL     1       4.837   3.063   3.393  1.00  0.00     0.224 C 
ATOM     10  O   UNL     1       5.580   3.368   4.331  1.00  0.00    -0.275 OA
ATOM     11  H   UNL     1       5.877   4.229   2.200  1.00  0.00     0.164 HD
BRANCH   9  12
ATOM     12  C   UNL     1       3.829   1.951   3.575  1.00  0.00     0.135 C 
BRANCH  12  13
ATOM     13  C   UNL     1       2.411   2.212   3.147  1.00  0.00    -0.035 A 
ATOM     14  C   UNL     1       0.580   1.714   1.608  1.00  0.00     0.122 A 
ATOM     15  C   UNL     1       1.879   1.488   2.068  1.00  0.00     0.051 A 
ATOM     16  C   UNL     1      -0.220   2.664   2.260  1.00  0.00    -0.009 A 
ATOM     17  C   UNL     1       0.295   3.354   3.372  1.00  0.00     0.007 A 
ATOM     18  C   UNL     1      -1.632   2.955   1.829  1.00  0.00     0.048 C 
ATOM     19  C   UNL     1       1.601   3.133   3.812  1.00  0.00     0.005 A 
BRANCH  14  20
ATOM     20  O   UNL     1       0.028   1.074   0.529  1.00  0.00    -0.496 OA
ATOM     21  C   UNL     1       0.777   0.011  -0.050  1.00  0.00     0.278 C 
ENDBRANCH  14  20
ENDBRANCH  12  13
ENDBRANCH   9  12
ENDBRANCH   7   8
BRANCH   7  22
ATOM     22  C   UNL     1       5.448   3.692  -0.139  1.00  0.00     0.027 A 
ATOM     23  C   UNL     1       6.264   4.730  -0.554  1.00  0.00     0.017 A 
ATOM     24  S   UNL     1       5.891   2.221  -0.921  1.00  0.00    -0.147 S 
ATOM     25  C   UNL     1       7.252   4.316  -1.494  1.00  0.00     0.012 A 
ATOM     26  C   UNL     1       7.175   2.970  -1.761  1.00  0.00     0.065 A 
ENDBRANCH   7  22
ENDBRANCH   6   7
ENDBRANCH   3   6
ENDBRANCH   1   2
BRANCH   1  27
ATOM     27  C   UNL     1       4.946   6.550   3.635  1.00  0.00     0.042 C 
BRANCH  27  28
ATOM     28  C   UNL     1       5.836   7.746   3.933  1.00  0.00     0.118 C 
BRANCH  28  29
ATOM     29  N   UNL     1       6.090   7.817   5.369  1.00  0.00    -0.352 N 
ATOM     30  C   UNL     1       7.233   8.129   6.074  1.00  0.00     0.251 C 
ATOM     31  H   UNL     1       5.310   7.605   5.932  1.00  0.00     0.163 HD
ATOM     32  O   UNL     1       7.306   7.882   7.276  1.00  0.00    -0.269 OA
BRANCH  30  33
ATOM     33  C   UNL     1       8.269   8.925   5.394  1.00  0.00     0.039 A 
ATOM     34  C   UNL     1       8.395  10.248   5.831  1.00  0.00     0.014 A 
ATOM     35  C   UNL     1       8.736   8.527   4.148  1.00  0.00     0.014 A 
ATOM     36  C   UNL     1       8.709  11.236   4.910  1.00  0.00     0.010 A 
ATOM     37  C   UNL     1       8.941   9.511   3.208  1.00  0.00     0.010 A 
ATOM     38  C   UNL     1       8.856  10.861   3.581  1.00  0.00    -0.014 A 
BRANCH  38  39
ATOM     39  C   UNL     1       8.950  11.801   2.483  1.00  0.00     0.031 A 
ATOM     40  C   UNL     1      10.287  12.192   2.010  1.00  0.00     0.074 A 
ATOM     41  C   UNL     1       7.832  12.157   1.813  1.00  0.00     0.049 A 
ATOM     42  N   UNL     1      10.526  13.233   1.293  1.00  0.00    -0.248 NA
ATOM     43  C   UNL     1      11.481  11.426   2.351  1.00  0.00     0.031 C 
ATOM     44  C   UNL     1       7.760  12.730   0.476  1.00  0.00     0.029 A 
ATOM     45  N   UNL     1       6.524  12.254   2.301  1.00  0.00    -0.354 N 
ATOM     46  C   UNL     1      11.828  13.129   0.853  1.00  0.00     0.074 A 
ATOM     47  C   UNL     1      12.398  12.027   1.591  1.00  0.00     0.031 C 
ATOM     48  C   UNL     1       6.581  13.355   0.337  1.00  0.00     0.029 A 
ATOM     49  C   UNL     1       5.941  13.351   1.641  1.00  0.00     0.049 A 
ATOM     50  H   UNL     1       6.098  11.671   2.971  1.00  0.00     0.167 HD
ATOM     51  C   UNL     1      12.232  13.878  -0.209  1.00  0.00     0.034 A 
ATOM     52  C   UNL     1       5.447  14.452   2.280  1.00  0.00     0.034 A 
ATOM     53  C   UNL     1      11.147  14.742  -0.682  1.00  0.00     0.049 A 
ATOM     54  C   UNL     1       6.128  15.741   1.851  1.00  0.00     0.074 A 
ATOM     55  C   UNL     1      10.182  14.581  -1.664  1.00  0.00     0.029 A 
ATOM     56  N   UNL     1      10.737  15.812   0.100  1.00  0.00    -0.354 N 
ATOM     57  N   UNL     1       7.180  15.787   1.080  1.00  0.00    -0.248 NA
ATOM     58  C   UNL     1       5.702  17.075   2.268  1.00  0.00     0.031 C 
ATOM     59  C   UNL     1       9.143  15.516  -1.417  1.00  0.00     0.029 A 
ATOM     60  C   UNL     1       9.489  16.263  -0.304  1.00  0.00     0.049 A 
ATOM     61  H   UNL     1      11.259  16.199   0.840  1.00  0.00     0.167 HD
ATOM     62  C   UNL     1       7.646  17.074   0.991  1.00  0.00     0.074 A 
ATOM     63  C   UNL     1       6.638  17.852   1.691  1.00  0.00     0.031 C 
ATOM     64  C   UNL     1       8.846  17.369   0.399  1.00  0.00     0.034 A 
BRANCH  51  65
ATOM     65  C   UNL     1      13.467  13.556  -1.022  1.00  0.00     0.023 A 
ATOM     66  C   UNL     1      13.416  13.819  -2.409  1.00  0.00     0.012 A 
ATOM     67  C   UNL     1      14.650  12.950  -0.543  1.00  0.00     0.148 A 
ATOM     68  C   UNL     1      14.422  13.408  -3.288  1.00  0.00     0.002 A 
ATOM     69  C   UNL     1      15.622  12.471  -1.428  1.00  0.00     0.091 A 
ATOM     70  F   UNL     1      14.875  12.893   0.776  1.00  0.00    -0.205 F 
ATOM     71  C   UNL     1      15.507  12.697  -2.803  1.00  0.00     0.022 A 
BRANCH  69  72
ATOM     72  S   UNL     1      16.997  11.441  -0.887  1.00  0.00     0.127 S 
ATOM     73  O   UNL     1      16.988  10.361  -1.878  1.00  0.00    -0.237 OA
ATOM     74  O   UNL     1      18.136  12.350  -0.994  1.00  0.00    -0.237 OA
ATOM     75  O   UNL     1      16.657  11.003   0.462  1.00  0.00    -0.744 OA
ENDBRANCH  69  72
ENDBRANCH  51  65
BRANCH  52  76
ATOM     76  C   UNL     1       4.890  14.154   3.631  1.00  0.00     0.023 A 
ATOM     77  C   UNL     1       3.751  13.313   3.668  1.00  0.00     0.012 A 
ATOM     78  C   UNL     1       5.662  14.305   4.795  1.00  0.00     0.148 A 
ATOM     79  C   UNL     1       3.474  12.527   4.787  1.00  0.00     0.002 A 
ATOM     80  C   UNL     1       5.378  13.514   5.910  1.00  0.00     0.091 A 
ATOM     81  F   UNL     1       6.708  15.140   4.767  1.00  0.00    -0.205 F 
ATOM     82  C   UNL     1       4.313  12.598   5.892  1.00  0.00     0.022 A 
BRANCH  80  83
ATOM     83  S   UNL     1       6.438  13.508   7.362  1.00  0.00     0.127 S 
ATOM     84  O   UNL     1       5.712  14.402   8.258  1.00  0.00    -0.237 OA
ATOM     85  O   UNL     1       6.417  12.099   7.753  1.00  0.00    -0.237 OA
ATOM     86  O   UNL     1       7.730  13.977   6.885  1.00  0.00    -0.744 OA
ENDBRANCH  80  83
ENDBRANCH  52  76
BRANCH  64  87
ATOM     87  C   UNL     1       9.564  18.708   0.437  1.00  0.00     0.023 A 
ATOM     88  C   UNL     1       9.311  19.677   1.424  1.00  0.00     0.012 A 
ATOM     89  C   UNL     1      10.657  18.962  -0.436  1.00  0.00     0.148 A 
ATOM     90  C   UNL     1      10.072  20.849   1.521  1.00  0.00     0.002 A 
ATOM     91  C   UNL     1      11.485  20.066  -0.256  1.00  0.00     0.091 A 
ATOM     92  F   UNL     1      10.896  18.141  -1.470  1.00  0.00    -0.205 F 
ATOM     93  C   UNL     1      11.179  21.030   0.703  1.00  0.00     0.022 A 
BRANCH  91  94
ATOM     94  S   UNL     1      13.059  20.180  -1.121  1.00  0.00     0.127 S 
ATOM     95  O   UNL     1      12.693  20.915  -2.329  1.00  0.00    -0.237 OA
ATOM     96  O   UNL     1      13.887  20.933  -0.177  1.00  0.00    -0.237 OA
ATOM     97  O   UNL     1      13.479  18.797  -1.307  1.00  0.00    -0.744 OA
ENDBRANCH  91  94
ENDBRANCH  64  87
ENDBRANCH  38  39
ENDBRANCH  30  33
ENDBRANCH  28  29
ENDBRANCH  27  28
ENDBRANCH   1  27
TORSDOF 19
