REMARK SMILES Cc1coc2cc3oc(=O)c(CC(=O)N[C@H](Cc4c[nH]c5ccc(O)cc45)C(=O)NCCCNC(=O)c4ccc(-c5c6nc(c(-c7cccc(S(=O)(=O)[O-])c7F)c7ccc([nH]7)c(-c7cccc(S(=O)(=O)[O-])c7F)c7nc(c(-c8cccc(S(=O)(=O)[O-])c8F)c8ccc5[nH]8)C=C7)C=C6)cc4)c(C)c3cc12
REMARK SMILES IDX 32 1 31 2 30 3 28 4 29 5 16 7 15 8 13 9 14 10 12 12 11 13
REMARK SMILES IDX 1 14 2 15 3 16 104 17 4 18 5 19 103 20 6 21 102 22 7 23
REMARK SMILES IDX 100 24 8 25 101 26 9 27 10 28 17 29 18 30 19 31 27 32 20 33
REMARK SMILES IDX 21 34 26 35 22 37 24 38 23 39 25 40 33 42 34 43 35 44 36 46
REMARK SMILES IDX 37 47 38 48 99 49 39 50 98 51 40 52 41 53 42 54 92 55 43 56
REMARK SMILES IDX 97 57 91 58 93 59 44 60 96 61 90 62 89 63 45 65 77 66 57 67
REMARK SMILES IDX 76 68 58 69 61 70 75 71 94 72 59 73 60 74 74 76 95 77 62 78
REMARK SMILES IDX 46 79 47 80 55 81 48 82 50 83 56 84 49 85 51 86 52 87 53 88
REMARK SMILES IDX 54 89 78 90 79 91 87 92 80 93 82 94 88 95 81 96 83 97 84 98
REMARK SMILES IDX 85 99 86 100 63 101 64 102 72 103 65 104 67 105 73 106
REMARK SMILES IDX 66 107 68 108 69 109 70 110 71 111
REMARK H PARENT 30 6 15 11 20 36 25 41 34 45 93 64 61 75
REMARK Flexibility Score: inf
ROOT
ATOM      1  C   UNL     1      -8.673  -3.505   3.168  1.00  0.00     0.042 C 
ENDROOT
BRANCH   1   2
ATOM      2  C   UNL     1      -7.901  -2.349   3.796  1.00  0.00     0.117 C 
BRANCH   2   3
ATOM      3  N   UNL     1      -7.959  -2.374   5.254  1.00  0.00    -0.354 N 
ATOM      4  C   UNL     1      -6.999  -1.950   6.134  1.00  0.00     0.242 C 
ATOM      5  O   UNL     1      -7.146  -2.176   7.334  1.00  0.00    -0.273 OA
ATOM      6  H   UNL     1      -8.783  -2.737   5.650  1.00  0.00     0.163 HD
BRANCH   4   7
ATOM      7  C   UNL     1      -5.699  -1.355   5.582  1.00  0.00     0.175 C 
BRANCH   7   8
ATOM      8  N   UNL     1      -6.033  -0.285   4.635  1.00  0.00    -0.344 N 
ATOM      9  C   UNL     1      -6.728   0.882   4.789  1.00  0.00     0.225 C 
ATOM     10  O   UNL     1      -6.690   1.675   3.843  1.00  0.00    -0.275 OA
ATOM     11  H   UNL     1      -5.695  -0.434   3.722  1.00  0.00     0.164 HD
BRANCH   9  12
ATOM     12  C   UNL     1      -7.512   1.238   6.063  1.00  0.00     0.143 C 
BRANCH  12  13
ATOM     13  C   UNL     1      -8.899   0.639   6.250  1.00  0.00     0.051 A 
ATOM     14  C   UNL     1     -14.718  -1.922   2.960  1.00  0.00     0.048 C 
ATOM     15  C   UNL     1     -14.013  -2.357   4.190  1.00  0.00    -0.005 A 
ATOM     16  C   UNL     1     -14.193  -3.586   4.795  1.00  0.00     0.199 A 
ATOM     17  C   UNL     1     -12.995  -1.688   4.956  1.00  0.00     0.024 A 
ATOM     18  O   UNL     1     -13.422  -3.702   5.901  1.00  0.00    -0.464 OA
ATOM     19  C   UNL     1     -12.690  -2.562   5.992  1.00  0.00     0.137 A 
ATOM     20  C   UNL     1     -12.231  -0.486   4.854  1.00  0.00     0.024 A 
ATOM     21  C   UNL     1     -11.733  -2.316   6.963  1.00  0.00     0.095 A 
ATOM     22  C   UNL     1     -11.110  -0.286   5.699  1.00  0.00     0.022 A 
ATOM     23  C   UNL     1     -10.956  -1.169   6.772  1.00  0.00     0.142 A 
ATOM     24  C   UNL     1      -9.953   0.621   5.397  1.00  0.00    -0.029 A 
ATOM     25  O   UNL     1      -9.968  -0.965   7.746  1.00  0.00    -0.422 OA
ATOM     26  C   UNL     1      -9.940   1.384   4.096  1.00  0.00     0.046 C 
ATOM     27  C   UNL     1      -9.086   0.085   7.619  1.00  0.00     0.340 A 
ATOM     28  O   UNL     1      -8.459   0.521   8.579  1.00  0.00    -0.246 OA
ENDBRANCH  12  13
ENDBRANCH   9  12
ENDBRANCH   7   8
BRANCH   7  29
ATOM     29  C   UNL     1      -4.940  -2.622   5.087  1.00  0.00     0.072 C 
BRANCH  29  30
ATOM     30  C   UNL     1      -4.068  -2.707   3.864  1.00  0.00    -0.020 A 
ATOM     31  C   UNL     1      -3.914  -1.898   2.756  1.00  0.00     0.087 A 
ATOM     32  C   UNL     1      -3.282  -3.892   3.591  1.00  0.00     0.006 A 
ATOM     33  N   UNL     1      -3.013  -2.487   1.897  1.00  0.00    -0.361 N 
ATOM     34  C   UNL     1      -2.605  -3.700   2.389  1.00  0.00     0.046 A 
ATOM     35  C   UNL     1      -3.118  -5.127   4.258  1.00  0.00     0.056 A 
ATOM     36  H   UNL     1      -2.704  -2.093   1.050  1.00  0.00     0.166 HD
ATOM     37  C   UNL     1      -1.725  -4.648   1.850  1.00  0.00     0.030 A 
ATOM     38  C   UNL     1      -2.272  -6.091   3.711  1.00  0.00     0.116 A 
ATOM     39  C   UNL     1      -1.567  -5.855   2.538  1.00  0.00     0.048 A 
BRANCH  38  40
ATOM     40  O   UNL     1      -2.169  -7.286   4.366  1.00  0.00    -0.508 OA
ATOM     41  H   UNL     1      -1.611  -7.958   4.029  1.00  0.00     0.293 HD
ENDBRANCH  38  40
ENDBRANCH  29  30
ENDBRANCH   7  29
ENDBRANCH   4   7
ENDBRANCH   2   3
ENDBRANCH   1   2
BRANCH   1  42
ATOM     42  C   UNL     1     -10.172  -3.351   3.374  1.00  0.00     0.118 C 
BRANCH  42  43
ATOM     43  N   UNL     1     -10.574  -2.044   2.898  1.00  0.00    -0.352 N 
ATOM     44  C   UNL     1     -11.273  -1.537   1.856  1.00  0.00     0.251 C 
ATOM     45  H   UNL     1     -10.251  -1.330   3.494  1.00  0.00     0.163 HD
ATOM     46  O   UNL     1     -11.412  -0.313   1.806  1.00  0.00    -0.269 OA
BRANCH  44  47
ATOM     47  C   UNL     1     -11.882  -2.354   0.812  1.00  0.00     0.039 A 
ATOM     48  C   UNL     1     -11.409  -3.613   0.465  1.00  0.00     0.014 A 
ATOM     49  C   UNL     1     -12.910  -1.734   0.077  1.00  0.00     0.014 A 
ATOM     50  C   UNL     1     -11.917  -4.221  -0.658  1.00  0.00     0.010 A 
ATOM     51  C   UNL     1     -13.429  -2.344  -1.041  1.00  0.00     0.010 A 
ATOM     52  C   UNL     1     -12.868  -3.547  -1.435  1.00  0.00    -0.014 A 
BRANCH  52  53
ATOM     53  C   UNL     1     -13.125  -4.115  -2.736  1.00  0.00     0.031 A 
ATOM     54  C   UNL     1     -13.628  -5.503  -2.729  1.00  0.00     0.074 A 
ATOM     55  C   UNL     1     -12.756  -3.474  -3.858  1.00  0.00     0.049 A 
ATOM     56  N   UNL     1     -12.938  -6.572  -2.955  1.00  0.00    -0.248 NA
ATOM     57  C   UNL     1     -14.989  -5.745  -2.249  1.00  0.00     0.031 C 
ATOM     58  C   UNL     1     -12.439  -2.059  -4.065  1.00  0.00     0.029 A 
ATOM     59  N   UNL     1     -12.683  -3.996  -5.106  1.00  0.00    -0.354 N 
ATOM     60  C   UNL     1     -13.830  -7.631  -2.837  1.00  0.00     0.074 A 
ATOM     61  C   UNL     1     -15.026  -7.079  -2.253  1.00  0.00     0.031 C 
ATOM     62  C   UNL     1     -12.474  -1.795  -5.391  1.00  0.00     0.029 A 
ATOM     63  C   UNL     1     -12.644  -3.045  -6.108  1.00  0.00     0.049 A 
ATOM     64  H   UNL     1     -12.661  -4.964  -5.283  1.00  0.00     0.167 HD
ATOM     65  C   UNL     1     -13.565  -8.837  -3.411  1.00  0.00     0.034 A 
ATOM     66  C   UNL     1     -12.850  -3.293  -7.420  1.00  0.00     0.034 A 
ATOM     67  C   UNL     1     -12.170  -8.960  -3.758  1.00  0.00     0.049 A 
ATOM     68  C   UNL     1     -12.498  -4.719  -7.651  1.00  0.00     0.074 A 
ATOM     69  C   UNL     1     -10.985  -8.944  -3.048  1.00  0.00     0.029 A 
ATOM     70  N   UNL     1     -11.821  -8.765  -5.073  1.00  0.00    -0.354 N 
ATOM     71  N   UNL     1     -11.283  -5.182  -7.528  1.00  0.00    -0.248 NA
ATOM     72  C   UNL     1     -13.555  -5.716  -7.569  1.00  0.00     0.031 C 
ATOM     73  C   UNL     1     -10.062  -8.261  -3.893  1.00  0.00     0.029 A 
ATOM     74  C   UNL     1     -10.725  -7.944  -5.081  1.00  0.00     0.049 A 
ATOM     75  H   UNL     1     -12.274  -9.143  -5.861  1.00  0.00     0.167 HD
ATOM     76  C   UNL     1     -11.438  -6.420  -6.915  1.00  0.00     0.074 A 
ATOM     77  C   UNL     1     -12.858  -6.738  -7.061  1.00  0.00     0.031 C 
ATOM     78  C   UNL     1     -10.474  -6.943  -6.097  1.00  0.00     0.034 A 
BRANCH  65  79
ATOM     79  C   UNL     1     -14.600  -9.777  -3.982  1.00  0.00     0.023 A 
ATOM     80  C   UNL     1     -14.133 -11.008  -4.500  1.00  0.00     0.012 A 
ATOM     81  C   UNL     1     -15.927  -9.414  -4.301  1.00  0.00     0.148 A 
ATOM     82  C   UNL     1     -14.910 -11.785  -5.365  1.00  0.00     0.002 A 
ATOM     83  C   UNL     1     -16.720 -10.223  -5.106  1.00  0.00     0.091 A 
ATOM     84  F   UNL     1     -16.405  -8.222  -3.938  1.00  0.00    -0.205 F 
ATOM     85  C   UNL     1     -16.205 -11.391  -5.671  1.00  0.00     0.022 A 
BRANCH  83  86
ATOM     86  S   UNL     1     -18.416  -9.780  -5.500  1.00  0.00     0.127 S 
ATOM     87  O   UNL     1     -18.287  -9.327  -6.880  1.00  0.00    -0.237 OA
ATOM     88  O   UNL     1     -19.108 -11.056  -5.325  1.00  0.00    -0.237 OA
ATOM     89  O   UNL     1     -18.791  -8.762  -4.522  1.00  0.00    -0.744 OA
ENDBRANCH  83  86
ENDBRANCH  65  79
BRANCH  66  90
ATOM     90  C   UNL     1     -13.693  -2.498  -8.342  1.00  0.00     0.023 A 
ATOM     91  C   UNL     1     -13.590  -2.711  -9.728  1.00  0.00     0.012 A 
ATOM     92  C   UNL     1     -14.779  -1.727  -7.862  1.00  0.00     0.148 A 
ATOM     93  C   UNL     1     -14.552  -2.197 -10.606  1.00  0.00     0.002 A 
ATOM     94  C   UNL     1     -15.727  -1.211  -8.739  1.00  0.00     0.091 A 
ATOM     95  F   UNL     1     -14.939  -1.577  -6.541  1.00  0.00    -0.205 F 
ATOM     96  C   UNL     1     -15.623  -1.455 -10.112  1.00  0.00     0.022 A 
BRANCH  94  97
ATOM     97  S   UNL     1     -17.146  -0.267  -8.164  1.00  0.00     0.127 S 
ATOM     98  O   UNL     1     -17.135   0.879  -9.073  1.00  0.00    -0.237 OA
ATOM     99  O   UNL     1     -18.241  -1.209  -8.378  1.00  0.00    -0.237 OA
ATOM    100  O   UNL     1     -16.865   0.070  -6.774  1.00  0.00    -0.744 OA
ENDBRANCH  94  97
ENDBRANCH  66  90
BRANCH  78 101
ATOM    101  C   UNL     1      -9.136  -6.245  -6.011  1.00  0.00     0.023 A 
ATOM    102  C   UNL     1      -9.023  -4.923  -5.529  1.00  0.00     0.012 A 
ATOM    103  C   UNL     1      -7.963  -6.999  -6.194  1.00  0.00     0.148 A 
ATOM    104  C   UNL     1      -7.773  -4.361  -5.254  1.00  0.00     0.002 A 
ATOM    105  C   UNL     1      -6.725  -6.455  -5.870  1.00  0.00     0.091 A 
ATOM    106  F   UNL     1      -8.082  -8.259  -6.641  1.00  0.00    -0.205 F 
ATOM    107  C   UNL     1      -6.625  -5.133  -5.410  1.00  0.00     0.022 A 
BRANCH 105 108
ATOM    108  S   UNL     1      -5.222  -7.439  -5.901  1.00  0.00     0.127 S 
ATOM    109  O   UNL     1      -4.550  -6.935  -7.096  1.00  0.00    -0.237 OA
ATOM    110  O   UNL     1      -4.579  -7.069  -4.638  1.00  0.00    -0.237 OA
ATOM    111  O   UNL     1      -5.655  -8.829  -5.961  1.00  0.00    -0.744 OA
ENDBRANCH 105 108
ENDBRANCH  78 101
ENDBRANCH  52  53
ENDBRANCH  44  47
ENDBRANCH  42  43
ENDBRANCH   1  42
TORSDOF 19
