REMARK SMILES O=C(NCCCNC(=O)[C@H]1C[C@@H]2CCCC[C@H]2N1C(=O)CN1CSCC1=O)c1ccc(-c2c3nc(c(-c4cccc(S(=O)(=O)[O-])c4F)c4ccc([nH]4)c(-c4cccc(S(=O)(=O)[O-])c4F)c4nc(c(-c5cccc(S(=O)(=O)[O-])c5F)c5ccc2[nH]5)C=C4)C=C3)cc1
REMARK SMILES IDX 5 1 4 2 3 3 1 4 2 5 28 7 29 8 90 9 30 10 89 11 31 12 32 13
REMARK SMILES IDX 33 14 83 15 34 16 88 17 82 18 84 19 35 20 87 21 81 22 80 23
REMARK SMILES IDX 36 25 68 26 48 27 67 28 49 29 52 30 66 31 85 32 50 33 51 34
REMARK SMILES IDX 65 36 86 37 53 38 37 39 38 40 46 41 39 42 41 43 47 44 40 45
REMARK SMILES IDX 42 46 43 47 44 48 45 49 69 50 70 51 78 52 71 53 73 54 79 55
REMARK SMILES IDX 72 56 74 57 75 58 76 59 77 60 54 61 55 62 63 63 56 64 58 65
REMARK SMILES IDX 64 66 57 67 59 68 60 69 61 70 62 71 6 72 7 73 8 74 9 76
REMARK SMILES IDX 10 77 11 78 18 79 12 80 17 81 13 82 16 83 14 84 15 85 19 86
REMARK SMILES IDX 20 87 21 88 22 89 23 90 26 91 24 92 25 93 27 94
REMARK H PARENT 3 6 84 24 52 35 7 75
REMARK Flexibility Score: inf
ROOT
ATOM      1  C   UNL     1       4.478  -1.901  -1.956  1.00  0.00     0.042 C 
ENDROOT
BRANCH   1   2
ATOM      2  C   UNL     1       4.262  -0.488  -1.414  1.00  0.00     0.118 C 
BRANCH   2   3
ATOM      3  N   UNL     1       2.860  -0.198  -1.157  1.00  0.00    -0.352 N 
ATOM      4  O   UNL     1       0.978   0.058   0.040  1.00  0.00    -0.269 OA
ATOM      5  C   UNL     1       2.208   0.051   0.027  1.00  0.00     0.251 C 
ATOM      6  H   UNL     1       2.287  -0.175  -1.957  1.00  0.00     0.163 HD
BRANCH   5   7
ATOM      7  C   UNL     1       2.966   0.288   1.278  1.00  0.00     0.039 A 
ATOM      8  C   UNL     1       4.123   1.069   1.281  1.00  0.00     0.014 A 
ATOM      9  C   UNL     1       2.485  -0.242   2.480  1.00  0.00     0.014 A 
ATOM     10  C   UNL     1       4.875   1.194   2.446  1.00  0.00     0.010 A 
ATOM     11  C   UNL     1       3.193  -0.035   3.669  1.00  0.00     0.010 A 
ATOM     12  C   UNL     1       4.412   0.658   3.658  1.00  0.00    -0.014 A 
BRANCH  12  13
ATOM     13  C   UNL     1       5.182   0.907   4.906  1.00  0.00     0.031 A 
ATOM     14  C   UNL     1       5.783  -0.223   5.698  1.00  0.00     0.074 A 
ATOM     15  C   UNL     1       5.341   2.179   5.323  1.00  0.00     0.049 A 
ATOM     16  N   UNL     1       6.514  -0.168   6.782  1.00  0.00    -0.248 NA
ATOM     17  C   UNL     1       5.528  -1.591   5.220  1.00  0.00     0.031 C 
ATOM     18  C   UNL     1       4.765   3.357   4.668  1.00  0.00     0.029 A 
ATOM     19  N   UNL     1       6.029   2.700   6.390  1.00  0.00    -0.354 N 
ATOM     20  C   UNL     1       6.776  -1.486   7.139  1.00  0.00     0.074 A 
ATOM     21  C   UNL     1       6.115  -2.322   6.159  1.00  0.00     0.031 C 
ATOM     22  C   UNL     1       5.146   4.460   5.326  1.00  0.00     0.029 A 
ATOM     23  C   UNL     1       5.946   4.069   6.481  1.00  0.00     0.049 A 
ATOM     24  H   UNL     1       6.534   2.146   7.028  1.00  0.00     0.167 HD
ATOM     25  C   UNL     1       7.510  -1.955   8.177  1.00  0.00     0.034 A 
ATOM     26  C   UNL     1       6.441   4.920   7.400  1.00  0.00     0.034 A 
ATOM     27  C   UNL     1       8.185  -1.117   9.134  1.00  0.00     0.049 A 
ATOM     28  C   UNL     1       7.263   4.371   8.530  1.00  0.00     0.074 A 
ATOM     29  C   UNL     1       9.005  -1.497  10.183  1.00  0.00     0.029 A 
ATOM     30  N   UNL     1       8.109   0.267   9.172  1.00  0.00    -0.354 N 
ATOM     31  N   UNL     1       7.608   3.130   8.771  1.00  0.00    -0.248 NA
ATOM     32  C   UNL     1       7.787   5.342   9.500  1.00  0.00     0.031 C 
ATOM     33  C   UNL     1       9.400  -0.345  10.872  1.00  0.00     0.029 A 
ATOM     34  C   UNL     1       8.855   0.756  10.232  1.00  0.00     0.049 A 
ATOM     35  H   UNL     1       7.599   0.822   8.537  1.00  0.00     0.167 HD
ATOM     36  C   UNL     1       8.415   3.173   9.901  1.00  0.00     0.074 A 
ATOM     37  C   UNL     1       8.527   4.567  10.280  1.00  0.00     0.031 C 
ATOM     38  C   UNL     1       8.996   2.149  10.573  1.00  0.00     0.034 A 
BRANCH  25  39
ATOM     39  C   UNL     1       7.652  -3.450   8.321  1.00  0.00     0.023 A 
ATOM     40  C   UNL     1       8.459  -4.166   7.414  1.00  0.00     0.012 A 
ATOM     41  C   UNL     1       7.047  -4.136   9.394  1.00  0.00     0.148 A 
ATOM     42  C   UNL     1       8.636  -5.543   7.551  1.00  0.00     0.002 A 
ATOM     43  C   UNL     1       7.263  -5.501   9.550  1.00  0.00     0.091 A 
ATOM     44  F   UNL     1       6.269  -3.443  10.238  1.00  0.00    -0.205 F 
ATOM     45  C   UNL     1       8.047  -6.207   8.623  1.00  0.00     0.022 A 
BRANCH  43  46
ATOM     46  S   UNL     1       6.614  -6.434  10.941  1.00  0.00     0.127 S 
ATOM     47  O   UNL     1       5.580  -7.242  10.296  1.00  0.00    -0.237 OA
ATOM     48  O   UNL     1       7.789  -7.187  11.382  1.00  0.00    -0.237 OA
ATOM     49  O   UNL     1       6.132  -5.447  11.897  1.00  0.00    -0.744 OA
ENDBRANCH  43  46
ENDBRANCH  25  39
BRANCH  26  50
ATOM     50  C   UNL     1       6.202   6.384   7.258  1.00  0.00     0.023 A 
ATOM     51  C   UNL     1       7.279   7.238   6.950  1.00  0.00     0.012 A 
ATOM     52  C   UNL     1       4.910   6.927   7.390  1.00  0.00     0.148 A 
ATOM     53  C   UNL     1       7.076   8.611   6.803  1.00  0.00     0.002 A 
ATOM     54  C   UNL     1       4.705   8.285   7.182  1.00  0.00     0.091 A 
ATOM     55  F   UNL     1       3.901   6.099   7.697  1.00  0.00    -0.205 F 
ATOM     56  C   UNL     1       5.789   9.132   6.907  1.00  0.00     0.022 A 
BRANCH  54  57
ATOM     57  S   UNL     1       3.064   9.016   7.157  1.00  0.00     0.127 S 
ATOM     58  O   UNL     1       3.063   9.788   8.397  1.00  0.00    -0.237 OA
ATOM     59  O   UNL     1       3.109   9.816   5.932  1.00  0.00    -0.237 OA
ATOM     60  O   UNL     1       2.136   7.895   7.107  1.00  0.00    -0.744 OA
ENDBRANCH  54  57
ENDBRANCH  26  50
BRANCH  38  61
ATOM     61  C   UNL     1       9.841   2.498  11.770  1.00  0.00     0.023 A 
ATOM     62  C   UNL     1       9.229   2.950  12.956  1.00  0.00     0.012 A 
ATOM     63  C   UNL     1      11.239   2.326  11.736  1.00  0.00     0.148 A 
ATOM     64  C   UNL     1       9.998   3.263  14.076  1.00  0.00     0.002 A 
ATOM     65  C   UNL     1      11.994   2.590  12.872  1.00  0.00     0.091 A 
ATOM     66  F   UNL     1      11.806   1.915  10.592  1.00  0.00    -0.205 F 
ATOM     67  C   UNL     1      11.377   3.071  14.038  1.00  0.00     0.022 A 
BRANCH  65  68
ATOM     68  S   UNL     1      13.762   2.280  12.945  1.00  0.00     0.127 S 
ATOM     69  O   UNL     1      14.303   3.638  12.923  1.00  0.00    -0.237 OA
ATOM     70  O   UNL     1      13.903   1.587  14.226  1.00  0.00    -0.237 OA
ATOM     71  O   UNL     1      14.074   1.463  11.780  1.00  0.00    -0.744 OA
ENDBRANCH  65  68
ENDBRANCH  38  61
ENDBRANCH  12  13
ENDBRANCH   5   7
ENDBRANCH   2   3
ENDBRANCH   1   2
BRANCH   1  72
ATOM     72  C   UNL     1       3.946  -2.113  -3.373  1.00  0.00     0.117 C 
BRANCH  72  73
ATOM     73  N   UNL     1       4.646  -1.300  -4.342  1.00  0.00    -0.354 N 
ATOM     74  C   UNL     1       5.698  -1.538  -5.162  1.00  0.00     0.242 C 
ATOM     75  H   UNL     1       4.284  -0.388  -4.423  1.00  0.00     0.163 HD
ATOM     76  O   UNL     1       6.158  -0.538  -5.730  1.00  0.00    -0.273 OA
BRANCH  74  77
ATOM     77  C   UNL     1       6.357  -2.923  -5.399  1.00  0.00     0.175 C 
ATOM     78  C   UNL     1       6.948  -3.620  -4.161  1.00  0.00     0.041 C 
ATOM     79  N   UNL     1       5.625  -3.977  -6.142  1.00  0.00    -0.326 N 
ATOM     80  C   UNL     1       6.166  -4.923  -4.072  1.00  0.00     0.014 C 
ATOM     81  C   UNL     1       5.917  -5.280  -5.542  1.00  0.00     0.089 C 
ATOM     82  C   UNL     1       6.808  -6.073  -3.312  1.00  0.00     0.006 C 
ATOM     83  C   UNL     1       4.904  -6.422  -5.573  1.00  0.00     0.025 C 
ATOM     84  C   UNL     1       5.905  -7.310  -3.399  1.00  0.00     0.000 C 
ATOM     85  C   UNL     1       5.493  -7.636  -4.836  1.00  0.00     0.002 C 
BRANCH  79  86
ATOM     86  C   UNL     1       5.335  -3.706  -7.472  1.00  0.00     0.243 C 
ATOM     87  O   UNL     1       5.416  -2.560  -7.925  1.00  0.00    -0.273 OA
BRANCH  86  88
ATOM     88  C   UNL     1       5.035  -4.842  -8.449  1.00  0.00     0.220 C 
BRANCH  88  89
ATOM     89  N   UNL     1       6.237  -5.543  -8.892  1.00  0.00    -0.323 N 
ATOM     90  C   UNL     1       7.401  -4.788  -9.288  1.00  0.00     0.190 C 
ATOM     91  C   UNL     1       6.269  -6.910  -9.075  1.00  0.00     0.233 C 
ATOM     92  S   UNL     1       8.531  -5.932 -10.092  1.00  0.00    -0.130 SA
ATOM     93  C   UNL     1       7.609  -7.394  -9.576  1.00  0.00     0.171 C 
ATOM     94  O   UNL     1       5.335  -7.667  -8.834  1.00  0.00    -0.274 OA
ENDBRANCH  88  89
ENDBRANCH  86  88
ENDBRANCH  79  86
ENDBRANCH  74  77
ENDBRANCH  72  73
ENDBRANCH   1  72
TORSDOF 16
