REMARK SMILES C[C@@H](C(=O)NCCCNC(=O)c1ccc(-c2c3nc(c(-c4cccc(S(=O)(=O)[O-])c4F)c4ccc([nH]4)c(-c4cccc(S(=O)(=O)[O-])c4F)c4nc(c(-c5cccc(S(=O)(=O)[O-])c5F)c5ccc2[nH]5)C=C4)C=C3)cc1)c1ccc(C[C@H]2CCCC2=O)cc1
REMARK SMILES IDX 7 1 6 2 5 3 3 4 4 5 2 7 1 8 75 9 76 10 87 11 77 12 86 13
REMARK SMILES IDX 78 14 79 15 80 16 81 17 84 18 82 19 83 20 85 21 8 22 9 23
REMARK SMILES IDX 10 24 11 26 12 27 13 28 74 29 14 30 73 31 15 32 16 33 17 34
REMARK SMILES IDX 67 35 18 36 72 37 66 38 68 39 19 40 71 41 65 42 64 43 20 45
REMARK SMILES IDX 52 46 32 47 51 48 33 49 36 50 50 51 69 52 34 53 35 54 49 56
REMARK SMILES IDX 70 57 37 58 21 59 22 60 30 61 23 62 25 63 31 64 24 65 26 66
REMARK SMILES IDX 27 67 28 68 29 69 53 70 54 71 62 72 55 73 57 74 63 75 56 76
REMARK SMILES IDX 58 77 59 78 60 79 61 80 38 81 39 82 47 83 40 84 42 85 48 86
REMARK SMILES IDX 41 87 43 88 44 89 45 90 46 91
REMARK H PARENT 5 6 9 25 68 44 36 55
REMARK Flexibility Score: inf
ROOT
ATOM      1  C   UNL     1       4.310   0.327   1.316  1.00  0.00     0.042 C 
ENDROOT
BRANCH   1   2
ATOM      2  C   UNL     1       3.450  -0.791   1.898  1.00  0.00     0.117 C 
BRANCH   2   3
ATOM      3  N   UNL     1       2.380  -0.264   2.719  1.00  0.00    -0.356 N 
ATOM      4  C   UNL     1       1.055  -0.099   2.442  1.00  0.00     0.227 C 
ATOM      5  O   UNL     1       0.377   0.446   3.316  1.00  0.00    -0.274 OA
ATOM      6  H   UNL     1       2.652   0.021   3.622  1.00  0.00     0.163 HD
BRANCH   4   7
ATOM      7  C   UNL     1       0.469  -0.633   1.122  1.00  0.00     0.105 C 
ATOM      8  C   UNL     1       0.950   0.151  -0.103  1.00  0.00     0.023 C 
BRANCH   7   9
ATOM      9  C   UNL     1      -1.056  -0.661   1.163  1.00  0.00    -0.036 A 
ATOM     10  C   UNL     1      -1.797   0.524   1.048  1.00  0.00     0.005 A 
ATOM     11  C   UNL     1      -1.742  -1.868   1.347  1.00  0.00     0.005 A 
ATOM     12  C   UNL     1      -3.188   0.502   1.108  1.00  0.00     0.004 A 
ATOM     13  C   UNL     1      -3.137  -1.885   1.434  1.00  0.00     0.004 A 
ATOM     14  C   UNL     1      -3.872  -0.697   1.333  1.00  0.00    -0.047 A 
BRANCH  14  15
ATOM     15  C   UNL     1      -5.372  -0.696   1.490  1.00  0.00     0.047 C 
BRANCH  15  16
ATOM     16  C   UNL     1      -5.914  -0.145   2.816  1.00  0.00     0.060 C 
ATOM     17  C   UNL     1      -5.382  -0.796   4.095  1.00  0.00     0.012 C 
ATOM     18  C   UNL     1      -5.568   1.309   3.036  1.00  0.00     0.136 C 
ATOM     19  C   UNL     1      -4.261   0.102   4.603  1.00  0.00     0.009 C 
ATOM     20  C   UNL     1      -4.655   1.521   4.215  1.00  0.00     0.076 C 
ATOM     21  O   UNL     1      -6.006   2.221   2.343  1.00  0.00    -0.299 OA
ENDBRANCH  15  16
ENDBRANCH  14  15
ENDBRANCH   7   9
ENDBRANCH   4   7
ENDBRANCH   2   3
ENDBRANCH   1   2
BRANCH   1  22
ATOM     22  C   UNL     1       5.059   1.137   2.369  1.00  0.00     0.118 C 
BRANCH  22  23
ATOM     23  N   UNL     1       6.043   0.342   3.091  1.00  0.00    -0.352 N 
ATOM     24  C   UNL     1       7.400   0.526   3.200  1.00  0.00     0.251 C 
ATOM     25  H   UNL     1       5.685  -0.440   3.569  1.00  0.00     0.163 HD
ATOM     26  O   UNL     1       8.099  -0.358   3.689  1.00  0.00    -0.269 OA
BRANCH  24  27
ATOM     27  C   UNL     1       8.014   1.780   2.716  1.00  0.00     0.039 A 
ATOM     28  C   UNL     1       9.191   1.720   1.964  1.00  0.00     0.014 A 
ATOM     29  C   UNL     1       7.426   3.013   3.007  1.00  0.00     0.014 A 
ATOM     30  C   UNL     1       9.746   2.896   1.453  1.00  0.00     0.010 A 
ATOM     31  C   UNL     1       7.932   4.170   2.428  1.00  0.00     0.010 A 
ATOM     32  C   UNL     1       9.103   4.127   1.656  1.00  0.00    -0.014 A 
BRANCH  32  33
ATOM     33  C   UNL     1       9.634   5.396   1.098  1.00  0.00     0.031 A 
ATOM     34  C   UNL     1      10.028   6.509   2.031  1.00  0.00     0.074 A 
ATOM     35  C   UNL     1       9.643   5.595  -0.234  1.00  0.00     0.049 A 
ATOM     36  N   UNL     1      10.359   7.742   1.754  1.00  0.00    -0.248 NA
ATOM     37  C   UNL     1      10.010   6.200   3.471  1.00  0.00     0.031 C 
ATOM     38  C   UNL     1       9.225   4.616  -1.239  1.00  0.00     0.029 A 
ATOM     39  N   UNL     1       9.975   6.706  -0.969  1.00  0.00    -0.354 N 
ATOM     40  C   UNL     1      10.535   8.370   2.981  1.00  0.00     0.074 A 
ATOM     41  C   UNL     1      10.244   7.390   4.003  1.00  0.00     0.031 C 
ATOM     42  C   UNL     1       9.312   5.174  -2.458  1.00  0.00     0.029 A 
ATOM     43  C   UNL     1       9.751   6.559  -2.318  1.00  0.00     0.049 A 
ATOM     44  H   UNL     1      10.337   7.529  -0.569  1.00  0.00     0.167 HD
ATOM     45  C   UNL     1      10.927   9.641   3.236  1.00  0.00     0.034 A 
ATOM     46  C   UNL     1       9.862   7.446  -3.327  1.00  0.00     0.034 A 
ATOM     47  C   UNL     1      11.252  10.598   2.214  1.00  0.00     0.049 A 
ATOM     48  C   UNL     1      10.331   8.843  -3.026  1.00  0.00     0.074 A 
ATOM     49  C   UNL     1      11.742  11.883   2.364  1.00  0.00     0.029 A 
ATOM     50  N   UNL     1      11.112  10.379   0.852  1.00  0.00    -0.354 N 
ATOM     51  N   UNL     1      10.625   9.382  -1.868  1.00  0.00    -0.248 NA
ATOM     52  C   UNL     1      10.519   9.746  -4.172  1.00  0.00     0.031 C 
ATOM     53  C   UNL     1      11.868  12.452   1.092  1.00  0.00     0.029 A 
ATOM     54  C   UNL     1      11.498  11.506   0.149  1.00  0.00     0.049 A 
ATOM     55  H   UNL     1      10.786   9.543   0.446  1.00  0.00     0.167 HD
ATOM     56  C   UNL     1      11.075  10.668  -2.146  1.00  0.00     0.074 A 
ATOM     57  C   UNL     1      11.019  10.826  -3.585  1.00  0.00     0.031 C 
ATOM     58  C   UNL     1      11.493  11.629  -1.287  1.00  0.00     0.034 A 
BRANCH  45  59
ATOM     59  C   UNL     1      11.053  10.054   4.680  1.00  0.00     0.023 A 
ATOM     60  C   UNL     1      12.071   9.497   5.482  1.00  0.00     0.012 A 
ATOM     61  C   UNL     1      10.184  11.012   5.238  1.00  0.00     0.148 A 
ATOM     62  C   UNL     1      12.187   9.843   6.828  1.00  0.00     0.002 A 
ATOM     63  C   UNL     1      10.340  11.392   6.566  1.00  0.00     0.091 A 
ATOM     64  F   UNL     1       9.209  11.518   4.469  1.00  0.00    -0.205 F 
ATOM     65  C   UNL     1      11.329  10.797   7.366  1.00  0.00     0.022 A 
BRANCH  63  66
ATOM     66  S   UNL     1       9.339  12.676   7.326  1.00  0.00     0.127 S 
ATOM     67  O   UNL     1       8.465  11.891   8.196  1.00  0.00    -0.237 OA
ATOM     68  O   UNL     1      10.344  13.473   8.031  1.00  0.00    -0.237 OA
ATOM     69  O   UNL     1       8.678  13.369   6.230  1.00  0.00    -0.744 OA
ENDBRANCH  63  66
ENDBRANCH  45  59
BRANCH  46  70
ATOM     70  C   UNL     1       9.574   7.013  -4.723  1.00  0.00     0.023 A 
ATOM     71  C   UNL     1      10.637   6.857  -5.633  1.00  0.00     0.012 A 
ATOM     72  C   UNL     1       8.264   6.702  -5.137  1.00  0.00     0.148 A 
ATOM     73  C   UNL     1      10.399   6.425  -6.938  1.00  0.00     0.002 A 
ATOM     74  C   UNL     1       8.040   6.219  -6.421  1.00  0.00     0.091 A 
ATOM     75  F   UNL     1       7.267   6.860  -4.255  1.00  0.00    -0.205 F 
ATOM     76  C   UNL     1       9.103   6.096  -7.329  1.00  0.00     0.022 A 
BRANCH  74  77
ATOM     77  S   UNL     1       6.430   5.643  -6.971  1.00  0.00     0.127 S 
ATOM     78  O   UNL     1       6.106   6.613  -8.014  1.00  0.00    -0.237 OA
ATOM     79  O   UNL     1       6.745   4.298  -7.455  1.00  0.00    -0.237 OA
ATOM     80  O   UNL     1       5.573   5.675  -5.794  1.00  0.00    -0.744 OA
ENDBRANCH  74  77
ENDBRANCH  46  70
BRANCH  58  81
ATOM     81  C   UNL     1      11.991  12.928  -1.866  1.00  0.00     0.023 A 
ATOM     82  C   UNL     1      11.084  13.858  -2.408  1.00  0.00     0.012 A 
ATOM     83  C   UNL     1      13.357  13.265  -1.770  1.00  0.00     0.148 A 
ATOM     84  C   UNL     1      11.532  15.097  -2.866  1.00  0.00     0.002 A 
ATOM     85  C   UNL     1      13.787  14.520  -2.180  1.00  0.00     0.091 A 
ATOM     86  F   UNL     1      14.205  12.356  -1.268  1.00  0.00    -0.205 F 
ATOM     87  C   UNL     1      12.879  15.433  -2.739  1.00  0.00     0.022 A 
BRANCH  85  88
ATOM     88  S   UNL     1      15.480  15.077  -1.959  1.00  0.00     0.127 S 
ATOM     89  O   UNL     1      15.960  15.128  -3.340  1.00  0.00    -0.237 OA
ATOM     90  O   UNL     1      15.295  16.385  -1.330  1.00  0.00    -0.237 OA
ATOM     91  O   UNL     1      16.126  14.083  -1.113  1.00  0.00    -0.744 OA
ENDBRANCH  85  88
ENDBRANCH  58  81
ENDBRANCH  32  33
ENDBRANCH  24  27
ENDBRANCH  22  23
ENDBRANCH   1  22
TORSDOF 16
