REMARK SMILES Cc1cc(C[N@H+]2CC[C@@H](C(=O)NCCCNC(=O)c3ccc(-c4c5nc(c(-c6cccc(S(=O)(=O)[O-])c6F)c6ccc([nH]6)c(-c6cccc(S(=O)(=O)[O-])c6F)c6nc(c(-c7cccc(S(=O)(=O)[O-])c7F)c7ccc4[nH]7)C=C6)C=C5)cc3)[C@@H]2C)ccc1Br
REMARK SMILES IDX 14 1 13 2 12 3 10 4 11 5 9 7 6 8 7 9 82 10 8 12 83 13 5 14
REMARK SMILES IDX 4 15 1 16 2 17 3 18 86 19 85 20 87 21 84 22 15 23 16 24
REMARK SMILES IDX 17 25 18 27 19 28 20 29 81 30 21 31 80 32 22 33 23 34 24 35
REMARK SMILES IDX 74 36 25 37 79 38 73 39 75 40 26 41 78 42 72 43 71 44 27 46
REMARK SMILES IDX 59 47 39 48 58 49 40 50 43 51 57 52 76 53 41 54 42 55 56 57
REMARK SMILES IDX 77 58 44 59 28 60 29 61 37 62 30 63 32 64 38 65 31 66 33 67
REMARK SMILES IDX 34 68 35 69 36 70 60 71 61 72 69 73 62 74 64 75 70 76 63 77
REMARK SMILES IDX 65 78 66 79 67 80 68 81 45 82 46 83 54 84 47 85 49 86 55 87
REMARK SMILES IDX 48 88 50 89 51 90 52 91 53 92
REMARK H PARENT 12 6 6 11 16 26 75 45 43 56
REMARK Flexibility Score: inf
ROOT
ATOM      1  C   UNL     1       1.511   0.462   0.981  1.00  0.00     0.042 C 
ENDROOT
BRANCH   1   2
ATOM      2  C   UNL     1       1.761   0.759  -1.175  1.00  0.00     0.117 C 
BRANCH   2   3
ATOM      3  N   UNL     1       1.710   2.074  -2.092  1.00  0.00    -0.356 N 
ATOM      4  C   UNL     1       2.612   2.787  -2.811  1.00  0.00     0.229 C 
ATOM      5  O   UNL     1       2.173   3.793  -3.385  1.00  0.00    -0.275 OA
ATOM      6  H   UNL     1       0.805   2.457  -2.145  1.00  0.00     0.163 HD
BRANCH   4   7
ATOM      7  C   UNL     1       4.087   2.437  -2.953  1.00  0.00     0.142 C 
ATOM      8  N   UNL     1       5.427   1.332  -1.281  1.00  0.00    -0.328 N 
ATOM      9  C   UNL     1       5.255   0.386  -2.382  1.00  0.00     0.263 C 
ATOM     10  C   UNL     1       4.933   2.649  -1.700  1.00  0.00     0.193 C 
ATOM     11  H   UNL     1       6.428   1.403  -1.093  1.00  0.00     0.348 HD
ATOM     12  C   UNL     1       4.362   1.026  -3.436  1.00  0.00     0.081 C 
ATOM     13  C   UNL     1       6.142   3.547  -1.974  1.00  0.00     0.076 C 
BRANCH   8  14
ATOM     14  C   UNL     1       4.932   0.882   0.027  1.00  0.00     0.299 C 
BRANCH  14  15
ATOM     15  C   UNL     1       3.434   0.735   0.102  1.00  0.00     0.007 A 
ATOM     16  C   UNL     1       0.269  -2.390  -0.425  1.00  0.00     0.045 C 
ATOM     17  C   UNL     1       0.898  -1.032  -0.393  1.00  0.00    -0.036 A 
ATOM     18  C   UNL     1       2.686  -0.887  -0.180  1.00  0.00     0.014 A 
ATOM     19  C   UNL     1      -0.135   0.447  -0.346  1.00  0.00     0.020 A 
ATOM     20  C   UNL     1       0.592   2.059  -0.010  1.00  0.00     0.016 A 
ATOM     21  Br  UNL     1      -1.978   0.346  -0.773  1.00  0.00    -0.051 Br
ATOM     22  C   UNL     1       2.377   2.204   0.232  1.00  0.00     0.011 A 
ENDBRANCH  14  15
ENDBRANCH   8  14
ENDBRANCH   4   7
ENDBRANCH   2   3
ENDBRANCH   1   2
BRANCH   1  23
ATOM     23  C   UNL     1       0.357   0.884   2.152  1.00  0.00     0.118 C 
BRANCH  23  24
ATOM     24  N   UNL     1      -0.794  -0.009   2.265  1.00  0.00    -0.352 N 
ATOM     25  C   UNL     1      -1.329  -0.596   3.373  1.00  0.00     0.251 C 
ATOM     26  H   UNL     1      -1.250  -0.217   1.418  1.00  0.00     0.163 HD
ATOM     27  O   UNL     1      -2.135  -1.512   3.259  1.00  0.00    -0.269 OA
BRANCH  25  28
ATOM     28  C   UNL     1      -0.939  -0.094   4.696  1.00  0.00     0.039 A 
ATOM     29  C   UNL     1      -0.738  -1.008   5.728  1.00  0.00     0.014 A 
ATOM     30  C   UNL     1      -0.812   1.283   4.913  1.00  0.00     0.014 A 
ATOM     31  C   UNL     1      -0.425  -0.531   6.992  1.00  0.00     0.010 A 
ATOM     32  C   UNL     1      -0.391   1.749   6.143  1.00  0.00     0.010 A 
ATOM     33  C   UNL     1      -0.257   0.848   7.202  1.00  0.00    -0.014 A 
BRANCH  33  34
ATOM     34  C   UNL     1      -0.021   1.365   8.561  1.00  0.00     0.031 A 
ATOM     35  C   UNL     1      -1.069   2.221   9.215  1.00  0.00     0.074 A 
ATOM     36  C   UNL     1       1.138   1.065   9.170  1.00  0.00     0.049 A 
ATOM     37  N   UNL     1      -1.087   2.711  10.425  1.00  0.00    -0.248 NA
ATOM     38  C   UNL     1      -2.237   2.604   8.400  1.00  0.00     0.031 C 
ATOM     39  C   UNL     1       2.243   0.320   8.559  1.00  0.00     0.029 A 
ATOM     40  N   UNL     1       1.580   1.346  10.432  1.00  0.00    -0.354 N 
ATOM     41  C   UNL     1      -2.243   3.479  10.503  1.00  0.00     0.074 A 
ATOM     42  C   UNL     1      -2.875   3.437   9.207  1.00  0.00     0.031 C 
ATOM     43  C   UNL     1       3.224   0.173   9.463  1.00  0.00     0.029 A 
ATOM     44  C   UNL     1       2.825   0.832  10.701  1.00  0.00     0.049 A 
ATOM     45  H   UNL     1       1.057   1.866  11.084  1.00  0.00     0.167 HD
ATOM     46  C   UNL     1      -2.747   4.129  11.575  1.00  0.00     0.034 A 
ATOM     47  C   UNL     1       3.549   0.881  11.833  1.00  0.00     0.034 A 
ATOM     48  C   UNL     1      -2.112   4.117  12.863  1.00  0.00     0.049 A 
ATOM     49  C   UNL     1       2.932   1.547  13.031  1.00  0.00     0.074 A 
ATOM     50  C   UNL     1      -2.556   4.665  14.051  1.00  0.00     0.029 A 
ATOM     51  N   UNL     1      -0.885   3.523  13.125  1.00  0.00    -0.354 N 
ATOM     52  N   UNL     1       1.764   2.136  13.136  1.00  0.00    -0.248 NA
ATOM     53  C   UNL     1       3.708   1.516  14.276  1.00  0.00     0.031 C 
ATOM     54  C   UNL     1      -1.580   4.430  15.025  1.00  0.00     0.029 A 
ATOM     55  C   UNL     1      -0.547   3.700  14.453  1.00  0.00     0.049 A 
ATOM     56  H   UNL     1      -0.336   3.046  12.462  1.00  0.00     0.167 HD
ATOM     57  C   UNL     1       1.650   2.524  14.464  1.00  0.00     0.074 A 
ATOM     58  C   UNL     1       2.858   2.072  15.129  1.00  0.00     0.031 C 
ATOM     59  C   UNL     1       0.652   3.205  15.081  1.00  0.00     0.034 A 
BRANCH  46  60
ATOM     60  C   UNL     1      -4.052   4.864  11.404  1.00  0.00     0.023 A 
ATOM     61  C   UNL     1      -5.245   4.139  11.190  1.00  0.00     0.012 A 
ATOM     62  C   UNL     1      -4.107   6.269  11.481  1.00  0.00     0.148 A 
ATOM     63  C   UNL     1      -6.460   4.801  11.017  1.00  0.00     0.002 A 
ATOM     64  C   UNL     1      -5.329   6.919  11.357  1.00  0.00     0.091 A 
ATOM     65  F   UNL     1      -2.962   6.943  11.658  1.00  0.00    -0.205 F 
ATOM     66  C   UNL     1      -6.504   6.189  11.111  1.00  0.00     0.022 A 
BRANCH  64  67
ATOM     67  S   UNL     1      -5.506   8.697  11.540  1.00  0.00     0.127 S 
ATOM     68  O   UNL     1      -5.872   9.098  10.182  1.00  0.00    -0.237 OA
ATOM     69  O   UNL     1      -6.590   8.796  12.517  1.00  0.00    -0.237 OA
ATOM     70  O   UNL     1      -4.217   9.185  12.007  1.00  0.00    -0.744 OA
ENDBRANCH  64  67
ENDBRANCH  46  60
BRANCH  47  71
ATOM     71  C   UNL     1       4.880   0.218  11.893  1.00  0.00     0.023 A 
ATOM     72  C   UNL     1       5.050  -0.941  12.676  1.00  0.00     0.012 A 
ATOM     73  C   UNL     1       5.965   0.698  11.135  1.00  0.00     0.148 A 
ATOM     74  C   UNL     1       6.285  -1.589  12.728  1.00  0.00     0.002 A 
ATOM     75  C   UNL     1       7.175   0.015  11.146  1.00  0.00     0.091 A 
ATOM     76  F   UNL     1       5.784   1.804  10.400  1.00  0.00    -0.205 F 
ATOM     77  C   UNL     1       7.343  -1.118  11.956  1.00  0.00     0.022 A 
BRANCH  75  78
ATOM     78  S   UNL     1       8.543   0.470  10.074  1.00  0.00     0.127 S 
ATOM     79  O   UNL     1       9.500   1.022  11.030  1.00  0.00    -0.237 OA
ATOM     80  O   UNL     1       8.920  -0.822   9.500  1.00  0.00    -0.237 OA
ATOM     81  O   UNL     1       7.991   1.414   9.112  1.00  0.00    -0.744 OA
ENDBRANCH  75  78
ENDBRANCH  47  71
BRANCH  59  82
ATOM     82  C   UNL     1       0.821   3.477  16.550  1.00  0.00     0.023 A 
ATOM     83  C   UNL     1       1.774   4.418  16.985  1.00  0.00     0.012 A 
ATOM     84  C   UNL     1      -0.009   2.840  17.492  1.00  0.00     0.148 A 
ATOM     85  C   UNL     1       1.930   4.688  18.342  1.00  0.00     0.002 A 
ATOM     86  C   UNL     1       0.113   3.157  18.838  1.00  0.00     0.091 A 
ATOM     87  F   UNL     1      -0.898   1.935  17.056  1.00  0.00    -0.205 F 
ATOM     88  C   UNL     1       1.093   4.067  19.266  1.00  0.00     0.022 A 
BRANCH  86  89
ATOM     89  S   UNL     1      -0.993   2.488  20.083  1.00  0.00     0.127 S 
ATOM     90  O   UNL     1      -0.123   1.536  20.772  1.00  0.00    -0.237 OA
ATOM     91  O   UNL     1      -1.337   3.677  20.863  1.00  0.00    -0.237 OA
ATOM     92  O   UNL     1      -2.110   1.901  19.354  1.00  0.00    -0.744 OA
ENDBRANCH  86  89
ENDBRANCH  59  82
ENDBRANCH  33  34
ENDBRANCH  25  28
ENDBRANCH  23  24
ENDBRANCH   1  23
TORSDOF 15
