REMARK SMILES CC[C@@](C)(NC(=O)CCc1ccc(OC)c(Br)c1)C(=O)NCCCNC(=O)c1ccc(-c2c3nc(c(-c4cccc(S(=O)(=O)[O-])c4F)c4ccc([nH]4)c(-c4cccc(S(=O)(=O)[O-])c4F)c4nc(c(-c5cccc(S(=O)(=O)[O-])c5F)c5ccc2[nH]5)C=C4)C=C3)cc1
REMARK SMILES IDX 22 1 21 2 19 3 20 4 3 6 4 7 2 8 1 9 5 10 6 11 7 13 8 14 9 15
REMARK SMILES IDX 10 16 11 17 18 18 12 19 16 20 13 21 17 22 14 23 15 24 23 25
REMARK SMILES IDX 24 26 25 27 26 28 27 30 28 31 29 32 90 33 30 34 89 35 31 36
REMARK SMILES IDX 32 37 33 38 83 39 34 40 88 41 82 42 84 43 35 44 87 45 81 46
REMARK SMILES IDX 80 47 36 49 68 50 48 51 67 52 49 53 52 54 66 55 85 56 50 57
REMARK SMILES IDX 51 58 65 60 86 61 53 62 37 63 38 64 46 65 39 66 41 67 47 68
REMARK SMILES IDX 40 69 42 70 43 71 44 72 45 73 69 74 70 75 78 76 71 77 73 78
REMARK SMILES IDX 79 79 72 80 74 81 75 82 76 83 77 84 54 85 55 86 63 87 56 88
REMARK SMILES IDX 58 89 64 90 57 91 59 92 60 93 61 94 62 95
REMARK H PARENT 21 5 5 12 25 29 84 48 52 59
REMARK Flexibility Score: inf
ROOT
ATOM      1  C   UNL     1       2.015   2.508   5.521  1.00  0.00     0.117 C 
ENDROOT
BRANCH   1   2
ATOM      2  N   UNL     1       2.441   2.278   4.144  1.00  0.00    -0.354 N 
ATOM      3  C   UNL     1       1.912   1.556   3.110  1.00  0.00     0.245 C 
ATOM      4  O   UNL     1       2.474   1.699   2.023  1.00  0.00    -0.272 OA
ATOM      5  H   UNL     1       3.281   2.736   3.913  1.00  0.00     0.163 HD
BRANCH   3   6
ATOM      6  C   UNL     1       0.599   0.748   3.268  1.00  0.00     0.116 C 
ATOM      7  C   UNL     1      -0.492   1.831   3.423  1.00  0.00     0.045 C 
BRANCH   6   8
ATOM      8  C   UNL     1       0.113  -0.163   2.113  1.00  0.00     0.035 C 
ATOM      9  C   UNL     1      -0.273   0.480   0.803  1.00  0.00     0.007 C 
ENDBRANCH   6   8
BRANCH   6  10
ATOM     10  N   UNL     1       0.749  -0.174   4.412  1.00  0.00    -0.342 N 
ATOM     11  C   UNL     1       1.495  -1.343   4.384  1.00  0.00     0.221 C 
ATOM     12  H   UNL     1       0.289   0.056   5.252  1.00  0.00     0.164 HD
ATOM     13  O   UNL     1       1.012  -2.332   4.939  1.00  0.00    -0.275 OA
BRANCH  11  14
ATOM     14  C   UNL     1       2.917  -1.394   3.791  1.00  0.00     0.105 C 
BRANCH  14  15
ATOM     15  C   UNL     1       3.214  -2.253   2.535  1.00  0.00     0.045 C 
BRANCH  15  16
ATOM     16  C   UNL     1       3.061  -1.631   1.152  1.00  0.00    -0.046 A 
ATOM     17  C   UNL     1       2.203  -2.210   0.203  1.00  0.00     0.007 A 
ATOM     18  C   UNL     1       3.758  -0.476   0.768  1.00  0.00     0.023 A 
ATOM     19  C   UNL     1       1.924  -1.564  -1.012  1.00  0.00     0.048 A 
ATOM     20  C   UNL     1       3.473   0.182  -0.447  1.00  0.00     0.060 A 
ATOM     21  C   UNL     1       2.503  -0.329  -1.313  1.00  0.00     0.133 A 
ATOM     22  Br  UNL     1       4.449   1.764  -0.848  1.00  0.00    -0.047 Br
BRANCH  21  23
ATOM     23  O   UNL     1       2.120   0.245  -2.498  1.00  0.00    -0.496 OA
ATOM     24  C   UNL     1       1.444   1.499  -2.355  1.00  0.00     0.278 C 
ENDBRANCH  21  23
ENDBRANCH  15  16
ENDBRANCH  14  15
ENDBRANCH  11  14
ENDBRANCH   6  10
ENDBRANCH   3   6
ENDBRANCH   1   2
BRANCH   1  25
ATOM     25  C   UNL     1       2.709   1.622   6.543  1.00  0.00     0.042 C 
BRANCH  25  26
ATOM     26  C   UNL     1       4.210   1.500   6.339  1.00  0.00     0.118 C 
BRANCH  26  27
ATOM     27  N   UNL     1       4.885   2.790   6.346  1.00  0.00    -0.352 N 
ATOM     28  C   UNL     1       5.581   3.426   7.337  1.00  0.00     0.251 C 
ATOM     29  H   UNL     1       4.831   3.287   5.497  1.00  0.00     0.163 HD
ATOM     30  O   UNL     1       5.865   4.617   7.199  1.00  0.00    -0.269 OA
BRANCH  28  31
ATOM     31  C   UNL     1       5.978   2.709   8.565  1.00  0.00     0.039 A 
ATOM     32  C   UNL     1       5.898   3.380   9.787  1.00  0.00     0.014 A 
ATOM     33  C   UNL     1       6.473   1.403   8.519  1.00  0.00     0.014 A 
ATOM     34  C   UNL     1       6.274   2.726  10.961  1.00  0.00     0.010 A 
ATOM     35  C   UNL     1       6.749   0.719   9.700  1.00  0.00     0.010 A 
ATOM     36  C   UNL     1       6.676   1.379  10.932  1.00  0.00    -0.014 A 
BRANCH  36  37
ATOM     37  C   UNL     1       7.021   0.671  12.191  1.00  0.00     0.031 A 
ATOM     38  C   UNL     1       8.408   0.129  12.419  1.00  0.00     0.074 A 
ATOM     39  C   UNL     1       6.067   0.490  13.126  1.00  0.00     0.049 A 
ATOM     40  N   UNL     1       8.899  -0.452  13.484  1.00  0.00    -0.248 NA
ATOM     41  C   UNL     1       9.363   0.229  11.303  1.00  0.00     0.031 C 
ATOM     42  C   UNL     1       4.662   0.881  12.984  1.00  0.00     0.029 A 
ATOM     43  N   UNL     1       6.130  -0.072  14.375  1.00  0.00    -0.354 N 
ATOM     44  C   UNL     1      10.203  -0.807  13.160  1.00  0.00     0.074 A 
ATOM     45  C   UNL     1      10.415  -0.418  11.784  1.00  0.00     0.031 C 
ATOM     46  C   UNL     1       4.004   0.574  14.113  1.00  0.00     0.029 A 
ATOM     47  C   UNL     1       4.930  -0.058  15.047  1.00  0.00     0.049 A 
ATOM     48  H   UNL     1       6.956  -0.450  14.755  1.00  0.00     0.167 HD
ATOM     49  C   UNL     1      11.150  -1.377  13.944  1.00  0.00     0.034 A 
ATOM     50  C   UNL     1       4.612  -0.498  16.280  1.00  0.00     0.034 A 
ATOM     51  C   UNL     1      10.943  -1.735  15.322  1.00  0.00     0.049 A 
ATOM     52  C   UNL     1       5.695  -1.075  17.148  1.00  0.00     0.074 A 
ATOM     53  C   UNL     1      11.860  -2.240  16.227  1.00  0.00     0.029 A 
ATOM     54  N   UNL     1       9.733  -1.641  15.992  1.00  0.00    -0.354 N 
ATOM     55  N   UNL     1       6.967  -1.246  16.880  1.00  0.00    -0.248 NA
ATOM     56  C   UNL     1       5.308  -1.479  18.507  1.00  0.00     0.031 C 
ATOM     57  C   UNL     1      11.196  -2.481  17.435  1.00  0.00     0.029 A 
ATOM     58  C   UNL     1       9.876  -2.087  17.295  1.00  0.00     0.049 A 
ATOM     59  H   UNL     1       8.895  -1.305  15.598  1.00  0.00     0.167 HD
ATOM     60  C   UNL     1       7.539  -1.743  18.045  1.00  0.00     0.074 A 
ATOM     61  C   UNL     1       6.479  -1.816  19.030  1.00  0.00     0.031 C 
ATOM     62  C   UNL     1       8.822  -2.117  18.277  1.00  0.00     0.034 A 
BRANCH  49  63
ATOM     63  C   UNL     1      12.514  -1.605  13.343  1.00  0.00     0.023 A 
ATOM     64  C   UNL     1      13.340  -0.500  13.045  1.00  0.00     0.012 A 
ATOM     65  C   UNL     1      13.004  -2.908  13.127  1.00  0.00     0.148 A 
ATOM     66  C   UNL     1      14.614  -0.686  12.508  1.00  0.00     0.002 A 
ATOM     67  C   UNL     1      14.293  -3.087  12.638  1.00  0.00     0.091 A 
ATOM     68  F   UNL     1      12.200  -3.946  13.397  1.00  0.00    -0.205 F 
ATOM     69  C   UNL     1      15.094  -1.978  12.315  1.00  0.00     0.022 A 
BRANCH  67  70
ATOM     70  S   UNL     1      15.038  -4.709  12.432  1.00  0.00     0.127 S 
ATOM     71  O   UNL     1      15.122  -4.812  10.976  1.00  0.00    -0.237 OA
ATOM     72  O   UNL     1      16.326  -4.542  13.107  1.00  0.00    -0.237 OA
ATOM     73  O   UNL     1      14.132  -5.652  13.073  1.00  0.00    -0.744 OA
ENDBRANCH  67  70
ENDBRANCH  49  63
BRANCH  50  74
ATOM     74  C   UNL     1       3.221  -0.340  16.792  1.00  0.00     0.023 A 
ATOM     75  C   UNL     1       2.962   0.573  17.833  1.00  0.00     0.012 A 
ATOM     76  C   UNL     1       2.154  -1.072  16.238  1.00  0.00     0.148 A 
ATOM     77  C   UNL     1       1.671   0.723  18.341  1.00  0.00     0.002 A 
ATOM     78  C   UNL     1       0.861  -0.873  16.708  1.00  0.00     0.091 A 
ATOM     79  F   UNL     1       2.423  -1.939  15.253  1.00  0.00    -0.205 F 
ATOM     80  C   UNL     1       0.620   0.009  17.773  1.00  0.00     0.022 A 
BRANCH  78  81
ATOM     81  S   UNL     1      -0.569  -1.645  15.945  1.00  0.00     0.127 S 
ATOM     82  O   UNL     1      -0.987  -2.588  16.980  1.00  0.00    -0.237 OA
ATOM     83  O   UNL     1      -1.462  -0.502  15.755  1.00  0.00    -0.237 OA
ATOM     84  O   UNL     1      -0.083  -2.239  14.707  1.00  0.00    -0.744 OA
ENDBRANCH  78  81
ENDBRANCH  50  74
BRANCH  62  85
ATOM     85  C   UNL     1       9.161  -2.604  19.663  1.00  0.00     0.023 A 
ATOM     86  C   UNL     1       8.660  -3.840  20.120  1.00  0.00     0.012 A 
ATOM     87  C   UNL     1      10.007  -1.851  20.500  1.00  0.00     0.148 A 
ATOM     88  C   UNL     1       8.953  -4.292  21.407  1.00  0.00     0.002 A 
ATOM     89  C   UNL     1      10.340  -2.334  21.760  1.00  0.00     0.091 A 
ATOM     90  F   UNL     1      10.461  -0.669  20.057  1.00  0.00    -0.205 F 
ATOM     91  C   UNL     1       9.800  -3.545  22.222  1.00  0.00     0.022 A 
BRANCH  89  92
ATOM     92  S   UNL     1      11.503  -1.488  22.835  1.00  0.00     0.127 S 
ATOM     93  O   UNL     1      10.612  -0.907  23.838  1.00  0.00    -0.237 OA
ATOM     94  O   UNL     1      12.335  -2.589  23.322  1.00  0.00    -0.237 OA
ATOM     95  O   UNL     1      12.205  -0.531  21.990  1.00  0.00    -0.744 OA
ENDBRANCH  89  92
ENDBRANCH  62  85
ENDBRANCH  36  37
ENDBRANCH  28  31
ENDBRANCH  26  27
ENDBRANCH  25  26
ENDBRANCH   1  25
TORSDOF 19
