REMARK SMILES O=C(NCCCNC(=O)c1ccc(-c2c3nc(c(-c4cccc(S(=O)(=O)[O-])c4F)c4ccc([nH]4)c(-c4cccc(S(=O)(=O)[O-])c4F)c4nc(c(-c5cccc(S(=O)(=O)[O-])c5F)c5ccc2[nH]5)C=C4)C=C3)cc1)C1=Cc2cc(Cl)cc(C#Cc3ccccc3)c2O[C@@H]1C(F)(F)F
REMARK SMILES IDX 5 1 4 2 3 3 1 4 2 5 73 7 74 8 91 9 75 10 90 11 76 12 89 13
REMARK SMILES IDX 77 14 80 15 78 16 79 17 92 18 93 19 94 20 95 21 81 22 82 23
REMARK SMILES IDX 83 24 84 25 88 26 85 27 87 28 86 29 6 30 7 31 8 32 9 34
REMARK SMILES IDX 10 35 11 36 72 37 12 38 71 39 13 40 14 41 15 42 65 43 16 44
REMARK SMILES IDX 70 45 64 46 66 47 17 48 69 49 63 50 62 51 18 53 50 54 30 55
REMARK SMILES IDX 49 56 31 57 34 58 48 59 67 60 32 61 33 62 47 64 68 65 35 66
REMARK SMILES IDX 19 67 20 68 28 69 21 70 23 71 29 72 22 73 24 74 25 75 26 76
REMARK SMILES IDX 27 77 51 78 52 79 60 80 53 81 55 82 61 83 54 84 56 85 57 86
REMARK SMILES IDX 58 87 59 88 36 89 37 90 45 91 38 92 40 93 46 94 39 95 41 96
REMARK SMILES IDX 42 97 43 98 44 99
REMARK H PARENT 3 6 7 33 66 52 34 63
REMARK Flexibility Score: inf
ROOT
ATOM      1  C   UNL     1       4.209   0.171   3.079  1.00  0.00     0.042 C 
ENDROOT
BRANCH   1   2
ATOM      2  C   UNL     1       3.576  -0.288   1.788  1.00  0.00     0.118 C 
BRANCH   2   3
ATOM      3  N   UNL     1       2.448   0.489   1.322  1.00  0.00    -0.352 N 
ATOM      4  O   UNL     1       1.037   1.306  -0.228  1.00  0.00    -0.270 OA
ATOM      5  C   UNL     1       2.167   0.913   0.048  1.00  0.00     0.251 C 
ATOM      6  H   UNL     1       1.794   0.748   2.011  1.00  0.00     0.163 HD
BRANCH   5   7
ATOM      7  C   UNL     1       3.169   0.743  -1.050  1.00  0.00     0.067 C 
ATOM      8  C   UNL     1       4.434   1.180  -0.951  1.00  0.00     0.025 C 
ATOM      9  C   UNL     1       2.923  -0.485  -1.876  1.00  0.00     0.314 C 
ATOM     10  C   UNL     1       5.464   0.126  -0.909  1.00  0.00     0.020 A 
ATOM     11  O   UNL     1       3.815  -1.572  -1.518  1.00  0.00    -0.474 OA
ATOM     12  C   UNL     1       6.684   0.456  -0.300  1.00  0.00     0.032 A 
ATOM     13  C   UNL     1       5.037  -1.224  -0.980  1.00  0.00     0.143 A 
ATOM     14  C   UNL     1       7.422  -0.541   0.334  1.00  0.00     0.043 A 
ATOM     15  C   UNL     1       5.754  -2.201  -0.267  1.00  0.00     0.069 A 
ATOM     16  Cl  UNL     1       8.827  -0.120   1.233  1.00  0.00    -0.084 Cl
ATOM     17  C   UNL     1       6.951  -1.852   0.377  1.00  0.00     0.041 A 
BRANCH   9  18
ATOM     18  C   UNL     1       2.991  -0.091  -3.366  1.00  0.00     0.429 C 
ATOM     19  F   UNL     1       2.623  -1.112  -4.174  1.00  0.00    -0.167 F 
ATOM     20  F   UNL     1       2.156   0.944  -3.644  1.00  0.00    -0.167 F 
ATOM     21  F   UNL     1       4.231   0.298  -3.752  1.00  0.00    -0.167 F 
ENDBRANCH   9  18
BRANCH  15  22
ATOM     22  C   UNL     1       5.198  -3.485   0.084  1.00  0.00    -0.058 C 
ATOM     23  C   UNL     1       4.850  -4.533   0.554  1.00  0.00    -0.062 C 
BRANCH  23  24
ATOM     24  C   UNL     1       4.585  -5.808   1.166  1.00  0.00     0.025 A 
ATOM     25  C   UNL     1       3.925  -5.914   2.394  1.00  0.00     0.017 A 
ATOM     26  C   UNL     1       5.058  -6.965   0.542  1.00  0.00     0.017 A 
ATOM     27  C   UNL     1       3.731  -7.170   2.984  1.00  0.00     0.001 A 
ATOM     28  C   UNL     1       4.866  -8.217   1.130  1.00  0.00     0.001 A 
ATOM     29  C   UNL     1       4.199  -8.320   2.350  1.00  0.00     0.000 A 
ENDBRANCH  23  24
ENDBRANCH  15  22
ENDBRANCH   5   7
ENDBRANCH   2   3
ENDBRANCH   1   2
BRANCH   1  30
ATOM     30  C   UNL     1       4.064  -0.864   4.169  1.00  0.00     0.118 C 
BRANCH  30  31
ATOM     31  N   UNL     1       4.703  -2.147   3.864  1.00  0.00    -0.352 N 
ATOM     32  C   UNL     1       5.578  -2.901   4.614  1.00  0.00     0.251 C 
ATOM     33  H   UNL     1       4.472  -2.529   2.986  1.00  0.00     0.163 HD
ATOM     34  O   UNL     1       6.081  -3.912   4.133  1.00  0.00    -0.269 OA
BRANCH  32  35
ATOM     35  C   UNL     1       5.938  -2.466   5.978  1.00  0.00     0.039 A 
ATOM     36  C   UNL     1       7.247  -2.633   6.433  1.00  0.00     0.014 A 
ATOM     37  C   UNL     1       4.997  -1.828   6.781  1.00  0.00     0.014 A 
ATOM     38  C   UNL     1       7.617  -2.083   7.661  1.00  0.00     0.010 A 
ATOM     39  C   UNL     1       5.415  -1.112   7.885  1.00  0.00     0.010 A 
ATOM     40  C   UNL     1       6.713  -1.279   8.375  1.00  0.00    -0.014 A 
BRANCH  40  41
ATOM     41  C   UNL     1       7.070  -0.651   9.668  1.00  0.00     0.031 A 
ATOM     42  C   UNL     1       6.226  -0.926  10.888  1.00  0.00     0.074 A 
ATOM     43  C   UNL     1       8.098   0.217   9.726  1.00  0.00     0.049 A 
ATOM     44  N   UNL     1       6.352  -0.454  12.100  1.00  0.00    -0.248 NA
ATOM     45  C   UNL     1       5.054  -1.807  10.719  1.00  0.00     0.031 C 
ATOM     46  C   UNL     1       8.915   0.648   8.588  1.00  0.00     0.029 A 
ATOM     47  N   UNL     1       8.624   0.905  10.789  1.00  0.00    -0.354 N 
ATOM     48  C   UNL     1       5.260  -0.938  12.810  1.00  0.00     0.074 A 
ATOM     49  C   UNL     1       4.441  -1.679  11.883  1.00  0.00     0.031 C 
ATOM     50  C   UNL     1       9.861   1.496   9.020  1.00  0.00     0.029 A 
ATOM     51  C   UNL     1       9.695   1.700  10.454  1.00  0.00     0.049 A 
ATOM     52  H   UNL     1       8.269   0.836  11.704  1.00  0.00     0.167 HD
ATOM     53  C   UNL     1       4.982  -0.818  14.128  1.00  0.00     0.034 A 
ATOM     54  C   UNL     1      10.455   2.502  11.223  1.00  0.00     0.034 A 
ATOM     55  C   UNL     1       5.833  -0.125  15.052  1.00  0.00     0.049 A 
ATOM     56  C   UNL     1      10.171   2.564  12.697  1.00  0.00     0.074 A 
ATOM     57  C   UNL     1       5.710  -0.023  16.424  1.00  0.00     0.029 A 
ATOM     58  N   UNL     1       6.962   0.595  14.692  1.00  0.00    -0.354 N 
ATOM     59  N   UNL     1       9.225   1.967  13.382  1.00  0.00    -0.248 NA
ATOM     60  C   UNL     1      11.085   3.374  13.512  1.00  0.00     0.031 C 
ATOM     61  C   UNL     1       6.741   0.799  16.890  1.00  0.00     0.029 A 
ATOM     62  C   UNL     1       7.539   1.159  15.814  1.00  0.00     0.049 A 
ATOM     63  H   UNL     1       7.302   0.690  13.773  1.00  0.00     0.167 HD
ATOM     64  C   UNL     1       9.451   2.297  14.712  1.00  0.00     0.074 A 
ATOM     65  C   UNL     1      10.639   3.128  14.736  1.00  0.00     0.031 C 
ATOM     66  C   UNL     1       8.740   1.953  15.815  1.00  0.00     0.034 A 
BRANCH  53  67
ATOM     67  C   UNL     1       3.730  -1.481  14.643  1.00  0.00     0.023 A 
ATOM     68  C   UNL     1       3.625  -2.889  14.653  1.00  0.00     0.012 A 
ATOM     69  C   UNL     1       2.666  -0.708  15.145  1.00  0.00     0.148 A 
ATOM     70  C   UNL     1       2.464  -3.513  15.107  1.00  0.00     0.002 A 
ATOM     71  C   UNL     1       1.536  -1.339  15.649  1.00  0.00     0.091 A 
ATOM     72  F   UNL     1       2.771   0.627  15.104  1.00  0.00    -0.205 F 
ATOM     73  C   UNL     1       1.425  -2.739  15.615  1.00  0.00     0.022 A 
BRANCH  71  74
ATOM     74  S   UNL     1       0.181  -0.437  16.406  1.00  0.00     0.127 S 
ATOM     75  O   UNL     1      -0.895  -0.657  15.440  1.00  0.00    -0.237 OA
ATOM     76  O   UNL     1       0.015  -1.145  17.675  1.00  0.00    -0.237 OA
ATOM     77  O   UNL     1       0.633   0.941  16.531  1.00  0.00    -0.744 OA
ENDBRANCH  71  74
ENDBRANCH  53  67
BRANCH  54  78
ATOM     78  C   UNL     1      11.592   3.252  10.619  1.00  0.00     0.023 A 
ATOM     79  C   UNL     1      12.917   2.886  10.931  1.00  0.00     0.012 A 
ATOM     80  C   UNL     1      11.366   4.305   9.713  1.00  0.00     0.148 A 
ATOM     81  C   UNL     1      13.994   3.581  10.380  1.00  0.00     0.002 A 
ATOM     82  C   UNL     1      12.443   4.954   9.123  1.00  0.00     0.091 A 
ATOM     83  F   UNL     1      10.098   4.638   9.433  1.00  0.00    -0.205 F 
ATOM     84  C   UNL     1      13.758   4.608   9.469  1.00  0.00     0.022 A 
BRANCH  82  85
ATOM     85  S   UNL     1      12.235   6.197   7.844  1.00  0.00     0.127 S 
ATOM     86  O   UNL     1      12.710   7.403   8.519  1.00  0.00    -0.237 OA
ATOM     87  O   UNL     1      13.115   5.692   6.790  1.00  0.00    -0.237 OA
ATOM     88  O   UNL     1      10.819   6.182   7.504  1.00  0.00    -0.744 OA
ENDBRANCH  82  85
ENDBRANCH  54  78
BRANCH  66  89
ATOM     89  C   UNL     1       9.256   2.431  17.146  1.00  0.00     0.023 A 
ATOM     90  C   UNL     1       9.207   3.798  17.480  1.00  0.00     0.012 A 
ATOM     91  C   UNL     1       9.748   1.505  18.087  1.00  0.00     0.148 A 
ATOM     92  C   UNL     1       9.690   4.243  18.710  1.00  0.00     0.002 A 
ATOM     93  C   UNL     1      10.170   1.948  19.333  1.00  0.00     0.091 A 
ATOM     94  F   UNL     1       9.800   0.209  17.744  1.00  0.00    -0.205 F 
ATOM     95  C   UNL     1      10.161   3.318  19.639  1.00  0.00     0.022 A 
BRANCH  93  96
ATOM     96  S   UNL     1      10.688   0.816  20.627  1.00  0.00     0.127 S 
ATOM     97  O   UNL     1      12.133   1.040  20.655  1.00  0.00    -0.237 OA
ATOM     98  O   UNL     1       9.967   1.329  21.792  1.00  0.00    -0.237 OA
ATOM     99  O   UNL     1      10.269  -0.510  20.193  1.00  0.00    -0.744 OA
ENDBRANCH  93  96
ENDBRANCH  66  89
ENDBRANCH  40  41
ENDBRANCH  32  35
ENDBRANCH  30  31
ENDBRANCH   1  30
TORSDOF 16
