REMARK SMILES [NH3+][C@H]1C=C[C@@H](C(=O)NC2(CC(=O)NCCCNC(=O)c3ccc(-c4c5nc(c(-c6cccc(S(=O)(=O)[O-])c6F)c6ccc([nH]6)c(-c6cccc(S(=O)(=O)[O-])c6F)c6nc(c(-c7cccc(S(=O)(=O)[O-])c7F)c7ccc4[nH]7)C=C6)C=C5)cc3)CCC2)C1
REMARK SMILES IDX 14 1 13 2 11 3 12 4 10 6 9 7 83 8 85 9 84 10 8 11 6 12 7 13
REMARK SMILES IDX 5 15 2 16 3 17 86 18 4 19 1 20 15 24 16 25 17 26 18 27 19 29
REMARK SMILES IDX 20 30 21 31 82 32 22 33 81 34 23 35 24 36 25 37 75 38 26 39
REMARK SMILES IDX 80 40 74 41 76 42 27 43 79 44 73 45 72 46 28 48 60 49 40 50
REMARK SMILES IDX 59 51 41 52 44 53 58 54 77 55 42 56 43 57 57 59 78 60 45 61
REMARK SMILES IDX 29 62 30 63 38 64 31 65 33 66 39 67 32 68 34 69 35 70 36 71
REMARK SMILES IDX 37 72 61 73 62 74 70 75 63 76 65 77 71 78 64 79 66 80 67 81
REMARK SMILES IDX 68 82 69 83 46 84 47 85 55 86 48 87 50 88 56 89 49 90 51 91
REMARK SMILES IDX 52 92 53 93 54 94
REMARK H PARENT 13 5 8 14 1 21 1 22 1 23 17 28 76 47 44 58
REMARK Flexibility Score: inf
ROOT
ATOM      1  C   UNL     1      -2.797  -0.560  -2.674  1.00  0.00     0.117 C 
ENDROOT
BRANCH   1   2
ATOM      2  N   UNL     1      -3.968   0.196  -2.276  1.00  0.00    -0.356 N 
ATOM      3  C   UNL     1      -4.071   1.496  -1.892  1.00  0.00     0.222 C 
ATOM      4  O   UNL     1      -5.150   1.892  -1.446  1.00  0.00    -0.275 OA
ATOM      5  H   UNL     1      -4.815  -0.307  -2.285  1.00  0.00     0.163 HD
BRANCH   3   6
ATOM      6  C   UNL     1      -2.906   2.454  -2.020  1.00  0.00     0.128 C 
BRANCH   6   7
ATOM      7  C   UNL     1      -1.947   2.557  -0.809  1.00  0.00     0.049 C 
ATOM      8  C   UNL     1      -1.092   3.865  -0.856  1.00  0.00     0.029 C 
ATOM      9  C   UNL     1      -0.631   1.789  -1.031  1.00  0.00     0.029 C 
ATOM     10  C   UNL     1       0.011   3.074  -1.573  1.00  0.00     0.005 C 
BRANCH   7  11
ATOM     11  N   UNL     1      -2.705   2.431   0.456  1.00  0.00    -0.350 N 
ATOM     12  C   UNL     1      -2.483   2.157   1.768  1.00  0.00     0.227 C 
ATOM     13  O   UNL     1      -3.491   2.278   2.484  1.00  0.00    -0.274 OA
ATOM     14  H   UNL     1      -3.663   2.597   0.299  1.00  0.00     0.164 HD
BRANCH  12  15
ATOM     15  C   UNL     1      -1.183   1.698   2.441  1.00  0.00     0.107 C 
ATOM     16  C   UNL     1       0.763   0.234   2.174  1.00  0.00     0.205 C 
ATOM     17  C   UNL     1       1.129   1.683   2.078  1.00  0.00     0.033 C 
ATOM     18  C   UNL     1      -0.775   0.254   2.134  1.00  0.00     0.087 C 
ATOM     19  C   UNL     1       0.065   2.486   2.209  1.00  0.00    -0.012 C 
BRANCH  16  20
ATOM     20  N   UNL     1       1.317  -0.551   1.082  1.00  0.00    -0.352 N 
ATOM     21  H   UNL     1       2.336  -0.543   1.140  1.00  0.00     0.345 HD
ATOM     22  H   UNL     1       1.024  -0.150   0.192  1.00  0.00     0.345 HD
ATOM     23  H   UNL     1       0.981  -1.512   1.149  1.00  0.00     0.345 HD
ENDBRANCH  16  20
ENDBRANCH  12  15
ENDBRANCH   7  11
ENDBRANCH   6   7
ENDBRANCH   3   6
ENDBRANCH   1   2
BRANCH   1  24
ATOM     24  C   UNL     1      -2.153  -1.258  -1.479  1.00  0.00     0.042 C 
BRANCH  24  25
ATOM     25  C   UNL     1      -2.846  -2.546  -1.047  1.00  0.00     0.118 C 
BRANCH  25  26
ATOM     26  N   UNL     1      -2.656  -3.613  -2.017  1.00  0.00    -0.352 N 
ATOM     27  C   UNL     1      -2.162  -4.884  -1.867  1.00  0.00     0.251 C 
ATOM     28  H   UNL     1      -2.929  -3.385  -2.935  1.00  0.00     0.163 HD
ATOM     29  O   UNL     1      -1.901  -5.527  -2.883  1.00  0.00    -0.269 OA
BRANCH  27  30
ATOM     30  C   UNL     1      -1.937  -5.495  -0.532  1.00  0.00     0.039 A 
ATOM     31  C   UNL     1      -0.892  -6.417  -0.398  1.00  0.00     0.014 A 
ATOM     32  C   UNL     1      -2.779  -5.255   0.557  1.00  0.00     0.014 A 
ATOM     33  C   UNL     1      -0.683  -7.076   0.817  1.00  0.00     0.010 A 
ATOM     34  C   UNL     1      -2.523  -5.856   1.793  1.00  0.00     0.010 A 
ATOM     35  C   UNL     1      -1.489  -6.793   1.931  1.00  0.00    -0.014 A 
BRANCH  35  36
ATOM     36  C   UNL     1      -1.264  -7.487   3.228  1.00  0.00     0.031 A 
ATOM     37  C   UNL     1      -2.317  -8.396   3.810  1.00  0.00     0.074 A 
ATOM     38  C   UNL     1      -0.121  -7.270   3.909  1.00  0.00     0.049 A 
ATOM     39  N   UNL     1      -2.284  -9.096   4.915  1.00  0.00    -0.248 NA
ATOM     40  C   UNL     1      -3.582  -8.518   3.066  1.00  0.00     0.031 C 
ATOM     41  C   UNL     1       0.945  -6.353   3.498  1.00  0.00     0.029 A 
ATOM     42  N   UNL     1       0.330  -7.792   5.096  1.00  0.00    -0.354 N 
ATOM     43  C   UNL     1      -3.527  -9.712   5.017  1.00  0.00     0.074 A 
ATOM     44  C   UNL     1      -4.305  -9.275   3.879  1.00  0.00     0.031 C 
ATOM     45  C   UNL     1       1.929  -6.386   4.410  1.00  0.00     0.029 A 
ATOM     46  C   UNL     1       1.559  -7.307   5.480  1.00  0.00     0.049 A 
ATOM     47  H   UNL     1      -0.178  -8.450   5.623  1.00  0.00     0.167 HD
ATOM     48  C   UNL     1      -3.972 -10.585   5.954  1.00  0.00     0.034 A 
ATOM     49  C   UNL     1       2.307  -7.577   6.569  1.00  0.00     0.034 A 
ATOM     50  C   UNL     1      -3.182 -11.052   7.062  1.00  0.00     0.049 A 
ATOM     51  C   UNL     1       1.816  -8.598   7.559  1.00  0.00     0.074 A 
ATOM     52  C   UNL     1      -3.513 -11.996   8.019  1.00  0.00     0.029 A 
ATOM     53  N   UNL     1      -1.905 -10.608   7.366  1.00  0.00    -0.354 N 
ATOM     54  N   UNL     1       0.703  -9.291   7.550  1.00  0.00    -0.248 NA
ATOM     55  C   UNL     1       2.707  -8.910   8.687  1.00  0.00     0.031 C 
ATOM     56  C   UNL     1      -2.442 -12.109   8.912  1.00  0.00     0.029 A 
ATOM     57  C   UNL     1      -1.433 -11.257   8.495  1.00  0.00     0.049 A 
ATOM     58  H   UNL     1      -1.406  -9.931   6.854  1.00  0.00     0.167 HD
ATOM     59  C   UNL     1       0.776 -10.147   8.643  1.00  0.00     0.074 A 
ATOM     60  C   UNL     1       2.054  -9.901   9.279  1.00  0.00     0.031 C 
ATOM     61  C   UNL     1      -0.137 -11.045   9.088  1.00  0.00     0.034 A 
BRANCH  48  62
ATOM     62  C   UNL     1      -5.365 -11.140   5.789  1.00  0.00     0.023 A 
ATOM     63  C   UNL     1      -5.629 -12.058   4.751  1.00  0.00     0.012 A 
ATOM     64  C   UNL     1      -6.395 -10.807   6.691  1.00  0.00     0.148 A 
ATOM     65  C   UNL     1      -6.901 -12.606   4.590  1.00  0.00     0.002 A 
ATOM     66  C   UNL     1      -7.649 -11.393   6.552  1.00  0.00     0.091 A 
ATOM     67  F   UNL     1      -6.134  -9.919   7.661  1.00  0.00    -0.205 F 
ATOM     68  C   UNL     1      -7.907 -12.281   5.495  1.00  0.00     0.022 A 
BRANCH  66  69
ATOM     69  S   UNL     1      -8.988 -11.104   7.715  1.00  0.00     0.127 S 
ATOM     70  O   UNL     1      -9.901 -10.286   6.916  1.00  0.00    -0.237 OA
ATOM     71  O   UNL     1      -9.465 -12.464   7.979  1.00  0.00    -0.237 OA
ATOM     72  O   UNL     1      -8.390 -10.439   8.860  1.00  0.00    -0.744 OA
ENDBRANCH  66  69
ENDBRANCH  48  62
BRANCH  49  73
ATOM     73  C   UNL     1       3.641  -6.931   6.732  1.00  0.00     0.023 A 
ATOM     74  C   UNL     1       4.807  -7.709   6.594  1.00  0.00     0.012 A 
ATOM     75  C   UNL     1       3.762  -5.553   6.990  1.00  0.00     0.148 A 
ATOM     76  C   UNL     1       6.069  -7.133   6.745  1.00  0.00     0.002 A 
ATOM     77  C   UNL     1       5.023  -4.974   7.082  1.00  0.00     0.091 A 
ATOM     78  F   UNL     1       2.641  -4.831   7.130  1.00  0.00    -0.205 F 
ATOM     79  C   UNL     1       6.177  -5.765   6.979  1.00  0.00     0.022 A 
BRANCH  77  80
ATOM     80  S   UNL     1       5.258  -3.200   7.244  1.00  0.00     0.127 S 
ATOM     81  O   UNL     1       5.721  -3.084   8.624  1.00  0.00    -0.237 OA
ATOM     82  O   UNL     1       6.277  -2.935   6.227  1.00  0.00    -0.237 OA
ATOM     83  O   UNL     1       3.960  -2.604   6.958  1.00  0.00    -0.744 OA
ENDBRANCH  77  80
ENDBRANCH  49  73
BRANCH  61  84
ATOM     84  C   UNL     1       0.226 -11.866  10.299  1.00  0.00     0.023 A 
ATOM     85  C   UNL     1       0.279 -11.260  11.570  1.00  0.00     0.012 A 
ATOM     86  C   UNL     1       0.463 -13.250  10.183  1.00  0.00     0.148 A 
ATOM     87  C   UNL     1       0.605 -12.010  12.700  1.00  0.00     0.002 A 
ATOM     88  C   UNL     1       0.737 -14.000  11.320  1.00  0.00     0.091 A 
ATOM     89  F   UNL     1       0.429 -13.807   8.963  1.00  0.00    -0.205 F 
ATOM     90  C   UNL     1       0.823 -13.381  12.577  1.00  0.00     0.022 A 
BRANCH  88  91
ATOM     91  S   UNL     1       0.935 -15.785  11.262  1.00  0.00     0.127 S 
ATOM     92  O   UNL     1       2.386 -15.928  11.357  1.00  0.00    -0.237 OA
ATOM     93  O   UNL     1       0.201 -16.221  12.452  1.00  0.00    -0.237 OA
ATOM     94  O   UNL     1       0.340 -16.210  10.002  1.00  0.00    -0.744 OA
ENDBRANCH  88  91
ENDBRANCH  61  84
ENDBRANCH  35  36
ENDBRANCH  27  30
ENDBRANCH  25  26
ENDBRANCH  24  25
ENDBRANCH   1  24
TORSDOF 17
