REMARK SMILES CC1C[NH+]([C@@H](C(=O)NCCCNC(=O)c2ccc(-c3c4nc(c(-c5cccc(S(=O)(=O)[O-])c5F)c5ccc([nH]5)c(-c5cccc(S(=O)(=O)[O-])c5F)c5nc(c(-c6cccc(S(=O)(=O)[O-])c6F)c6ccc3[nH]6)C=C5)C=C4)cc2)C2CCCCC2)C1
REMARK SMILES IDX 11 1 10 2 9 3 8 4 6 5 7 6 5 8 4 9 1 10 2 11 3 12 84 13 78 15
REMARK SMILES IDX 79 16 83 17 80 18 82 19 81 20 12 21 13 22 14 24 15 25 16 26
REMARK SMILES IDX 77 27 17 28 76 29 18 30 19 31 20 32 70 33 21 34 75 35 69 36
REMARK SMILES IDX 71 37 22 38 74 39 68 40 67 41 23 43 55 44 35 45 54 46 36 47
REMARK SMILES IDX 39 48 53 49 72 50 37 51 38 52 52 54 73 55 40 56 24 57 25 58
REMARK SMILES IDX 33 59 26 60 28 61 34 62 27 63 29 64 30 65 31 66 32 67 56 68
REMARK SMILES IDX 57 69 65 70 58 71 60 72 66 73 59 74 61 75 62 76 63 77 64 78
REMARK SMILES IDX 41 79 42 80 50 81 43 82 45 83 51 84 44 85 46 86 47 87 48 88
REMARK SMILES IDX 49 89
REMARK H PARENT 8 7 4 14 12 23 71 42 39 53
REMARK Flexibility Score: inf
ROOT
ATOM      1  C   UNL     1      -1.004   2.749  -2.326  1.00  0.00     0.118 C 
ENDROOT
BRANCH   1   2
ATOM      2  C   UNL     1      -1.869   1.490  -2.319  1.00  0.00     0.042 C 
BRANCH   2   3
ATOM      3  C   UNL     1      -1.722   0.561  -3.532  1.00  0.00     0.118 C 
BRANCH   3   4
ATOM      4  N   UNL     1      -0.347   0.201  -3.845  1.00  0.00    -0.351 N 
ATOM      5  C   UNL     1       0.379  -0.950  -3.732  1.00  0.00     0.278 C 
ATOM      6  O   UNL     1       1.533  -0.879  -4.169  1.00  0.00    -0.268 OA
ATOM      7  H   UNL     1       0.172   0.949  -4.219  1.00  0.00     0.163 HD
BRANCH   5   8
ATOM      8  C   UNL     1      -0.194  -2.259  -3.122  1.00  0.00     0.277 C 
BRANCH   8   9
ATOM      9  N   UNL     1      -0.026  -2.448  -1.653  1.00  0.00    -0.324 N 
ATOM     10  C   UNL     1       0.773  -0.105   0.746  1.00  0.00     0.020 C 
ATOM     11  C   UNL     1       0.457  -0.649  -0.630  1.00  0.00     0.096 C 
ATOM     12  C   UNL     1       1.224  -1.905  -1.079  1.00  0.00     0.271 C 
ATOM     13  C   UNL     1      -0.807  -1.528  -0.814  1.00  0.00     0.271 C 
ATOM     14  H   UNL     1      -0.207  -3.452  -1.630  1.00  0.00     0.348 HD
ENDBRANCH   8   9
BRANCH   8  15
ATOM     15  C   UNL     1       0.395  -3.525  -3.865  1.00  0.00     0.057 C 
ATOM     16  C   UNL     1       1.861  -3.860  -3.492  1.00  0.00     0.010 C 
ATOM     17  C   UNL     1      -0.504  -4.763  -3.630  1.00  0.00     0.010 C 
ATOM     18  C   UNL     1       2.378  -5.132  -4.155  1.00  0.00     0.001 C 
ATOM     19  C   UNL     1       0.054  -6.044  -4.251  1.00  0.00     0.001 C 
ATOM     20  C   UNL     1       1.486  -6.314  -3.809  1.00  0.00     0.000 C 
ENDBRANCH   8  15
ENDBRANCH   5   8
ENDBRANCH   3   4
ENDBRANCH   2   3
ENDBRANCH   1   2
BRANCH   1  21
ATOM     21  N   UNL     1      -1.647   3.849  -3.019  1.00  0.00    -0.352 N 
ATOM     22  C   UNL     1      -2.106   5.050  -2.531  1.00  0.00     0.251 C 
ATOM     23  H   UNL     1      -1.774   3.716  -3.986  1.00  0.00     0.163 HD
ATOM     24  O   UNL     1      -2.840   5.729  -3.248  1.00  0.00    -0.269 OA
BRANCH  22  25
ATOM     25  C   UNL     1      -1.746   5.545  -1.175  1.00  0.00     0.039 A 
ATOM     26  C   UNL     1      -2.700   6.279  -0.461  1.00  0.00     0.014 A 
ATOM     27  C   UNL     1      -0.464   5.391  -0.637  1.00  0.00     0.014 A 
ATOM     28  C   UNL     1      -2.377   6.843   0.780  1.00  0.00     0.010 A 
ATOM     29  C   UNL     1      -0.165   5.895   0.635  1.00  0.00     0.010 A 
ATOM     30  C   UNL     1      -1.106   6.657   1.344  1.00  0.00    -0.014 A 
BRANCH  30  31
ATOM     31  C   UNL     1      -0.747   7.294   2.643  1.00  0.00     0.031 A 
ATOM     32  C   UNL     1       0.335   8.346   2.710  1.00  0.00     0.074 A 
ATOM     33  C   UNL     1      -1.362   6.908   3.780  1.00  0.00     0.049 A 
ATOM     34  N   UNL     1       0.764   9.025   3.744  1.00  0.00    -0.248 NA
ATOM     35  C   UNL     1       1.044   8.660   1.459  1.00  0.00     0.031 C 
ATOM     36  C   UNL     1      -2.360   5.842   3.880  1.00  0.00     0.029 A 
ATOM     37  N   UNL     1      -1.222   7.354   5.072  1.00  0.00    -0.354 N 
ATOM     38  C   UNL     1       1.813   9.812   3.280  1.00  0.00     0.074 A 
ATOM     39  C   UNL     1       1.977   9.505   1.876  1.00  0.00     0.031 C 
ATOM     40  C   UNL     1      -2.744   5.719   5.162  1.00  0.00     0.029 A 
ATOM     41  C   UNL     1      -2.015   6.686   5.977  1.00  0.00     0.049 A 
ATOM     42  H   UNL     1      -0.612   8.083   5.327  1.00  0.00     0.167 HD
ATOM     43  C   UNL     1       2.554  10.729   3.948  1.00  0.00     0.034 A 
ATOM     44  C   UNL     1      -2.148   6.839   7.310  1.00  0.00     0.034 A 
ATOM     45  C   UNL     1       2.352  11.087   5.326  1.00  0.00     0.049 A 
ATOM     46  C   UNL     1      -1.382   7.932   8.007  1.00  0.00     0.074 A 
ATOM     47  C   UNL     1       2.982  12.078   6.060  1.00  0.00     0.029 A 
ATOM     48  N   UNL     1       1.454  10.470   6.181  1.00  0.00    -0.354 N 
ATOM     49  N   UNL     1      -0.527   8.791   7.506  1.00  0.00    -0.248 NA
ATOM     50  C   UNL     1      -1.637   8.111   9.445  1.00  0.00     0.031 C 
ATOM     51  C   UNL     1       2.471  12.052   7.362  1.00  0.00     0.029 A 
ATOM     52  C   UNL     1       1.512  11.056   7.434  1.00  0.00     0.049 A 
ATOM     53  H   UNL     1       0.861   9.723   5.933  1.00  0.00     0.167 HD
ATOM     54  C   UNL     1      -0.171   9.631   8.556  1.00  0.00     0.074 A 
ATOM     55  C   UNL     1      -0.924   9.196   9.714  1.00  0.00     0.031 C 
ATOM     56  C   UNL     1       0.714  10.658   8.565  1.00  0.00     0.034 A 
BRANCH  43  57
ATOM     57  C   UNL     1       3.619  11.470   3.178  1.00  0.00     0.023 A 
ATOM     58  C   UNL     1       3.239  12.453   2.241  1.00  0.00     0.012 A 
ATOM     59  C   UNL     1       4.987  11.252   3.434  1.00  0.00     0.148 A 
ATOM     60  C   UNL     1       4.202  13.185   1.548  1.00  0.00     0.002 A 
ATOM     61  C   UNL     1       5.941  12.016   2.770  1.00  0.00     0.091 A 
ATOM     62  F   UNL     1       5.330  10.302   4.314  1.00  0.00    -0.205 F 
ATOM     63  C   UNL     1       5.551  12.974   1.820  1.00  0.00     0.022 A 
BRANCH  61  64
ATOM     64  S   UNL     1       7.701  11.878   3.106  1.00  0.00     0.127 S 
ATOM     65  O   UNL     1       8.184  11.235   1.885  1.00  0.00    -0.237 OA
ATOM     66  O   UNL     1       8.097  13.278   3.255  1.00  0.00    -0.237 OA
ATOM     67  O   UNL     1       7.816  11.082   4.320  1.00  0.00    -0.744 OA
ENDBRANCH  61  64
ENDBRANCH  43  57
BRANCH  44  68
ATOM     68  C   UNL     1      -3.111   5.987   8.064  1.00  0.00     0.023 A 
ATOM     69  C   UNL     1      -4.292   6.561   8.576  1.00  0.00     0.012 A 
ATOM     70  C   UNL     1      -2.876   4.613   8.261  1.00  0.00     0.148 A 
ATOM     71  C   UNL     1      -5.202   5.790   9.300  1.00  0.00     0.002 A 
ATOM     72  C   UNL     1      -3.814   3.839   8.935  1.00  0.00     0.091 A 
ATOM     73  F   UNL     1      -1.739   4.086   7.783  1.00  0.00    -0.205 F 
ATOM     74  C   UNL     1      -4.969   4.429   9.471  1.00  0.00     0.022 A 
BRANCH  72  75
ATOM     75  S   UNL     1      -3.656   2.055   9.077  1.00  0.00     0.127 S 
ATOM     76  O   UNL     1      -3.221   1.901  10.461  1.00  0.00    -0.237 OA
ATOM     77  O   UNL     1      -5.021   1.603   8.805  1.00  0.00    -0.237 OA
ATOM     78  O   UNL     1      -2.689   1.671   8.055  1.00  0.00    -0.744 OA
ENDBRANCH  72  75
ENDBRANCH  44  68
BRANCH  56  79
ATOM     79  C   UNL     1       0.899  11.411   9.856  1.00  0.00     0.023 A 
ATOM     80  C   UNL     1       1.582  10.804  10.929  1.00  0.00     0.012 A 
ATOM     81  C   UNL     1       0.449  12.739   9.990  1.00  0.00     0.148 A 
ATOM     82  C   UNL     1       1.778  11.491  12.126  1.00  0.00     0.002 A 
ATOM     83  C   UNL     1       0.689  13.435  11.170  1.00  0.00     0.091 A 
ATOM     84  F   UNL     1      -0.219  13.297   8.969  1.00  0.00    -0.205 F 
ATOM     85  C   UNL     1       1.342  12.809  12.243  1.00  0.00     0.022 A 
BRANCH  83  86
ATOM     86  S   UNL     1       0.241  15.165  11.360  1.00  0.00     0.127 S 
ATOM     87  O   UNL     1      -1.017  15.069  12.097  1.00  0.00    -0.237 OA
ATOM     88  O   UNL     1       1.362  15.699  12.135  1.00  0.00    -0.237 OA
ATOM     89  O   UNL     1       0.144  15.695  10.007  1.00  0.00    -0.744 OA
ENDBRANCH  83  86
ENDBRANCH  56  79
ENDBRANCH  30  31
ENDBRANCH  22  25
ENDBRANCH   1  21
TORSDOF 15
