REMARK SMILES O=C(NCCCNC(=O)[C@H]1CCc2[nH]nc(C(F)(F)F)c2C1)c1ccc(-c2c3nc(c(-c4cccc(S(=O)(=O)[O-])c4F)c4ccc([nH]4)c(-c4cccc(S(=O)(=O)[O-])c4F)c4nc(c(-c5cccc(S(=O)(=O)[O-])c5F)c5ccc2[nH]5)C=C4)C=C3)cc1
REMARK SMILES IDX 4 1 3 2 1 3 2 4 23 6 24 7 85 8 25 9 84 10 26 11 27 12 28 13
REMARK SMILES IDX 78 14 29 15 83 16 77 17 79 18 30 19 82 20 76 21 75 22 31 24
REMARK SMILES IDX 63 25 43 26 62 27 44 28 47 29 61 30 80 31 45 32 46 33 60 35
REMARK SMILES IDX 81 36 48 37 32 38 33 39 41 40 34 41 36 42 42 43 35 44 37 45
REMARK SMILES IDX 38 46 39 47 40 48 64 49 65 50 73 51 66 52 68 53 74 54 67 55
REMARK SMILES IDX 69 56 70 57 71 58 72 59 49 60 50 61 58 62 51 63 53 64 59 65
REMARK SMILES IDX 52 66 54 67 55 68 56 69 57 70 5 71 6 72 7 73 8 74 9 76 10 77
REMARK SMILES IDX 11 78 22 79 12 80 21 81 13 82 16 83 14 84 15 85 17 87 18 88
REMARK SMILES IDX 19 89 20 90
REMARK H PARENT 3 5 79 23 47 34 7 75 14 86
REMARK Flexibility Score: inf
ROOT
ATOM      1  C   UNL     1       8.711   0.466  -1.948  1.00  0.00     0.118 C 
ENDROOT
BRANCH   1   2
ATOM      2  N   UNL     1       9.937   1.252  -1.917  1.00  0.00    -0.352 N 
ATOM      3  O   UNL     1      11.511   2.598  -1.046  1.00  0.00    -0.269 OA
ATOM      4  C   UNL     1      10.605   1.793  -0.847  1.00  0.00     0.251 C 
ATOM      5  H   UNL     1      10.348   1.421  -2.796  1.00  0.00     0.163 HD
BRANCH   4   6
ATOM      6  C   UNL     1      10.220   1.421   0.531  1.00  0.00     0.039 A 
ATOM      7  C   UNL     1       9.957   0.090   0.860  1.00  0.00     0.014 A 
ATOM      8  C   UNL     1      10.141   2.415   1.511  1.00  0.00     0.014 A 
ATOM      9  C   UNL     1       9.476  -0.227   2.126  1.00  0.00     0.010 A 
ATOM     10  C   UNL     1       9.741   2.080   2.808  1.00  0.00     0.010 A 
ATOM     11  C   UNL     1       9.375   0.762   3.118  1.00  0.00    -0.014 A 
BRANCH  11  12
ATOM     12  C   UNL     1       8.953   0.371   4.488  1.00  0.00     0.031 A 
ATOM     13  C   UNL     1       7.680   0.892   5.095  1.00  0.00     0.074 A 
ATOM     14  C   UNL     1       9.734  -0.482   5.180  1.00  0.00     0.049 A 
ATOM     15  N   UNL     1       7.152   0.613   6.259  1.00  0.00    -0.248 NA
ATOM     16  C   UNL     1       6.899   1.855   4.301  1.00  0.00     0.031 C 
ATOM     17  C   UNL     1      11.018  -1.014   4.713  1.00  0.00     0.029 A 
ATOM     18  N   UNL     1       9.568  -1.056   6.414  1.00  0.00    -0.354 N 
ATOM     19  C   UNL     1       5.997   1.379   6.352  1.00  0.00     0.074 A 
ATOM     20  C   UNL     1       5.907   2.152   5.131  1.00  0.00     0.031 C 
ATOM     21  C   UNL     1      11.508  -1.854   5.635  1.00  0.00     0.029 A 
ATOM     22  C   UNL     1      10.602  -1.887   6.777  1.00  0.00     0.049 A 
ATOM     23  H   UNL     1       8.784  -0.888   6.986  1.00  0.00     0.167 HD
ATOM     24  C   UNL     1       5.082   1.417   7.352  1.00  0.00     0.034 A 
ATOM     25  C   UNL     1      10.806  -2.590   7.906  1.00  0.00     0.034 A 
ATOM     26  C   UNL     1       5.163   0.625   8.552  1.00  0.00     0.049 A 
ATOM     27  C   UNL     1       9.762  -2.548   8.984  1.00  0.00     0.074 A 
ATOM     28  C   UNL     1       4.269   0.567   9.607  1.00  0.00     0.029 A 
ATOM     29  N   UNL     1       6.197  -0.247   8.858  1.00  0.00    -0.354 N 
ATOM     30  N   UNL     1       8.618  -1.909   8.998  1.00  0.00    -0.248 NA
ATOM     31  C   UNL     1      10.021  -3.347  10.189  1.00  0.00     0.031 C 
ATOM     32  C   UNL     1       4.767  -0.334  10.555  1.00  0.00     0.029 A 
ATOM     33  C   UNL     1       5.964  -0.848  10.084  1.00  0.00     0.049 A 
ATOM     34  H   UNL     1       6.982  -0.414   8.288  1.00  0.00     0.167 HD
ATOM     35  C   UNL     1       8.010  -2.244  10.200  1.00  0.00     0.074 A 
ATOM     36  C   UNL     1       8.898  -3.172  10.872  1.00  0.00     0.031 C 
ATOM     37  C   UNL     1       6.834  -1.807  10.715  1.00  0.00     0.034 A 
BRANCH  24  38
ATOM     38  C   UNL     1       3.879   2.306   7.171  1.00  0.00     0.023 A 
ATOM     39  C   UNL     1       2.861   1.913   6.278  1.00  0.00     0.012 A 
ATOM     40  C   UNL     1       3.714   3.481   7.932  1.00  0.00     0.148 A 
ATOM     41  C   UNL     1       1.710   2.686   6.126  1.00  0.00     0.002 A 
ATOM     42  C   UNL     1       2.546   4.226   7.802  1.00  0.00     0.091 A 
ATOM     43  F   UNL     1       4.700   3.849   8.762  1.00  0.00    -0.205 F 
ATOM     44  C   UNL     1       1.548   3.835   6.895  1.00  0.00     0.022 A 
BRANCH  42  45
ATOM     45  S   UNL     1       2.210   5.684   8.798  1.00  0.00     0.127 S 
ATOM     46  O   UNL     1       2.355   6.754   7.812  1.00  0.00    -0.237 OA
ATOM     47  O   UNL     1       0.835   5.447   9.241  1.00  0.00    -0.237 OA
ATOM     48  O   UNL     1       3.200   5.677   9.866  1.00  0.00    -0.744 OA
ENDBRANCH  42  45
ENDBRANCH  24  38
BRANCH  25  49
ATOM     49  C   UNL     1      12.030  -3.428   8.045  1.00  0.00     0.023 A 
ATOM     50  C   UNL     1      11.917  -4.831   8.049  1.00  0.00     0.012 A 
ATOM     51  C   UNL     1      13.309  -2.842   8.127  1.00  0.00     0.148 A 
ATOM     52  C   UNL     1      13.053  -5.635   8.160  1.00  0.00     0.002 A 
ATOM     53  C   UNL     1      14.439  -3.648   8.177  1.00  0.00     0.091 A 
ATOM     54  F   UNL     1      13.397  -1.504   8.143  1.00  0.00    -0.205 F 
ATOM     55  C   UNL     1      14.313  -5.045   8.211  1.00  0.00     0.022 A 
BRANCH  53  56
ATOM     56  S   UNL     1      16.096  -2.960   8.090  1.00  0.00     0.127 S 
ATOM     57  O   UNL     1      16.507  -2.991   9.490  1.00  0.00    -0.237 OA
ATOM     58  O   UNL     1      16.784  -3.918   7.223  1.00  0.00    -0.237 OA
ATOM     59  O   UNL     1      15.930  -1.638   7.499  1.00  0.00    -0.744 OA
ENDBRANCH  53  56
ENDBRANCH  25  49
BRANCH  37  60
ATOM     60  C   UNL     1       6.432  -2.342  12.063  1.00  0.00     0.023 A 
ATOM     61  C   UNL     1       7.102  -1.892  13.218  1.00  0.00     0.012 A 
ATOM     62  C   UNL     1       5.361  -3.247  12.191  1.00  0.00     0.148 A 
ATOM     63  C   UNL     1       6.737  -2.363  14.478  1.00  0.00     0.002 A 
ATOM     64  C   UNL     1       4.973  -3.678  13.455  1.00  0.00     0.091 A 
ATOM     65  F   UNL     1       4.751  -3.680  11.079  1.00  0.00    -0.205 F 
ATOM     66  C   UNL     1       5.666  -3.246  14.597  1.00  0.00     0.022 A 
BRANCH  64  67
ATOM     67  S   UNL     1       3.550  -4.745  13.707  1.00  0.00     0.127 S 
ATOM     68  O   UNL     1       4.188  -6.033  13.976  1.00  0.00    -0.237 OA
ATOM     69  O   UNL     1       2.901  -4.132  14.867  1.00  0.00    -0.237 OA
ATOM     70  O   UNL     1       2.775  -4.673  12.476  1.00  0.00    -0.744 OA
ENDBRANCH  64  67
ENDBRANCH  37  60
ENDBRANCH  11  12
ENDBRANCH   4   6
ENDBRANCH   1   2
BRANCH   1  71
ATOM     71  C   UNL     1       7.603   1.138  -2.759  1.00  0.00     0.042 C 
BRANCH  71  72
ATOM     72  C   UNL     1       7.965   1.365  -4.225  1.00  0.00     0.117 C 
BRANCH  72  73
ATOM     73  N   UNL     1       8.322   0.112  -4.862  1.00  0.00    -0.356 N 
ATOM     74  C   UNL     1       7.518  -0.799  -5.471  1.00  0.00     0.223 C 
ATOM     75  H   UNL     1       9.281  -0.109  -4.852  1.00  0.00     0.163 HD
ATOM     76  O   UNL     1       7.938  -1.954  -5.547  1.00  0.00    -0.275 OA
BRANCH  74  77
ATOM     77  C   UNL     1       6.222  -0.338  -6.134  1.00  0.00     0.083 C 
ATOM     78  C   UNL     1       6.536   0.036  -7.608  1.00  0.00     0.020 C 
ATOM     79  C   UNL     1       5.120  -1.418  -6.035  1.00  0.00     0.053 C 
ATOM     80  C   UNL     1       6.971  -1.171  -8.472  1.00  0.00     0.057 C 
ATOM     81  C   UNL     1       5.330  -2.502  -7.031  1.00  0.00     0.006 A 
ATOM     82  C   UNL     1       6.155  -2.359  -8.122  1.00  0.00     0.039 A 
ATOM     83  C   UNL     1       4.856  -3.841  -7.087  1.00  0.00     0.169 A 
ATOM     84  N   UNL     1       6.197  -3.574  -8.729  1.00  0.00    -0.282 N 
ATOM     85  N   UNL     1       5.373  -4.476  -8.165  1.00  0.00    -0.171 NA
ATOM     86  H   UNL     1       6.771  -3.774  -9.503  1.00  0.00     0.190 HD
BRANCH  83  87
ATOM     87  C   UNL     1       3.933  -4.520  -6.106  1.00  0.00     0.435 C 
ATOM     88  F   UNL     1       2.939  -5.220  -6.720  1.00  0.00    -0.164 F 
ATOM     89  F   UNL     1       4.586  -5.391  -5.292  1.00  0.00    -0.164 F 
ATOM     90  F   UNL     1       3.309  -3.625  -5.287  1.00  0.00    -0.164 F 
ENDBRANCH  83  87
ENDBRANCH  74  77
ENDBRANCH  72  73
ENDBRANCH  71  72
ENDBRANCH   1  71
TORSDOF 14
