REMARK SMILES COC(=O)NNC(=O)CCC(=O)NCCCNC(=O)c1ccc(-c2c3nc(c(-c4cccc(S(=O)(=O)[O-])c4F)c4ccc([nH]4)c(-c4cccc(S(=O)(=O)[O-])c4F)c4nc(c(-c5cccc(S(=O)(=O)[O-])c5F)c5ccc2[nH]5)C=C4)C=C3)cc1
REMARK SMILES IDX 14 1 13 2 11 3 12 4 10 6 9 7 7 8 6 9 8 11 5 12 3 13 4 14
REMARK SMILES IDX 2 16 1 17 15 18 16 19 17 20 18 21 19 23 20 24 21 25 82 26
REMARK SMILES IDX 22 27 81 28 23 29 24 30 25 31 75 32 26 33 80 34 74 35 76 36
REMARK SMILES IDX 27 37 79 38 73 39 72 40 28 42 60 43 40 44 59 45 41 46 44 47
REMARK SMILES IDX 58 48 77 49 42 50 43 51 57 53 78 54 45 55 29 56 30 57 38 58
REMARK SMILES IDX 31 59 33 60 39 61 32 62 34 63 35 64 36 65 37 66 61 67 62 68
REMARK SMILES IDX 70 69 63 70 65 71 71 72 64 73 66 74 67 75 68 76 69 77 46 78
REMARK SMILES IDX 47 79 55 80 48 81 50 82 56 83 49 84 51 85 52 86 53 87 54 88
REMARK H PARENT 13 5 6 10 5 15 17 22 76 41 44 52
REMARK Flexibility Score: inf
ROOT
ATOM      1  C   UNL     1      -2.597  -2.756   1.933  1.00  0.00     0.117 C 
ENDROOT
BRANCH   1   2
ATOM      2  N   UNL     1      -1.664  -3.537   1.131  1.00  0.00    -0.356 N 
ATOM      3  C   UNL     1      -1.123  -4.769   1.329  1.00  0.00     0.220 C 
ATOM      4  O   UNL     1      -0.444  -5.267   0.428  1.00  0.00    -0.275 OA
ATOM      5  H   UNL     1      -1.374  -3.095   0.300  1.00  0.00     0.163 HD
BRANCH   3   6
ATOM      6  C   UNL     1      -1.304  -5.498   2.638  1.00  0.00     0.110 C 
BRANCH   6   7
ATOM      7  C   UNL     1       0.002  -5.536   3.422  1.00  0.00     0.112 C 
BRANCH   7   8
ATOM      8  C   UNL     1       0.415  -4.146   3.854  1.00  0.00     0.238 C 
ATOM      9  N   UNL     1       1.310  -3.443   3.087  1.00  0.00    -0.265 N 
ATOM     10  H   UNL     1       1.521  -2.519   3.356  1.00  0.00     0.191 HD
ATOM     11  O   UNL     1      -0.087  -3.635   4.856  1.00  0.00    -0.273 OA
BRANCH   9  12
ATOM     12  N   UNL     1       1.941  -3.952   1.954  1.00  0.00    -0.232 N 
ATOM     13  C   UNL     1       2.196  -3.213   0.826  1.00  0.00     0.425 C 
ATOM     14  O   UNL     1       2.777  -3.698  -0.142  1.00  0.00    -0.223 OA
ATOM     15  H   UNL     1       2.219  -4.896   1.963  1.00  0.00     0.195 HD
BRANCH  13  16
ATOM     16  O   UNL     1       1.763  -1.927   0.906  1.00  0.00    -0.452 OA
ATOM     17  C   UNL     1       1.982  -1.160  -0.284  1.00  0.00     0.284 C 
ENDBRANCH  13  16
ENDBRANCH   9  12
ENDBRANCH   7   8
ENDBRANCH   6   7
ENDBRANCH   3   6
ENDBRANCH   1   2
BRANCH   1  18
ATOM     18  C   UNL     1      -1.961  -1.616   2.728  1.00  0.00     0.042 C 
BRANCH  18  19
ATOM     19  C   UNL     1      -1.104  -0.645   1.922  1.00  0.00     0.118 C 
BRANCH  19  20
ATOM     20  N   UNL     1      -1.877   0.354   1.208  1.00  0.00    -0.352 N 
ATOM     21  C   UNL     1      -1.752   1.722   1.171  1.00  0.00     0.251 C 
ATOM     22  H   UNL     1      -2.611  -0.007   0.661  1.00  0.00     0.163 HD
ATOM     23  O   UNL     1      -2.602   2.365   0.554  1.00  0.00    -0.269 OA
BRANCH  21  24
ATOM     24  C   UNL     1      -0.646   2.450   1.852  1.00  0.00     0.039 A 
ATOM     25  C   UNL     1      -0.943   3.686   2.440  1.00  0.00     0.014 A 
ATOM     26  C   UNL     1       0.679   2.005   1.848  1.00  0.00     0.014 A 
ATOM     27  C   UNL     1       0.067   4.453   3.033  1.00  0.00     0.010 A 
ATOM     28  C   UNL     1       1.683   2.750   2.479  1.00  0.00     0.010 A 
ATOM     29  C   UNL     1       1.391   3.990   3.063  1.00  0.00    -0.014 A 
BRANCH  29  30
ATOM     30  C   UNL     1       2.462   4.800   3.703  1.00  0.00     0.031 A 
ATOM     31  C   UNL     1       3.542   5.445   2.874  1.00  0.00     0.074 A 
ATOM     32  C   UNL     1       2.489   4.920   5.045  1.00  0.00     0.049 A 
ATOM     33  N   UNL     1       4.523   6.222   3.258  1.00  0.00    -0.248 NA
ATOM     34  C   UNL     1       3.531   5.169   1.428  1.00  0.00     0.031 C 
ATOM     35  C   UNL     1       1.553   4.275   5.967  1.00  0.00     0.029 A 
ATOM     36  N   UNL     1       3.347   5.607   5.868  1.00  0.00    -0.354 N 
ATOM     37  C   UNL     1       5.255   6.513   2.113  1.00  0.00     0.074 A 
ATOM     38  C   UNL     1       4.624   5.802   1.021  1.00  0.00     0.031 C 
ATOM     39  C   UNL     1       1.890   4.592   7.228  1.00  0.00     0.029 A 
ATOM     40  C   UNL     1       3.067   5.456   7.207  1.00  0.00     0.049 A 
ATOM     41  H   UNL     1       4.092   6.155   5.533  1.00  0.00     0.167 HD
ATOM     42  C   UNL     1       6.336   7.319   1.976  1.00  0.00     0.034 A 
ATOM     43  C   UNL     1       3.683   5.962   8.294  1.00  0.00     0.034 A 
ATOM     44  C   UNL     1       6.940   8.052   3.058  1.00  0.00     0.049 A 
ATOM     45  C   UNL     1       4.843   6.903   8.108  1.00  0.00     0.074 A 
ATOM     46  C   UNL     1       7.982   8.962   3.005  1.00  0.00     0.029 A 
ATOM     47  N   UNL     1       6.565   7.953   4.388  1.00  0.00    -0.354 N 
ATOM     48  N   UNL     1       5.405   7.310   6.996  1.00  0.00    -0.248 NA
ATOM     49  C   UNL     1       5.421   7.496   9.323  1.00  0.00     0.031 C 
ATOM     50  C   UNL     1       8.248   9.399   4.308  1.00  0.00     0.029 A 
ATOM     51  C   UNL     1       7.355   8.780   5.167  1.00  0.00     0.049 A 
ATOM     52  H   UNL     1       5.842   7.378   4.729  1.00  0.00     0.167 HD
ATOM     53  C   UNL     1       6.370   8.237   7.373  1.00  0.00     0.074 A 
ATOM     54  C   UNL     1       6.305   8.344   8.816  1.00  0.00     0.031 C 
ATOM     55  C   UNL     1       7.240   8.927   6.595  1.00  0.00     0.034 A 
BRANCH  42  56
ATOM     56  C   UNL     1       6.905   7.510   0.592  1.00  0.00     0.023 A 
ATOM     57  C   UNL     1       6.191   8.282  -0.348  1.00  0.00     0.012 A 
ATOM     58  C   UNL     1       8.175   7.006   0.247  1.00  0.00     0.148 A 
ATOM     59  C   UNL     1       6.717   8.524  -1.617  1.00  0.00     0.002 A 
ATOM     60  C   UNL     1       8.711   7.286  -1.005  1.00  0.00     0.091 A 
ATOM     61  F   UNL     1       8.833   6.261   1.147  1.00  0.00    -0.205 F 
ATOM     62  C   UNL     1       7.980   8.036  -1.941  1.00  0.00     0.022 A 
BRANCH  60  63
ATOM     63  S   UNL     1      10.362   6.771  -1.494  1.00  0.00     0.127 S 
ATOM     64  O   UNL     1      10.066   5.742  -2.490  1.00  0.00    -0.237 OA
ATOM     65  O   UNL     1      10.921   8.007  -2.042  1.00  0.00    -0.237 OA
ATOM     66  O   UNL     1      11.011   6.297  -0.280  1.00  0.00    -0.744 OA
ENDBRANCH  60  63
ENDBRANCH  42  56
BRANCH  43  67
ATOM     67  C   UNL     1       3.157   5.656   9.655  1.00  0.00     0.023 A 
ATOM     68  C   UNL     1       2.514   6.669  10.393  1.00  0.00     0.012 A 
ATOM     69  C   UNL     1       3.264   4.366  10.209  1.00  0.00     0.148 A 
ATOM     70  C   UNL     1       2.017   6.412  11.671  1.00  0.00     0.002 A 
ATOM     71  C   UNL     1       2.719   4.103  11.460  1.00  0.00     0.091 A 
ATOM     72  F   UNL     1       3.892   3.419   9.497  1.00  0.00    -0.205 F 
ATOM     73  C   UNL     1       2.110   5.128  12.200  1.00  0.00     0.022 A 
BRANCH  71  74
ATOM     74  S   UNL     1       2.680   2.449  12.159  1.00  0.00     0.127 S 
ATOM     75  O   UNL     1       3.712   2.534  13.189  1.00  0.00    -0.237 OA
ATOM     76  O   UNL     1       1.309   2.364  12.666  1.00  0.00    -0.237 OA
ATOM     77  O   UNL     1       2.961   1.550  11.048  1.00  0.00    -0.744 OA
ENDBRANCH  71  74
ENDBRANCH  43  67
BRANCH  55  78
ATOM     78  C   UNL     1       8.169   9.899   7.275  1.00  0.00     0.023 A 
ATOM     79  C   UNL     1       9.248   9.421   8.043  1.00  0.00     0.012 A 
ATOM     80  C   UNL     1       8.013  11.288   7.091  1.00  0.00     0.148 A 
ATOM     81  C   UNL     1      10.138  10.309   8.646  1.00  0.00     0.002 A 
ATOM     82  C   UNL     1       8.932  12.165   7.655  1.00  0.00     0.091 A 
ATOM     83  F   UNL     1       6.969  11.726   6.373  1.00  0.00    -0.205 F 
ATOM     84  C   UNL     1       9.987  11.679   8.443  1.00  0.00     0.022 A 
BRANCH  82  85
ATOM     85  S   UNL     1       8.868  13.937   7.364  1.00  0.00     0.127 S 
ATOM     86  O   UNL     1       8.339  14.429   8.635  1.00  0.00    -0.237 OA
ATOM     87  O   UNL     1      10.274  14.265   7.122  1.00  0.00    -0.237 OA
ATOM     88  O   UNL     1       8.000  14.121   6.209  1.00  0.00    -0.744 OA
ENDBRANCH  82  85
ENDBRANCH  55  78
ENDBRANCH  29  30
ENDBRANCH  21  24
ENDBRANCH  19  20
ENDBRANCH  18  19
ENDBRANCH   1  18
TORSDOF 17
