REMARK SMILES O=C(NCCCNC(=O)[C@@H]1Cc2ccccc2CN1C(=O)COc1ccccc1)c1ccc(-c2c3nc(c(-c4cccc(S(=O)(=O)[O-])c4F)c4ccc([nH]4)c(-c4cccc(S(=O)(=O)[O-])c4F)c4nc(c(-c5cccc(S(=O)(=O)[O-])c5F)c5ccc2[nH]5)C=C4)C=C3)cc1
REMARK SMILES IDX 5 1 4 2 3 3 1 4 2 5 30 7 31 8 92 9 32 10 91 11 33 12 34 13
REMARK SMILES IDX 35 14 85 15 36 16 90 17 84 18 86 19 37 20 89 21 83 22 82 23
REMARK SMILES IDX 38 25 70 26 50 27 69 28 51 29 54 30 68 31 87 32 52 33 53 34
REMARK SMILES IDX 67 36 88 37 55 38 39 39 40 40 48 41 41 42 43 43 49 44 42 45
REMARK SMILES IDX 44 46 45 47 46 48 47 49 71 50 72 51 80 52 73 53 75 54 81 55
REMARK SMILES IDX 74 56 76 57 77 58 78 59 79 60 56 61 57 62 65 63 58 64 60 65
REMARK SMILES IDX 66 66 59 67 61 68 62 69 63 70 64 71 6 72 7 73 8 74 9 76
REMARK SMILES IDX 10 77 11 78 19 79 12 80 18 81 13 82 17 83 14 84 16 85 15 86
REMARK SMILES IDX 20 87 21 88 22 89 23 90 24 91 25 92 29 93 26 94 28 95 27 96
REMARK H PARENT 3 6 86 24 54 35 7 75
REMARK Flexibility Score: inf
ROOT
ATOM      1  C   UNL     1       5.756 -10.184   2.769  1.00  0.00     0.042 C 
ENDROOT
BRANCH   1   2
ATOM      2  C   UNL     1       6.837 -11.239   2.551  1.00  0.00     0.118 C 
BRANCH   2   3
ATOM      3  N   UNL     1       7.366 -11.758   3.798  1.00  0.00    -0.352 N 
ATOM      4  O   UNL     1       7.764 -13.302   5.381  1.00  0.00    -0.269 OA
ATOM      5  C   UNL     1       7.478 -13.064   4.209  1.00  0.00     0.251 C 
ATOM      6  H   UNL     1       7.689 -11.082   4.437  1.00  0.00     0.163 HD
BRANCH   5   7
ATOM      7  C   UNL     1       7.237 -14.171   3.256  1.00  0.00     0.039 A 
ATOM      8  C   UNL     1       7.743 -14.122   1.954  1.00  0.00     0.014 A 
ATOM      9  C   UNL     1       6.520 -15.292   3.683  1.00  0.00     0.014 A 
ATOM     10  C   UNL     1       7.435 -15.134   1.049  1.00  0.00     0.010 A 
ATOM     11  C   UNL     1       6.282 -16.346   2.796  1.00  0.00     0.010 A 
ATOM     12  C   UNL     1       6.720 -16.268   1.466  1.00  0.00    -0.014 A 
BRANCH  12  13
ATOM     13  C   UNL     1       6.528 -17.400   0.522  1.00  0.00     0.031 A 
ATOM     14  C   UNL     1       5.157 -17.826   0.075  1.00  0.00     0.074 A 
ATOM     15  C   UNL     1       7.617 -18.059   0.080  1.00  0.00     0.049 A 
ATOM     16  N   UNL     1       4.825 -18.784  -0.752  1.00  0.00    -0.248 NA
ATOM     17  C   UNL     1       4.010 -17.092   0.632  1.00  0.00     0.031 C 
ATOM     18  C   UNL     1       8.996 -17.769   0.484  1.00  0.00     0.029 A 
ATOM     19  N   UNL     1       7.743 -19.108  -0.795  1.00  0.00    -0.354 N 
ATOM     20  C   UNL     1       3.436 -18.795  -0.790  1.00  0.00     0.074 A 
ATOM     21  C   UNL     1       2.985 -17.752   0.107  1.00  0.00     0.031 C 
ATOM     22  C   UNL     1       9.828 -18.604  -0.154  1.00  0.00     0.029 A 
ATOM     23  C   UNL     1       9.043 -19.522  -0.971  1.00  0.00     0.049 A 
ATOM     24  H   UNL     1       6.977 -19.524  -1.252  1.00  0.00     0.167 HD
ATOM     25  C   UNL     1       2.614 -19.591  -1.516  1.00  0.00     0.034 A 
ATOM     26  C   UNL     1       9.550 -20.540  -1.692  1.00  0.00     0.034 A 
ATOM     27  C   UNL     1       3.072 -20.610  -2.426  1.00  0.00     0.049 A 
ATOM     28  C   UNL     1       8.615 -21.396  -2.496  1.00  0.00     0.074 A 
ATOM     29  C   UNL     1       2.319 -21.421  -3.258  1.00  0.00     0.029 A 
ATOM     30  N   UNL     1       4.398 -20.972  -2.612  1.00  0.00    -0.354 N 
ATOM     31  N   UNL     1       7.314 -21.298  -2.626  1.00  0.00    -0.248 NA
ATOM     32  C   UNL     1       9.219 -22.484  -3.276  1.00  0.00     0.031 C 
ATOM     33  C   UNL     1       3.187 -22.292  -3.925  1.00  0.00     0.029 A 
ATOM     34  C   UNL     1       4.484 -22.003  -3.534  1.00  0.00     0.049 A 
ATOM     35  H   UNL     1       5.165 -20.556  -2.157  1.00  0.00     0.167 HD
ATOM     36  C   UNL     1       6.946 -22.294  -3.521  1.00  0.00     0.074 A 
ATOM     37  C   UNL     1       8.166 -22.965  -3.923  1.00  0.00     0.031 C 
ATOM     38  C   UNL     1       5.708 -22.634  -3.958  1.00  0.00     0.034 A 
BRANCH  25  39
ATOM     39  C   UNL     1       1.127 -19.375  -1.387  1.00  0.00     0.023 A 
ATOM     40  C   UNL     1       0.536 -18.231  -1.961  1.00  0.00     0.012 A 
ATOM     41  C   UNL     1       0.306 -20.335  -0.761  1.00  0.00     0.148 A 
ATOM     42  C   UNL     1      -0.843 -18.030  -1.888  1.00  0.00     0.002 A 
ATOM     43  C   UNL     1      -1.071 -20.149  -0.730  1.00  0.00     0.091 A 
ATOM     44  F   UNL     1       0.886 -21.408  -0.205  1.00  0.00    -0.205 F 
ATOM     45  C   UNL     1      -1.646 -18.992  -1.282  1.00  0.00     0.022 A 
BRANCH  43  46
ATOM     46  S   UNL     1      -2.200 -21.367  -0.043  1.00  0.00     0.127 S 
ATOM     47  O   UNL     1      -2.639 -20.702   1.184  1.00  0.00    -0.237 OA
ATOM     48  O   UNL     1      -3.223 -21.462  -1.084  1.00  0.00    -0.237 OA
ATOM     49  O   UNL     1      -1.415 -22.578   0.148  1.00  0.00    -0.744 OA
ENDBRANCH  43  46
ENDBRANCH  25  39
BRANCH  26  50
ATOM     50  C   UNL     1      11.021 -20.771  -1.710  1.00  0.00     0.023 A 
ATOM     51  C   UNL     1      11.749 -20.516  -2.888  1.00  0.00     0.012 A 
ATOM     52  C   UNL     1      11.707 -21.195  -0.555  1.00  0.00     0.148 A 
ATOM     53  C   UNL     1      13.131 -20.705  -2.922  1.00  0.00     0.002 A 
ATOM     54  C   UNL     1      13.090 -21.323  -0.579  1.00  0.00     0.091 A 
ATOM     55  F   UNL     1      10.993 -21.444   0.552  1.00  0.00    -0.205 F 
ATOM     56  C   UNL     1      13.802 -21.096  -1.766  1.00  0.00     0.022 A 
BRANCH  54  57
ATOM     57  S   UNL     1      14.047 -21.682   0.897  1.00  0.00     0.127 S 
ATOM     58  O   UNL     1      14.488 -23.051   0.642  1.00  0.00    -0.237 OA
ATOM     59  O   UNL     1      15.103 -20.671   0.827  1.00  0.00    -0.237 OA
ATOM     60  O   UNL     1      13.127 -21.510   2.013  1.00  0.00    -0.744 OA
ENDBRANCH  54  57
ENDBRANCH  26  50
BRANCH  38  61
ATOM     61  C   UNL     1       5.609 -23.767  -4.945  1.00  0.00     0.023 A 
ATOM     62  C   UNL     1       5.832 -25.091  -4.517  1.00  0.00     0.012 A 
ATOM     63  C   UNL     1       5.238 -23.526  -6.282  1.00  0.00     0.148 A 
ATOM     64  C   UNL     1       5.722 -26.154  -5.412  1.00  0.00     0.002 A 
ATOM     65  C   UNL     1       5.080 -24.595  -7.157  1.00  0.00     0.091 A 
ATOM     66  F   UNL     1       5.050 -22.258  -6.675  1.00  0.00    -0.205 F 
ATOM     67  C   UNL     1       5.335 -25.907  -6.727  1.00  0.00     0.022 A 
BRANCH  65  68
ATOM     68  S   UNL     1       4.494 -24.381  -8.841  1.00  0.00     0.127 S 
ATOM     69  O   UNL     1       5.710 -24.633  -9.614  1.00  0.00    -0.237 OA
ATOM     70  O   UNL     1       3.475 -25.425  -8.950  1.00  0.00    -0.237 OA
ATOM     71  O   UNL     1       3.977 -23.022  -8.917  1.00  0.00    -0.744 OA
ENDBRANCH  65  68
ENDBRANCH  38  61
ENDBRANCH  12  13
ENDBRANCH   5   7
ENDBRANCH   2   3
ENDBRANCH   1   2
BRANCH   1  72
ATOM     72  C   UNL     1       6.262  -8.867   3.367  1.00  0.00     0.117 C 
BRANCH  72  73
ATOM     73  N   UNL     1       7.212  -8.230   2.475  1.00  0.00    -0.354 N 
ATOM     74  C   UNL     1       7.129  -7.188   1.614  1.00  0.00     0.243 C 
ATOM     75  H   UNL     1       8.105  -8.642   2.500  1.00  0.00     0.163 HD
ATOM     76  O   UNL     1       8.001  -7.176   0.733  1.00  0.00    -0.273 OA
BRANCH  74  77
ATOM     77  C   UNL     1       6.235  -5.938   1.801  1.00  0.00     0.179 C 
ATOM     78  C   UNL     1       7.250  -4.866   2.292  1.00  0.00     0.071 C 
ATOM     79  N   UNL     1       4.987  -5.960   2.612  1.00  0.00    -0.323 N 
ATOM     80  C   UNL     1       6.571  -3.547   2.511  1.00  0.00    -0.040 A 
ATOM     81  C   UNL     1       4.816  -4.917   3.634  1.00  0.00     0.156 C 
ATOM     82  C   UNL     1       7.141  -2.336   2.111  1.00  0.00     0.004 A 
ATOM     83  C   UNL     1       5.328  -3.575   3.158  1.00  0.00    -0.025 A 
ATOM     84  C   UNL     1       6.454  -1.145   2.330  1.00  0.00     0.000 A 
ATOM     85  C   UNL     1       4.644  -2.375   3.371  1.00  0.00     0.006 A 
ATOM     86  C   UNL     1       5.204  -1.165   2.950  1.00  0.00     0.000 A 
BRANCH  79  87
ATOM     87  C   UNL     1       3.848  -6.689   2.285  1.00  0.00     0.261 C 
ATOM     88  O   UNL     1       2.872  -6.729   3.041  1.00  0.00    -0.271 OA
BRANCH  87  89
ATOM     89  C   UNL     1       3.817  -7.483   0.976  1.00  0.00     0.329 C 
BRANCH  89  90
ATOM     90  O   UNL     1       4.072  -6.748  -0.209  1.00  0.00    -0.484 OA
BRANCH  90  91
ATOM     91  C   UNL     1       2.957  -6.147  -0.718  1.00  0.00     0.120 A 
ATOM     92  C   UNL     1       2.625  -6.454  -2.035  1.00  0.00     0.046 A 
ATOM     93  C   UNL     1       2.220  -5.197  -0.010  1.00  0.00     0.046 A 
ATOM     94  C   UNL     1       1.532  -5.835  -2.638  1.00  0.00     0.004 A 
ATOM     95  C   UNL     1       1.125  -4.580  -0.613  1.00  0.00     0.004 A 
ATOM     96  C   UNL     1       0.781  -4.899  -1.925  1.00  0.00     0.000 A 
ENDBRANCH  90  91
ENDBRANCH  89  90
ENDBRANCH  87  89
ENDBRANCH  79  87
ENDBRANCH  74  77
ENDBRANCH  72  73
ENDBRANCH   1  72
TORSDOF 17
