REMARK SMILES O=C(NCCCNC(=O)[C@]1(CCc2ccccc2)C[C@H]2CC[C@@H]1O2)c1ccc(-c2c3nc(c(-c4cccc(S(=O)(=O)[O-])c4F)c4ccc([nH]4)c(-c4cccc(S(=O)(=O)[O-])c4F)c4nc(c(-c5cccc(S(=O)(=O)[O-])c5F)c5ccc2[nH]5)C=C4)C=C3)cc1
REMARK SMILES IDX 5 1 4 2 3 3 1 4 2 5 25 7 26 8 87 9 27 10 86 11 28 12 29 13
REMARK SMILES IDX 30 14 80 15 31 16 85 17 79 18 81 19 32 20 84 21 78 22 77 23
REMARK SMILES IDX 33 25 65 26 45 27 64 28 46 29 49 30 63 31 82 32 47 33 48 34
REMARK SMILES IDX 62 36 83 37 50 38 34 39 35 40 43 41 36 42 38 43 44 44 37 45
REMARK SMILES IDX 39 46 40 47 41 48 42 49 66 50 67 51 75 52 68 53 70 54 76 55
REMARK SMILES IDX 69 56 71 57 72 58 73 59 74 60 51 61 52 62 60 63 53 64 55 65
REMARK SMILES IDX 61 66 54 67 56 68 57 69 58 70 59 71 6 72 7 73 8 74 9 76
REMARK SMILES IDX 10 77 19 78 23 79 20 80 22 81 24 82 21 83 11 84 12 85 13 86
REMARK SMILES IDX 14 87 18 88 15 89 17 90 16 91
REMARK H PARENT 3 6 81 24 49 35 7 75
REMARK Flexibility Score: inf
ROOT
ATOM      1  C   UNL     1       4.545  -1.230  -2.143  1.00  0.00     0.042 C 
ENDROOT
BRANCH   1   2
ATOM      2  C   UNL     1       4.340   0.106  -1.437  1.00  0.00     0.118 C 
BRANCH   2   3
ATOM      3  N   UNL     1       2.937   0.346  -1.113  1.00  0.00    -0.352 N 
ATOM      4  O   UNL     1       1.036   0.193   0.071  1.00  0.00    -0.269 OA
ATOM      5  C   UNL     1       2.263   0.238   0.079  1.00  0.00     0.251 C 
ATOM      6  H   UNL     1       2.383   0.632  -1.875  1.00  0.00     0.163 HD
BRANCH   5   7
ATOM      7  C   UNL     1       3.004   0.181   1.356  1.00  0.00     0.039 A 
ATOM      8  C   UNL     1       4.139   0.969   1.549  1.00  0.00     0.014 A 
ATOM      9  C   UNL     1       2.523  -0.615   2.400  1.00  0.00     0.014 A 
ATOM     10  C   UNL     1       4.878   0.849   2.718  1.00  0.00     0.010 A 
ATOM     11  C   UNL     1       3.209  -0.654   3.618  1.00  0.00     0.010 A 
ATOM     12  C   UNL     1       4.406   0.059   3.778  1.00  0.00    -0.014 A 
BRANCH  12  13
ATOM     13  C   UNL     1       5.137   0.085   5.069  1.00  0.00     0.031 A 
ATOM     14  C   UNL     1       5.769  -1.154   5.636  1.00  0.00     0.074 A 
ATOM     15  C   UNL     1       5.231   1.258   5.725  1.00  0.00     0.049 A 
ATOM     16  N   UNL     1       6.471  -1.286   6.732  1.00  0.00    -0.248 NA
ATOM     17  C   UNL     1       5.587  -2.408   4.887  1.00  0.00     0.031 C 
ATOM     18  C   UNL     1       4.615   2.516   5.290  1.00  0.00     0.029 A 
ATOM     19  N   UNL     1       5.874   1.592   6.889  1.00  0.00    -0.354 N 
ATOM     20  C   UNL     1       6.779  -2.637   6.829  1.00  0.00     0.074 A 
ATOM     21  C   UNL     1       6.183  -3.287   5.681  1.00  0.00     0.031 C 
ATOM     22  C   UNL     1       4.933   3.487   6.156  1.00  0.00     0.029 A 
ATOM     23  C   UNL     1       5.720   2.913   7.239  1.00  0.00     0.049 A 
ATOM     24  H   UNL     1       6.395   0.949   7.422  1.00  0.00     0.167 HD
ATOM     25  C   UNL     1       7.502  -3.272   7.783  1.00  0.00     0.034 A 
ATOM     26  C   UNL     1       6.145   3.587   8.324  1.00  0.00     0.034 A 
ATOM     27  C   UNL     1       8.111  -2.610   8.907  1.00  0.00     0.049 A 
ATOM     28  C   UNL     1       6.959   2.860   9.353  1.00  0.00     0.074 A 
ATOM     29  C   UNL     1       8.921  -3.153   9.889  1.00  0.00     0.029 A 
ATOM     30  N   UNL     1       7.968  -1.264   9.209  1.00  0.00    -0.354 N 
ATOM     31  N   UNL     1       7.352   1.609   9.357  1.00  0.00    -0.248 NA
ATOM     32  C   UNL     1       7.413   3.639  10.512  1.00  0.00     0.031 C 
ATOM     33  C   UNL     1       9.239  -2.143  10.803  1.00  0.00     0.029 A 
ATOM     34  C   UNL     1       8.659  -0.961  10.371  1.00  0.00     0.049 A 
ATOM     35  H   UNL     1       7.451  -0.618   8.676  1.00  0.00     0.167 HD
ATOM     36  C   UNL     1       8.119   1.456  10.504  1.00  0.00     0.074 A 
ATOM     37  C   UNL     1       8.159   2.751  11.154  1.00  0.00     0.031 C 
ATOM     38  C   UNL     1       8.723   0.342  10.983  1.00  0.00     0.034 A 
BRANCH  25  39
ATOM     39  C   UNL     1       7.697  -4.761   7.647  1.00  0.00     0.023 A 
ATOM     40  C   UNL     1       8.561  -5.266   6.654  1.00  0.00     0.012 A 
ATOM     41  C   UNL     1       7.084  -5.654   8.548  1.00  0.00     0.148 A 
ATOM     42  C   UNL     1       8.788  -6.638   6.541  1.00  0.00     0.002 A 
ATOM     43  C   UNL     1       7.349  -7.016   8.456  1.00  0.00     0.091 A 
ATOM     44  F   UNL     1       6.251  -5.158   9.473  1.00  0.00    -0.205 F 
ATOM     45  C   UNL     1       8.192  -7.510   7.447  1.00  0.00     0.022 A 
BRANCH  43  46
ATOM     46  S   UNL     1       6.693  -8.213   9.625  1.00  0.00     0.127 S 
ATOM     47  O   UNL     1       5.729  -8.935   8.796  1.00  0.00    -0.237 OA
ATOM     48  O   UNL     1       7.887  -8.982   9.979  1.00  0.00    -0.237 OA
ATOM     49  O   UNL     1       6.123  -7.438  10.717  1.00  0.00    -0.744 OA
ENDBRANCH  43  46
ENDBRANCH  25  39
BRANCH  26  50
ATOM     50  C   UNL     1       5.826   5.035   8.465  1.00  0.00     0.023 A 
ATOM     51  C   UNL     1       6.855   5.990   8.362  1.00  0.00     0.012 A 
ATOM     52  C   UNL     1       4.498   5.471   8.647  1.00  0.00     0.148 A 
ATOM     53  C   UNL     1       6.572   7.352   8.464  1.00  0.00     0.002 A 
ATOM     54  C   UNL     1       4.215   6.830   8.686  1.00  0.00     0.091 A 
ATOM     55  F   UNL     1       3.535   4.545   8.754  1.00  0.00    -0.205 F 
ATOM     56  C   UNL     1       5.252   7.773   8.613  1.00  0.00     0.022 A 
BRANCH  54  57
ATOM     57  S   UNL     1       2.534   7.460   8.731  1.00  0.00     0.127 S 
ATOM     58  O   UNL     1       2.453   7.997  10.086  1.00  0.00    -0.237 OA
ATOM     59  O   UNL     1       2.562   8.468   7.669  1.00  0.00    -0.237 OA
ATOM     60  O   UNL     1       1.678   6.316   8.449  1.00  0.00    -0.744 OA
ENDBRANCH  54  57
ENDBRANCH  26  50
BRANCH  38  61
ATOM     61  C   UNL     1       9.508   0.476  12.261  1.00  0.00     0.023 A 
ATOM     62  C   UNL     1       8.833   0.650  13.486  1.00  0.00     0.012 A 
ATOM     63  C   UNL     1      10.912   0.370  12.254  1.00  0.00     0.148 A 
ATOM     64  C   UNL     1       9.546   0.751  14.679  1.00  0.00     0.002 A 
ATOM     65  C   UNL     1      11.613   0.419  13.452  1.00  0.00     0.091 A 
ATOM     66  F   UNL     1      11.537   0.226  11.076  1.00  0.00    -0.205 F 
ATOM     67  C   UNL     1      10.933   0.623  14.664  1.00  0.00     0.022 A 
BRANCH  65  68
ATOM     68  S   UNL     1      13.389   0.167  13.539  1.00  0.00     0.127 S 
ATOM     69  O   UNL     1      13.866   1.516  13.842  1.00  0.00    -0.237 OA
ATOM     70  O   UNL     1      13.513  -0.786  14.642  1.00  0.00    -0.237 OA
ATOM     71  O   UNL     1      13.784  -0.358  12.239  1.00  0.00    -0.744 OA
ENDBRANCH  65  68
ENDBRANCH  38  61
ENDBRANCH  12  13
ENDBRANCH   5   7
ENDBRANCH   2   3
ENDBRANCH   1   2
BRANCH   1  72
ATOM     72  C   UNL     1       3.827  -1.302  -3.481  1.00  0.00     0.117 C 
BRANCH  72  73
ATOM     73  N   UNL     1       4.438  -0.452  -4.489  1.00  0.00    -0.355 N 
ATOM     74  C   UNL     1       5.034  -0.743  -5.671  1.00  0.00     0.228 C 
ATOM     75  H   UNL     1       4.415   0.508  -4.274  1.00  0.00     0.163 HD
ATOM     76  O   UNL     1       4.890   0.124  -6.545  1.00  0.00    -0.274 OA
BRANCH  74  77
ATOM     77  C   UNL     1       5.950  -1.961  -5.946  1.00  0.00     0.078 C 
ATOM     78  C   UNL     1       5.572  -2.470  -7.367  1.00  0.00     0.051 C 
ATOM     79  C   UNL     1       5.638  -3.231  -5.134  1.00  0.00     0.134 C 
ATOM     80  C   UNL     1       4.852  -3.793  -7.069  1.00  0.00     0.120 C 
ATOM     81  C   UNL     1       6.463  -4.478  -5.493  1.00  0.00     0.036 C 
ATOM     82  O   UNL     1       4.368  -3.605  -5.722  1.00  0.00    -0.374 OA
ATOM     83  C   UNL     1       5.873  -4.895  -6.839  1.00  0.00     0.035 C 
BRANCH  77  84
ATOM     84  C   UNL     1       7.445  -1.564  -5.794  1.00  0.00     0.024 C 
BRANCH  84  85
ATOM     85  C   UNL     1       7.968  -0.339  -6.570  1.00  0.00     0.037 C 
BRANCH  85  86
ATOM     86  C   UNL     1       7.719   1.050  -6.026  1.00  0.00    -0.048 A 
ATOM     87  C   UNL     1       7.868   2.140  -6.901  1.00  0.00     0.004 A 
ATOM     88  C   UNL     1       7.358   1.313  -4.698  1.00  0.00     0.004 A 
ATOM     89  C   UNL     1       7.590   3.442  -6.482  1.00  0.00     0.000 A 
ATOM     90  C   UNL     1       7.061   2.614  -4.284  1.00  0.00     0.000 A 
ATOM     91  C   UNL     1       7.168   3.676  -5.178  1.00  0.00     0.000 A 
ENDBRANCH  85  86
ENDBRANCH  84  85
ENDBRANCH  77  84
ENDBRANCH  74  77
ENDBRANCH  72  73
ENDBRANCH   1  72
TORSDOF 16
