REMARK SMILES Cc1cc(NCc2ccc(C(=O)NCCCNC(=O)c3ccc(-c4c5nc(c(-c6cccc(S(=O)(=O)[O-])c6F)c6ccc([nH]6)c(-c6cccc(S(=O)(=O)[O-])c6F)c6nc(c(-c7cccc(S(=O)(=O)[O-])c7F)c7ccc4[nH]7)C=C6)C=C5)cc3)o2)ccc1F
REMARK SMILES IDX 15 1 14 2 13 3 11 4 12 5 10 7 7 8 8 9 83 10 9 11 6 12 5 13
REMARK SMILES IDX 4 15 1 16 2 17 3 18 86 19 85 20 87 21 84 22 16 23 17 24
REMARK SMILES IDX 18 25 19 27 20 28 21 29 82 30 22 31 81 32 23 33 24 34 25 35
REMARK SMILES IDX 75 36 26 37 80 38 74 39 76 40 27 41 79 42 73 43 72 44 28 46
REMARK SMILES IDX 60 47 40 48 59 49 41 50 44 51 58 52 77 53 42 54 43 55 57 57
REMARK SMILES IDX 78 58 45 59 29 60 30 61 38 62 31 63 33 64 39 65 32 66 34 67
REMARK SMILES IDX 35 68 36 69 37 70 61 71 62 72 70 73 63 74 65 75 71 76 64 77
REMARK SMILES IDX 66 78 67 79 68 80 69 81 46 82 47 83 55 84 48 85 50 86 56 87
REMARK SMILES IDX 49 88 51 89 52 90 53 91 54 92
REMARK H PARENT 13 6 5 14 17 26 76 45 44 56
REMARK Flexibility Score: inf
ROOT
ATOM      1  C   UNL     1      -8.045   0.034   5.403  1.00  0.00     0.042 C 
ENDROOT
BRANCH   1   2
ATOM      2  C   UNL     1      -8.652   0.895   4.293  1.00  0.00     0.118 C 
BRANCH   2   3
ATOM      3  N   UNL     1      -7.859   2.085   4.046  1.00  0.00    -0.349 N 
ATOM      4  C   UNL     1      -6.805   2.260   3.180  1.00  0.00     0.286 C 
ATOM      5  O   UNL     1      -6.376   3.408   3.043  1.00  0.00    -0.266 OA
ATOM      6  H   UNL     1      -8.112   2.878   4.572  1.00  0.00     0.163 HD
BRANCH   4   7
ATOM      7  C   UNL     1      -6.262   1.126   2.451  1.00  0.00     0.191 A 
ATOM      8  C   UNL     1      -5.186   0.232   0.739  1.00  0.00     0.124 A 
ATOM      9  C   UNL     1      -5.539  -0.818   1.549  1.00  0.00     0.048 A 
ATOM     10  O   UNL     1      -5.610   1.407   1.278  1.00  0.00    -0.454 OA
ATOM     11  C   UNL     1      -6.214  -0.244   2.650  1.00  0.00     0.056 A 
BRANCH   8  12
ATOM     12  C   UNL     1      -4.453   0.338  -0.544  1.00  0.00     0.188 C 
BRANCH  12  13
ATOM     13  N   UNL     1      -3.195   1.051  -0.435  1.00  0.00    -0.378 N 
ATOM     14  H   UNL     1      -3.224   2.029  -0.547  1.00  0.00     0.161 HD
BRANCH  13  15
ATOM     15  C   UNL     1      -1.960   0.486  -0.188  1.00  0.00     0.035 A 
ATOM     16  C   UNL     1       1.633   1.777   0.043  1.00  0.00     0.047 C 
ATOM     17  C   UNL     1       0.459   0.850   0.009  1.00  0.00    -0.013 A 
ATOM     18  C   UNL     1      -0.847   1.340  -0.126  1.00  0.00     0.032 A 
ATOM     19  C   UNL     1       0.646  -0.528   0.077  1.00  0.00     0.126 A 
ATOM     20  C   UNL     1      -0.434  -1.399   0.025  1.00  0.00     0.041 A 
ATOM     21  F   UNL     1       1.884  -1.033   0.180  1.00  0.00    -0.207 F 
ATOM     22  C   UNL     1      -1.730  -0.892  -0.114  1.00  0.00     0.029 A 
ENDBRANCH  13  15
ENDBRANCH  12  13
ENDBRANCH   8  12
ENDBRANCH   4   7
ENDBRANCH   2   3
ENDBRANCH   1   2
BRANCH   1  23
ATOM     23  C   UNL     1      -8.600   0.429   6.749  1.00  0.00     0.118 C 
BRANCH  23  24
ATOM     24  N   UNL     1      -9.942  -0.106   6.967  1.00  0.00    -0.352 N 
ATOM     25  C   UNL     1     -10.613  -0.247   8.172  1.00  0.00     0.251 C 
ATOM     26  H   UNL     1     -10.427  -0.403   6.163  1.00  0.00     0.163 HD
ATOM     27  O   UNL     1     -11.523  -1.043   8.299  1.00  0.00    -0.269 OA
BRANCH  25  28
ATOM     28  C   UNL     1     -10.147   0.574   9.309  1.00  0.00     0.039 A 
ATOM     29  C   UNL     1     -10.230   0.136  10.635  1.00  0.00     0.014 A 
ATOM     30  C   UNL     1      -9.627   1.826   9.014  1.00  0.00     0.014 A 
ATOM     31  C   UNL     1      -9.749   0.964  11.652  1.00  0.00     0.010 A 
ATOM     32  C   UNL     1      -8.933   2.513   9.960  1.00  0.00     0.010 A 
ATOM     33  C   UNL     1      -9.098   2.149  11.293  1.00  0.00    -0.014 A 
BRANCH  33  34
ATOM     34  C   UNL     1      -8.692   3.205  12.203  1.00  0.00     0.031 A 
ATOM     35  C   UNL     1      -7.630   3.012  13.187  1.00  0.00     0.074 A 
ATOM     36  C   UNL     1      -9.265   4.411  11.988  1.00  0.00     0.049 A 
ATOM     37  N   UNL     1      -7.556   3.653  14.299  1.00  0.00    -0.248 NA
ATOM     38  C   UNL     1      -6.558   2.041  13.006  1.00  0.00     0.031 C 
ATOM     39  C   UNL     1      -8.900   5.726  12.481  1.00  0.00     0.029 A 
ATOM     40  N   UNL     1     -10.445   4.641  11.297  1.00  0.00    -0.354 N 
ATOM     41  C   UNL     1      -6.277   3.477  14.777  1.00  0.00     0.074 A 
ATOM     42  C   UNL     1      -5.761   2.344  14.038  1.00  0.00     0.031 C 
ATOM     43  C   UNL     1      -9.945   6.559  12.302  1.00  0.00     0.029 A 
ATOM     44  C   UNL     1     -11.069   5.764  11.819  1.00  0.00     0.049 A 
ATOM     45  H   UNL     1     -10.787   4.094  10.553  1.00  0.00     0.167 HD
ATOM     46  C   UNL     1      -5.739   4.437  15.589  1.00  0.00     0.034 A 
ATOM     47  C   UNL     1     -12.270   5.597  12.453  1.00  0.00     0.034 A 
ATOM     48  C   UNL     1      -6.698   5.526  15.791  1.00  0.00     0.049 A 
ATOM     49  C   UNL     1     -12.127   5.883  13.926  1.00  0.00     0.074 A 
ATOM     50  C   UNL     1      -6.795   6.787  15.223  1.00  0.00     0.029 A 
ATOM     51  N   UNL     1      -7.923   5.278  16.402  1.00  0.00    -0.354 N 
ATOM     52  N   UNL     1     -11.020   5.718  14.598  1.00  0.00    -0.248 NA
ATOM     53  C   UNL     1     -13.203   6.440  14.734  1.00  0.00     0.031 C 
ATOM     54  C   UNL     1      -8.112   7.266  15.438  1.00  0.00     0.029 A 
ATOM     55  C   UNL     1      -8.809   6.310  16.158  1.00  0.00     0.049 A 
ATOM     56  H   UNL     1      -8.131   4.476  16.935  1.00  0.00     0.167 HD
ATOM     57  C   UNL     1     -11.180   6.227  15.861  1.00  0.00     0.074 A 
ATOM     58  C   UNL     1     -12.572   6.638  15.905  1.00  0.00     0.031 C 
ATOM     59  C   UNL     1     -10.145   6.311  16.749  1.00  0.00     0.034 A 
BRANCH  46  60
ATOM     60  C   UNL     1      -4.257   4.555  15.915  1.00  0.00     0.023 A 
ATOM     61  C   UNL     1      -3.365   3.466  15.813  1.00  0.00     0.012 A 
ATOM     62  C   UNL     1      -3.676   5.782  16.316  1.00  0.00     0.148 A 
ATOM     63  C   UNL     1      -1.977   3.603  15.956  1.00  0.00     0.002 A 
ATOM     64  C   UNL     1      -2.294   5.914  16.488  1.00  0.00     0.091 A 
ATOM     65  F   UNL     1      -4.448   6.851  16.549  1.00  0.00    -0.205 F 
ATOM     66  C   UNL     1      -1.436   4.835  16.282  1.00  0.00     0.022 A 
BRANCH  64  67
ATOM     67  S   UNL     1      -1.616   7.503  16.984  1.00  0.00     0.127 S 
ATOM     68  O   UNL     1      -1.958   8.367  15.859  1.00  0.00    -0.237 OA
ATOM     69  O   UNL     1      -2.288   7.769  18.251  1.00  0.00    -0.237 OA
ATOM     70  O   UNL     1      -0.183   7.229  17.115  1.00  0.00    -0.744 OA
ENDBRANCH  64  67
ENDBRANCH  46  60
BRANCH  47  71
ATOM     71  C   UNL     1     -13.087   4.488  11.842  1.00  0.00     0.023 A 
ATOM     72  C   UNL     1     -13.090   3.196  12.400  1.00  0.00     0.012 A 
ATOM     73  C   UNL     1     -13.431   4.628  10.476  1.00  0.00     0.148 A 
ATOM     74  C   UNL     1     -13.319   2.073  11.587  1.00  0.00     0.002 A 
ATOM     75  C   UNL     1     -13.559   3.505   9.658  1.00  0.00     0.091 A 
ATOM     76  F   UNL     1     -13.489   5.865   9.955  1.00  0.00    -0.205 F 
ATOM     77  C   UNL     1     -13.506   2.222  10.210  1.00  0.00     0.022 A 
BRANCH  75  78
ATOM     78  S   UNL     1     -13.468   3.707   7.869  1.00  0.00     0.127 S 
ATOM     79  O   UNL     1     -14.848   4.014   7.510  1.00  0.00    -0.237 OA
ATOM     80  O   UNL     1     -12.493   4.780   7.687  1.00  0.00    -0.237 OA
ATOM     81  O   UNL     1     -12.981   2.410   7.398  1.00  0.00    -0.744 OA
ENDBRANCH  75  78
ENDBRANCH  47  71
BRANCH  59  82
ATOM     82  C   UNL     1     -10.241   6.554  18.241  1.00  0.00     0.023 A 
ATOM     83  C   UNL     1      -9.036   6.804  18.954  1.00  0.00     0.012 A 
ATOM     84  C   UNL     1     -11.403   6.440  19.016  1.00  0.00     0.148 A 
ATOM     85  C   UNL     1      -8.983   6.908  20.345  1.00  0.00     0.002 A 
ATOM     86  C   UNL     1     -11.366   6.661  20.394  1.00  0.00     0.091 A 
ATOM     87  F   UNL     1     -12.557   6.054  18.461  1.00  0.00    -0.205 F 
ATOM     88  C   UNL     1     -10.160   6.859  21.070  1.00  0.00     0.022 A 
BRANCH  86  89
ATOM     89  S   UNL     1     -12.920   6.798  21.277  1.00  0.00     0.127 S 
ATOM     90  O   UNL     1     -13.555   7.938  20.619  1.00  0.00    -0.237 OA
ATOM     91  O   UNL     1     -13.548   5.498  21.067  1.00  0.00    -0.237 OA
ATOM     92  O   UNL     1     -12.507   7.053  22.657  1.00  0.00    -0.744 OA
ENDBRANCH  86  89
ENDBRANCH  59  82
ENDBRANCH  33  34
ENDBRANCH  25  28
ENDBRANCH  23  24
ENDBRANCH   1  23
TORSDOF 16
