REMARK SMILES Cc1ccc(S(=O)(=O)n2cc(C(=O)C(=O)N[C@H](Cc3c[nH]c4ccccc34)C(=O)NCC(=O)NCCCNC(=O)c3ccc(-c4c5nc(c(-c6cccc(S(=O)(=O)[O-])c6F)c6ccc([nH]6)c(-c6cccc(S(=O)(=O)[O-])c6F)c6nc(c(-c7cccc(S(=O)(=O)[O-])c7F)c7ccc4[nH]7)C=C6)C=C5)cc3)c3ccccc32)cc1
REMARK SMILES IDX 32 1 33 2 34 3 31 5 30 6 28 7 29 8 17 10 16 11 14 12 15 13
REMARK SMILES IDX 12 15 13 16 11 17 9 18 10 19 109 20 104 21 108 22 105 23
REMARK SMILES IDX 107 24 106 25 6 26 7 27 8 28 5 29 1 30 2 31 3 32 111 33 4 34
REMARK SMILES IDX 110 35 18 36 19 37 20 38 27 39 21 40 22 41 26 42 23 44 25 45
REMARK SMILES IDX 24 46 35 47 36 48 37 49 38 50 39 51 40 53 41 54 42 55 103 56
REMARK SMILES IDX 43 57 102 58 44 59 45 60 46 61 96 62 47 63 101 64 95 65
REMARK SMILES IDX 97 66 48 67 100 68 94 69 93 70 49 72 81 73 61 74 80 75 62 76
REMARK SMILES IDX 65 77 79 78 98 79 63 80 64 81 78 83 99 84 66 85 50 86 51 87
REMARK SMILES IDX 59 88 52 89 54 90 60 91 53 92 55 93 56 94 57 95 58 96 82 97
REMARK SMILES IDX 83 98 91 99 84 100 86 101 92 102 85 103 87 104 88 105 89 106
REMARK SMILES IDX 90 107 67 108 68 109 76 110 69 111 71 112 77 113 70 114
REMARK SMILES IDX 72 115 73 116 74 117 75 118
REMARK H PARENT 34 4 30 9 16 14 21 43 38 52 97 71 65 82
REMARK Flexibility Score: inf
ROOT
ATOM      1  C   UNL     1     -13.152   4.804  -2.247  1.00  0.00     0.239 C 
ATOM      2  O   UNL     1     -14.086   5.573  -2.484  1.00  0.00    -0.273 OA
ATOM      3  N   UNL     1     -11.911   5.128  -2.711  1.00  0.00    -0.355 N 
ATOM      4  H   UNL     1     -11.867   5.905  -3.314  1.00  0.00     0.163 HD
ENDROOT
BRANCH   1   5
ATOM      5  C   UNL     1     -13.343   3.622  -1.287  1.00  0.00     0.216 C 
BRANCH   5   6
ATOM      6  N   UNL     1     -12.719   2.390  -1.719  1.00  0.00    -0.345 N 
ATOM      7  C   UNL     1     -11.816   1.533  -1.195  1.00  0.00     0.243 C 
ATOM      8  O   UNL     1     -11.536   0.602  -1.961  1.00  0.00    -0.273 OA
ATOM      9  H   UNL     1     -13.027   2.109  -2.610  1.00  0.00     0.164 HD
BRANCH   7  10
ATOM     10  C   UNL     1     -11.158   1.600   0.225  1.00  0.00     0.176 C 
BRANCH  10  11
ATOM     11  N   UNL     1     -11.977   2.134   1.381  1.00  0.00    -0.337 N 
ATOM     12  C   UNL     1     -12.173   3.374   1.988  1.00  0.00     0.293 C 
ATOM     13  O   UNL     1     -12.929   3.471   2.950  1.00  0.00    -0.265 OA
ATOM     14  H   UNL     1     -12.506   1.426   1.814  1.00  0.00     0.164 HD
BRANCH  12  15
ATOM     15  C   UNL     1     -11.488   4.619   1.448  1.00  0.00     0.252 C 
ATOM     16  O   UNL     1     -10.639   4.382   0.591  1.00  0.00    -0.283 OA
BRANCH  15  17
ATOM     17  C   UNL     1     -11.676   6.026   1.821  1.00  0.00     0.054 A 
ATOM     18  N   UNL     1     -11.535   8.033   2.830  1.00  0.00    -0.240 N 
ATOM     19  C   UNL     1     -12.175   6.766   2.901  1.00  0.00     0.117 A 
ATOM     20  C   UNL     1     -10.511   7.867   1.866  1.00  0.00     0.065 A 
ATOM     21  C   UNL     1     -11.170   7.039   0.974  1.00  0.00     0.012 A 
ATOM     22  C   UNL     1      -9.491   8.731   1.445  1.00  0.00     0.028 A 
ATOM     23  C   UNL     1     -11.072   7.294  -0.398  1.00  0.00     0.011 A 
ATOM     24  C   UNL     1      -9.479   9.025   0.075  1.00  0.00     0.002 A 
ATOM     25  C   UNL     1     -10.280   8.347  -0.836  1.00  0.00     0.001 A 
BRANCH  18  26
ATOM     26  S   UNL     1     -12.321   9.588   2.532  1.00  0.00     0.268 S 
ATOM     27  O   UNL     1     -13.140   9.371   1.361  1.00  0.00    -0.201 OA
ATOM     28  O   UNL     1     -11.168  10.490   2.515  1.00  0.00    -0.201 OA
BRANCH  26  29
ATOM     29  C   UNL     1     -13.336  10.439   3.667  1.00  0.00     0.088 A 
ATOM     30  C   UNL     1     -15.127  13.420   6.182  1.00  0.00     0.044 C 
ATOM     31  C   UNL     1     -14.599  12.341   5.285  1.00  0.00    -0.051 A 
ATOM     32  C   UNL     1     -14.021  12.749   4.093  1.00  0.00     0.005 A 
ATOM     33  C   UNL     1     -14.595  10.968   5.626  1.00  0.00     0.005 A 
ATOM     34  C   UNL     1     -13.425  11.803   3.291  1.00  0.00     0.022 A 
ATOM     35  C   UNL     1     -13.953  10.000   4.821  1.00  0.00     0.022 A 
ENDBRANCH  26  29
ENDBRANCH  18  26
ENDBRANCH  15  17
ENDBRANCH  12  15
ENDBRANCH  10  11
BRANCH  10  36
ATOM     36  C   UNL     1      -9.596   1.724   0.362  1.00  0.00     0.072 C 
BRANCH  36  37
ATOM     37  C   UNL     1      -8.687   1.545  -0.835  1.00  0.00    -0.020 A 
ATOM     38  C   UNL     1      -7.776   2.489  -1.288  1.00  0.00     0.087 A 
ATOM     39  C   UNL     1      -8.497   0.391  -1.678  1.00  0.00     0.003 A 
ATOM     40  N   UNL     1      -7.132   1.992  -2.394  1.00  0.00    -0.361 N 
ATOM     41  C   UNL     1      -7.639   0.759  -2.715  1.00  0.00     0.046 A 
ATOM     42  C   UNL     1      -9.010  -0.921  -1.703  1.00  0.00     0.010 A 
ATOM     43  H   UNL     1      -6.412   2.453  -2.884  1.00  0.00     0.166 HD
ATOM     44  C   UNL     1      -7.389  -0.038  -3.839  1.00  0.00     0.026 A 
ATOM     45  C   UNL     1      -8.736  -1.756  -2.796  1.00  0.00     0.001 A 
ATOM     46  C   UNL     1      -7.967  -1.306  -3.866  1.00  0.00     0.002 A 
ENDBRANCH  36  37
ENDBRANCH  10  36
ENDBRANCH   7  10
ENDBRANCH   5   6
ENDBRANCH   1   5
BRANCH   3  47
ATOM     47  C   UNL     1     -10.647   4.473  -2.430  1.00  0.00     0.117 C 
BRANCH  47  48
ATOM     48  C   UNL     1     -10.289   3.548  -3.565  1.00  0.00     0.042 C 
BRANCH  48  49
ATOM     49  C   UNL     1      -9.409   4.242  -4.574  1.00  0.00     0.118 C 
BRANCH  49  50
ATOM     50  N   UNL     1      -8.001   4.170  -4.229  1.00  0.00    -0.352 N 
ATOM     51  C   UNL     1      -6.927   3.896  -5.059  1.00  0.00     0.251 C 
ATOM     52  H   UNL     1      -7.782   4.338  -3.284  1.00  0.00     0.163 HD
ATOM     53  O   UNL     1      -5.960   3.297  -4.593  1.00  0.00    -0.269 OA
BRANCH  51  54
ATOM     54  C   UNL     1      -6.865   4.561  -6.397  1.00  0.00     0.039 A 
ATOM     55  C   UNL     1      -5.749   5.403  -6.496  1.00  0.00     0.014 A 
ATOM     56  C   UNL     1      -8.063   4.953  -6.973  1.00  0.00     0.014 A 
ATOM     57  C   UNL     1      -5.951   6.755  -6.708  1.00  0.00     0.010 A 
ATOM     58  C   UNL     1      -8.316   6.297  -7.003  1.00  0.00     0.010 A 
ATOM     59  C   UNL     1      -7.261   7.191  -6.795  1.00  0.00    -0.014 A 
BRANCH  59  60
ATOM     60  C   UNL     1      -7.678   8.565  -6.885  1.00  0.00     0.031 A 
ATOM     61  C   UNL     1      -7.827   9.085  -8.250  1.00  0.00     0.074 A 
ATOM     62  C   UNL     1      -8.214   9.118  -5.779  1.00  0.00     0.049 A 
ATOM     63  N   UNL     1      -8.097  10.301  -8.546  1.00  0.00    -0.248 NA
ATOM     64  C   UNL     1      -7.651   8.229  -9.425  1.00  0.00     0.031 C 
ATOM     65  C   UNL     1      -9.195  10.189  -5.682  1.00  0.00     0.029 A 
ATOM     66  N   UNL     1      -7.910   8.870  -4.455  1.00  0.00    -0.354 N 
ATOM     67  C   UNL     1      -8.479  10.308  -9.872  1.00  0.00     0.074 A 
ATOM     68  C   UNL     1      -8.032   9.049 -10.402  1.00  0.00     0.031 C 
ATOM     69  C   UNL     1      -9.200  10.665  -4.421  1.00  0.00     0.029 A 
ATOM     70  C   UNL     1      -8.080  10.046  -3.725  1.00  0.00     0.049 A 
ATOM     71  H   UNL     1      -7.620   8.005  -4.086  1.00  0.00     0.167 HD
ATOM     72  C   UNL     1      -9.306  11.307 -10.284  1.00  0.00     0.034 A 
ATOM     73  C   UNL     1      -6.982  10.737  -3.274  1.00  0.00     0.034 A 
ATOM     74  C   UNL     1      -9.427  12.311  -9.206  1.00  0.00     0.049 A 
ATOM     75  C   UNL     1      -6.770  12.053  -4.018  1.00  0.00     0.074 A 
ATOM     76  C   UNL     1     -10.392  12.544  -8.239  1.00  0.00     0.029 A 
ATOM     77  N   UNL     1      -8.278  12.974  -8.770  1.00  0.00    -0.354 N 
ATOM     78  N   UNL     1      -7.391  12.386  -5.119  1.00  0.00    -0.248 NA
ATOM     79  C   UNL     1      -5.875  13.112  -3.559  1.00  0.00     0.031 C 
ATOM     80  C   UNL     1      -9.769  13.238  -7.158  1.00  0.00     0.029 A 
ATOM     81  C   UNL     1      -8.438  13.460  -7.478  1.00  0.00     0.049 A 
ATOM     82  H   UNL     1      -7.461  13.083  -9.308  1.00  0.00     0.167 HD
ATOM     83  C   UNL     1      -6.950  13.598  -5.574  1.00  0.00     0.074 A 
ATOM     84  C   UNL     1      -6.051  14.042  -4.516  1.00  0.00     0.031 C 
ATOM     85  C   UNL     1      -7.321  14.115  -6.791  1.00  0.00     0.034 A 
BRANCH  72  86
ATOM     86  C   UNL     1     -10.225  11.260 -11.502  1.00  0.00     0.023 A 
ATOM     87  C   UNL     1     -11.221  12.260 -11.574  1.00  0.00     0.012 A 
ATOM     88  C   UNL     1     -10.259  10.295 -12.543  1.00  0.00     0.148 A 
ATOM     89  C   UNL     1     -12.206  12.281 -12.570  1.00  0.00     0.002 A 
ATOM     90  C   UNL     1     -11.243  10.310 -13.539  1.00  0.00     0.091 A 
ATOM     91  F   UNL     1      -9.335   9.343 -12.615  1.00  0.00    -0.205 F 
ATOM     92  C   UNL     1     -12.224  11.301 -13.550  1.00  0.00     0.022 A 
BRANCH  90  93
ATOM     93  S   UNL     1     -11.336   9.065 -14.846  1.00  0.00     0.127 S 
ATOM     94  O   UNL     1     -12.701   8.559 -14.693  1.00  0.00    -0.237 OA
ATOM     95  O   UNL     1     -11.117   9.864 -16.051  1.00  0.00    -0.237 OA
ATOM     96  O   UNL     1     -10.297   8.083 -14.561  1.00  0.00    -0.744 OA
ENDBRANCH  90  93
ENDBRANCH  72  86
BRANCH  73  97
ATOM     97  C   UNL     1      -5.908   9.812  -2.769  1.00  0.00     0.023 A 
ATOM     98  C   UNL     1      -6.282   8.961  -1.701  1.00  0.00     0.012 A 
ATOM     99  C   UNL     1      -4.813   9.432  -3.559  1.00  0.00     0.148 A 
ATOM    100  C   UNL     1      -5.782   7.664  -1.589  1.00  0.00     0.002 A 
ATOM    101  C   UNL     1      -4.273   8.150  -3.409  1.00  0.00     0.091 A 
ATOM    102  F   UNL     1      -4.348  10.296  -4.471  1.00  0.00    -0.205 F 
ATOM    103  C   UNL     1      -4.811   7.241  -2.482  1.00  0.00     0.022 A 
BRANCH 101 104
ATOM    104  S   UNL     1      -2.928   7.566  -4.447  1.00  0.00     0.127 S 
ATOM    105  O   UNL     1      -1.766   7.862  -3.611  1.00  0.00    -0.237 OA
ATOM    106  O   UNL     1      -3.224   6.140  -4.586  1.00  0.00    -0.237 OA
ATOM    107  O   UNL     1      -3.041   8.324  -5.680  1.00  0.00    -0.744 OA
ENDBRANCH 101 104
ENDBRANCH  73  97
BRANCH  85 108
ATOM    108  C   UNL     1      -6.652  15.309  -7.456  1.00  0.00     0.023 A 
ATOM    109  C   UNL     1      -5.362  15.745  -7.096  1.00  0.00     0.012 A 
ATOM    110  C   UNL     1      -7.242  15.950  -8.578  1.00  0.00     0.148 A 
ATOM    111  C   UNL     1      -4.733  16.818  -7.735  1.00  0.00     0.002 A 
ATOM    112  C   UNL     1      -6.551  16.918  -9.300  1.00  0.00     0.091 A 
ATOM    113  F   UNL     1      -8.494  15.643  -8.946  1.00  0.00    -0.205 F 
ATOM    114  C   UNL     1      -5.317  17.390  -8.853  1.00  0.00     0.022 A 
BRANCH 112 115
ATOM    115  S   UNL     1      -7.125  17.469 -10.913  1.00  0.00     0.127 S 
ATOM    116  O   UNL     1      -7.780  18.734 -10.585  1.00  0.00    -0.237 OA
ATOM    117  O   UNL     1      -5.872  17.606 -11.657  1.00  0.00    -0.237 OA
ATOM    118  O   UNL     1      -7.992  16.404 -11.399  1.00  0.00    -0.744 OA
ENDBRANCH 112 115
ENDBRANCH  85 108
ENDBRANCH  59  60
ENDBRANCH  51  54
ENDBRANCH  49  50
ENDBRANCH  48  49
ENDBRANCH  47  48
ENDBRANCH   3  47
TORSDOF 22
