REMARK SMILES O=C(CCc1nc(-c2ccccc2)c(-c2ccccc2)o1)NCCCNC(=O)c1ccc(-c2c3nc(c(-c4cccc(S(=O)(=O)[O-])c4F)c4ccc([nH]4)c(-c4cccc(S(=O)(=O)[O-])c4F)c4nc(c(-c5cccc(S(=O)(=O)[O-])c5F)c5ccc2[nH]5)C=C4)C=C3)cc1
REMARK SMILES IDX 24 1 23 2 22 3 1 4 2 5 3 7 4 8 5 9 6 10 21 11 7 12 14 13
REMARK SMILES IDX 8 14 9 15 13 16 10 17 12 18 11 19 15 20 16 21 20 22 17 23
REMARK SMILES IDX 19 24 18 25 25 26 26 27 27 28 28 30 29 31 30 32 91 33 31 34
REMARK SMILES IDX 90 35 32 36 33 37 34 38 84 39 35 40 89 41 83 42 85 43 36 44
REMARK SMILES IDX 88 45 82 46 81 47 37 49 69 50 49 51 68 52 50 53 53 54 67 55
REMARK SMILES IDX 86 56 51 57 52 58 66 60 87 61 54 62 38 63 39 64 47 65 40 66
REMARK SMILES IDX 42 67 48 68 41 69 43 70 44 71 45 72 46 73 70 74 71 75 79 76
REMARK SMILES IDX 72 77 74 78 80 79 73 80 75 81 76 82 77 83 78 84 55 85 56 86
REMARK SMILES IDX 64 87 57 88 59 89 65 90 58 91 60 92 61 93 62 94 63 95
REMARK H PARENT 22 6 26 29 85 48 53 59
REMARK Flexibility Score: inf
ROOT
ATOM      1  C   UNL     1       2.175   1.027  -3.253  1.00  0.00     0.042 C 
ENDROOT
BRANCH   1   2
ATOM      2  C   UNL     1       2.006  -0.172  -2.330  1.00  0.00     0.117 C 
BRANCH   2   3
ATOM      3  N   UNL     1       2.779  -0.029  -1.115  1.00  0.00    -0.356 N 
ATOM      4  O   UNL     1       1.075  -0.471   0.363  1.00  0.00    -0.275 OA
ATOM      5  C   UNL     1       2.248  -0.191   0.140  1.00  0.00     0.220 C 
ATOM      6  H   UNL     1       3.735   0.196  -1.193  1.00  0.00     0.163 HD
BRANCH   5   7
ATOM      7  C   UNL     1       3.250  -0.001   1.257  1.00  0.00     0.110 C 
BRANCH   7   8
ATOM      8  C   UNL     1       4.139  -1.225   1.435  1.00  0.00     0.107 C 
BRANCH   8   9
ATOM      9  C   UNL     1       5.138  -1.433   0.347  1.00  0.00     0.196 A 
ATOM     10  N   UNL     1       5.530  -2.577  -0.179  1.00  0.00    -0.213 NA
ATOM     11  O   UNL     1       5.726  -0.318  -0.205  1.00  0.00    -0.440 OA
ATOM     12  C   UNL     1       6.461  -2.201  -1.115  1.00  0.00     0.117 A 
ATOM     13  C   UNL     1       6.563  -0.824  -1.169  1.00  0.00     0.162 A 
BRANCH  12  14
ATOM     14  C   UNL     1       7.200  -3.112  -1.961  1.00  0.00     0.004 A 
ATOM     15  C   UNL     1       8.601  -3.052  -2.006  1.00  0.00     0.010 A 
ATOM     16  C   UNL     1       6.517  -3.960  -2.837  1.00  0.00     0.010 A 
ATOM     17  C   UNL     1       9.307  -3.794  -2.951  1.00  0.00     0.001 A 
ATOM     18  C   UNL     1       7.227  -4.700  -3.785  1.00  0.00     0.001 A 
ATOM     19  C   UNL     1       8.619  -4.608  -3.848  1.00  0.00     0.000 A 
ENDBRANCH  12  14
BRANCH  13  20
ATOM     20  C   UNL     1       7.302   0.112  -2.006  1.00  0.00     0.020 A 
ATOM     21  C   UNL     1       7.937   1.236  -1.471  1.00  0.00     0.012 A 
ATOM     22  C   UNL     1       7.461  -0.158  -3.377  1.00  0.00     0.012 A 
ATOM     23  C   UNL     1       8.738   2.049  -2.284  1.00  0.00     0.001 A 
ATOM     24  C   UNL     1       8.270   0.643  -4.183  1.00  0.00     0.001 A 
ATOM     25  C   UNL     1       8.909   1.748  -3.635  1.00  0.00     0.000 A 
ENDBRANCH  13  20
ENDBRANCH   8   9
ENDBRANCH   7   8
ENDBRANCH   5   7
ENDBRANCH   2   3
ENDBRANCH   1   2
BRANCH   1  26
ATOM     26  C   UNL     1       3.601   1.261  -3.738  1.00  0.00     0.118 C 
BRANCH  26  27
ATOM     27  N   UNL     1       4.116   0.186  -4.574  1.00  0.00    -0.352 N 
ATOM     28  C   UNL     1       4.851   0.261  -5.732  1.00  0.00     0.251 C 
ATOM     29  H   UNL     1       3.908  -0.725  -4.265  1.00  0.00     0.163 HD
ATOM     30  O   UNL     1       5.125  -0.774  -6.342  1.00  0.00    -0.269 OA
BRANCH  28  31
ATOM     31  C   UNL     1       5.306   1.568  -6.261  1.00  0.00     0.039 A 
ATOM     32  C   UNL     1       5.246   1.796  -7.640  1.00  0.00     0.014 A 
ATOM     33  C   UNL     1       5.806   2.561  -5.415  1.00  0.00     0.014 A 
ATOM     34  C   UNL     1       5.617   3.040  -8.158  1.00  0.00     0.010 A 
ATOM     35  C   UNL     1       6.130   3.813  -5.921  1.00  0.00     0.010 A 
ATOM     36  C   UNL     1       6.028   4.067  -7.295  1.00  0.00    -0.014 A 
BRANCH  36  37
ATOM     37  C   UNL     1       6.293   5.442  -7.774  1.00  0.00     0.031 A 
ATOM     38  C   UNL     1       7.673   6.024  -7.675  1.00  0.00     0.074 A 
ATOM     39  C   UNL     1       5.249   6.209  -8.144  1.00  0.00     0.049 A 
ATOM     40  N   UNL     1       8.071   7.246  -7.914  1.00  0.00    -0.248 NA
ATOM     41  C   UNL     1       8.743   5.121  -7.219  1.00  0.00     0.031 C 
ATOM     42  C   UNL     1       3.853   5.766  -8.190  1.00  0.00     0.029 A 
ATOM     43  N   UNL     1       5.190   7.533  -8.497  1.00  0.00    -0.354 N 
ATOM     44  C   UNL     1       9.427   7.270  -7.610  1.00  0.00     0.074 A 
ATOM     45  C   UNL     1       9.779   5.946  -7.145  1.00  0.00     0.031 C 
ATOM     46  C   UNL     1       3.074   6.805  -8.529  1.00  0.00     0.029 A 
ATOM     47  C   UNL     1       3.907   7.990  -8.693  1.00  0.00     0.049 A 
ATOM     48  H   UNL     1       5.988   8.101  -8.600  1.00  0.00     0.167 HD
ATOM     49  C   UNL     1      10.299   8.300  -7.726  1.00  0.00     0.034 A 
ATOM     50  C   UNL     1       3.453   9.231  -8.955  1.00  0.00     0.034 A 
ATOM     51  C   UNL     1       9.934   9.608  -8.203  1.00  0.00     0.049 A 
ATOM     52  C   UNL     1       4.446  10.349  -9.105  1.00  0.00     0.074 A 
ATOM     53  C   UNL     1      10.753  10.697  -8.440  1.00  0.00     0.029 A 
ATOM     54  N   UNL     1       8.639  10.009  -8.499  1.00  0.00    -0.354 N 
ATOM     55  N   UNL     1       5.750  10.317  -8.970  1.00  0.00    -0.248 NA
ATOM     56  C   UNL     1       3.913  11.665  -9.483  1.00  0.00     0.031 C 
ATOM     57  C   UNL     1       9.949  11.767  -8.847  1.00  0.00     0.029 A 
ATOM     58  C   UNL     1       8.635  11.332  -8.906  1.00  0.00     0.049 A 
ATOM     59  H   UNL     1       7.841   9.437  -8.430  1.00  0.00     0.167 HD
ATOM     60  C   UNL     1       6.198  11.592  -9.294  1.00  0.00     0.074 A 
ATOM     61  C   UNL     1       5.026  12.370  -9.639  1.00  0.00     0.031 C 
ATOM     62  C   UNL     1       7.465  12.075  -9.301  1.00  0.00     0.034 A 
BRANCH  49  63
ATOM     63  C   UNL     1      11.741   8.046  -7.371  1.00  0.00     0.023 A 
ATOM     64  C   UNL     1      12.528   7.220  -8.200  1.00  0.00     0.012 A 
ATOM     65  C   UNL     1      12.338   8.675  -6.260  1.00  0.00     0.148 A 
ATOM     66  C   UNL     1      13.873   6.995  -7.910  1.00  0.00     0.002 A 
ATOM     67  C   UNL     1      13.691   8.482  -6.004  1.00  0.00     0.091 A 
ATOM     68  F   UNL     1      11.571   9.441  -5.471  1.00  0.00    -0.205 F 
ATOM     69  C   UNL     1      14.456   7.634  -6.820  1.00  0.00     0.022 A 
BRANCH  67  70
ATOM     70  S   UNL     1      14.555   9.321  -4.671  1.00  0.00     0.127 S 
ATOM     71  O   UNL     1      14.830   8.213  -3.756  1.00  0.00    -0.237 OA
ATOM     72  O   UNL     1      15.734   9.852  -5.355  1.00  0.00    -0.237 OA
ATOM     73  O   UNL     1      13.636  10.331  -4.167  1.00  0.00    -0.744 OA
ENDBRANCH  67  70
ENDBRANCH  49  63
BRANCH  50  74
ATOM     74  C   UNL     1       1.995   9.461  -9.154  1.00  0.00     0.023 A 
ATOM     75  C   UNL     1       1.514   9.752 -10.445  1.00  0.00     0.012 A 
ATOM     76  C   UNL     1       1.082   9.360  -8.086  1.00  0.00     0.148 A 
ATOM     77  C   UNL     1       0.154   9.973 -10.664  1.00  0.00     0.002 A 
ATOM     78  C   UNL     1      -0.278   9.527  -8.322  1.00  0.00     0.091 A 
ATOM     79  F   UNL     1       1.562   9.085  -6.865  1.00  0.00    -0.205 F 
ATOM     80  C   UNL     1      -0.742   9.851  -9.606  1.00  0.00     0.022 A 
BRANCH  78  81
ATOM     81  S   UNL     1      -1.516   9.262  -7.048  1.00  0.00     0.127 S 
ATOM     82  O   UNL     1      -2.011  10.620  -6.827  1.00  0.00    -0.237 OA
ATOM     83  O   UNL     1      -2.456   8.367  -7.724  1.00  0.00    -0.237 OA
ATOM     84  O   UNL     1      -0.809   8.657  -5.929  1.00  0.00    -0.744 OA
ENDBRANCH  78  81
ENDBRANCH  50  74
BRANCH  62  85
ATOM     85  C   UNL     1       7.670  13.496  -9.756  1.00  0.00     0.023 A 
ATOM     86  C   UNL     1       7.279  14.569  -8.932  1.00  0.00     0.012 A 
ATOM     87  C   UNL     1       8.331  13.760 -10.972  1.00  0.00     0.148 A 
ATOM     88  C   UNL     1       7.517  15.885  -9.325  1.00  0.00     0.002 A 
ATOM     89  C   UNL     1       8.613  15.071 -11.332  1.00  0.00     0.091 A 
ATOM     90  F   UNL     1       8.677  12.724 -11.750  1.00  0.00    -0.205 F 
ATOM     91  C   UNL     1       8.195  16.136 -10.517  1.00  0.00     0.022 A 
BRANCH  89  92
ATOM     92  S   UNL     1       9.572  15.484 -12.793  1.00  0.00     0.127 S 
ATOM     93  O   UNL     1       8.557  16.091 -13.653  1.00  0.00    -0.237 OA
ATOM     94  O   UNL     1      10.560  16.421 -12.260  1.00  0.00    -0.237 OA
ATOM     95  O   UNL     1      10.129  14.228 -13.278  1.00  0.00    -0.744 OA
ENDBRANCH  89  92
ENDBRANCH  62  85
ENDBRANCH  36  37
ENDBRANCH  28  31
ENDBRANCH  26  27
ENDBRANCH   1  26
TORSDOF 17
