REMARK SMILES Cc1n[nH]c(C[N@H+]2CCC[C@H](c3cccc(C(=O)NCCCNC(=O)c4ccc(-c5c6nc(c(-c7cccc(S(=O)(=O)[O-])c7F)c7ccc([nH]7)c(-c7cccc(S(=O)(=O)[O-])c7F)c7nc(c(-c8cccc(S(=O)(=O)[O-])c8F)c8ccc5[nH]8)C=C7)C=C6)cc4)c3)C2)n1
REMARK SMILES IDX 21 1 20 2 19 3 17 4 18 5 16 7 12 8 13 9 89 10 14 11 15 12
REMARK SMILES IDX 11 13 7 14 8 15 90 16 9 18 10 19 6 20 5 21 1 22 2 23 3 24
REMARK SMILES IDX 91 25 4 26 22 28 23 29 24 30 25 32 26 33 27 34 88 35 28 36
REMARK SMILES IDX 87 37 29 38 30 39 31 40 81 41 32 42 86 43 80 44 82 45 33 46
REMARK SMILES IDX 85 47 79 48 78 49 34 51 66 52 46 53 65 54 47 55 50 56 64 57
REMARK SMILES IDX 83 58 48 59 49 60 63 62 84 63 51 64 35 65 36 66 44 67 37 68
REMARK SMILES IDX 39 69 45 70 38 71 40 72 41 73 42 74 43 75 67 76 68 77 76 78
REMARK SMILES IDX 69 79 71 80 77 81 70 82 72 83 73 84 74 85 75 86 52 87 53 88
REMARK SMILES IDX 61 89 54 90 56 91 62 92 55 93 57 94 58 95 59 96 60 97
REMARK H PARENT 19 6 7 17 4 27 23 31 82 50 50 61
REMARK Flexibility Score: inf
ROOT
ATOM      1  C   UNL     1       7.618   6.399   1.515  1.00  0.00     0.042 C 
ENDROOT
BRANCH   1   2
ATOM      2  C   UNL     1       7.621   6.864   2.980  1.00  0.00     0.118 C 
BRANCH   2   3
ATOM      3  N   UNL     1       7.197   8.245   3.153  1.00  0.00    -0.352 N 
ATOM      4  C   UNL     1       5.975   8.839   3.373  1.00  0.00     0.251 C 
ATOM      5  O   UNL     1       5.985  10.023   3.713  1.00  0.00    -0.269 OA
ATOM      6  H   UNL     1       7.940   8.890   3.102  1.00  0.00     0.163 HD
BRANCH   4   7
ATOM      7  C   UNL     1       4.660   8.143   3.258  1.00  0.00     0.040 A 
ATOM      8  C   UNL     1       3.272   6.182   2.735  1.00  0.00    -0.039 A 
ATOM      9  C   UNL     1       2.136   6.892   3.129  1.00  0.00     0.004 A 
ATOM     10  C   UNL     1       4.503   6.854   2.760  1.00  0.00     0.018 A 
ATOM     11  C   UNL     1       2.248   8.213   3.569  1.00  0.00     0.001 A 
ATOM     12  C   UNL     1       3.502   8.827   3.649  1.00  0.00     0.014 A 
BRANCH   8  13
ATOM     13  C   UNL     1       3.284   4.739   2.249  1.00  0.00     0.074 C 
ATOM     14  N   UNL     1       1.369   3.716   3.522  1.00  0.00    -0.328 N 
ATOM     15  C   UNL     1       2.285   2.879   4.305  1.00  0.00     0.262 C 
ATOM     16  C   UNL     1       1.920   4.030   2.186  1.00  0.00     0.270 C 
ATOM     17  H   UNL     1       1.280   4.591   4.037  1.00  0.00     0.348 HD
ATOM     18  C   UNL     1       3.672   3.510   4.433  1.00  0.00     0.062 C 
ATOM     19  C   UNL     1       4.250   3.844   3.062  1.00  0.00     0.020 C 
BRANCH  14  20
ATOM     20  C   UNL     1       0.010   3.150   3.423  1.00  0.00     0.340 C 
BRANCH  20  21
ATOM     21  C   UNL     1      -0.061   1.865   2.667  1.00  0.00     0.179 A 
ATOM     22  C   UNL     1       0.739  -0.340   0.051  1.00  0.00     0.092 C 
ATOM     23  C   UNL     1       0.249   0.309   1.282  1.00  0.00     0.147 A 
ATOM     24  N   UNL     1      -0.041  -0.356   2.407  1.00  0.00    -0.159 NA
ATOM     25  N   UNL     1       0.175   1.667   1.386  1.00  0.00    -0.211 NA
ATOM     26  N   UNL     1      -0.259   0.655   3.265  1.00  0.00    -0.258 N 
ATOM     27  H   UNL     1      -0.527   0.538   4.205  1.00  0.00     0.192 HD
ENDBRANCH  20  21
ENDBRANCH  14  20
ENDBRANCH   8  13
ENDBRANCH   4   7
ENDBRANCH   2   3
ENDBRANCH   1   2
BRANCH   1  28
ATOM     28  C   UNL     1       8.946   6.623   0.814  1.00  0.00     0.118 C 
BRANCH  28  29
ATOM     29  N   UNL     1      10.006   5.789   1.386  1.00  0.00    -0.352 N 
ATOM     30  C   UNL     1      11.377   5.908   1.261  1.00  0.00     0.251 C 
ATOM     31  H   UNL     1       9.697   5.036   1.938  1.00  0.00     0.163 HD
ATOM     32  O   UNL     1      12.107   4.975   1.542  1.00  0.00    -0.269 OA
BRANCH  30  33
ATOM     33  C   UNL     1      11.929   7.176   0.752  1.00  0.00     0.039 A 
ATOM     34  C   UNL     1      12.930   7.170  -0.222  1.00  0.00     0.014 A 
ATOM     35  C   UNL     1      11.370   8.370   1.197  1.00  0.00     0.014 A 
ATOM     36  C   UNL     1      13.278   8.373  -0.828  1.00  0.00     0.010 A 
ATOM     37  C   UNL     1      11.595   9.523   0.485  1.00  0.00     0.010 A 
ATOM     38  C   UNL     1      12.575   9.544  -0.502  1.00  0.00    -0.014 A 
BRANCH  38  39
ATOM     39  C   UNL     1      12.792  10.767  -1.269  1.00  0.00     0.031 A 
ATOM     40  C   UNL     1      12.717  10.611  -2.748  1.00  0.00     0.074 A 
ATOM     41  C   UNL     1      12.884  11.996  -0.718  1.00  0.00     0.049 A 
ATOM     42  N   UNL     1      13.703  10.627  -3.584  1.00  0.00    -0.248 NA
ATOM     43  C   UNL     1      11.425  10.265  -3.357  1.00  0.00     0.031 C 
ATOM     44  C   UNL     1      12.657  12.391   0.678  1.00  0.00     0.029 A 
ATOM     45  N   UNL     1      13.079  13.190  -1.340  1.00  0.00    -0.354 N 
ATOM     46  C   UNL     1      13.130  10.530  -4.851  1.00  0.00     0.074 A 
ATOM     47  C   UNL     1      11.767  10.115  -4.640  1.00  0.00     0.031 C 
ATOM     48  C   UNL     1      12.463  13.726   0.741  1.00  0.00     0.029 A 
ATOM     49  C   UNL     1      12.752  14.293  -0.561  1.00  0.00     0.049 A 
ATOM     50  H   UNL     1      13.420  13.267  -2.260  1.00  0.00     0.167 HD
ATOM     51  C   UNL     1      13.758  11.031  -5.951  1.00  0.00     0.034 A 
ATOM     52  C   UNL     1      12.697  15.582  -0.967  1.00  0.00     0.034 A 
ATOM     53  C   UNL     1      15.124  11.388  -5.657  1.00  0.00     0.049 A 
ATOM     54  C   UNL     1      13.533  15.687  -2.183  1.00  0.00     0.074 A 
ATOM     55  C   UNL     1      16.243  10.720  -5.205  1.00  0.00     0.029 A 
ATOM     56  N   UNL     1      15.375  12.726  -5.470  1.00  0.00    -0.354 N 
ATOM     57  N   UNL     1      14.828  15.529  -2.184  1.00  0.00    -0.248 NA
ATOM     58  C   UNL     1      12.888  15.575  -3.480  1.00  0.00     0.031 C 
ATOM     59  C   UNL     1      16.903  11.652  -4.349  1.00  0.00     0.029 A 
ATOM     60  C   UNL     1      16.184  12.850  -4.375  1.00  0.00     0.049 A 
ATOM     61  H   UNL     1      15.033  13.464  -6.025  1.00  0.00     0.167 HD
ATOM     62  C   UNL     1      15.089  14.849  -3.366  1.00  0.00     0.074 A 
ATOM     63  C   UNL     1      13.888  15.030  -4.177  1.00  0.00     0.031 C 
ATOM     64  C   UNL     1      16.128  13.966  -3.454  1.00  0.00     0.034 A 
BRANCH  51  65
ATOM     65  C   UNL     1      13.084  11.560  -7.199  1.00  0.00     0.023 A 
ATOM     66  C   UNL     1      13.920  11.886  -8.294  1.00  0.00     0.012 A 
ATOM     67  C   UNL     1      11.748  12.012  -7.261  1.00  0.00     0.148 A 
ATOM     68  C   UNL     1      13.468  12.671  -9.360  1.00  0.00     0.002 A 
ATOM     69  C   UNL     1      11.280  12.723  -8.362  1.00  0.00     0.091 A 
ATOM     70  F   UNL     1      10.948  11.880  -6.200  1.00  0.00    -0.205 F 
ATOM     71  C   UNL     1      12.144  13.085  -9.398  1.00  0.00     0.022 A 
BRANCH  69  72
ATOM     72  S   UNL     1       9.563  13.236  -8.494  1.00  0.00     0.127 S 
ATOM     73  O   UNL     1       9.668  14.673  -8.261  1.00  0.00    -0.237 OA
ATOM     74  O   UNL     1       9.242  12.851  -9.869  1.00  0.00    -0.237 OA
ATOM     75  O   UNL     1       8.849  12.472  -7.479  1.00  0.00    -0.744 OA
ENDBRANCH  69  72
ENDBRANCH  51  65
BRANCH  52  76
ATOM     76  C   UNL     1      11.825  16.683  -0.510  1.00  0.00     0.023 A 
ATOM     77  C   UNL     1      12.206  18.016  -0.754  1.00  0.00     0.012 A 
ATOM     78  C   UNL     1      10.497  16.428  -0.101  1.00  0.00     0.148 A 
ATOM     79  C   UNL     1      11.282  19.060  -0.641  1.00  0.00     0.002 A 
ATOM     80  C   UNL     1       9.582  17.471   0.012  1.00  0.00     0.091 A 
ATOM     81  F   UNL     1      10.111  15.159   0.084  1.00  0.00    -0.205 F 
ATOM     82  C   UNL     1       9.968  18.787  -0.271  1.00  0.00     0.022 A 
BRANCH  80  83
ATOM     83  S   UNL     1       7.860  17.195   0.449  1.00  0.00     0.127 S 
ATOM     84  O   UNL     1       7.646  18.204   1.487  1.00  0.00    -0.237 OA
ATOM     85  O   UNL     1       7.182  17.465  -0.816  1.00  0.00    -0.237 OA
ATOM     86  O   UNL     1       7.788  15.820   0.924  1.00  0.00    -0.744 OA
ENDBRANCH  80  83
ENDBRANCH  52  76
BRANCH  64  87
ATOM     87  C   UNL     1      17.167  13.975  -2.359  1.00  0.00     0.023 A 
ATOM     88  C   UNL     1      16.860  13.664  -1.018  1.00  0.00     0.012 A 
ATOM     89  C   UNL     1      18.515  14.132  -2.728  1.00  0.00     0.148 A 
ATOM     90  C   UNL     1      17.873  13.536  -0.063  1.00  0.00     0.002 A 
ATOM     91  C   UNL     1      19.521  13.954  -1.787  1.00  0.00     0.091 A 
ATOM     92  F   UNL     1      18.792  14.425  -4.007  1.00  0.00    -0.205 F 
ATOM     93  C   UNL     1      19.205  13.666  -0.450  1.00  0.00     0.022 A 
BRANCH  91  94
ATOM     94  S   UNL     1      21.253  13.979  -2.255  1.00  0.00     0.127 S 
ATOM     95  O   UNL     1      21.682  15.290  -1.773  1.00  0.00    -0.237 OA
ATOM     96  O   UNL     1      21.799  12.844  -1.508  1.00  0.00    -0.237 OA
ATOM     97  O   UNL     1      21.279  13.801  -3.702  1.00  0.00    -0.744 OA
ENDBRANCH  91  94
ENDBRANCH  64  87
ENDBRANCH  38  39
ENDBRANCH  30  33
ENDBRANCH  28  29
ENDBRANCH   1  28
TORSDOF 16
