REMARK SMILES Cn1cc(CCC(=O)N2CCCC2)cc1C(=O)NCCCNC(=O)c1ccc(-c2c3nc(c(-c4cccc(S(=O)(=O)[O-])c4F)c4ccc([nH]4)c(-c4cccc(S(=O)(=O)[O-])c4F)c4nc(c(-c5cccc(S(=O)(=O)[O-])c5F)c5ccc2[nH]5)C=C4)C=C3)cc1
REMARK SMILES IDX 20 1 19 2 18 3 16 4 17 5 15 7 1 8 2 9 3 10 4 11 14 12 5 13
REMARK SMILES IDX 6 14 7 15 8 16 9 17 10 18 13 19 11 20 12 21 21 22 22 23
REMARK SMILES IDX 23 24 24 26 25 27 26 28 87 29 27 30 86 31 28 32 29 33 30 34
REMARK SMILES IDX 80 35 31 36 85 37 79 38 81 39 32 40 84 41 78 42 77 43 33 45
REMARK SMILES IDX 65 46 45 47 64 48 46 49 49 50 63 51 82 52 47 53 48 54 62 56
REMARK SMILES IDX 83 57 50 58 34 59 35 60 43 61 36 62 38 63 44 64 37 65 39 66
REMARK SMILES IDX 40 67 41 68 42 69 66 70 67 71 75 72 68 73 70 74 76 75 69 76
REMARK SMILES IDX 71 77 72 78 73 79 74 80 51 81 52 82 60 83 53 84 55 85 61 86
REMARK SMILES IDX 54 87 56 88 57 89 58 90 59 91
REMARK H PARENT 18 6 22 25 81 44 49 55
REMARK Flexibility Score: inf
ROOT
ATOM      1  C   UNL     1       3.556  -1.976   1.548  1.00  0.00     0.042 C 
ENDROOT
BRANCH   1   2
ATOM      2  C   UNL     1       2.732  -1.636   0.314  1.00  0.00     0.118 C 
BRANCH   2   3
ATOM      3  N   UNL     1       1.692  -2.592   0.000  1.00  0.00    -0.351 N 
ATOM      4  C   UNL     1       0.416  -2.406  -0.477  1.00  0.00     0.267 C 
ATOM      5  O   UNL     1      -0.279  -3.414  -0.583  1.00  0.00    -0.268 OA
ATOM      6  H   UNL     1       1.939  -3.533   0.154  1.00  0.00     0.163 HD
BRANCH   4   7
ATOM      7  C   UNL     1      -0.107  -1.079  -0.755  1.00  0.00     0.107 A 
ATOM      8  C   UNL     1       1.732   0.032  -2.122  1.00  0.00     0.150 C 
ATOM      9  N   UNL     1       0.440  -0.035  -1.476  1.00  0.00    -0.346 N 
ATOM     10  C   UNL     1      -0.416   1.041  -1.475  1.00  0.00     0.089 A 
ATOM     11  C   UNL     1      -1.515   0.731  -0.707  1.00  0.00    -0.029 A 
ATOM     12  C   UNL     1      -1.368  -0.637  -0.356  1.00  0.00     0.037 A 
BRANCH  11  13
ATOM     13  C   UNL     1      -2.600   1.669  -0.296  1.00  0.00     0.047 C 
BRANCH  13  14
ATOM     14  C   UNL     1      -2.476   2.142   1.150  1.00  0.00     0.105 C 
BRANCH  14  15
ATOM     15  C   UNL     1      -1.370   3.157   1.411  1.00  0.00     0.222 C 
ATOM     16  O   UNL     1      -1.592   4.358   1.235  1.00  0.00    -0.275 OA
ATOM     17  N   UNL     1      -0.172   2.707   1.919  1.00  0.00    -0.343 N 
ATOM     18  C   UNL     1       0.352   1.356   1.889  1.00  0.00     0.119 C 
ATOM     19  C   UNL     1       0.800   3.613   2.513  1.00  0.00     0.119 C 
ATOM     20  C   UNL     1       1.485   1.350   2.895  1.00  0.00     0.023 C 
ATOM     21  C   UNL     1       2.042   2.761   2.761  1.00  0.00     0.023 C 
ENDBRANCH  14  15
ENDBRANCH  13  14
ENDBRANCH  11  13
ENDBRANCH   4   7
ENDBRANCH   2   3
ENDBRANCH   1   2
BRANCH   1  22
ATOM     22  C   UNL     1       4.372  -3.261   1.466  1.00  0.00     0.118 C 
BRANCH  22  23
ATOM     23  N   UNL     1       5.363  -3.270   0.397  1.00  0.00    -0.352 N 
ATOM     24  C   UNL     1       6.739  -3.320   0.435  1.00  0.00     0.251 C 
ATOM     25  H   UNL     1       4.983  -3.236  -0.511  1.00  0.00     0.163 HD
ATOM     26  O   UNL     1       7.367  -3.203  -0.615  1.00  0.00    -0.269 OA
BRANCH  24  27
ATOM     27  C   UNL     1       7.469  -3.476   1.716  1.00  0.00     0.039 A 
ATOM     28  C   UNL     1       8.648  -2.750   1.917  1.00  0.00     0.014 A 
ATOM     29  C   UNL     1       7.011  -4.332   2.717  1.00  0.00     0.014 A 
ATOM     30  C   UNL     1       9.305  -2.811   3.151  1.00  0.00     0.010 A 
ATOM     31  C   UNL     1       7.600  -4.305   3.979  1.00  0.00     0.010 A 
ATOM     32  C   UNL     1       8.757  -3.549   4.213  1.00  0.00    -0.014 A 
BRANCH  32  33
ATOM     33  C   UNL     1       9.364  -3.539   5.572  1.00  0.00     0.031 A 
ATOM     34  C   UNL     1       9.808  -4.826   6.219  1.00  0.00     0.074 A 
ATOM     35  C   UNL     1       9.422  -2.386   6.271  1.00  0.00     0.049 A 
ATOM     36  N   UNL     1      10.276  -5.026   7.423  1.00  0.00    -0.248 NA
ATOM     37  C   UNL     1       9.675  -6.057   5.420  1.00  0.00     0.031 C 
ATOM     38  C   UNL     1       8.947  -1.083   5.797  1.00  0.00     0.029 A 
ATOM     39  N   UNL     1       9.878  -2.127   7.541  1.00  0.00    -0.354 N 
ATOM     40  C   UNL     1      10.448  -6.401   7.543  1.00  0.00     0.074 A 
ATOM     41  C   UNL     1       9.999  -6.991   6.302  1.00  0.00     0.031 C 
ATOM     42  C   UNL     1       9.144  -0.165   6.756  1.00  0.00     0.029 A 
ATOM     43  C   UNL     1       9.723  -0.815   7.927  1.00  0.00     0.049 A 
ATOM     44  H   UNL     1      10.277  -2.815   8.120  1.00  0.00     0.167 HD
ATOM     45  C   UNL     1      10.960  -7.108   8.578  1.00  0.00     0.034 A 
ATOM     46  C   UNL     1      10.003  -0.204   9.096  1.00  0.00     0.034 A 
ATOM     47  C   UNL     1      11.454  -6.516   9.791  1.00  0.00     0.049 A 
ATOM     48  C   UNL     1      10.617  -1.004  10.212  1.00  0.00     0.074 A 
ATOM     49  C   UNL     1      12.086  -7.136  10.855  1.00  0.00     0.029 A 
ATOM     50  N   UNL     1      11.364  -5.170  10.109  1.00  0.00    -0.354 N 
ATOM     51  N   UNL     1      10.919  -2.279  10.243  1.00  0.00    -0.248 NA
ATOM     52  C   UNL     1      10.961  -0.275  11.442  1.00  0.00     0.031 C 
ATOM     53  C   UNL     1      12.348  -6.169  11.831  1.00  0.00     0.029 A 
ATOM     54  C   UNL     1      11.915  -4.941  11.358  1.00  0.00     0.049 A 
ATOM     55  H   UNL     1      10.966  -4.479   9.531  1.00  0.00     0.167 HD
ATOM     56  C   UNL     1      11.522  -2.498  11.477  1.00  0.00     0.074 A 
ATOM     57  C   UNL     1      11.560  -1.219  12.155  1.00  0.00     0.031 C 
ATOM     58  C   UNL     1      11.992  -3.655  12.004  1.00  0.00     0.034 A 
BRANCH  45  59
ATOM     59  C   UNL     1      11.057  -8.605   8.427  1.00  0.00     0.023 A 
ATOM     60  C   UNL     1      11.986  -9.159   7.522  1.00  0.00     0.012 A 
ATOM     61  C   UNL     1      10.273  -9.464   9.221  1.00  0.00     0.148 A 
ATOM     62  C   UNL     1      12.105 -10.541   7.381  1.00  0.00     0.002 A 
ATOM     63  C   UNL     1      10.433 -10.840   9.112  1.00  0.00     0.091 A 
ATOM     64  F   UNL     1       9.381  -8.921  10.062  1.00  0.00    -0.205 F 
ATOM     65  C   UNL     1      11.337 -11.380   8.183  1.00  0.00     0.022 A 
BRANCH  63  66
ATOM     66  S   UNL     1       9.553 -12.006  10.158  1.00  0.00     0.127 S 
ATOM     67  O   UNL     1       8.650 -12.639   9.198  1.00  0.00    -0.237 OA
ATOM     68  O   UNL     1      10.636 -12.866  10.635  1.00  0.00    -0.237 OA
ATOM     69  O   UNL     1       8.906 -11.210  11.192  1.00  0.00    -0.744 OA
ENDBRANCH  63  66
ENDBRANCH  45  59
BRANCH  46  70
ATOM     70  C   UNL     1       9.760   1.260   9.248  1.00  0.00     0.023 A 
ATOM     71  C   UNL     1      10.856   2.140   9.336  1.00  0.00     0.012 A 
ATOM     72  C   UNL     1       8.454   1.786   9.276  1.00  0.00     0.148 A 
ATOM     73  C   UNL     1      10.657   3.513   9.484  1.00  0.00     0.002 A 
ATOM     74  C   UNL     1       8.263   3.160   9.364  1.00  0.00     0.091 A 
ATOM     75  F   UNL     1       7.424   0.931   9.199  1.00  0.00    -0.205 F 
ATOM     76  C   UNL     1       9.362   4.024   9.487  1.00  0.00     0.022 A 
BRANCH  74  77
ATOM     77  S   UNL     1       6.639   3.917   9.237  1.00  0.00     0.127 S 
ATOM     78  O   UNL     1       6.444   4.436  10.588  1.00  0.00    -0.237 OA
ATOM     79  O   UNL     1       6.863   4.936   8.210  1.00  0.00    -0.237 OA
ATOM     80  O   UNL     1       5.735   2.848   8.834  1.00  0.00    -0.744 OA
ENDBRANCH  74  77
ENDBRANCH  46  70
BRANCH  58  81
ATOM     81  C   UNL     1      12.631  -3.597  13.367  1.00  0.00     0.023 A 
ATOM     82  C   UNL     1      11.836  -3.391  14.511  1.00  0.00     0.012 A 
ATOM     83  C   UNL     1      14.014  -3.825  13.516  1.00  0.00     0.148 A 
ATOM     84  C   UNL     1      12.413  -3.378  15.781  1.00  0.00     0.002 A 
ATOM     85  C   UNL     1      14.572  -3.865  14.787  1.00  0.00     0.091 A 
ATOM     86  F   UNL     1      14.755  -4.002  12.413  1.00  0.00    -0.205 F 
ATOM     87  C   UNL     1      13.777  -3.627  15.920  1.00  0.00     0.022 A 
BRANCH  85  88
ATOM     88  S   UNL     1      16.298  -4.277  15.069  1.00  0.00     0.127 S 
ATOM     89  O   UNL     1      16.847  -2.990  15.490  1.00  0.00    -0.237 OA
ATOM     90  O   UNL     1      16.206  -5.279  16.132  1.00  0.00    -0.237 OA
ATOM     91  O   UNL     1      16.802  -4.786  13.800  1.00  0.00    -0.744 OA
ENDBRANCH  85  88
ENDBRANCH  58  81
ENDBRANCH  32  33
ENDBRANCH  24  27
ENDBRANCH  22  23
ENDBRANCH   1  22
TORSDOF 16
