REMARK SMILES CCCCOc1ccc(-c2nc(C)c(C(=O)NCCCNC(=O)c3ccc(-c4c5nc(c(-c6cccc(S(=O)(=O)[O-])c6F)c6ccc([nH]6)c(-c6cccc(S(=O)(=O)[O-])c6F)c6nc(c(-c7cccc(S(=O)(=O)[O-])c7F)c7ccc4[nH]7)C=C6)C=C5)cc3)s2)cc1OC
REMARK SMILES IDX 18 1 17 2 15 3 16 4 14 6 10 7 11 8 87 9 12 10 13 11 9 12
REMARK SMILES IDX 6 13 7 14 89 15 8 16 88 17 5 18 4 19 3 20 2 21 1 22 90 23
REMARK SMILES IDX 91 24 19 25 20 26 21 27 22 28 23 30 24 31 25 32 86 33 26 34
REMARK SMILES IDX 85 35 27 36 28 37 29 38 79 39 30 40 84 41 78 42 80 43 31 44
REMARK SMILES IDX 83 45 77 46 76 47 32 49 64 50 44 51 63 52 45 53 48 54 62 55
REMARK SMILES IDX 81 56 46 57 47 58 61 60 82 61 49 62 33 63 34 64 42 65 35 66
REMARK SMILES IDX 37 67 43 68 36 69 38 70 39 71 40 72 41 73 65 74 66 75 74 76
REMARK SMILES IDX 67 77 69 78 75 79 68 80 70 81 71 82 72 83 73 84 50 85 51 86
REMARK SMILES IDX 59 87 52 88 54 89 60 90 53 91 55 92 56 93 57 94 58 95
REMARK H PARENT 17 5 21 29 80 48 48 59
REMARK Flexibility Score: inf
ROOT
ATOM      1  C   UNL     1      -7.409   4.436   3.530  1.00  0.00     0.118 C 
ENDROOT
BRANCH   1   2
ATOM      2  N   UNL     1      -6.963   4.967   2.264  1.00  0.00    -0.351 N 
ATOM      3  C   UNL     1      -6.090   4.513   1.312  1.00  0.00     0.263 C 
ATOM      4  O   UNL     1      -5.987   5.276   0.344  1.00  0.00    -0.268 OA
ATOM      5  H   UNL     1      -7.371   5.835   2.039  1.00  0.00     0.163 HD
BRANCH   3   6
ATOM      6  C   UNL     1      -5.389   3.237   1.377  1.00  0.00     0.115 A 
ATOM      7  C   UNL     1      -4.110   1.298   0.574  1.00  0.00     0.124 A 
ATOM      8  N   UNL     1      -4.258   1.243   1.876  1.00  0.00    -0.241 NA
ATOM      9  S   UNL     1      -4.936   2.583  -0.176  1.00  0.00    -0.108 S 
ATOM     10  C   UNL     1      -4.894   2.381   2.358  1.00  0.00     0.062 A 
ATOM     11  C   UNL     1      -4.848   2.484   3.838  1.00  0.00     0.068 C 
BRANCH   7  12
ATOM     12  C   UNL     1      -3.286   0.347  -0.176  1.00  0.00     0.014 A 
ATOM     13  C   UNL     1      -1.453  -1.430  -1.342  1.00  0.00     0.161 A 
ATOM     14  C   UNL     1      -2.286  -1.863  -0.307  1.00  0.00     0.051 A 
ATOM     15  C   UNL     1      -1.608  -0.146  -1.876  1.00  0.00     0.161 A 
ATOM     16  C   UNL     1      -3.187  -0.975   0.280  1.00  0.00     0.015 A 
ATOM     17  C   UNL     1      -2.498   0.743  -1.267  1.00  0.00     0.061 A 
BRANCH  13  18
ATOM     18  O   UNL     1      -0.481  -2.269  -1.814  1.00  0.00    -0.490 OA
BRANCH  18  19
ATOM     19  C   UNL     1       0.545  -2.537  -0.843  1.00  0.00     0.230 C 
BRANCH  19  20
ATOM     20  C   UNL     1       1.820  -1.744  -1.151  1.00  0.00     0.041 C 
BRANCH  20  21
ATOM     21  C   UNL     1       1.809  -0.282  -0.692  1.00  0.00     0.000 C 
ATOM     22  C   UNL     1       1.839  -0.115   0.819  1.00  0.00     0.004 C 
ENDBRANCH  20  21
ENDBRANCH  19  20
ENDBRANCH  18  19
ENDBRANCH  13  18
BRANCH  15  23
ATOM     23  O   UNL     1      -0.862   0.410  -2.882  1.00  0.00    -0.493 OA
ATOM     24  C   UNL     1      -0.587  -0.441  -3.987  1.00  0.00     0.278 C 
ENDBRANCH  15  23
ENDBRANCH   7  12
ENDBRANCH   3   6
ENDBRANCH   1   2
BRANCH   1  25
ATOM     25  C   UNL     1      -6.681   5.127   4.680  1.00  0.00     0.042 C 
BRANCH  25  26
ATOM     26  C   UNL     1      -7.311   6.447   5.096  1.00  0.00     0.118 C 
BRANCH  26  27
ATOM     27  N   UNL     1      -8.547   6.238   5.832  1.00  0.00    -0.352 N 
ATOM     28  C   UNL     1      -8.861   6.555   7.130  1.00  0.00     0.251 C 
ATOM     29  H   UNL     1      -9.268   5.803   5.322  1.00  0.00     0.163 HD
ATOM     30  O   UNL     1      -9.861   6.048   7.636  1.00  0.00    -0.269 OA
BRANCH  28  31
ATOM     31  C   UNL     1      -8.026   7.493   7.917  1.00  0.00     0.039 A 
ATOM     32  C   UNL     1      -7.918   7.301   9.299  1.00  0.00     0.014 A 
ATOM     33  C   UNL     1      -7.417   8.604   7.326  1.00  0.00     0.014 A 
ATOM     34  C   UNL     1      -7.197   8.210  10.078  1.00  0.00     0.010 A 
ATOM     35  C   UNL     1      -6.621   9.455   8.087  1.00  0.00     0.010 A 
ATOM     36  C   UNL     1      -6.538   9.293   9.477  1.00  0.00    -0.014 A 
BRANCH  36  37
ATOM     37  C   UNL     1      -5.822  10.312  10.287  1.00  0.00     0.031 A 
ATOM     38  C   UNL     1      -6.304  11.742  10.282  1.00  0.00     0.074 A 
ATOM     39  C   UNL     1      -4.713   9.973  10.971  1.00  0.00     0.049 A 
ATOM     40  N   UNL     1      -5.788  12.791  10.869  1.00  0.00    -0.248 NA
ATOM     41  C   UNL     1      -7.507  12.039   9.484  1.00  0.00     0.031 C 
ATOM     42  C   UNL     1      -4.109   8.639  10.997  1.00  0.00     0.029 A 
ATOM     43  N   UNL     1      -3.884  10.728  11.761  1.00  0.00    -0.354 N 
ATOM     44  C   UNL     1      -6.574  13.870  10.479  1.00  0.00     0.074 A 
ATOM     45  C   UNL     1      -7.575  13.359   9.570  1.00  0.00     0.031 C 
ATOM     46  C   UNL     1      -3.012   8.668  11.772  1.00  0.00     0.029 A 
ATOM     47  C   UNL     1      -2.822  10.024  12.278  1.00  0.00     0.049 A 
ATOM     48  H   UNL     1      -4.035  11.684  11.941  1.00  0.00     0.167 HD
ATOM     49  C   UNL     1      -6.498  15.165  10.870  1.00  0.00     0.034 A 
ATOM     50  C   UNL     1      -1.814  10.428  13.076  1.00  0.00     0.034 A 
ATOM     51  C   UNL     1      -5.539  15.656  11.822  1.00  0.00     0.049 A 
ATOM     52  C   UNL     1      -1.793  11.856  13.552  1.00  0.00     0.074 A 
ATOM     53  C   UNL     1      -5.412  16.933  12.338  1.00  0.00     0.029 A 
ATOM     54  N   UNL     1      -4.549  14.885  12.411  1.00  0.00    -0.354 N 
ATOM     55  N   UNL     1      -2.624  12.832  13.275  1.00  0.00    -0.248 NA
ATOM     56  C   UNL     1      -0.723  12.227  14.489  1.00  0.00     0.031 C 
ATOM     57  C   UNL     1      -4.340  16.934  13.238  1.00  0.00     0.029 A 
ATOM     58  C   UNL     1      -3.814  15.653  13.296  1.00  0.00     0.049 A 
ATOM     59  H   UNL     1      -4.391  13.931  12.226  1.00  0.00     0.167 HD
ATOM     60  C   UNL     1      -2.210  13.915  14.041  1.00  0.00     0.074 A 
ATOM     61  C   UNL     1      -1.062  13.470  14.805  1.00  0.00     0.031 C 
ATOM     62  C   UNL     1      -2.722  15.169  14.100  1.00  0.00     0.034 A 
BRANCH  49  63
ATOM     63  C   UNL     1      -7.523  16.124  10.320  1.00  0.00     0.023 A 
ATOM     64  C   UNL     1      -8.865  16.022  10.743  1.00  0.00     0.012 A 
ATOM     65  C   UNL     1      -7.160  17.148   9.424  1.00  0.00     0.148 A 
ATOM     66  C   UNL     1      -9.835  16.895  10.253  1.00  0.00     0.002 A 
ATOM     67  C   UNL     1      -8.125  18.045   8.976  1.00  0.00     0.091 A 
ATOM     68  F   UNL     1      -5.885  17.220   9.015  1.00  0.00    -0.205 F 
ATOM     69  C   UNL     1      -9.464  17.911   9.379  1.00  0.00     0.022 A 
BRANCH  67  70
ATOM     70  S   UNL     1      -7.735  19.438   7.910  1.00  0.00     0.127 S 
ATOM     71  O   UNL     1      -8.342  19.022   6.647  1.00  0.00    -0.237 OA
ATOM     72  O   UNL     1      -8.423  20.542   8.582  1.00  0.00    -0.237 OA
ATOM     73  O   UNL     1      -6.283  19.543   7.903  1.00  0.00    -0.744 OA
ENDBRANCH  67  70
ENDBRANCH  49  63
BRANCH  50  74
ATOM     74  C   UNL     1      -0.799   9.447  13.555  1.00  0.00     0.023 A 
ATOM     75  C   UNL     1      -0.801   9.063  14.911  1.00  0.00     0.012 A 
ATOM     76  C   UNL     1       0.149   8.879  12.684  1.00  0.00     0.148 A 
ATOM     77  C   UNL     1       0.147   8.163  15.399  1.00  0.00     0.002 A 
ATOM     78  C   UNL     1       1.057   7.942  13.165  1.00  0.00     0.091 A 
ATOM     79  F   UNL     1       0.143   9.263  11.399  1.00  0.00    -0.205 F 
ATOM     80  C   UNL     1       1.070   7.596  14.525  1.00  0.00     0.022 A 
BRANCH  78  81
ATOM     81  S   UNL     1       2.194   7.066  12.084  1.00  0.00     0.127 S 
ATOM     82  O   UNL     1       3.469   7.702  12.413  1.00  0.00    -0.237 OA
ATOM     83  O   UNL     1       2.058   5.685  12.555  1.00  0.00    -0.237 OA
ATOM     84  O   UNL     1       1.700   7.289  10.736  1.00  0.00    -0.744 OA
ENDBRANCH  78  81
ENDBRANCH  50  74
BRANCH  62  85
ATOM     85  C   UNL     1      -2.091  16.134  15.068  1.00  0.00     0.023 A 
ATOM     86  C   UNL     1      -0.817  16.672  14.798  1.00  0.00     0.012 A 
ATOM     87  C   UNL     1      -2.791  16.555  16.215  1.00  0.00     0.148 A 
ATOM     88  C   UNL     1      -0.233  17.583  15.677  1.00  0.00     0.002 A 
ATOM     89  C   UNL     1      -2.225  17.501  17.060  1.00  0.00     0.091 A 
ATOM     90  F   UNL     1      -3.994  16.016  16.467  1.00  0.00    -0.205 F 
ATOM     91  C   UNL     1      -0.941  18.006  16.800  1.00  0.00     0.022 A 
BRANCH  89  92
ATOM     92  S   UNL     1      -3.112  18.171  18.471  1.00  0.00     0.127 S 
ATOM     93  O   UNL     1      -2.513  17.432  19.579  1.00  0.00    -0.237 OA
ATOM     94  O   UNL     1      -2.757  19.590  18.421  1.00  0.00    -0.237 OA
ATOM     95  O   UNL     1      -4.521  17.897  18.217  1.00  0.00    -0.744 OA
ENDBRANCH  89  92
ENDBRANCH  62  85
ENDBRANCH  36  37
ENDBRANCH  28  31
ENDBRANCH  26  27
ENDBRANCH  25  26
ENDBRANCH   1  25
TORSDOF 19
