REMARK SMILES NC(=O)C1CC[NH+](Cc2ccc(C(=O)NCCCNC(=O)c3ccc(-c4c5nc(c(-c6cccc(S(=O)(=O)[O-])c6F)c6ccc([nH]6)c(-c6cccc(S(=O)(=O)[O-])c6F)c6nc(c(-c7cccc(S(=O)(=O)[O-])c7F)c7ccc4[nH]7)C=C6)C=C5)cc3)cc2)CC1
REMARK SMILES IDX 17 1 16 2 15 3 13 4 14 5 12 7 9 8 10 9 86 10 11 11 85 12
REMARK SMILES IDX 8 13 7 14 4 15 5 16 88 17 6 18 87 19 2 21 1 22 3 25 18 26
REMARK SMILES IDX 19 27 20 28 21 30 22 31 23 32 84 33 24 34 83 35 25 36 26 37
REMARK SMILES IDX 27 38 77 39 28 40 82 41 76 42 78 43 29 44 81 45 75 46 74 47
REMARK SMILES IDX 30 49 62 50 42 51 61 52 43 53 46 54 60 55 79 56 44 57 45 58
REMARK SMILES IDX 59 60 80 61 47 62 31 63 32 64 40 65 33 66 35 67 41 68 34 69
REMARK SMILES IDX 36 70 37 71 38 72 39 73 63 74 64 75 72 76 65 77 67 78 73 79
REMARK SMILES IDX 66 80 68 81 69 82 70 83 71 84 48 85 49 86 57 87 50 88 52 89
REMARK SMILES IDX 58 90 51 91 53 92 54 93 55 94 56 95
REMARK H PARENT 15 6 7 20 1 23 1 24 19 29 78 48 46 59
REMARK Flexibility Score: inf
ROOT
ATOM      1  C   UNL     1       0.389   3.832  -4.518  1.00  0.00     0.042 C 
ENDROOT
BRANCH   1   2
ATOM      2  C   UNL     1       0.454   2.359  -4.126  1.00  0.00     0.118 C 
BRANCH   2   3
ATOM      3  N   UNL     1       1.435   1.637  -4.921  1.00  0.00    -0.352 N 
ATOM      4  C   UNL     1       2.691   1.177  -4.615  1.00  0.00     0.251 C 
ATOM      5  O   UNL     1       3.277   0.478  -5.440  1.00  0.00    -0.269 OA
ATOM      6  H   UNL     1       1.146   1.445  -5.842  1.00  0.00     0.163 HD
BRANCH   4   7
ATOM      7  C   UNL     1       3.321   1.420  -3.292  1.00  0.00     0.039 A 
ATOM      8  C   UNL     1       4.373   1.653  -0.690  1.00  0.00     0.006 A 
ATOM      9  C   UNL     1       4.604   0.497  -1.447  1.00  0.00     0.010 A 
ATOM     10  C   UNL     1       3.722   2.734  -1.300  1.00  0.00     0.010 A 
ATOM     11  C   UNL     1       4.080   0.382  -2.738  1.00  0.00     0.014 A 
ATOM     12  C   UNL     1       3.205   2.620  -2.592  1.00  0.00     0.014 A 
BRANCH   8  13
ATOM     13  C   UNL     1       4.755   1.716   0.779  1.00  0.00     0.299 C 
BRANCH  13  14
ATOM     14  N   UNL     1       3.681   1.333   1.726  1.00  0.00    -0.331 N 
ATOM     15  C   UNL     1       0.996   0.424   2.539  1.00  0.00     0.089 C 
ATOM     16  C   UNL     1       1.430   1.880   2.659  1.00  0.00     0.075 C 
ATOM     17  C   UNL     1       2.207  -0.504   2.591  1.00  0.00     0.075 C 
ATOM     18  C   UNL     1       2.535   2.244   1.675  1.00  0.00     0.263 C 
ATOM     19  C   UNL     1       3.351  -0.090   1.664  1.00  0.00     0.263 C 
ATOM     20  H   UNL     1       4.053   1.457   2.668  1.00  0.00     0.348 HD
BRANCH  15  21
ATOM     21  C   UNL     1       0.054   0.170   1.363  1.00  0.00     0.220 C 
ATOM     22  N   UNL     1       0.547   0.208   0.099  1.00  0.00    -0.369 N 
ATOM     23  H   UNL     1      -0.049   0.047  -0.667  1.00  0.00     0.159 HD
ATOM     24  H   UNL     1       1.502   0.397  -0.051  1.00  0.00     0.159 HD
ATOM     25  O   UNL     1      -1.145  -0.049   1.530  1.00  0.00    -0.275 OA
ENDBRANCH  15  21
ENDBRANCH  13  14
ENDBRANCH   8  13
ENDBRANCH   4   7
ENDBRANCH   2   3
ENDBRANCH   1   2
BRANCH   1  26
ATOM     26  C   UNL     1      -0.274   4.072  -5.869  1.00  0.00     0.118 C 
BRANCH  26  27
ATOM     27  N   UNL     1      -1.706   3.806  -5.835  1.00  0.00    -0.352 N 
ATOM     28  C   UNL     1      -2.754   4.643  -6.140  1.00  0.00     0.251 C 
ATOM     29  H   UNL     1      -1.960   2.898  -5.554  1.00  0.00     0.163 HD
ATOM     30  O   UNL     1      -3.900   4.311  -5.857  1.00  0.00    -0.269 OA
BRANCH  28  31
ATOM     31  C   UNL     1      -2.494   5.942  -6.796  1.00  0.00     0.039 A 
ATOM     32  C   UNL     1      -3.171   7.081  -6.350  1.00  0.00     0.014 A 
ATOM     33  C   UNL     1      -1.592   6.033  -7.859  1.00  0.00     0.014 A 
ATOM     34  C   UNL     1      -2.899   8.323  -6.932  1.00  0.00     0.010 A 
ATOM     35  C   UNL     1      -1.265   7.279  -8.382  1.00  0.00     0.010 A 
ATOM     36  C   UNL     1      -1.922   8.435  -7.933  1.00  0.00    -0.014 A 
BRANCH  36  37
ATOM     37  C   UNL     1      -1.571   9.738  -8.555  1.00  0.00     0.031 A 
ATOM     38  C   UNL     1      -1.774   9.929 -10.034  1.00  0.00     0.074 A 
ATOM     39  C   UNL     1      -0.960  10.692  -7.823  1.00  0.00     0.049 A 
ATOM     40  N   UNL     1      -1.376  10.908 -10.803  1.00  0.00    -0.248 NA
ATOM     41  C   UNL     1      -2.492   8.860 -10.751  1.00  0.00     0.031 C 
ATOM     42  C   UNL     1      -0.660  10.602  -6.393  1.00  0.00     0.029 A 
ATOM     43  N   UNL     1      -0.439  11.908  -8.194  1.00  0.00    -0.354 N 
ATOM     44  C   UNL     1      -1.743  10.549 -12.095  1.00  0.00     0.074 A 
ATOM     45  C   UNL     1      -2.381   9.254 -12.011  1.00  0.00     0.031 C 
ATOM     46  C   UNL     1       0.007  11.704  -6.012  1.00  0.00     0.029 A 
ATOM     47  C   UNL     1       0.222  12.558  -7.175  1.00  0.00     0.049 A 
ATOM     48  H   UNL     1      -0.529  12.279  -9.101  1.00  0.00     0.167 HD
ATOM     49  C   UNL     1      -1.578  11.243 -13.244  1.00  0.00     0.034 A 
ATOM     50  C   UNL     1       0.945  13.696  -7.186  1.00  0.00     0.034 A 
ATOM     51  C   UNL     1      -0.990  12.552 -13.311  1.00  0.00     0.049 A 
ATOM     52  C   UNL     1       1.083  14.462  -8.475  1.00  0.00     0.074 A 
ATOM     53  C   UNL     1      -0.860  13.378 -14.414  1.00  0.00     0.029 A 
ATOM     54  N   UNL     1      -0.429  13.223 -12.237  1.00  0.00    -0.354 N 
ATOM     55  N   UNL     1       0.611  14.169  -9.662  1.00  0.00    -0.248 NA
ATOM     56  C   UNL     1       1.823  15.732  -8.424  1.00  0.00     0.031 C 
ATOM     57  C   UNL     1      -0.188  14.535 -14.013  1.00  0.00     0.029 A 
ATOM     58  C   UNL     1       0.055  14.450 -12.652  1.00  0.00     0.049 A 
ATOM     59  H   UNL     1      -0.382  12.878 -11.317  1.00  0.00     0.167 HD
ATOM     60  C   UNL     1       0.947  15.241 -10.481  1.00  0.00     0.074 A 
ATOM     61  C   UNL     1       1.660  16.192  -9.657  1.00  0.00     0.031 C 
ATOM     62  C   UNL     1       0.691  15.419 -11.800  1.00  0.00     0.034 A 
BRANCH  49  63
ATOM     63  C   UNL     1      -2.070  10.627 -14.527  1.00  0.00     0.023 A 
ATOM     64  C   UNL     1      -3.454  10.531 -14.773  1.00  0.00     0.012 A 
ATOM     65  C   UNL     1      -1.160  10.235 -15.528  1.00  0.00     0.148 A 
ATOM     66  C   UNL     1      -3.925  10.028 -15.985  1.00  0.00     0.002 A 
ATOM     67  C   UNL     1      -1.637   9.782 -16.751  1.00  0.00     0.091 A 
ATOM     68  F   UNL     1       0.152  10.319 -15.266  1.00  0.00    -0.205 F 
ATOM     69  C   UNL     1      -3.018   9.667 -16.977  1.00  0.00     0.022 A 
BRANCH  67  70
ATOM     70  S   UNL     1      -0.553   9.376 -18.125  1.00  0.00     0.127 S 
ATOM     71  O   UNL     1      -0.768   7.935 -18.254  1.00  0.00    -0.237 OA
ATOM     72  O   UNL     1      -1.123  10.177 -19.210  1.00  0.00    -0.237 OA
ATOM     73  O   UNL     1       0.787   9.768 -17.714  1.00  0.00    -0.744 OA
ENDBRANCH  67  70
ENDBRANCH  49  63
BRANCH  50  74
ATOM     74  C   UNL     1       1.573  14.203  -5.931  1.00  0.00     0.023 A 
ATOM     75  C   UNL     1       1.098  15.396  -5.351  1.00  0.00     0.012 A 
ATOM     76  C   UNL     1       2.638  13.519  -5.315  1.00  0.00     0.148 A 
ATOM     77  C   UNL     1       1.704  15.924  -4.210  1.00  0.00     0.002 A 
ATOM     78  C   UNL     1       3.199  14.019  -4.146  1.00  0.00     0.091 A 
ATOM     79  F   UNL     1       3.084  12.391  -5.885  1.00  0.00    -0.205 F 
ATOM     80  C   UNL     1       2.749  15.233  -3.604  1.00  0.00     0.022 A 
BRANCH  78  81
ATOM     81  S   UNL     1       4.458  13.127  -3.226  1.00  0.00     0.127 S 
ATOM     82  O   UNL     1       5.648  13.932  -3.489  1.00  0.00    -0.237 OA
ATOM     83  O   UNL     1       3.949  13.208  -1.857  1.00  0.00    -0.237 OA
ATOM     84  O   UNL     1       4.467  11.780  -3.780  1.00  0.00    -0.744 OA
ENDBRANCH  78  81
ENDBRANCH  50  74
BRANCH  62  85
ATOM     85  C   UNL     1       1.093  16.723 -12.434  1.00  0.00     0.023 A 
ATOM     86  C   UNL     1       2.445  16.991 -12.718  1.00  0.00     0.012 A 
ATOM     87  C   UNL     1       0.100  17.628 -12.861  1.00  0.00     0.148 A 
ATOM     88  C   UNL     1       2.805  18.151 -13.403  1.00  0.00     0.002 A 
ATOM     89  C   UNL     1       0.461  18.752 -13.590  1.00  0.00     0.091 A 
ATOM     90  F   UNL     1      -1.179  17.358 -12.564  1.00  0.00    -0.205 F 
ATOM     91  C   UNL     1       1.813  19.022 -13.852  1.00  0.00     0.022 A 
BRANCH  89  92
ATOM     92  S   UNL     1      -0.752  19.869 -14.302  1.00  0.00     0.127 S 
ATOM     93  O   UNL     1      -0.528  21.087 -13.523  1.00  0.00    -0.237 OA
ATOM     94  O   UNL     1      -0.318  19.948 -15.696  1.00  0.00    -0.237 OA
ATOM     95  O   UNL     1      -2.050  19.238 -14.104  1.00  0.00    -0.744 OA
ENDBRANCH  89  92
ENDBRANCH  62  85
ENDBRANCH  36  37
ENDBRANCH  28  31
ENDBRANCH  26  27
ENDBRANCH   1  26
TORSDOF 16
