REMARK SMILES O=C(NCCCNC(=O)[C@H]1CC[C@@H](CNC(=O)c2ccc(CO)cc2)O1)c1ccc(-c2c3nc(c(-c4cccc(S(=O)(=O)[O-])c4F)c4ccc([nH]4)c(-c4cccc(S(=O)(=O)[O-])c4F)c4nc(c(-c5cccc(S(=O)(=O)[O-])c5F)c5ccc2[nH]5)C=C4)C=C3)cc1
REMARK SMILES IDX 6 1 5 2 4 3 3 4 1 5 2 6 27 8 28 9 89 10 29 11 88 12 30 13
REMARK SMILES IDX 31 14 32 15 82 16 33 17 87 18 81 19 83 20 34 21 86 22 80 23
REMARK SMILES IDX 79 24 35 26 67 27 47 28 66 29 48 30 51 31 65 32 84 33 49 34
REMARK SMILES IDX 50 35 64 37 85 38 52 39 36 40 37 41 45 42 38 43 40 44 46 45
REMARK SMILES IDX 39 46 41 47 42 48 43 49 44 50 68 51 69 52 77 53 70 54 72 55
REMARK SMILES IDX 78 56 71 57 73 58 74 59 75 60 76 61 53 62 54 63 62 64 55 65
REMARK SMILES IDX 57 66 63 67 56 68 58 69 59 70 60 71 61 72 7 73 8 74 9 76
REMARK SMILES IDX 10 77 11 78 26 79 12 80 13 81 14 82 15 83 16 84 17 86 18 87
REMARK SMILES IDX 19 88 25 89 20 90 24 91 21 92 22 93 23 94
REMARK H PARENT 3 7 83 25 51 36 7 75 15 85 23 95
REMARK Flexibility Score: inf
ROOT
ATOM      1  C   UNL     1       5.335   2.190   8.195  1.00  0.00     0.117 C 
ENDROOT
BRANCH   1   2
ATOM      2  C   UNL     1       3.866   2.490   8.453  1.00  0.00     0.042 C 
BRANCH   2   3
ATOM      3  C   UNL     1       3.488   2.297   9.915  1.00  0.00     0.118 C 
BRANCH   3   4
ATOM      4  N   UNL     1       4.145   3.275  10.778  1.00  0.00    -0.352 N 
ATOM      5  O   UNL     1       4.429   5.238  11.833  1.00  0.00    -0.269 OA
ATOM      6  C   UNL     1       3.645   4.401  11.384  1.00  0.00     0.251 C 
ATOM      7  H   UNL     1       5.097   3.098  10.954  1.00  0.00     0.163 HD
BRANCH   6   8
ATOM      8  C   UNL     1       2.186   4.609  11.484  1.00  0.00     0.039 A 
ATOM      9  C   UNL     1       1.341   3.528  11.739  1.00  0.00     0.014 A 
ATOM     10  C   UNL     1       1.652   5.894  11.354  1.00  0.00     0.014 A 
ATOM     11  C   UNL     1      -0.033   3.693  11.681  1.00  0.00     0.010 A 
ATOM     12  C   UNL     1       0.268   6.080  11.427  1.00  0.00     0.010 A 
ATOM     13  C   UNL     1      -0.588   4.976  11.561  1.00  0.00    -0.014 A 
BRANCH  13  14
ATOM     14  C   UNL     1      -2.058   5.132  11.691  1.00  0.00     0.031 A 
ATOM     15  C   UNL     1      -2.887   5.715  10.585  1.00  0.00     0.074 A 
ATOM     16  C   UNL     1      -2.639   4.737  12.842  1.00  0.00     0.049 A 
ATOM     17  N   UNL     1      -4.179   5.916  10.549  1.00  0.00    -0.248 NA
ATOM     18  C   UNL     1      -2.181   6.137   9.365  1.00  0.00     0.031 C 
ATOM     19  C   UNL     1      -1.921   4.200  14.004  1.00  0.00     0.029 A 
ATOM     20  N   UNL     1      -3.952   4.729  13.234  1.00  0.00    -0.354 N 
ATOM     21  C   UNL     1      -4.437   6.532   9.331  1.00  0.00     0.074 A 
ATOM     22  C   UNL     1      -3.165   6.673   8.655  1.00  0.00     0.031 C 
ATOM     23  C   UNL     1      -2.801   3.897  14.966  1.00  0.00     0.029 A 
ATOM     24  C   UNL     1      -4.132   4.288  14.524  1.00  0.00     0.049 A 
ATOM     25  H   UNL     1      -4.692   5.010  12.650  1.00  0.00     0.167 HD
ATOM     26  C   UNL     1      -5.627   6.936   8.824  1.00  0.00     0.034 A 
ATOM     27  C   UNL     1      -5.237   4.241  15.289  1.00  0.00     0.034 A 
ATOM     28  C   UNL     1      -6.887   6.771   9.501  1.00  0.00     0.049 A 
ATOM     29  C   UNL     1      -6.542   4.682  14.699  1.00  0.00     0.074 A 
ATOM     30  C   UNL     1      -8.156   7.076   9.042  1.00  0.00     0.029 A 
ATOM     31  N   UNL     1      -7.037   6.277  10.789  1.00  0.00    -0.354 N 
ATOM     32  N   UNL     1      -6.784   5.138  13.494  1.00  0.00    -0.248 NA
ATOM     33  C   UNL     1      -7.727   4.578  15.557  1.00  0.00     0.031 C 
ATOM     34  C   UNL     1      -9.069   6.805  10.068  1.00  0.00     0.029 A 
ATOM     35  C   UNL     1      -8.375   6.290  11.151  1.00  0.00     0.049 A 
ATOM     36  H   UNL     1      -6.301   5.963  11.363  1.00  0.00     0.167 HD
ATOM     37  C   UNL     1      -8.154   5.357  13.440  1.00  0.00     0.074 A 
ATOM     38  C   UNL     1      -8.690   4.957  14.727  1.00  0.00     0.031 C 
ATOM     39  C   UNL     1      -8.897   5.856  12.422  1.00  0.00     0.034 A 
BRANCH  26  40
ATOM     40  C   UNL     1      -5.626   7.592   7.466  1.00  0.00     0.023 A 
ATOM     41  C   UNL     1      -5.359   6.827   6.312  1.00  0.00     0.012 A 
ATOM     42  C   UNL     1      -5.938   8.960   7.327  1.00  0.00     0.148 A 
ATOM     43  C   UNL     1      -5.360   7.419   5.049  1.00  0.00     0.002 A 
ATOM     44  C   UNL     1      -5.983   9.533   6.061  1.00  0.00     0.091 A 
ATOM     45  F   UNL     1      -6.170   9.679   8.434  1.00  0.00    -0.205 F 
ATOM     46  C   UNL     1      -5.681   8.768   4.923  1.00  0.00     0.022 A 
BRANCH  44  47
ATOM     47  S   UNL     1      -6.466  11.242   5.789  1.00  0.00     0.127 S 
ATOM     48  O   UNL     1      -5.187  11.856   5.438  1.00  0.00    -0.237 OA
ATOM     49  O   UNL     1      -7.410  11.122   4.677  1.00  0.00    -0.237 OA
ATOM     50  O   UNL     1      -7.058  11.694   7.040  1.00  0.00    -0.744 OA
ENDBRANCH  44  47
ENDBRANCH  26  40
BRANCH  27  51
ATOM     51  C   UNL     1      -5.133   3.752  16.691  1.00  0.00     0.023 A 
ATOM     52  C   UNL     1      -5.691   2.510  17.045  1.00  0.00     0.012 A 
ATOM     53  C   UNL     1      -4.411   4.484  17.656  1.00  0.00     0.148 A 
ATOM     54  C   UNL     1      -5.550   2.015  18.342  1.00  0.00     0.002 A 
ATOM     55  C   UNL     1      -4.220   3.956  18.925  1.00  0.00     0.091 A 
ATOM     56  F   UNL     1      -3.893   5.667  17.297  1.00  0.00    -0.205 F 
ATOM     57  C   UNL     1      -4.803   2.729  19.276  1.00  0.00     0.022 A 
BRANCH  55  58
ATOM     58  S   UNL     1      -3.148   4.733  20.139  1.00  0.00     0.127 S 
ATOM     59  O   UNL     1      -4.110   5.177  21.144  1.00  0.00    -0.237 OA
ATOM     60  O   UNL     1      -2.299   3.614  20.549  1.00  0.00    -0.237 OA
ATOM     61  O   UNL     1      -2.446   5.791  19.426  1.00  0.00    -0.744 OA
ENDBRANCH  55  58
ENDBRANCH  27  51
BRANCH  39  62
ATOM     62  C   UNL     1     -10.382   5.968  12.643  1.00  0.00     0.023 A 
ATOM     63  C   UNL     1     -10.894   6.957  13.506  1.00  0.00     0.012 A 
ATOM     64  C   UNL     1     -11.272   5.135  11.937  1.00  0.00     0.148 A 
ATOM     65  C   UNL     1     -12.269   7.094  13.688  1.00  0.00     0.002 A 
ATOM     66  C   UNL     1     -12.642   5.313  12.082  1.00  0.00     0.091 A 
ATOM     67  F   UNL     1     -10.763   4.187  11.137  1.00  0.00    -0.205 F 
ATOM     68  C   UNL     1     -13.142   6.282  12.967  1.00  0.00     0.022 A 
BRANCH  66  69
ATOM     69  S   UNL     1     -13.841   4.382  11.123  1.00  0.00     0.127 S 
ATOM     70  O   UNL     1     -14.447   3.532  12.147  1.00  0.00    -0.237 OA
ATOM     71  O   UNL     1     -14.713   5.438  10.611  1.00  0.00    -0.237 OA
ATOM     72  O   UNL     1     -13.079   3.676  10.101  1.00  0.00    -0.744 OA
ENDBRANCH  66  69
ENDBRANCH  39  62
ENDBRANCH  13  14
ENDBRANCH   6   8
ENDBRANCH   3   4
ENDBRANCH   2   3
ENDBRANCH   1   2
BRANCH   1  73
ATOM     73  N   UNL     1       5.600   0.769   8.174  1.00  0.00    -0.354 N 
ATOM     74  C   UNL     1       5.907  -0.102   7.181  1.00  0.00     0.249 C 
ATOM     75  H   UNL     1       5.546   0.347   9.062  1.00  0.00     0.163 HD
ATOM     76  O   UNL     1       6.046  -1.280   7.540  1.00  0.00    -0.272 OA
BRANCH  74  77
ATOM     77  C   UNL     1       6.165   0.278   5.702  1.00  0.00     0.207 C 
ATOM     78  C   UNL     1       5.421   1.418   5.043  1.00  0.00     0.045 C 
ATOM     79  O   UNL     1       7.558   0.482   5.442  1.00  0.00    -0.363 OA
ATOM     80  C   UNL     1       6.446   2.521   4.877  1.00  0.00     0.037 C 
ATOM     81  C   UNL     1       7.797   1.846   5.064  1.00  0.00     0.138 C 
BRANCH  81  82
ATOM     82  C   UNL     1       8.693   2.466   6.146  1.00  0.00     0.148 C 
BRANCH  82  83
ATOM     83  N   UNL     1       8.862   3.905   6.050  1.00  0.00    -0.349 N 
ATOM     84  C   UNL     1       8.841   4.842   7.057  1.00  0.00     0.251 C 
ATOM     85  H   UNL     1       9.010   4.258   5.143  1.00  0.00     0.163 HD
ATOM     86  O   UNL     1       8.867   6.036   6.774  1.00  0.00    -0.269 OA
BRANCH  84  87
ATOM     87  C   UNL     1       8.758   4.423   8.478  1.00  0.00     0.039 A 
ATOM     88  C   UNL     1       7.851   5.075   9.319  1.00  0.00     0.014 A 
ATOM     89  C   UNL     1       9.591   3.426   8.997  1.00  0.00     0.014 A 
ATOM     90  C   UNL     1       7.727   4.681  10.655  1.00  0.00     0.007 A 
ATOM     91  C   UNL     1       9.456   3.024  10.328  1.00  0.00     0.007 A 
ATOM     92  C   UNL     1       8.507   3.631  11.161  1.00  0.00    -0.023 A 
BRANCH  92  93
ATOM     93  C   UNL     1       8.368   3.197  12.598  1.00  0.00     0.191 C 
BRANCH  93  94
ATOM     94  O   UNL     1       9.133   4.030  13.455  1.00  0.00    -0.392 OA
ATOM     95  H   UNL     1      10.070   3.972  13.211  1.00  0.00     0.211 HD
ENDBRANCH  93  94
ENDBRANCH  92  93
ENDBRANCH  84  87
ENDBRANCH  82  83
ENDBRANCH  81  82
ENDBRANCH  74  77
ENDBRANCH   1  73
TORSDOF 18
