REMARK SMILES O=C(CSc1nc(O)cc(=O)[nH]1)Nc1cccc(C(=O)NCCCNC(=O)c2ccc(-c3c4nc(c(-c5cccc(S(=O)(=O)[O-])c5F)c5ccc([nH]5)c(-c5cccc(S(=O)(=O)[O-])c5F)c5nc(c(-c6cccc(S(=O)(=O)[O-])c6F)c6ccc3[nH]6)C=C5)C=C4)cc2)c1
REMARK SMILES IDX 22 1 21 2 19 3 20 4 18 6 14 7 15 8 91 9 16 10 17 11 13 12
REMARK SMILES IDX 1 13 2 14 3 16 4 17 5 18 6 19 12 20 7 21 10 22 9 24 11 25
REMARK SMILES IDX 8 26 23 28 24 29 25 30 26 31 27 33 28 34 29 35 90 36 30 37
REMARK SMILES IDX 89 38 31 39 32 40 33 41 83 42 34 43 88 44 82 45 84 46 35 47
REMARK SMILES IDX 87 48 81 49 80 50 36 52 68 53 48 54 67 55 49 56 52 57 66 58
REMARK SMILES IDX 85 59 50 60 51 61 65 63 86 64 53 65 37 66 38 67 46 68 39 69
REMARK SMILES IDX 41 70 47 71 40 72 42 73 43 74 44 75 45 76 69 77 70 78 78 79
REMARK SMILES IDX 71 80 73 81 79 82 72 83 74 84 75 85 76 86 77 87 54 88 55 89
REMARK SMILES IDX 63 90 56 91 58 92 64 93 57 94 59 95 60 96 61 97 62 98
REMARK H PARENT 21 5 13 15 12 23 8 27 25 32 84 51 52 62
REMARK Flexibility Score: inf
ROOT
ATOM      1  C   UNL     1      -0.395   2.991  -1.205  1.00  0.00     0.118 C 
ENDROOT
BRANCH   1   2
ATOM      2  N   UNL     1      -0.947   2.991  -2.559  1.00  0.00    -0.352 N 
ATOM      3  C   UNL     1      -0.638   2.259  -3.688  1.00  0.00     0.251 C 
ATOM      4  O   UNL     1      -1.272   2.473  -4.721  1.00  0.00    -0.269 OA
ATOM      5  H   UNL     1      -1.678   3.637  -2.691  1.00  0.00     0.163 HD
BRANCH   3   6
ATOM      6  C   UNL     1       0.475   1.272  -3.718  1.00  0.00     0.041 A 
ATOM      7  C   UNL     1       2.093  -0.066  -2.521  1.00  0.00     0.041 A 
ATOM      8  C   UNL     1       2.833  -0.216  -3.696  1.00  0.00     0.026 A 
ATOM      9  C   UNL     1       0.846   0.545  -2.591  1.00  0.00     0.040 A 
ATOM     10  C   UNL     1       2.362   0.324  -4.896  1.00  0.00     0.003 A 
ATOM     11  C   UNL     1       1.206   1.108  -4.898  1.00  0.00     0.014 A 
BRANCH   7  12
ATOM     12  N   UNL     1       2.690  -0.427  -1.294  1.00  0.00    -0.325 N 
ATOM     13  O   UNL     1       1.014   0.132   0.231  1.00  0.00    -0.274 OA
ATOM     14  C   UNL     1       2.157  -0.248  -0.023  1.00  0.00     0.234 C 
ATOM     15  H   UNL     1       3.578  -0.850  -1.344  1.00  0.00     0.169 HD
BRANCH  14  16
ATOM     16  C   UNL     1       3.142  -0.461   1.118  1.00  0.00     0.178 C 
BRANCH  16  17
ATOM     17  S   UNL     1       4.228  -1.899   0.912  1.00  0.00    -0.078 SA
BRANCH  17  18
ATOM     18  C   UNL     1       3.063  -3.175   0.756  1.00  0.00     0.172 A 
ATOM     19  N   UNL     1       1.837  -2.965   0.429  1.00  0.00    -0.189 NA
ATOM     20  N   UNL     1       3.601  -4.401   0.965  1.00  0.00    -0.301 N 
ATOM     21  C   UNL     1       1.051  -4.063   0.266  1.00  0.00     0.218 A 
ATOM     22  C   UNL     1       2.861  -5.535   0.816  1.00  0.00     0.255 A 
ATOM     23  H   UNL     1       4.546  -4.474   1.231  1.00  0.00     0.172 HD
ATOM     24  C   UNL     1       1.461  -5.322   0.424  1.00  0.00     0.139 A 
ATOM     25  O   UNL     1       3.320  -6.656   0.981  1.00  0.00    -0.269 OA
BRANCH  21  26
ATOM     26  O   UNL     1      -0.238  -3.804  -0.112  1.00  0.00    -0.493 OA
ATOM     27  H   UNL     1      -0.526  -2.919  -0.223  1.00  0.00     0.295 HD
ENDBRANCH  21  26
ENDBRANCH  17  18
ENDBRANCH  16  17
ENDBRANCH  14  16
ENDBRANCH   7  12
ENDBRANCH   3   6
ENDBRANCH   1   2
BRANCH   1  28
ATOM     28  C   UNL     1       0.120   4.338  -0.731  1.00  0.00     0.042 C 
BRANCH  28  29
ATOM     29  C   UNL     1      -0.952   5.385  -0.503  1.00  0.00     0.118 C 
BRANCH  29  30
ATOM     30  N   UNL     1      -1.891   5.020   0.553  1.00  0.00    -0.352 N 
ATOM     31  C   UNL     1      -2.088   5.551   1.806  1.00  0.00     0.251 C 
ATOM     32  H   UNL     1      -2.485   4.266   0.330  1.00  0.00     0.163 HD
ATOM     33  O   UNL     1      -2.821   4.965   2.599  1.00  0.00    -0.269 OA
BRANCH  31  34
ATOM     34  C   UNL     1      -1.417   6.806   2.213  1.00  0.00     0.039 A 
ATOM     35  C   UNL     1      -0.955   6.939   3.527  1.00  0.00     0.014 A 
ATOM     36  C   UNL     1      -1.263   7.864   1.318  1.00  0.00     0.014 A 
ATOM     37  C   UNL     1      -0.282   8.102   3.914  1.00  0.00     0.010 A 
ATOM     38  C   UNL     1      -0.491   8.965   1.667  1.00  0.00     0.010 A 
ATOM     39  C   UNL     1      -0.011   9.110   2.976  1.00  0.00    -0.014 A 
BRANCH  39  40
ATOM     40  C   UNL     1       0.744  10.338   3.337  1.00  0.00     0.031 A 
ATOM     41  C   UNL     1       0.101  11.691   3.165  1.00  0.00     0.074 A 
ATOM     42  C   UNL     1       2.031  10.246   3.726  1.00  0.00     0.049 A 
ATOM     43  N   UNL     1       0.620  12.880   3.334  1.00  0.00    -0.248 NA
ATOM     44  C   UNL     1      -1.300  11.713   2.707  1.00  0.00     0.031 C 
ATOM     45  C   UNL     1       2.790   9.001   3.857  1.00  0.00     0.029 A 
ATOM     46  N   UNL     1       2.938  11.222   4.056  1.00  0.00    -0.354 N 
ATOM     47  C   UNL     1      -0.371  13.783   2.963  1.00  0.00     0.074 A 
ATOM     48  C   UNL     1      -1.505  13.007   2.517  1.00  0.00     0.031 C 
ATOM     49  C   UNL     1       4.042   9.286   4.249  1.00  0.00     0.029 A 
ATOM     50  C   UNL     1       4.188  10.733   4.360  1.00  0.00     0.049 A 
ATOM     51  H   UNL     1       2.716  12.181   4.074  1.00  0.00     0.167 HD
ATOM     52  C   UNL     1      -0.353  15.136   3.020  1.00  0.00     0.034 A 
ATOM     53  C   UNL     1       5.326  11.380   4.682  1.00  0.00     0.034 A 
ATOM     54  C   UNL     1       0.761  15.901   3.509  1.00  0.00     0.049 A 
ATOM     55  C   UNL     1       5.309  12.882   4.774  1.00  0.00     0.074 A 
ATOM     56  C   UNL     1       0.852  17.269   3.688  1.00  0.00     0.029 A 
ATOM     57  N   UNL     1       1.980  15.364   3.892  1.00  0.00    -0.354 N 
ATOM     58  N   UNL     1       4.316  13.711   4.558  1.00  0.00    -0.248 NA
ATOM     59  C   UNL     1       6.557  13.537   5.191  1.00  0.00     0.031 C 
ATOM     60  C   UNL     1       2.138  17.563   4.150  1.00  0.00     0.029 A 
ATOM     61  C   UNL     1       2.833  16.373   4.300  1.00  0.00     0.049 A 
ATOM     62  H   UNL     1       2.205  14.406   3.876  1.00  0.00     0.167 HD
ATOM     63  C   UNL     1       4.805  14.978   4.856  1.00  0.00     0.074 A 
ATOM     64  C   UNL     1       6.178  14.804   5.283  1.00  0.00     0.031 C 
ATOM     65  C   UNL     1       4.179  16.177   4.775  1.00  0.00     0.034 A 
BRANCH  52  66
ATOM     66  C   UNL     1      -1.595  15.873   2.586  1.00  0.00     0.023 A 
ATOM     67  C   UNL     1      -2.767  15.790   3.366  1.00  0.00     0.012 A 
ATOM     68  C   UNL     1      -1.589  16.687   1.436  1.00  0.00     0.148 A 
ATOM     69  C   UNL     1      -3.924  16.469   2.987  1.00  0.00     0.002 A 
ATOM     70  C   UNL     1      -2.730  17.402   1.094  1.00  0.00     0.091 A 
ATOM     71  F   UNL     1      -0.472  16.740   0.696  1.00  0.00    -0.205 F 
ATOM     72  C   UNL     1      -3.902  17.283   1.859  1.00  0.00     0.022 A 
BRANCH  70  73
ATOM     73  S   UNL     1      -2.780  18.545  -0.291  1.00  0.00     0.127 S 
ATOM     74  O   UNL     1      -3.681  17.853  -1.212  1.00  0.00    -0.237 OA
ATOM     75  O   UNL     1      -3.344  19.747   0.324  1.00  0.00    -0.237 OA
ATOM     76  O   UNL     1      -1.405  18.683  -0.750  1.00  0.00    -0.744 OA
ENDBRANCH  70  73
ENDBRANCH  52  66
BRANCH  53  77
ATOM     77  C   UNL     1       6.561  10.608   5.004  1.00  0.00     0.023 A 
ATOM     78  C   UNL     1       7.043  10.595   6.328  1.00  0.00     0.012 A 
ATOM     79  C   UNL     1       7.250   9.877   4.017  1.00  0.00     0.148 A 
ATOM     80  C   UNL     1       8.210   9.904   6.655  1.00  0.00     0.002 A 
ATOM     81  C   UNL     1       8.379   9.142   4.361  1.00  0.00     0.091 A 
ATOM     82  F   UNL     1       6.779   9.906   2.762  1.00  0.00    -0.205 F 
ATOM     83  C   UNL     1       8.873   9.171   5.674  1.00  0.00     0.022 A 
BRANCH  81  84
ATOM     84  S   UNL     1       9.219   8.064   3.196  1.00  0.00     0.127 S 
ATOM     85  O   UNL     1      10.488   8.762   3.003  1.00  0.00    -0.237 OA
ATOM     86  O   UNL     1       9.311   6.815   3.953  1.00  0.00    -0.237 OA
ATOM     87  O   UNL     1       8.353   7.993   2.027  1.00  0.00    -0.744 OA
ENDBRANCH  81  84
ENDBRANCH  53  77
BRANCH  65  88
ATOM     88  C   UNL     1       4.945  17.398   5.213  1.00  0.00     0.023 A 
ATOM     89  C   UNL     1       6.005  17.890   4.426  1.00  0.00     0.012 A 
ATOM     90  C   UNL     1       4.559  18.101   6.372  1.00  0.00     0.148 A 
ATOM     91  C   UNL     1       6.693  19.042   4.806  1.00  0.00     0.002 A 
ATOM     92  C   UNL     1       5.213  19.277   6.715  1.00  0.00     0.091 A 
ATOM     93  F   UNL     1       3.559  17.606   7.116  1.00  0.00    -0.205 F 
ATOM     94  C   UNL     1       6.289  19.741   5.942  1.00  0.00     0.022 A 
BRANCH  92  95
ATOM     95  S   UNL     1       4.696  20.297   8.100  1.00  0.00     0.127 S 
ATOM     96  O   UNL     1       5.787  20.085   9.049  1.00  0.00    -0.237 OA
ATOM     97  O   UNL     1       4.658  21.632   7.502  1.00  0.00    -0.237 OA
ATOM     98  O   UNL     1       3.398  19.783   8.516  1.00  0.00    -0.744 OA
ENDBRANCH  92  95
ENDBRANCH  65  88
ENDBRANCH  39  40
ENDBRANCH  31  34
ENDBRANCH  29  30
ENDBRANCH  28  29
ENDBRANCH   1  28
TORSDOF 18
