REMARK SMILES C[C@H]1[C@H](C(=O)NCCCNC(=O)c2ccc(-c3c4nc(c(-c5cccc(S(=O)(=O)[O-])c5F)c5ccc([nH]5)c(-c5cccc(S(=O)(=O)[O-])c5F)c5nc(c(-c6cccc(S(=O)(=O)[O-])c6F)c6ccc3[nH]6)C=C5)C=C4)cc2)CCN1C(=O)CC[NH2+]C1CC1
REMARK SMILES IDX 7 1 6 2 4 3 5 4 3 6 1 7 2 8 78 9 76 10 77 11 79 12 80 13
REMARK SMILES IDX 81 14 82 15 83 16 84 19 85 20 86 21 8 22 9 23 10 24 11 25
REMARK SMILES IDX 12 27 13 28 14 29 75 30 15 31 74 32 16 33 17 34 18 35 68 36
REMARK SMILES IDX 19 37 73 38 67 39 69 40 20 41 72 42 66 43 65 44 21 46 53 47
REMARK SMILES IDX 33 48 52 49 34 50 37 51 51 52 70 53 35 54 36 55 50 57 71 58
REMARK SMILES IDX 38 59 22 60 23 61 31 62 24 63 26 64 32 65 25 66 27 67 28 68
REMARK SMILES IDX 29 69 30 70 54 71 55 72 63 73 56 74 58 75 64 76 57 77 59 78
REMARK SMILES IDX 60 79 61 80 62 81 39 82 40 83 48 84 41 85 43 86 49 87 42 88
REMARK SMILES IDX 44 89 45 90 46 91 47 92
REMARK H PARENT 6 5 83 17 83 18 10 26 69 45 37 56
REMARK Flexibility Score: inf
ROOT
ATOM      1  C   UNL     1      -1.256   0.486   3.014  1.00  0.00     0.117 C 
ENDROOT
BRANCH   1   2
ATOM      2  N   UNL     1      -0.900   1.814   2.550  1.00  0.00    -0.356 N 
ATOM      3  C   UNL     1      -0.651   2.285   1.305  1.00  0.00     0.225 C 
ATOM      4  O   UNL     1      -0.348   3.477   1.198  1.00  0.00    -0.275 OA
ATOM      5  H   UNL     1      -0.828   2.489   3.263  1.00  0.00     0.163 HD
BRANCH   3   6
ATOM      6  C   UNL     1      -0.697   1.406   0.071  1.00  0.00     0.102 C 
ATOM      7  C   UNL     1       1.243   0.566  -1.228  1.00  0.00     0.032 C 
ATOM      8  C   UNL     1       0.434   0.369   0.054  1.00  0.00     0.094 C 
ATOM      9  N   UNL     1      -0.235  -0.927   0.026  1.00  0.00    -0.339 N 
ATOM     10  C   UNL     1      -1.999   0.640  -0.174  1.00  0.00     0.037 C 
ATOM     11  C   UNL     1      -1.580  -0.791  -0.496  1.00  0.00     0.120 C 
BRANCH   9  12
ATOM     12  C   UNL     1       0.278  -2.175   0.328  1.00  0.00     0.228 C 
ATOM     13  O   UNL     1      -0.341  -3.199   0.025  1.00  0.00    -0.275 OA
BRANCH  12  14
ATOM     14  C   UNL     1       1.592  -2.281   1.091  1.00  0.00     0.161 C 
BRANCH  14  15
ATOM     15  C   UNL     1       2.816  -2.438   0.186  1.00  0.00     0.270 C 
BRANCH  15  16
ATOM     16  N   UNL     1       3.670  -1.245   0.209  1.00  0.00    -0.343 N 
ATOM     17  H   UNL     1       4.126  -1.198   1.120  1.00  0.00     0.346 HD
ATOM     18  H   UNL     1       3.060  -0.449   0.026  1.00  0.00     0.346 HD
BRANCH  16  19
ATOM     19  C   UNL     1       4.708  -1.219  -0.823  1.00  0.00     0.182 C 
ATOM     20  C   UNL     1       4.385  -1.252  -2.293  1.00  0.00     0.071 C 
ATOM     21  C   UNL     1       4.852   0.025  -1.665  1.00  0.00     0.071 C 
ENDBRANCH  16  19
ENDBRANCH  15  16
ENDBRANCH  14  15
ENDBRANCH  12  14
ENDBRANCH   9  12
ENDBRANCH   3   6
ENDBRANCH   1   2
BRANCH   1  22
ATOM     22  C   UNL     1      -0.240  -0.071   3.997  1.00  0.00     0.042 C 
BRANCH  22  23
ATOM     23  C   UNL     1      -0.114   0.739   5.279  1.00  0.00     0.118 C 
BRANCH  23  24
ATOM     24  N   UNL     1      -1.389   0.903   5.965  1.00  0.00    -0.352 N 
ATOM     25  C   UNL     1      -1.788   0.463   7.199  1.00  0.00     0.251 C 
ATOM     26  H   UNL     1      -2.069   1.409   5.463  1.00  0.00     0.163 HD
ATOM     27  O   UNL     1      -2.982   0.506   7.499  1.00  0.00    -0.269 OA
BRANCH  25  28
ATOM     28  C   UNL     1      -0.799  -0.064   8.160  1.00  0.00     0.039 A 
ATOM     29  C   UNL     1      -1.133  -1.175   8.936  1.00  0.00     0.014 A 
ATOM     30  C   UNL     1       0.448   0.549   8.310  1.00  0.00     0.014 A 
ATOM     31  C   UNL     1      -0.193  -1.703   9.822  1.00  0.00     0.010 A 
ATOM     32  C   UNL     1       1.415  -0.037   9.118  1.00  0.00     0.010 A 
ATOM     33  C   UNL     1       1.101  -1.159   9.896  1.00  0.00    -0.014 A 
BRANCH  33  34
ATOM     34  C   UNL     1       2.134  -1.757  10.777  1.00  0.00     0.031 A 
ATOM     35  C   UNL     1       2.747  -0.952  11.891  1.00  0.00     0.074 A 
ATOM     36  C   UNL     1       2.573  -3.006  10.525  1.00  0.00     0.049 A 
ATOM     37  N   UNL     1       3.675  -1.299  12.743  1.00  0.00    -0.248 NA
ATOM     38  C   UNL     1       2.277   0.435  12.052  1.00  0.00     0.031 C 
ATOM     39  C   UNL     1       2.125  -3.852   9.416  1.00  0.00     0.029 A 
ATOM     40  N   UNL     1       3.509  -3.773  11.170  1.00  0.00    -0.354 N 
ATOM     41  C   UNL     1       3.921  -0.173  13.519  1.00  0.00     0.074 A 
ATOM     42  C   UNL     1       3.078   0.885  13.007  1.00  0.00     0.031 C 
ATOM     43  C   UNL     1       2.778  -5.023   9.465  1.00  0.00     0.029 A 
ATOM     44  C   UNL     1       3.712  -5.001  10.585  1.00  0.00     0.049 A 
ATOM     45  H   UNL     1       3.990  -3.474  11.975  1.00  0.00     0.167 HD
ATOM     46  C   UNL     1       4.747  -0.038  14.584  1.00  0.00     0.034 A 
ATOM     47  C   UNL     1       4.561  -5.995  10.910  1.00  0.00     0.034 A 
ATOM     48  C   UNL     1       5.561  -1.101  15.108  1.00  0.00     0.049 A 
ATOM     49  C   UNL     1       5.437  -5.837  12.121  1.00  0.00     0.074 A 
ATOM     50  C   UNL     1       6.372  -1.093  16.229  1.00  0.00     0.029 A 
ATOM     51  N   UNL     1       5.678  -2.361  14.540  1.00  0.00    -0.354 N 
ATOM     52  N   UNL     1       5.537  -4.818  12.940  1.00  0.00    -0.248 NA
ATOM     53  C   UNL     1       6.288  -6.981  12.477  1.00  0.00     0.031 C 
ATOM     54  C   UNL     1       7.002  -2.338  16.323  1.00  0.00     0.029 A 
ATOM     55  C   UNL     1       6.555  -3.136  15.281  1.00  0.00     0.049 A 
ATOM     56  H   UNL     1       5.207  -2.661  13.730  1.00  0.00     0.167 HD
ATOM     57  C   UNL     1       6.437  -5.208  13.925  1.00  0.00     0.074 A 
ATOM     58  C   UNL     1       6.830  -6.567  13.614  1.00  0.00     0.031 C 
ATOM     59  C   UNL     1       6.908  -4.500  14.982  1.00  0.00     0.034 A 
BRANCH  46  60
ATOM     60  C   UNL     1       4.772   1.298  15.284  1.00  0.00     0.023 A 
ATOM     61  C   UNL     1       3.645   1.720  16.020  1.00  0.00     0.012 A 
ATOM     62  C   UNL     1       5.920   2.113  15.256  1.00  0.00     0.148 A 
ATOM     63  C   UNL     1       3.643   2.947  16.681  1.00  0.00     0.002 A 
ATOM     64  C   UNL     1       5.929   3.313  15.959  1.00  0.00     0.091 A 
ATOM     65  F   UNL     1       6.976   1.708  14.536  1.00  0.00    -0.205 F 
ATOM     66  C   UNL     1       4.788   3.738  16.659  1.00  0.00     0.022 A 
BRANCH  64  67
ATOM     67  S   UNL     1       7.381   4.366  16.062  1.00  0.00     0.127 S 
ATOM     68  O   UNL     1       6.965   5.521  15.268  1.00  0.00    -0.237 OA
ATOM     69  O   UNL     1       7.474   4.618  17.501  1.00  0.00    -0.237 OA
ATOM     70  O   UNL     1       8.481   3.591  15.508  1.00  0.00    -0.744 OA
ENDBRANCH  64  67
ENDBRANCH  46  60
BRANCH  47  71
ATOM     71  C   UNL     1       4.578  -7.248  10.104  1.00  0.00     0.023 A 
ATOM     72  C   UNL     1       4.081  -8.443  10.661  1.00  0.00     0.012 A 
ATOM     73  C   UNL     1       5.051  -7.253   8.778  1.00  0.00     0.148 A 
ATOM     74  C   UNL     1       4.088  -9.627   9.923  1.00  0.00     0.002 A 
ATOM     75  C   UNL     1       5.000  -8.422   8.029  1.00  0.00     0.091 A 
ATOM     76  F   UNL     1       5.526  -6.107   8.270  1.00  0.00    -0.205 F 
ATOM     77  C   UNL     1       4.537  -9.615   8.605  1.00  0.00     0.022 A 
BRANCH  75  78
ATOM     78  S   UNL     1       5.429  -8.468   6.286  1.00  0.00     0.127 S 
ATOM     79  O   UNL     1       6.661  -9.253   6.302  1.00  0.00    -0.237 OA
ATOM     80  O   UNL     1       4.270  -9.150   5.709  1.00  0.00    -0.237 OA
ATOM     81  O   UNL     1       5.571  -7.077   5.878  1.00  0.00    -0.744 OA
ENDBRANCH  75  78
ENDBRANCH  47  71
BRANCH  59  82
ATOM     82  C   UNL     1       7.880  -5.193  15.902  1.00  0.00     0.023 A 
ATOM     83  C   UNL     1       9.188  -5.474  15.462  1.00  0.00     0.012 A 
ATOM     84  C   UNL     1       7.510  -5.519  17.222  1.00  0.00     0.148 A 
ATOM     85  C   UNL     1      10.099  -6.109  16.306  1.00  0.00     0.002 A 
ATOM     86  C   UNL     1       8.439  -6.102  18.074  1.00  0.00     0.091 A 
ATOM     87  F   UNL     1       6.255  -5.260  17.618  1.00  0.00    -0.205 F 
ATOM     88  C   UNL     1       9.729  -6.413  17.613  1.00  0.00     0.022 A 
BRANCH  86  89
ATOM     89  S   UNL     1       8.082  -6.438  19.802  1.00  0.00     0.127 S 
ATOM     90  O   UNL     1       7.968  -7.895  19.805  1.00  0.00    -0.237 OA
ATOM     91  O   UNL     1       9.275  -5.918  20.472  1.00  0.00    -0.237 OA
ATOM     92  O   UNL     1       6.856  -5.713  20.107  1.00  0.00    -0.744 OA
ENDBRANCH  86  89
ENDBRANCH  59  82
ENDBRANCH  33  34
ENDBRANCH  25  28
ENDBRANCH  23  24
ENDBRANCH  22  23
ENDBRANCH   1  22
TORSDOF 18
