REMARK SMILES CC[C@](C)(Nc1ncnc(OC)c1[N+](=O)[O-])C(=O)NCCCNC(=O)c1ccc(-c2c3nc(c(-c4cccc(S(=O)(=O)[O-])c4F)c4ccc([nH]4)c(-c4cccc(S(=O)(=O)[O-])c4F)c4nc(c(-c5cccc(S(=O)(=O)[O-])c5F)c5ccc2[nH]5)C=C4)C=C3)cc1
REMARK SMILES IDX 21 1 20 2 19 3 17 4 18 5 3 7 4 8 2 9 1 10 5 11 6 13 7 14
REMARK SMILES IDX 13 15 8 16 10 17 9 18 14 19 15 20 16 21 11 22 12 23 22 24
REMARK SMILES IDX 23 25 24 26 25 28 26 29 27 30 88 31 28 32 87 33 29 34 30 35
REMARK SMILES IDX 31 36 81 37 32 38 86 39 80 40 82 41 33 42 85 43 79 44 78 45
REMARK SMILES IDX 34 47 66 48 46 49 65 50 47 51 50 52 64 53 83 54 48 55 49 56
REMARK SMILES IDX 63 58 84 59 51 60 35 61 36 62 44 63 37 64 39 65 45 66 38 67
REMARK SMILES IDX 40 68 41 69 42 70 43 71 67 72 68 73 76 74 69 75 71 76 77 77
REMARK SMILES IDX 70 78 72 79 73 80 74 81 75 82 52 83 53 84 61 85 54 86 56 87
REMARK SMILES IDX 62 88 55 89 57 90 58 91 59 92 60 93
REMARK H PARENT 19 6 5 12 23 27 82 46 50 57
REMARK Flexibility Score: inf
ROOT
ATOM      1  C   UNL     1       1.968   5.335   3.477  1.00  0.00     0.042 C 
ENDROOT
BRANCH   1   2
ATOM      2  C   UNL     1       1.922   5.042   1.974  1.00  0.00     0.117 C 
BRANCH   2   3
ATOM      3  N   UNL     1       2.591   3.855   1.466  1.00  0.00    -0.354 N 
ATOM      4  C   UNL     1       2.173   2.588   1.163  1.00  0.00     0.245 C 
ATOM      5  O   UNL     1       2.834   1.988   0.306  1.00  0.00    -0.272 OA
ATOM      6  H   UNL     1       3.553   3.993   1.306  1.00  0.00     0.163 HD
BRANCH   4   7
ATOM      7  C   UNL     1       0.974   1.887   1.855  1.00  0.00     0.115 C 
ATOM      8  C   UNL     1       0.930   0.375   1.538  1.00  0.00     0.045 C 
BRANCH   7   9
ATOM      9  C   UNL     1      -0.357   2.505   1.341  1.00  0.00     0.035 C 
ATOM     10  C   UNL     1      -0.553   2.434  -0.175  1.00  0.00     0.007 C 
ENDBRANCH   7   9
BRANCH   7  11
ATOM     11  N   UNL     1       1.023   2.017   3.319  1.00  0.00    -0.350 N 
ATOM     12  H   UNL     1       0.156   2.308   3.685  1.00  0.00     0.163 HD
BRANCH  11  13
ATOM     13  C   UNL     1       1.946   1.842   4.303  1.00  0.00     0.213 A 
ATOM     14  N   UNL     1       1.314   1.913   5.496  1.00  0.00    -0.212 NA
ATOM     15  C   UNL     1       3.319   1.675   4.288  1.00  0.00     0.372 A 
ATOM     16  C   UNL     1       2.042   1.845   6.623  1.00  0.00     0.228 A 
ATOM     17  C   UNL     1       4.005   1.681   5.493  1.00  0.00     0.299 A 
ATOM     18  N   UNL     1       3.371   1.761   6.674  1.00  0.00    -0.196 NA
BRANCH  15  19
ATOM     19  N   UNL     1       4.072   1.397   3.115  1.00  0.00     0.072 N 
ATOM     20  O   UNL     1       4.123   0.219   2.743  1.00  0.00    -0.258 OA
ATOM     21  O   UNL     1       4.687   2.342   2.599  1.00  0.00    -0.258 OA
ENDBRANCH  15  19
BRANCH  17  22
ATOM     22  O   UNL     1       5.349   1.466   5.637  1.00  0.00    -0.476 OA
ATOM     23  C   UNL     1       6.205   2.418   5.010  1.00  0.00     0.280 C 
ENDBRANCH  17  22
ENDBRANCH  11  13
ENDBRANCH   7  11
ENDBRANCH   4   7
ENDBRANCH   2   3
ENDBRANCH   1   2
BRANCH   1  24
ATOM     24  C   UNL     1       3.334   5.505   4.155  1.00  0.00     0.118 C 
BRANCH  24  25
ATOM     25  N   UNL     1       4.213   6.474   3.525  1.00  0.00    -0.352 N 
ATOM     26  C   UNL     1       5.170   7.293   4.078  1.00  0.00     0.251 C 
ATOM     27  H   UNL     1       4.107   6.558   2.550  1.00  0.00     0.163 HD
ATOM     28  O   UNL     1       5.778   8.073   3.348  1.00  0.00    -0.269 OA
BRANCH  26  29
ATOM     29  C   UNL     1       5.483   7.275   5.529  1.00  0.00     0.039 A 
ATOM     30  C   UNL     1       5.506   8.487   6.226  1.00  0.00     0.014 A 
ATOM     31  C   UNL     1       5.869   6.105   6.186  1.00  0.00     0.014 A 
ATOM     32  C   UNL     1       5.867   8.517   7.580  1.00  0.00     0.010 A 
ATOM     33  C   UNL     1       6.207   6.129   7.547  1.00  0.00     0.010 A 
ATOM     34  C   UNL     1       6.206   7.336   8.263  1.00  0.00    -0.014 A 
BRANCH  34  35
ATOM     35  C   UNL     1       6.473   7.355   9.730  1.00  0.00     0.031 A 
ATOM     36  C   UNL     1       7.842   7.079  10.298  1.00  0.00     0.074 A 
ATOM     37  C   UNL     1       5.442   7.568  10.574  1.00  0.00     0.049 A 
ATOM     38  N   UNL     1       8.233   7.090  11.549  1.00  0.00    -0.248 NA
ATOM     39  C   UNL     1       8.905   6.731   9.344  1.00  0.00     0.031 C 
ATOM     40  C   UNL     1       4.051   7.767  10.164  1.00  0.00     0.029 A 
ATOM     41  N   UNL     1       5.396   7.630  11.946  1.00  0.00    -0.354 N 
ATOM     42  C   UNL     1       9.577   6.734  11.539  1.00  0.00     0.074 A 
ATOM     43  C   UNL     1       9.929   6.490  10.155  1.00  0.00     0.031 C 
ATOM     44  C   UNL     1       3.289   7.926  11.257  1.00  0.00     0.029 A 
ATOM     45  C   UNL     1       4.130   7.822  12.447  1.00  0.00     0.049 A 
ATOM     46  H   UNL     1       6.194   7.544  12.516  1.00  0.00     0.167 HD
ATOM     47  C   UNL     1      10.444   6.640  12.579  1.00  0.00     0.034 A 
ATOM     48  C   UNL     1       3.687   7.905  13.717  1.00  0.00     0.034 A 
ATOM     49  C   UNL     1      10.098   6.901  13.954  1.00  0.00     0.049 A 
ATOM     50  C   UNL     1       4.675   7.833  14.850  1.00  0.00     0.074 A 
ATOM     51  C   UNL     1      10.929   6.918  15.063  1.00  0.00     0.029 A 
ATOM     52  N   UNL     1       8.819   7.171  14.416  1.00  0.00    -0.354 N 
ATOM     53  N   UNL     1       5.975   7.679  14.802  1.00  0.00    -0.248 NA
ATOM     54  C   UNL     1       4.139   7.989  16.211  1.00  0.00     0.031 C 
ATOM     55  C   UNL     1      10.148   7.170  16.196  1.00  0.00     0.029 A 
ATOM     56  C   UNL     1       8.835   7.341  15.791  1.00  0.00     0.049 A 
ATOM     57  H   UNL     1       8.017   7.233  13.849  1.00  0.00     0.167 HD
ATOM     58  C   UNL     1       6.417   7.755  16.118  1.00  0.00     0.074 A 
ATOM     59  C   UNL     1       5.248   7.992  16.939  1.00  0.00     0.031 C 
ATOM     60  C   UNL     1       7.678   7.626  16.602  1.00  0.00     0.034 A 
BRANCH  47  61
ATOM     61  C   UNL     1      11.881   6.287  12.274  1.00  0.00     0.023 A 
ATOM     62  C   UNL     1      12.706   7.238  11.639  1.00  0.00     0.012 A 
ATOM     63  C   UNL     1      12.439   5.061  12.688  1.00  0.00     0.148 A 
ATOM     64  C   UNL     1      14.050   6.962  11.389  1.00  0.00     0.002 A 
ATOM     65  C   UNL     1      13.790   4.809  12.474  1.00  0.00     0.091 A 
ATOM     66  F   UNL     1      11.640   4.163  13.283  1.00  0.00    -0.205 F 
ATOM     67  C   UNL     1      14.594   5.754  11.814  1.00  0.00     0.022 A 
BRANCH  65  68
ATOM     68  S   UNL     1      14.608   3.317  13.054  1.00  0.00     0.127 S 
ATOM     69  O   UNL     1      14.854   2.609  11.799  1.00  0.00    -0.237 OA
ATOM     70  O   UNL     1      15.808   3.853  13.697  1.00  0.00    -0.237 OA
ATOM     71  O   UNL     1      13.669   2.673  13.963  1.00  0.00    -0.744 OA
ENDBRANCH  65  68
ENDBRANCH  47  61
BRANCH  48  72
ATOM     72  C   UNL     1       2.238   8.137  13.981  1.00  0.00     0.023 A 
ATOM     73  C   UNL     1       1.817   9.382  14.488  1.00  0.00     0.012 A 
ATOM     74  C   UNL     1       1.275   7.149  13.700  1.00  0.00     0.148 A 
ATOM     75  C   UNL     1       0.467   9.627  14.740  1.00  0.00     0.002 A 
ATOM     76  C   UNL     1      -0.073   7.420  13.897  1.00  0.00     0.091 A 
ATOM     77  F   UNL     1       1.697   5.967  13.228  1.00  0.00    -0.205 F 
ATOM     78  C   UNL     1      -0.478   8.652  14.434  1.00  0.00     0.022 A 
BRANCH  76  79
ATOM     79  S   UNL     1      -1.367   6.278  13.400  1.00  0.00     0.127 S 
ATOM     80  O   UNL     1      -1.863   5.806  14.690  1.00  0.00    -0.237 OA
ATOM     81  O   UNL     1      -2.282   7.156  12.670  1.00  0.00    -0.237 OA
ATOM     82  O   UNL     1      -0.710   5.277  12.568  1.00  0.00    -0.744 OA
ENDBRANCH  76  79
ENDBRANCH  48  72
BRANCH  60  83
ATOM     83  C   UNL     1       7.875   7.770  18.090  1.00  0.00     0.023 A 
ATOM     84  C   UNL     1       7.427   6.756  18.960  1.00  0.00     0.012 A 
ATOM     85  C   UNL     1       8.562   8.880  18.621  1.00  0.00     0.148 A 
ATOM     86  C   UNL     1       7.627   6.861  20.337  1.00  0.00     0.002 A 
ATOM     87  C   UNL     1       8.801   8.955  19.989  1.00  0.00     0.091 A 
ATOM     88  F   UNL     1       8.963   9.846  17.782  1.00  0.00    -0.205 F 
ATOM     89  C   UNL     1       8.324   7.953  20.849  1.00  0.00     0.022 A 
BRANCH  87  90
ATOM     90  S   UNL     1       9.769  10.276  20.728  1.00  0.00     0.127 S 
ATOM     91  O   UNL     1       8.738  11.053  21.413  1.00  0.00    -0.237 OA
ATOM     92  O   UNL     1      10.670   9.541  21.616  1.00  0.00    -0.237 OA
ATOM     93  O   UNL     1      10.432  10.954  19.622  1.00  0.00    -0.744 OA
ENDBRANCH  87  90
ENDBRANCH  60  83
ENDBRANCH  34  35
ENDBRANCH  26  29
ENDBRANCH  24  25
ENDBRANCH   1  24
TORSDOF 18
