REMARK SMILES COc1cc2c(cc1OC)-c1c(c(C(=O)Nc3ccc(C(=O)NCCCNC(=O)c4ccc(-c5c6nc(c(-c7cccc(S(=O)(=O)[O-])c7F)c7ccc([nH]7)c(-c7cccc(S(=O)(=O)[O-])c7F)c7nc(c(-c8cccc(S(=O)(=O)[O-])c8F)c8ccc5[nH]8)C=C7)C=C6)cc4)cc3)nn1-c1ccc(F)cc1)C2
REMARK SMILES IDX 25 1 24 2 23 3 21 4 22 5 20 7 17 8 18 9 94 10 19 11 93 12
REMARK SMILES IDX 16 13 14 14 15 15 13 17 3 18 4 19 8 20 5 21 7 22 6 23 104 24
REMARK SMILES IDX 11 25 12 26 96 27 95 28 2 29 1 30 9 31 10 32 97 33 98 34
REMARK SMILES IDX 103 35 99 36 102 37 100 38 101 39 26 40 27 41 28 42 29 44
REMARK SMILES IDX 30 45 31 46 92 47 32 48 91 49 33 50 34 51 35 52 85 53 36 54
REMARK SMILES IDX 90 55 84 56 86 57 37 58 89 59 83 60 82 61 38 63 70 64 50 65
REMARK SMILES IDX 69 66 51 67 54 68 68 69 87 70 52 71 53 72 67 74 88 75 55 76
REMARK SMILES IDX 39 77 40 78 48 79 41 80 43 81 49 82 42 83 44 84 45 85 46 86
REMARK SMILES IDX 47 87 71 88 72 89 80 90 73 91 75 92 81 93 74 94 76 95 77 96
REMARK SMILES IDX 78 97 79 98 56 99 57 100 65 101 58 102 60 103 66 104 59 105
REMARK SMILES IDX 61 106 62 107 63 108 64 109
REMARK H PARENT 23 6 16 16 27 43 86 62 54 73
REMARK Flexibility Score: inf
ROOT
ATOM      1  C   UNL     1      -4.825  -2.375  -6.070  1.00  0.00     0.042 C 
ENDROOT
BRANCH   1   2
ATOM      2  C   UNL     1      -5.301  -0.939  -5.868  1.00  0.00     0.118 C 
BRANCH   2   3
ATOM      3  N   UNL     1      -4.649  -0.227  -4.782  1.00  0.00    -0.352 N 
ATOM      4  C   UNL     1      -4.183   1.055  -4.613  1.00  0.00     0.251 C 
ATOM      5  O   UNL     1      -3.933   1.380  -3.447  1.00  0.00    -0.269 OA
ATOM      6  H   UNL     1      -4.510  -0.791  -3.987  1.00  0.00     0.163 HD
BRANCH   4   7
ATOM      7  C   UNL     1      -3.793   2.010  -5.706  1.00  0.00     0.039 A 
ATOM      8  C   UNL     1      -2.122   3.283  -7.558  1.00  0.00     0.041 A 
ATOM      9  C   UNL     1      -2.119   3.714  -6.241  1.00  0.00     0.027 A 
ATOM     10  C   UNL     1      -3.160   2.467  -8.000  1.00  0.00     0.027 A 
ATOM     11  C   UNL     1      -2.968   3.086  -5.318  1.00  0.00     0.016 A 
ATOM     12  C   UNL     1      -3.993   1.831  -7.072  1.00  0.00     0.016 A 
BRANCH   8  13
ATOM     13  N   UNL     1      -1.137   3.627  -8.477  1.00  0.00    -0.321 N 
ATOM     14  C   UNL     1       0.215   3.871  -8.343  1.00  0.00     0.276 C 
ATOM     15  O   UNL     1       0.722   4.517  -9.269  1.00  0.00    -0.267 OA
ATOM     16  H   UNL     1      -1.467   3.713  -9.401  1.00  0.00     0.170 HD
BRANCH  14  17
ATOM     17  C   UNL     1       1.071   3.274  -7.272  1.00  0.00     0.155 A 
ATOM     18  C   UNL     1       1.087   0.038  -2.277  1.00  0.00     0.161 A 
ATOM     19  C   UNL     1       0.207   0.246  -3.346  1.00  0.00     0.055 A 
ATOM     20  C   UNL     1       2.464   0.320  -2.404  1.00  0.00     0.161 A 
ATOM     21  C   UNL     1       0.704   0.841  -4.500  1.00  0.00    -0.030 A 
ATOM     22  C   UNL     1       2.939   0.980  -3.541  1.00  0.00     0.061 A 
ATOM     23  C   UNL     1       2.055   1.237  -4.569  1.00  0.00     0.008 A 
ATOM     24  C   UNL     1      -0.116   1.315  -5.711  1.00  0.00     0.076 C 
ATOM     25  C   UNL     1       2.134   2.055  -5.740  1.00  0.00     0.079 A 
ATOM     26  C   UNL     1       0.900   2.225  -6.323  1.00  0.00     0.016 A 
ATOM     27  N   UNL     1       3.001   2.920  -6.314  1.00  0.00    -0.232 N 
ATOM     28  N   UNL     1       2.344   3.756  -7.155  1.00  0.00    -0.162 NA
BRANCH  18  29
ATOM     29  O   UNL     1       0.543  -0.424  -1.105  1.00  0.00    -0.493 OA
ATOM     30  C   UNL     1       0.536   0.602  -0.105  1.00  0.00     0.278 C 
ENDBRANCH  18  29
BRANCH  20  31
ATOM     31  O   UNL     1       3.412   0.092  -1.439  1.00  0.00    -0.493 OA
ATOM     32  C   UNL     1       3.299  -1.162  -0.768  1.00  0.00     0.278 C 
ENDBRANCH  20  31
BRANCH  27  33
ATOM     33  C   UNL     1       4.392   3.018  -6.090  1.00  0.00     0.065 A 
ATOM     34  C   UNL     1       5.004   4.275  -6.056  1.00  0.00     0.031 A 
ATOM     35  C   UNL     1       5.142   1.855  -5.853  1.00  0.00     0.031 A 
ATOM     36  C   UNL     1       6.345   4.368  -5.677  1.00  0.00     0.041 A 
ATOM     37  C   UNL     1       6.485   1.955  -5.499  1.00  0.00     0.041 A 
ATOM     38  C   UNL     1       7.068   3.211  -5.391  1.00  0.00     0.123 A 
ATOM     39  F   UNL     1       8.345   3.310  -5.001  1.00  0.00    -0.207 F 
ENDBRANCH  27  33
ENDBRANCH  14  17
ENDBRANCH   8  13
ENDBRANCH   4   7
ENDBRANCH   2   3
ENDBRANCH   1   2
BRANCH   1  40
ATOM     40  C   UNL     1      -5.218  -3.390  -4.997  1.00  0.00     0.118 C 
BRANCH  40  41
ATOM     41  N   UNL     1      -6.572  -3.284  -4.492  1.00  0.00    -0.352 N 
ATOM     42  C   UNL     1      -7.794  -3.787  -4.846  1.00  0.00     0.251 C 
ATOM     43  H   UNL     1      -6.626  -2.707  -3.696  1.00  0.00     0.163 HD
ATOM     44  O   UNL     1      -8.693  -3.609  -4.019  1.00  0.00    -0.269 OA
BRANCH  42  45
ATOM     45  C   UNL     1      -8.130  -4.448  -6.138  1.00  0.00     0.039 A 
ATOM     46  C   UNL     1      -7.245  -4.666  -7.191  1.00  0.00     0.014 A 
ATOM     47  C   UNL     1      -9.481  -4.803  -6.323  1.00  0.00     0.014 A 
ATOM     48  C   UNL     1      -7.715  -5.101  -8.431  1.00  0.00     0.010 A 
ATOM     49  C   UNL     1      -9.949  -5.276  -7.548  1.00  0.00     0.010 A 
ATOM     50  C   UNL     1      -9.075  -5.369  -8.625  1.00  0.00    -0.014 A 
BRANCH  50  51
ATOM     51  C   UNL     1      -9.510  -5.769  -9.964  1.00  0.00     0.031 A 
ATOM     52  C   UNL     1      -8.835  -6.962 -10.551  1.00  0.00     0.074 A 
ATOM     53  C   UNL     1     -10.493  -5.167 -10.664  1.00  0.00     0.049 A 
ATOM     54  N   UNL     1      -8.002  -6.993 -11.543  1.00  0.00    -0.248 NA
ATOM     55  C   UNL     1      -9.058  -8.263  -9.910  1.00  0.00     0.031 C 
ATOM     56  C   UNL     1     -11.468  -4.174 -10.205  1.00  0.00     0.029 A 
ATOM     57  N   UNL     1     -10.886  -5.413 -11.949  1.00  0.00    -0.354 N 
ATOM     58  C   UNL     1      -7.738  -8.342 -11.778  1.00  0.00     0.074 A 
ATOM     59  C   UNL     1      -8.318  -9.068 -10.675  1.00  0.00     0.031 C 
ATOM     60  C   UNL     1     -12.470  -4.084 -11.110  1.00  0.00     0.029 A 
ATOM     61  C   UNL     1     -12.129  -4.886 -12.271  1.00  0.00     0.049 A 
ATOM     62  H   UNL     1     -10.335  -5.919 -12.590  1.00  0.00     0.167 HD
ATOM     63  C   UNL     1      -7.213  -8.793 -12.951  1.00  0.00     0.034 A 
ATOM     64  C   UNL     1     -12.841  -5.148 -13.392  1.00  0.00     0.034 A 
ATOM     65  C   UNL     1      -6.703  -7.732 -13.773  1.00  0.00     0.049 A 
ATOM     66  C   UNL     1     -11.876  -5.579 -14.429  1.00  0.00     0.074 A 
ATOM     67  C   UNL     1      -5.707  -6.785 -13.670  1.00  0.00     0.029 A 
ATOM     68  N   UNL     1      -7.482  -7.349 -14.835  1.00  0.00    -0.354 N 
ATOM     69  N   UNL     1     -10.973  -4.799 -14.954  1.00  0.00    -0.248 NA
ATOM     70  C   UNL     1     -11.695  -7.000 -14.674  1.00  0.00     0.031 C 
ATOM     71  C   UNL     1      -6.202  -5.650 -14.376  1.00  0.00     0.029 A 
ATOM     72  C   UNL     1      -7.465  -5.982 -14.872  1.00  0.00     0.049 A 
ATOM     73  H   UNL     1      -7.962  -7.946 -15.454  1.00  0.00     0.167 HD
ATOM     74  C   UNL     1      -9.902  -5.638 -15.225  1.00  0.00     0.074 A 
ATOM     75  C   UNL     1     -10.454  -6.986 -15.164  1.00  0.00     0.031 C 
ATOM     76  C   UNL     1      -8.619  -5.172 -15.192  1.00  0.00     0.034 A 
BRANCH  63  77
ATOM     77  C   UNL     1      -7.424 -10.169 -13.530  1.00  0.00     0.023 A 
ATOM     78  C   UNL     1      -6.563 -10.588 -14.570  1.00  0.00     0.012 A 
ATOM     79  C   UNL     1      -8.586 -10.937 -13.303  1.00  0.00     0.148 A 
ATOM     80  C   UNL     1      -6.860 -11.701 -15.365  1.00  0.00     0.002 A 
ATOM     81  C   UNL     1      -8.843 -12.080 -14.053  1.00  0.00     0.091 A 
ATOM     82  F   UNL     1      -9.517 -10.491 -12.451  1.00  0.00    -0.205 F 
ATOM     83  C   UNL     1      -7.997 -12.454 -15.101  1.00  0.00     0.022 A 
BRANCH  81  84
ATOM     84  S   UNL     1     -10.282 -13.103 -13.728  1.00  0.00     0.127 S 
ATOM     85  O   UNL     1     -11.201 -12.652 -14.769  1.00  0.00    -0.237 OA
ATOM     86  O   UNL     1      -9.746 -14.452 -13.915  1.00  0.00    -0.237 OA
ATOM     87  O   UNL     1     -10.657 -12.798 -12.353  1.00  0.00    -0.744 OA
ENDBRANCH  81  84
ENDBRANCH  63  77
BRANCH  64  88
ATOM     88  C   UNL     1     -14.306  -5.281 -13.585  1.00  0.00     0.023 A 
ATOM     89  C   UNL     1     -14.826  -5.303 -14.897  1.00  0.00     0.012 A 
ATOM     90  C   UNL     1     -15.153  -5.687 -12.531  1.00  0.00     0.148 A 
ATOM     91  C   UNL     1     -16.118  -5.775 -15.157  1.00  0.00     0.002 A 
ATOM     92  C   UNL     1     -16.443  -6.143 -12.793  1.00  0.00     0.091 A 
ATOM     93  F   UNL     1     -14.666  -5.727 -11.284  1.00  0.00    -0.205 F 
ATOM     94  C   UNL     1     -16.922  -6.206 -14.107  1.00  0.00     0.022 A 
BRANCH  92  95
ATOM     95  S   UNL     1     -17.528  -6.719 -11.480  1.00  0.00     0.127 S 
ATOM     96  O   UNL     1     -18.822  -6.168 -11.884  1.00  0.00    -0.237 OA
ATOM     97  O   UNL     1     -17.414  -8.169 -11.605  1.00  0.00    -0.237 OA
ATOM     98  O   UNL     1     -16.995  -6.140 -10.252  1.00  0.00    -0.744 OA
ENDBRANCH  92  95
ENDBRANCH  64  88
BRANCH  76  99
ATOM     99  C   UNL     1      -8.409  -3.682 -15.159  1.00  0.00     0.023 A 
ATOM    100  C   UNL     1      -8.785  -2.909 -14.041  1.00  0.00     0.012 A 
ATOM    101  C   UNL     1      -7.650  -3.085 -16.180  1.00  0.00     0.148 A 
ATOM    102  C   UNL     1      -8.427  -1.563 -13.950  1.00  0.00     0.002 A 
ATOM    103  C   UNL     1      -7.262  -1.755 -16.067  1.00  0.00     0.091 A 
ATOM    104  F   UNL     1      -7.285  -3.844 -17.224  1.00  0.00    -0.205 F 
ATOM    105  C   UNL     1      -7.655  -0.989 -14.957  1.00  0.00     0.022 A 
BRANCH 103 106
ATOM    106  S   UNL     1      -6.167  -0.980 -17.259  1.00  0.00     0.127 S 
ATOM    107  O   UNL     1      -7.043   0.025 -17.869  1.00  0.00    -0.237 OA
ATOM    108  O   UNL     1      -5.119  -0.426 -16.395  1.00  0.00    -0.237 OA
ATOM    109  O   UNL     1      -5.718  -2.034 -18.148  1.00  0.00    -0.744 OA
ENDBRANCH 103 106
ENDBRANCH  76  99
ENDBRANCH  50  51
ENDBRANCH  42  45
ENDBRANCH  40  41
ENDBRANCH   1  40
TORSDOF 18
