REMARK SMILES C[C@H](NC(=O)N1CCN(/C=C/c2ccccc2)CC1)C(=O)NCCCNC(=O)c1ccc(-c2c3nc(c(-c4cccc(S(=O)(=O)[O-])c4F)c4ccc([nH]4)c(-c4cccc(S(=O)(=O)[O-])c4F)c4nc(c(-c5cccc(S(=O)(=O)[O-])c5F)c5ccc2[nH]5)C=C4)C=C3)cc1
REMARK SMILES IDX 24 1 23 2 22 3 20 4 21 5 2 7 1 8 3 9 4 10 5 12 6 13 7 14
REMARK SMILES IDX 19 15 8 16 18 17 9 18 10 19 11 20 12 21 13 22 17 23 14 24
REMARK SMILES IDX 16 25 15 26 25 27 26 28 27 29 28 31 29 32 30 33 91 34 31 35
REMARK SMILES IDX 90 36 32 37 33 38 34 39 84 40 35 41 89 42 83 43 85 44 36 45
REMARK SMILES IDX 88 46 82 47 81 48 37 50 69 51 49 52 68 53 50 54 53 55 67 56
REMARK SMILES IDX 86 57 51 58 52 59 66 61 87 62 54 63 38 64 39 65 47 66 40 67
REMARK SMILES IDX 42 68 48 69 41 70 43 71 44 72 45 73 46 74 70 75 71 76 79 77
REMARK SMILES IDX 72 78 74 79 80 80 73 81 75 82 76 83 77 84 78 85 55 86 56 87
REMARK SMILES IDX 64 88 57 89 59 90 65 91 58 92 60 93 61 94 62 95 63 96
REMARK H PARENT 22 6 3 11 26 30 85 49 53 60
REMARK Flexibility Score: inf
ROOT
ATOM      1  C   UNL     1      -1.307   2.609  -0.469  1.00  0.00     0.042 C 
ENDROOT
BRANCH   1   2
ATOM      2  C   UNL     1      -1.174   1.893   0.866  1.00  0.00     0.117 C 
BRANCH   2   3
ATOM      3  N   UNL     1      -1.669   0.534   0.798  1.00  0.00    -0.354 N 
ATOM      4  C   UNL     1      -1.024  -0.650   0.980  1.00  0.00     0.242 C 
ATOM      5  O   UNL     1      -1.692  -1.683   0.855  1.00  0.00    -0.273 OA
ATOM      6  H   UNL     1      -2.627   0.454   0.587  1.00  0.00     0.163 HD
BRANCH   4   7
ATOM      7  C   UNL     1       0.444  -0.727   1.456  1.00  0.00     0.170 C 
ATOM      8  C   UNL     1       0.497  -0.253   2.897  1.00  0.00     0.041 C 
BRANCH   7   9
ATOM      9  N   UNL     1       1.413  -0.223   0.472  1.00  0.00    -0.326 N 
ATOM     10  C   UNL     1       1.994   0.977   0.261  1.00  0.00     0.318 C 
ATOM     11  H   UNL     1       1.701  -0.909  -0.173  1.00  0.00     0.166 HD
ATOM     12  O   UNL     1       2.078   1.365  -0.902  1.00  0.00    -0.249 OA
ATOM     13  N   UNL     1       2.416   1.732   1.309  1.00  0.00    -0.321 N 
ATOM     14  C   UNL     1       2.542   3.176   1.135  1.00  0.00     0.143 C 
ATOM     15  C   UNL     1       3.248   1.226   2.393  1.00  0.00     0.143 C 
ATOM     16  C   UNL     1       2.111   3.902   2.416  1.00  0.00     0.137 C 
ATOM     17  C   UNL     1       2.961   1.934   3.729  1.00  0.00     0.137 C 
ATOM     18  N   UNL     1       2.839   3.409   3.611  1.00  0.00    -0.374 N 
BRANCH  18  19
ATOM     19  C   UNL     1       3.104   4.208   4.713  1.00  0.00     0.081 C 
ATOM     20  C   UNL     1       2.949   5.529   4.882  1.00  0.00     0.025 C 
BRANCH  20  21
ATOM     21  C   UNL     1       3.373   6.236   6.099  1.00  0.00    -0.024 A 
ATOM     22  C   UNL     1       2.664   7.364   6.528  1.00  0.00     0.008 A 
ATOM     23  C   UNL     1       4.531   5.861   6.797  1.00  0.00     0.008 A 
ATOM     24  C   UNL     1       3.094   8.089   7.644  1.00  0.00     0.001 A 
ATOM     25  C   UNL     1       4.958   6.582   7.913  1.00  0.00     0.001 A 
ATOM     26  C   UNL     1       4.240   7.697   8.335  1.00  0.00     0.000 A 
ENDBRANCH  20  21
ENDBRANCH  18  19
ENDBRANCH   7   9
ENDBRANCH   4   7
ENDBRANCH   2   3
ENDBRANCH   1   2
BRANCH   1  27
ATOM     27  C   UNL     1      -2.751   2.943  -0.820  1.00  0.00     0.118 C 
BRANCH  27  28
ATOM     28  N   UNL     1      -3.331   3.932   0.083  1.00  0.00    -0.352 N 
ATOM     29  C   UNL     1      -3.989   5.103  -0.219  1.00  0.00     0.251 C 
ATOM     30  H   UNL     1      -3.239   3.734   1.043  1.00  0.00     0.163 HD
ATOM     31  O   UNL     1      -4.261   5.900   0.664  1.00  0.00    -0.269 OA
BRANCH  29  32
ATOM     32  C   UNL     1      -4.338   5.390  -1.627  1.00  0.00     0.039 A 
ATOM     33  C   UNL     1      -4.062   6.655  -2.150  1.00  0.00     0.014 A 
ATOM     34  C   UNL     1      -4.903   4.399  -2.433  1.00  0.00     0.014 A 
ATOM     35  C   UNL     1      -4.285   6.901  -3.506  1.00  0.00     0.010 A 
ATOM     36  C   UNL     1      -5.043   4.619  -3.797  1.00  0.00     0.010 A 
ATOM     37  C   UNL     1      -4.739   5.872  -4.348  1.00  0.00    -0.014 A 
BRANCH  37  38
ATOM     38  C   UNL     1      -4.887   6.074  -5.812  1.00  0.00     0.031 A 
ATOM     39  C   UNL     1      -6.235   5.916  -6.461  1.00  0.00     0.074 A 
ATOM     40  C   UNL     1      -3.792   6.290  -6.568  1.00  0.00     0.049 A 
ATOM     41  N   UNL     1      -6.550   5.962  -7.729  1.00  0.00    -0.248 NA
ATOM     42  C   UNL     1      -7.376   5.638  -5.571  1.00  0.00     0.031 C 
ATOM     43  C   UNL     1      -2.419   6.378  -6.065  1.00  0.00     0.029 A 
ATOM     44  N   UNL     1      -3.657   6.444  -7.925  1.00  0.00    -0.354 N 
ATOM     45  C   UNL     1      -7.909   5.679  -7.793  1.00  0.00     0.074 A 
ATOM     46  C   UNL     1      -8.353   5.428  -6.440  1.00  0.00     0.031 C 
ATOM     47  C   UNL     1      -1.583   6.572  -7.097  1.00  0.00     0.029 A 
ATOM     48  C   UNL     1      -2.353   6.589  -8.337  1.00  0.00     0.049 A 
ATOM     49  H   UNL     1      -4.422   6.450  -8.545  1.00  0.00     0.167 HD
ATOM     50  C   UNL     1      -8.720   5.659  -8.877  1.00  0.00     0.034 A 
ATOM     51  C   UNL     1      -1.833   6.710  -9.575  1.00  0.00     0.034 A 
ATOM     52  C   UNL     1      -8.283   5.957 -10.213  1.00  0.00     0.049 A 
ATOM     53  C   UNL     1      -2.764   6.726 -10.757  1.00  0.00     0.074 A 
ATOM     54  C   UNL     1      -9.044   6.061 -11.363  1.00  0.00     0.029 A 
ATOM     55  N   UNL     1      -6.967   6.193 -10.580  1.00  0.00    -0.354 N 
ATOM     56  N   UNL     1      -4.070   6.621 -10.780  1.00  0.00    -0.248 NA
ATOM     57  C   UNL     1      -2.153   6.912 -12.081  1.00  0.00     0.031 C 
ATOM     58  C   UNL     1      -8.184   6.335 -12.432  1.00  0.00     0.029 A 
ATOM     59  C   UNL     1      -6.891   6.430 -11.941  1.00  0.00     0.049 A 
ATOM     60  H   UNL     1      -6.200   6.191  -9.963  1.00  0.00     0.167 HD
ATOM     61  C   UNL     1      -4.441   6.763 -12.113  1.00  0.00     0.074 A 
ATOM     62  C   UNL     1      -3.222   6.983 -12.864  1.00  0.00     0.031 C 
ATOM     63  C   UNL     1      -5.677   6.702 -12.667  1.00  0.00     0.034 A 
BRANCH  50  64
ATOM     64  C   UNL     1     -10.180   5.357  -8.653  1.00  0.00     0.023 A 
ATOM     65  C   UNL     1     -10.996   6.310  -8.008  1.00  0.00     0.012 A 
ATOM     66  C   UNL     1     -10.756   4.163  -9.129  1.00  0.00     0.148 A 
ATOM     67  C   UNL     1     -12.353   6.064  -7.807  1.00  0.00     0.002 A 
ATOM     68  C   UNL     1     -12.119   3.946  -8.966  1.00  0.00     0.091 A 
ATOM     69  F   UNL     1      -9.961   3.260  -9.721  1.00  0.00    -0.205 F 
ATOM     70  C   UNL     1     -12.916   4.888  -8.295  1.00  0.00     0.022 A 
BRANCH  68  71
ATOM     71  S   UNL     1     -12.957   2.502  -9.629  1.00  0.00     0.127 S 
ATOM     72  O   UNL     1     -13.273   1.759  -8.410  1.00  0.00    -0.237 OA
ATOM     73  O   UNL     1     -14.114   3.097 -10.298  1.00  0.00    -0.237 OA
ATOM     74  O   UNL     1     -12.003   1.859 -10.523  1.00  0.00    -0.744 OA
ENDBRANCH  68  71
ENDBRANCH  50  64
BRANCH  51  75
ATOM     75  C   UNL     1      -0.365   6.890  -9.753  1.00  0.00     0.023 A 
ATOM     76  C   UNL     1       0.130   8.138 -10.179  1.00  0.00     0.012 A 
ATOM     77  C   UNL     1       0.543   5.848  -9.482  1.00  0.00     0.148 A 
ATOM     78  C   UNL     1       1.498   8.337 -10.363  1.00  0.00     0.002 A 
ATOM     79  C   UNL     1       1.909   6.069  -9.615  1.00  0.00     0.091 A 
ATOM     80  F   UNL     1       0.052   4.665  -9.087  1.00  0.00    -0.205 F 
ATOM     81  C   UNL     1       2.388   7.307 -10.072  1.00  0.00     0.022 A 
BRANCH  79  82
ATOM     82  S   UNL     1       3.135   4.844  -9.143  1.00  0.00     0.127 S 
ATOM     83  O   UNL     1       3.671   4.443 -10.441  1.00  0.00    -0.237 OA
ATOM     84  O   UNL     1       4.049   5.635  -8.317  1.00  0.00    -0.237 OA
ATOM     85  O   UNL     1       2.403   3.817  -8.415  1.00  0.00    -0.744 OA
ENDBRANCH  79  82
ENDBRANCH  51  75
BRANCH  63  86
ATOM     86  C   UNL     1      -5.789   6.913 -14.153  1.00  0.00     0.023 A 
ATOM     87  C   UNL     1      -5.354   5.907 -15.039  1.00  0.00     0.012 A 
ATOM     88  C   UNL     1      -6.403   8.072 -14.669  1.00  0.00     0.148 A 
ATOM     89  C   UNL     1      -5.502   6.065 -16.416  1.00  0.00     0.002 A 
ATOM     90  C   UNL     1      -6.592   8.199 -16.039  1.00  0.00     0.091 A 
ATOM     91  F   UNL     1      -6.793   9.024 -13.810  1.00  0.00    -0.205 F 
ATOM     92  C   UNL     1      -6.132   7.203 -16.915  1.00  0.00     0.022 A 
BRANCH  90  93
ATOM     93  S   UNL     1      -7.480   9.582 -16.765  1.00  0.00     0.127 S 
ATOM     94  O   UNL     1      -6.400  10.320 -17.418  1.00  0.00    -0.237 OA
ATOM     95  O   UNL     1      -8.402   8.912 -17.682  1.00  0.00    -0.237 OA
ATOM     96  O   UNL     1      -8.125  10.273 -15.656  1.00  0.00    -0.744 OA
ENDBRANCH  90  93
ENDBRANCH  63  86
ENDBRANCH  37  38
ENDBRANCH  29  32
ENDBRANCH  27  28
ENDBRANCH   1  27
TORSDOF 16
