REMARK SMILES Cc1cc(C(=O)N[C@@H]2C(=O)N3C(C(=O)NCCCNC(=O)c4ccc(-c5c6nc(c(-c7cccc(S(=O)(=O)[O-])c7F)c7ccc([nH]7)c(-c7cccc(S(=O)(=O)[O-])c7F)c7nc(c(-c8cccc(S(=O)(=O)[O-])c8F)c8ccc5[nH]8)C=C7)C=C6)cc4)=C(CSc4nnc(C)s4)CS[C@H]23)n(C)n1
REMARK SMILES IDX 17 1 16 2 15 3 13 4 14 5 12 7 8 8 9 9 96 10 10 11 11 12
REMARK SMILES IDX 95 13 94 14 85 15 7 16 5 17 6 18 4 20 1 21 2 22 3 23 99 24
REMARK SMILES IDX 97 25 98 26 86 27 87 28 88 29 89 30 93 31 90 32 91 33 92 34
REMARK SMILES IDX 18 35 19 36 20 37 21 39 22 40 23 41 84 42 24 43 83 44 25 45
REMARK SMILES IDX 26 46 27 47 77 48 28 49 82 50 76 51 78 52 29 53 81 54 75 55
REMARK SMILES IDX 74 56 30 58 62 59 42 60 61 61 43 62 46 63 60 64 79 65 44 66
REMARK SMILES IDX 45 67 59 69 80 70 47 71 31 72 32 73 40 74 33 75 35 76 41 77
REMARK SMILES IDX 34 78 36 79 37 80 38 81 39 82 63 83 64 84 72 85 65 86 67 87
REMARK SMILES IDX 73 88 66 89 68 90 69 91 70 92 71 93 48 94 49 95 57 96 50 97
REMARK SMILES IDX 52 98 58 99 51 100 53 101 54 102 55 103 56 104
REMARK H PARENT 15 6 7 19 19 38 78 57 46 68
REMARK Flexibility Score: inf
ROOT
ATOM      1  C   UNL     1      -5.663  -0.527  -4.297  1.00  0.00     0.042 C 
ENDROOT
BRANCH   1   2
ATOM      2  C   UNL     1      -4.168  -0.643  -4.585  1.00  0.00     0.118 C 
BRANCH   2   3
ATOM      3  N   UNL     1      -3.378  -0.416  -3.389  1.00  0.00    -0.351 N 
ATOM      4  C   UNL     1      -2.672  -1.164  -2.503  1.00  0.00     0.268 C 
ATOM      5  O   UNL     1      -1.951  -0.470  -1.773  1.00  0.00    -0.268 OA
ATOM      6  H   UNL     1      -3.345   0.540  -3.156  1.00  0.00     0.163 HD
BRANCH   4   7
ATOM      7  C   UNL     1      -2.531  -2.699  -2.466  1.00  0.00     0.111 C 
ATOM      8  C   UNL     1      -0.143  -4.044  -0.366  1.00  0.00     0.206 C 
ATOM      9  C   UNL     1      -1.101  -2.815  -0.394  1.00  0.00     0.253 C 
ATOM     10  C   UNL     1      -0.943  -4.461  -1.629  1.00  0.00     0.181 C 
ATOM     11  O   UNL     1      -1.454  -2.006   0.438  1.00  0.00    -0.272 OA
ATOM     12  N   UNL     1      -1.454  -3.108  -1.687  1.00  0.00    -0.290 N 
ATOM     13  S   UNL     1      -2.325  -5.612  -1.377  1.00  0.00    -0.129 SA
ATOM     14  C   UNL     1      -2.988  -5.147  -2.973  1.00  0.00     0.106 C 
ATOM     15  C   UNL     1      -3.366  -3.675  -2.949  1.00  0.00    -0.020 C 
BRANCH   8  16
ATOM     16  N   UNL     1      -0.140  -4.934   0.829  1.00  0.00    -0.336 N 
ATOM     17  C   UNL     1       0.192  -6.275   0.926  1.00  0.00     0.270 C 
ATOM     18  O   UNL     1       0.155  -6.794   2.041  1.00  0.00    -0.268 OA
ATOM     19  H   UNL     1      -0.413  -4.506   1.673  1.00  0.00     0.164 HD
BRANCH  17  20
ATOM     20  C   UNL     1       0.497  -7.017  -0.281  1.00  0.00     0.126 A 
ATOM     21  C   UNL     1       0.560  -7.362  -3.901  1.00  0.00     0.069 C 
ATOM     22  C   UNL     1       0.636  -7.541  -2.430  1.00  0.00     0.060 A 
ATOM     23  C   UNL     1       1.113  -6.630  -1.462  1.00  0.00     0.059 A 
ATOM     24  N   UNL     1       0.115  -8.622  -1.851  1.00  0.00    -0.178 NA
ATOM     25  N   UNL     1       0.121  -8.321  -0.531  1.00  0.00    -0.263 N 
ATOM     26  C   UNL     1      -0.309  -9.349   0.387  1.00  0.00     0.174 C 
ENDBRANCH  17  20
ENDBRANCH   8  16
BRANCH  15  27
ATOM     27  C   UNL     1      -4.851  -3.540  -3.192  1.00  0.00     0.111 C 
BRANCH  27  28
ATOM     28  S   UNL     1      -5.551  -2.655  -1.800  1.00  0.00    -0.089 SA
BRANCH  28  29
ATOM     29  C   UNL     1      -6.862  -3.619  -1.247  1.00  0.00     0.174 A 
ATOM     30  N   UNL     1      -6.694  -4.831  -0.773  1.00  0.00    -0.132 NA
ATOM     31  S   UNL     1      -8.314  -2.855  -0.764  1.00  0.00    -0.091 S 
ATOM     32  N   UNL     1      -7.535  -5.037   0.309  1.00  0.00    -0.143 NA
ATOM     33  C   UNL     1      -8.303  -3.985   0.529  1.00  0.00     0.115 A 
ATOM     34  C   UNL     1      -8.963  -3.639   1.807  1.00  0.00     0.081 C 
ENDBRANCH  28  29
ENDBRANCH  27  28
ENDBRANCH  15  27
ENDBRANCH   4   7
ENDBRANCH   2   3
ENDBRANCH   1   2
BRANCH   1  35
ATOM     35  C   UNL     1      -6.303   0.823  -4.537  1.00  0.00     0.118 C 
BRANCH  35  36
ATOM     36  N   UNL     1      -6.539   1.074  -5.943  1.00  0.00    -0.352 N 
ATOM     37  C   UNL     1      -7.720   1.151  -6.643  1.00  0.00     0.251 C 
ATOM     38  H   UNL     1      -5.727   1.211  -6.483  1.00  0.00     0.163 HD
ATOM     39  O   UNL     1      -7.672   1.144  -7.872  1.00  0.00    -0.269 OA
BRANCH  37  40
ATOM     40  C   UNL     1      -9.036   1.223  -5.955  1.00  0.00     0.039 A 
ATOM     41  C   UNL     1     -10.146   0.637  -6.573  1.00  0.00     0.014 A 
ATOM     42  C   UNL     1      -9.210   1.898  -4.744  1.00  0.00     0.014 A 
ATOM     43  C   UNL     1     -11.403   0.699  -5.964  1.00  0.00     0.010 A 
ATOM     44  C   UNL     1     -10.435   1.854  -4.081  1.00  0.00     0.010 A 
ATOM     45  C   UNL     1     -11.556   1.284  -4.697  1.00  0.00    -0.014 A 
BRANCH  45  46
ATOM     46  C   UNL     1     -12.881   1.344  -4.024  1.00  0.00     0.031 A 
ATOM     47  C   UNL     1     -13.492   2.676  -3.666  1.00  0.00     0.074 A 
ATOM     48  C   UNL     1     -13.514   0.203  -3.689  1.00  0.00     0.049 A 
ATOM     49  N   UNL     1     -14.615   2.929  -3.046  1.00  0.00    -0.248 NA
ATOM     50  C   UNL     1     -12.729   3.884  -4.027  1.00  0.00     0.031 C 
ATOM     51  C   UNL     1     -13.000  -1.149  -3.918  1.00  0.00     0.029 A 
ATOM     52  N   UNL     1     -14.722  -0.004  -3.071  1.00  0.00    -0.354 N 
ATOM     53  C   UNL     1     -14.677   4.312  -2.916  1.00  0.00     0.074 A 
ATOM     54  C   UNL     1     -13.456   4.844  -3.476  1.00  0.00     0.031 C 
ATOM     55  C   UNL     1     -13.896  -2.043  -3.472  1.00  0.00     0.029 A 
ATOM     56  C   UNL     1     -15.028  -1.332  -2.887  1.00  0.00     0.049 A 
ATOM     57  H   UNL     1     -15.314   0.730  -2.786  1.00  0.00     0.167 HD
ATOM     58  C   UNL     1     -15.674   5.077  -2.410  1.00  0.00     0.034 A 
ATOM     59  C   UNL     1     -16.097  -1.913  -2.309  1.00  0.00     0.034 A 
ATOM     60  C   UNL     1     -16.904   4.548  -1.887  1.00  0.00     0.049 A 
ATOM     61  C   UNL     1     -17.199  -1.044  -1.768  1.00  0.00     0.074 A 
ATOM     62  C   UNL     1     -18.003   5.239  -1.409  1.00  0.00     0.029 A 
ATOM     63  N   UNL     1     -17.198   3.198  -1.768  1.00  0.00    -0.354 N 
ATOM     64  N   UNL     1     -17.289   0.264  -1.762  1.00  0.00    -0.248 NA
ATOM     65  C   UNL     1     -18.360  -1.730  -1.185  1.00  0.00     0.031 C 
ATOM     66  C   UNL     1     -18.949   4.307  -0.971  1.00  0.00     0.029 A 
ATOM     67  C   UNL     1     -18.457   3.035  -1.218  1.00  0.00     0.049 A 
ATOM     68  H   UNL     1     -16.599   2.464  -2.036  1.00  0.00     0.167 HD
ATOM     69  C   UNL     1     -18.531   0.557  -1.212  1.00  0.00     0.074 A 
ATOM     70  C   UNL     1     -19.165  -0.711  -0.913  1.00  0.00     0.031 C 
ATOM     71  C   UNL     1     -19.093   1.767  -0.967  1.00  0.00     0.034 A 
BRANCH  58  72
ATOM     72  C   UNL     1     -15.498   6.574  -2.444  1.00  0.00     0.023 A 
ATOM     73  C   UNL     1     -15.528   7.252  -3.681  1.00  0.00     0.012 A 
ATOM     74  C   UNL     1     -15.363   7.317  -1.255  1.00  0.00     0.148 A 
ATOM     75  C   UNL     1     -15.389   8.638  -3.738  1.00  0.00     0.002 A 
ATOM     76  C   UNL     1     -15.276   8.703  -1.316  1.00  0.00     0.091 A 
ATOM     77  F   UNL     1     -15.319   6.656  -0.090  1.00  0.00    -0.205 F 
ATOM     78  C   UNL     1     -15.275   9.364  -2.556  1.00  0.00     0.022 A 
BRANCH  76  79
ATOM     79  S   UNL     1     -15.207   9.739   0.150  1.00  0.00     0.127 S 
ATOM     80  O   UNL     1     -13.861  10.303   0.049  1.00  0.00    -0.237 OA
ATOM     81  O   UNL     1     -16.287  10.694  -0.100  1.00  0.00    -0.237 OA
ATOM     82  O   UNL     1     -15.425   8.851   1.283  1.00  0.00    -0.744 OA
ENDBRANCH  76  79
ENDBRANCH  58  72
BRANCH  59  83
ATOM     83  C   UNL     1     -16.203  -3.399  -2.266  1.00  0.00     0.023 A 
ATOM     84  C   UNL     1     -17.164  -4.051  -3.062  1.00  0.00     0.012 A 
ATOM     85  C   UNL     1     -15.334  -4.168  -1.469  1.00  0.00     0.148 A 
ATOM     86  C   UNL     1     -17.279  -5.442  -3.043  1.00  0.00     0.002 A 
ATOM     87  C   UNL     1     -15.415  -5.555  -1.497  1.00  0.00     0.091 A 
ATOM     88  F   UNL     1     -14.430  -3.526  -0.715  1.00  0.00    -0.205 F 
ATOM     89  C   UNL     1     -16.398  -6.194  -2.269  1.00  0.00     0.022 A 
BRANCH  87  90
ATOM     90  S   UNL     1     -14.243  -6.606  -0.635  1.00  0.00     0.127 S 
ATOM     91  O   UNL     1     -15.098  -7.254   0.357  1.00  0.00    -0.237 OA
ATOM     92  O   UNL     1     -13.777  -7.478  -1.714  1.00  0.00    -0.237 OA
ATOM     93  O   UNL     1     -13.227  -5.710  -0.099  1.00  0.00    -0.744 OA
ENDBRANCH  87  90
ENDBRANCH  59  83
BRANCH  71  94
ATOM     94  C   UNL     1     -20.483   1.788  -0.388  1.00  0.00     0.023 A 
ATOM     95  C   UNL     1     -20.698   1.404   0.950  1.00  0.00     0.012 A 
ATOM     96  C   UNL     1     -21.566   2.263  -1.155  1.00  0.00     0.148 A 
ATOM     97  C   UNL     1     -21.977   1.457   1.504  1.00  0.00     0.002 A 
ATOM     98  C   UNL     1     -22.825   2.365  -0.580  1.00  0.00     0.091 A 
ATOM     99  F   UNL     1     -21.342   2.609  -2.431  1.00  0.00    -0.205 F 
ATOM    100  C   UNL     1     -23.036   1.949   0.745  1.00  0.00     0.022 A 
BRANCH  98 101
ATOM    101  S   UNL     1     -24.226   3.080  -1.447  1.00  0.00     0.127 S 
ATOM    102  O   UNL     1     -25.074   1.907  -1.658  1.00  0.00    -0.237 OA
ATOM    103  O   UNL     1     -24.740   4.036  -0.466  1.00  0.00    -0.237 OA
ATOM    104  O   UNL     1     -23.687   3.684  -2.657  1.00  0.00    -0.744 OA
ENDBRANCH  98 101
ENDBRANCH  71  94
ENDBRANCH  45  46
ENDBRANCH  37  40
ENDBRANCH  35  36
ENDBRANCH   1  35
TORSDOF 18
