REMARK SMILES C[N@@H+]1CC2(CCN(C(=O)c3cc(-c4ccncc4)n[nH]3)CC2)C[C@H]1C(=O)NCCCNC(=O)c1ccc(-c2c3nc(c(-c4cccc(S(=O)(=O)[O-])c4F)c4ccc([nH]4)c(-c4cccc(S(=O)(=O)[O-])c4F)c4nc(c(-c5cccc(S(=O)(=O)[O-])c5F)c5ccc2[nH]5)C=C4)C=C3)cc1
REMARK SMILES IDX 29 1 28 2 27 3 25 4 26 5 24 7 1 8 2 9 3 10 4 12 23 13 5 14
REMARK SMILES IDX 22 15 6 16 21 17 7 18 8 19 9 20 10 21 11 22 20 23 12 24
REMARK SMILES IDX 19 25 13 27 14 28 18 29 15 30 17 31 16 32 30 33 31 34 32 35
REMARK SMILES IDX 33 37 34 38 35 39 96 40 36 41 95 42 37 43 38 44 39 45 89 46
REMARK SMILES IDX 40 47 94 48 88 49 90 50 41 51 93 52 87 53 86 54 42 56 74 57
REMARK SMILES IDX 54 58 73 59 55 60 58 61 72 62 91 63 56 64 57 65 71 67 92 68
REMARK SMILES IDX 59 69 43 70 44 71 52 72 45 73 47 74 53 75 46 76 48 77 49 78
REMARK SMILES IDX 50 79 51 80 75 81 76 82 84 83 77 84 79 85 85 86 78 87 80 88
REMARK SMILES IDX 81 89 82 90 83 91 60 92 61 93 69 94 62 95 64 96 70 97 63 98
REMARK SMILES IDX 65 99 66 100 67 101 68 102
REMARK H PARENT 27 6 2 11 20 26 31 36 90 55 58 66
REMARK Flexibility Score: inf
ROOT
ATOM      1  C   UNL     1      -1.102  -1.199   4.361  1.00  0.00     0.042 C 
ENDROOT
BRANCH   1   2
ATOM      2  C   UNL     1       0.263  -1.865   4.271  1.00  0.00     0.118 C 
BRANCH   2   3
ATOM      3  N   UNL     1       0.431  -2.815   3.204  1.00  0.00    -0.351 N 
ATOM      4  C   UNL     1       1.183  -2.718   2.067  1.00  0.00     0.278 C 
ATOM      5  O   UNL     1       1.362  -3.775   1.445  1.00  0.00    -0.268 OA
ATOM      6  H   UNL     1      -0.069  -3.656   3.307  1.00  0.00     0.163 HD
BRANCH   4   7
ATOM      7  C   UNL     1       1.812  -1.395   1.528  1.00  0.00     0.274 C 
ATOM      8  C   UNL     1       0.728   0.006  -0.120  1.00  0.00     0.333 C 
ATOM      9  N   UNL     1       0.773  -0.376   1.292  1.00  0.00    -0.327 N 
ATOM     10  C   UNL     1       1.024   0.768   2.171  1.00  0.00     0.269 C 
ATOM     11  H   UNL     1      -0.146  -0.758   1.514  1.00  0.00     0.348 HD
ATOM     12  C   UNL     1       2.469   0.687   2.709  1.00  0.00     0.029 C 
ATOM     13  C   UNL     1       2.938  -0.733   2.322  1.00  0.00     0.088 C 
ATOM     14  C   UNL     1       2.608   0.873   4.242  1.00  0.00     0.034 C 
ATOM     15  C   UNL     1       3.322   1.831   2.082  1.00  0.00     0.034 C 
ATOM     16  C   UNL     1       2.045   2.206   4.677  1.00  0.00     0.120 C 
ATOM     17  C   UNL     1       2.950   3.236   2.630  1.00  0.00     0.120 C 
ATOM     18  N   UNL     1       2.862   3.257   4.092  1.00  0.00    -0.337 N 
ATOM     19  C   UNL     1       3.334   4.340   4.830  1.00  0.00     0.271 C 
ATOM     20  O   UNL     1       3.647   5.407   4.302  1.00  0.00    -0.267 OA
BRANCH  19  21
ATOM     21  C   UNL     1       3.448   4.151   6.255  1.00  0.00     0.123 A 
ATOM     22  C   UNL     1       4.029   3.136   6.993  1.00  0.00     0.064 A 
ATOM     23  N   UNL     1       2.967   5.027   7.184  1.00  0.00    -0.272 N 
ATOM     24  C   UNL     1       3.740   3.428   8.349  1.00  0.00     0.093 A 
ATOM     25  N   UNL     1       3.075   4.587   8.454  1.00  0.00    -0.175 NA
ATOM     26  H   UNL     1       2.578   5.901   6.949  1.00  0.00     0.190 HD
BRANCH  24  27
ATOM     27  C   UNL     1       4.071   2.611   9.508  1.00  0.00     0.005 A 
ATOM     28  C   UNL     1       5.387   2.205   9.729  1.00  0.00     0.030 A 
ATOM     29  C   UNL     1       3.074   2.196  10.390  1.00  0.00     0.030 A 
ATOM     30  C   UNL     1       5.649   1.403  10.826  1.00  0.00     0.111 A 
ATOM     31  C   UNL     1       3.436   1.383  11.451  1.00  0.00     0.111 A 
ATOM     32  N   UNL     1       4.704   0.977  11.689  1.00  0.00    -0.265 NA
ENDBRANCH  24  27
ENDBRANCH  19  21
ENDBRANCH   4   7
ENDBRANCH   2   3
ENDBRANCH   1   2
BRANCH   1  33
ATOM     33  C   UNL     1      -1.956  -1.705   5.516  1.00  0.00     0.118 C 
BRANCH  33  34
ATOM     34  N   UNL     1      -1.387  -1.389   6.826  1.00  0.00    -0.352 N 
ATOM     35  C   UNL     1      -1.929  -0.752   7.919  1.00  0.00     0.251 C 
ATOM     36  H   UNL     1      -0.455  -1.682   6.947  1.00  0.00     0.163 HD
ATOM     37  O   UNL     1      -1.195  -0.481   8.868  1.00  0.00    -0.269 OA
BRANCH  35  38
ATOM     38  C   UNL     1      -3.361  -0.370   7.962  1.00  0.00     0.039 A 
ATOM     39  C   UNL     1      -3.728   0.815   8.612  1.00  0.00     0.014 A 
ATOM     40  C   UNL     1      -4.348  -1.175   7.393  1.00  0.00     0.014 A 
ATOM     41  C   UNL     1      -5.066   1.226   8.620  1.00  0.00     0.010 A 
ATOM     42  C   UNL     1      -5.659  -0.719   7.315  1.00  0.00     0.010 A 
ATOM     43  C   UNL     1      -6.037   0.480   7.936  1.00  0.00    -0.014 A 
BRANCH  43  44
ATOM     44  C   UNL     1      -7.454   0.920   7.844  1.00  0.00     0.031 A 
ATOM     45  C   UNL     1      -8.553   0.038   8.374  1.00  0.00     0.074 A 
ATOM     46  C   UNL     1      -7.762   2.037   7.156  1.00  0.00     0.049 A 
ATOM     47  N   UNL     1      -9.848   0.173   8.259  1.00  0.00    -0.248 NA
ATOM     48  C   UNL     1      -8.139  -1.183   9.088  1.00  0.00     0.031 C 
ATOM     49  C   UNL     1      -6.797   2.918   6.496  1.00  0.00     0.029 A 
ATOM     50  N   UNL     1      -8.980   2.597   6.859  1.00  0.00    -0.354 N 
ATOM     51  C   UNL     1     -10.399  -0.971   8.823  1.00  0.00     0.074 A 
ATOM     52  C   UNL     1      -9.298  -1.802   9.257  1.00  0.00     0.031 C 
ATOM     53  C   UNL     1      -7.458   3.899   5.863  1.00  0.00     0.029 A 
ATOM     54  C   UNL     1      -8.892   3.708   6.053  1.00  0.00     0.049 A 
ATOM     55  H   UNL     1      -9.834   2.238   7.191  1.00  0.00     0.167 HD
ATOM     56  C   UNL     1     -11.704  -1.289   8.999  1.00  0.00     0.034 A 
ATOM     57  C   UNL     1      -9.858   4.484   5.521  1.00  0.00     0.034 A 
ATOM     58  C   UNL     1     -12.794  -0.418   8.655  1.00  0.00     0.049 A 
ATOM     59  C   UNL     1     -11.296   4.184   5.841  1.00  0.00     0.074 A 
ATOM     60  C   UNL     1     -14.143  -0.579   8.918  1.00  0.00     0.029 A 
ATOM     61  N   UNL     1     -12.658   0.786   7.981  1.00  0.00    -0.354 N 
ATOM     62  N   UNL     1     -11.792   3.191   6.540  1.00  0.00    -0.248 NA
ATOM     63  C   UNL     1     -12.304   5.129   5.340  1.00  0.00     0.031 C 
ATOM     64  C   UNL     1     -14.823   0.532   8.406  1.00  0.00     0.029 A 
ATOM     65  C   UNL     1     -13.897   1.382   7.822  1.00  0.00     0.049 A 
ATOM     66  H   UNL     1     -11.806   1.162   7.663  1.00  0.00     0.167 HD
ATOM     67  C   UNL     1     -13.165   3.403   6.583  1.00  0.00     0.074 A 
ATOM     68  C   UNL     1     -13.420   4.633   5.860  1.00  0.00     0.031 C 
ATOM     69  C   UNL     1     -14.128   2.636   7.151  1.00  0.00     0.034 A 
BRANCH  56  70
ATOM     70  C   UNL     1     -12.014  -2.601   9.668  1.00  0.00     0.023 A 
ATOM     71  C   UNL     1     -11.778  -2.742  11.052  1.00  0.00     0.012 A 
ATOM     72  C   UNL     1     -12.555  -3.682   8.948  1.00  0.00     0.148 A 
ATOM     73  C   UNL     1     -12.035  -3.950  11.698  1.00  0.00     0.002 A 
ATOM     74  C   UNL     1     -12.846  -4.872   9.608  1.00  0.00     0.091 A 
ATOM     75  F   UNL     1     -12.748  -3.546   7.628  1.00  0.00    -0.205 F 
ATOM     76  C   UNL     1     -12.577  -5.012  10.979  1.00  0.00     0.022 A 
BRANCH  74  77
ATOM     77  S   UNL     1     -13.611  -6.261   8.762  1.00  0.00     0.127 S 
ATOM     78  O   UNL     1     -12.448  -7.066   8.397  1.00  0.00    -0.237 OA
ATOM     79  O   UNL     1     -14.452  -6.847   9.808  1.00  0.00    -0.237 OA
ATOM     80  O   UNL     1     -14.356  -5.675   7.656  1.00  0.00    -0.744 OA
ENDBRANCH  74  77
ENDBRANCH  56  70
BRANCH  57  81
ATOM     81  C   UNL     1      -9.472   5.672   4.709  1.00  0.00     0.023 A 
ATOM     82  C   UNL     1      -9.587   6.955   5.277  1.00  0.00     0.012 A 
ATOM     83  C   UNL     1      -8.916   5.536   3.422  1.00  0.00     0.148 A 
ATOM     84  C   UNL     1      -9.169   8.085   4.571  1.00  0.00     0.002 A 
ATOM     85  C   UNL     1      -8.454   6.660   2.746  1.00  0.00     0.091 A 
ATOM     86  F   UNL     1      -8.826   4.306   2.896  1.00  0.00    -0.205 F 
ATOM     87  C   UNL     1      -8.592   7.936   3.313  1.00  0.00     0.022 A 
BRANCH  85  88
ATOM     88  S   UNL     1      -7.568   6.546   1.186  1.00  0.00     0.127 S 
ATOM     89  O   UNL     1      -8.568   7.028   0.237  1.00  0.00    -0.237 OA
ATOM     90  O   UNL     1      -6.441   7.453   1.409  1.00  0.00    -0.237 OA
ATOM     91  O   UNL     1      -7.188   5.146   1.055  1.00  0.00    -0.744 OA
ENDBRANCH  85  88
ENDBRANCH  57  81
BRANCH  69  92
ATOM     92  C   UNL     1     -15.553   3.101   7.026  1.00  0.00     0.023 A 
ATOM     93  C   UNL     1     -16.230   2.929   5.803  1.00  0.00     0.012 A 
ATOM     94  C   UNL     1     -16.247   3.622   8.136  1.00  0.00     0.148 A 
ATOM     95  C   UNL     1     -17.572   3.286   5.681  1.00  0.00     0.002 A 
ATOM     96  C   UNL     1     -17.595   3.940   8.016  1.00  0.00     0.091 A 
ATOM     97  F   UNL     1     -15.578   3.801   9.285  1.00  0.00    -0.205 F 
ATOM     98  C   UNL     1     -18.257   3.779   6.789  1.00  0.00     0.022 A 
BRANCH  96  99
ATOM     99  S   UNL     1     -18.567   4.498   9.421  1.00  0.00     0.127 S 
ATOM    100  O   UNL     1     -18.585   5.945   9.217  1.00  0.00    -0.237 OA
ATOM    101  O   UNL     1     -19.853   3.835   9.201  1.00  0.00    -0.237 OA
ATOM    102  O   UNL     1     -17.850   4.034  10.602  1.00  0.00    -0.744 OA
ENDBRANCH  96  99
ENDBRANCH  69  92
ENDBRANCH  43  44
ENDBRANCH  35  38
ENDBRANCH  33  34
ENDBRANCH   1  33
TORSDOF 15
