REMARK SMILES [NH3+]Cc1c(-c2ccccc2)c(C(=O)NCCCNC(=O)c2ccc(-c3c4nc(c(-c5cccc(S(=O)(=O)[O-])c5F)c5ccc([nH]5)c(-c5cccc(S(=O)(=O)[O-])c5F)c5nc(c(-c6cccc(S(=O)(=O)[O-])c6F)c6ccc3[nH]6)C=C5)C=C4)cc2)c2ccccn12
REMARK SMILES IDX 16 1 15 2 14 3 12 4 13 5 11 7 3 8 4 9 89 10 84 11 88 12
REMARK SMILES IDX 85 13 87 14 86 15 2 16 1 17 5 21 6 22 10 23 7 24 9 25 8 26
REMARK SMILES IDX 17 27 18 28 19 29 20 31 21 32 22 33 83 34 23 35 82 36 24 37
REMARK SMILES IDX 25 38 26 39 76 40 27 41 81 42 75 43 77 44 28 45 80 46 74 47
REMARK SMILES IDX 73 48 29 50 61 51 41 52 60 53 42 54 45 55 59 56 78 57 43 58
REMARK SMILES IDX 44 59 58 61 79 62 46 63 30 64 31 65 39 66 32 67 34 68 40 69
REMARK SMILES IDX 33 70 35 71 36 72 37 73 38 74 62 75 63 76 71 77 64 78 66 79
REMARK SMILES IDX 72 80 65 81 67 82 68 83 69 84 70 85 47 86 48 87 56 88 49 89
REMARK SMILES IDX 51 90 57 91 50 92 52 93 53 94 54 95 55 96
REMARK H PARENT 14 6 1 18 1 19 1 20 18 30 77 49 45 60
REMARK Flexibility Score: inf
ROOT
ATOM      1  C   UNL     1       2.734   8.007   2.033  1.00  0.00     0.042 C 
ENDROOT
BRANCH   1   2
ATOM      2  C   UNL     1       2.163   7.075   0.986  1.00  0.00     0.118 C 
BRANCH   2   3
ATOM      3  N   UNL     1       3.112   6.253   0.272  1.00  0.00    -0.352 N 
ATOM      4  C   UNL     1       3.012   4.958  -0.190  1.00  0.00     0.254 C 
ATOM      5  O   UNL     1       3.939   4.575  -0.904  1.00  0.00    -0.269 OA
ATOM      6  H   UNL     1       3.974   6.690   0.084  1.00  0.00     0.163 HD
BRANCH   4   7
ATOM      7  C   UNL     1       1.923   4.052   0.213  1.00  0.00     0.073 A 
ATOM      8  C   UNL     1       0.885   2.093   0.874  1.00  0.00     0.086 A 
ATOM      9  C   UNL     1       2.071   2.622   0.366  1.00  0.00     0.022 A 
ATOM     10  N   UNL     1       0.027   3.167   1.066  1.00  0.00    -0.314 N 
ATOM     11  C   UNL     1       0.573   4.296   0.449  1.00  0.00     0.059 A 
ATOM     12  C   UNL     1      -1.194   3.214   1.755  1.00  0.00     0.092 A 
ATOM     13  C   UNL     1      -0.308   5.415   0.293  1.00  0.00     0.027 A 
ATOM     14  C   UNL     1      -1.919   4.343   1.768  1.00  0.00     0.018 A 
ATOM     15  C   UNL     1      -1.471   5.462   0.967  1.00  0.00     0.004 A 
BRANCH   8  16
ATOM     16  C   UNL     1       0.500   0.699   1.261  1.00  0.00     0.315 C 
BRANCH  16  17
ATOM     17  N   UNL     1       0.661  -0.245   0.163  1.00  0.00    -0.353 N 
ATOM     18  H   UNL     1       0.387  -1.178   0.473  1.00  0.00     0.344 HD
ATOM     19  H   UNL     1       1.636  -0.259  -0.134  1.00  0.00     0.344 HD
ATOM     20  H   UNL     1       0.071   0.039  -0.619  1.00  0.00     0.344 HD
ENDBRANCH  16  17
ENDBRANCH   8  16
BRANCH   9  21
ATOM     21  C   UNL     1       3.245   1.815   0.066  1.00  0.00    -0.016 A 
ATOM     22  C   UNL     1       4.337   1.785   0.938  1.00  0.00     0.009 A 
ATOM     23  C   UNL     1       3.308   1.108  -1.142  1.00  0.00     0.009 A 
ATOM     24  C   UNL     1       5.471   1.036   0.611  1.00  0.00     0.001 A 
ATOM     25  C   UNL     1       4.430   0.340  -1.455  1.00  0.00     0.001 A 
ATOM     26  C   UNL     1       5.513   0.307  -0.579  1.00  0.00     0.000 A 
ENDBRANCH   9  21
ENDBRANCH   4   7
ENDBRANCH   2   3
ENDBRANCH   1   2
BRANCH   1  27
ATOM     27  C   UNL     1       3.712   9.051   1.535  1.00  0.00     0.118 C 
BRANCH  27  28
ATOM     28  N   UNL     1       3.152   9.979   0.561  1.00  0.00    -0.352 N 
ATOM     29  C   UNL     1       2.857  11.322   0.643  1.00  0.00     0.251 C 
ATOM     30  H   UNL     1       2.948   9.574  -0.313  1.00  0.00     0.163 HD
ATOM     31  O   UNL     1       2.272  11.860  -0.294  1.00  0.00    -0.269 OA
BRANCH  29  32
ATOM     32  C   UNL     1       3.204  12.118   1.846  1.00  0.00     0.039 A 
ATOM     33  C   UNL     1       2.348  13.146   2.254  1.00  0.00     0.014 A 
ATOM     34  C   UNL     1       4.373  11.881   2.567  1.00  0.00     0.014 A 
ATOM     35  C   UNL     1       2.638  13.879   3.410  1.00  0.00     0.010 A 
ATOM     36  C   UNL     1       4.579  12.501   3.793  1.00  0.00     0.010 A 
ATOM     37  C   UNL     1       3.740  13.539   4.211  1.00  0.00    -0.014 A 
BRANCH  37  38
ATOM     38  C   UNL     1       4.064  14.289   5.453  1.00  0.00     0.031 A 
ATOM     39  C   UNL     1       5.405  14.969   5.599  1.00  0.00     0.074 A 
ATOM     40  C   UNL     1       3.186  14.308   6.475  1.00  0.00     0.049 A 
ATOM     41  N   UNL     1       5.876  15.657   6.607  1.00  0.00    -0.248 NA
ATOM     42  C   UNL     1       6.359  14.828   4.484  1.00  0.00     0.031 C 
ATOM     43  C   UNL     1       1.899  13.607   6.502  1.00  0.00     0.029 A 
ATOM     44  N   UNL     1       3.248  14.929   7.697  1.00  0.00    -0.354 N 
ATOM     45  C   UNL     1       7.182  15.991   6.264  1.00  0.00     0.074 A 
ATOM     46  C   UNL     1       7.452  15.382   4.983  1.00  0.00     0.031 C 
ATOM     47  C   UNL     1       1.284  13.859   7.668  1.00  0.00     0.029 A 
ATOM     48  C   UNL     1       2.140  14.714   8.484  1.00  0.00     0.049 A 
ATOM     49  H   UNL     1       4.013  15.478   7.984  1.00  0.00     0.167 HD
ATOM     50  C   UNL     1       8.068  16.769   6.930  1.00  0.00     0.034 A 
ATOM     51  C   UNL     1       1.845  15.160   9.720  1.00  0.00     0.034 A 
ATOM     52  C   UNL     1       7.778  17.418   8.178  1.00  0.00     0.049 A 
ATOM     53  C   UNL     1       2.817  16.080  10.410  1.00  0.00     0.074 A 
ATOM     54  C   UNL     1       8.567  18.299   8.895  1.00  0.00     0.029 A 
ATOM     55  N   UNL     1       6.606  17.252   8.899  1.00  0.00    -0.354 N 
ATOM     56  N   UNL     1       3.982  16.515   9.994  1.00  0.00    -0.248 NA
ATOM     57  C   UNL     1       2.410  16.610  11.719  1.00  0.00     0.031 C 
ATOM     58  C   UNL     1       7.883  18.645  10.065  1.00  0.00     0.029 A 
ATOM     59  C   UNL     1       6.651  18.011  10.056  1.00  0.00     0.049 A 
ATOM     60  H   UNL     1       5.853  16.680   8.629  1.00  0.00     0.167 HD
ATOM     61  C   UNL     1       4.429  17.399  10.969  1.00  0.00     0.074 A 
ATOM     62  C   UNL     1       3.395  17.457  11.982  1.00  0.00     0.031 C 
ATOM     63  C   UNL     1       5.593  18.092  11.030  1.00  0.00     0.034 A 
BRANCH  50  64
ATOM     64  C   UNL     1       9.414  17.002   6.292  1.00  0.00     0.023 A 
ATOM     65  C   UNL     1       9.508  17.779   5.117  1.00  0.00     0.012 A 
ATOM     66  C   UNL     1      10.590  16.494   6.877  1.00  0.00     0.148 A 
ATOM     67  C   UNL     1      10.743  18.009   4.512  1.00  0.00     0.002 A 
ATOM     68  C   UNL     1      11.823  16.773   6.297  1.00  0.00     0.091 A 
ATOM     69  F   UNL     1      10.482  15.740   7.980  1.00  0.00    -0.205 F 
ATOM     70  C   UNL     1      11.900  17.516   5.108  1.00  0.00     0.022 A 
BRANCH  68  71
ATOM     71  S   UNL     1      13.379  16.257   7.031  1.00  0.00     0.127 S 
ATOM     72  O   UNL     1      13.843  15.259   6.068  1.00  0.00    -0.237 OA
ATOM     73  O   UNL     1      14.144  17.504   7.033  1.00  0.00    -0.237 OA
ATOM     74  O   UNL     1      13.050  15.741   8.352  1.00  0.00    -0.744 OA
ENDBRANCH  68  71
ENDBRANCH  50  64
BRANCH  51  75
ATOM     75  C   UNL     1       0.542  14.809  10.353  1.00  0.00     0.023 A 
ATOM     76  C   UNL     1      -0.434  15.809  10.536  1.00  0.00     0.012 A 
ATOM     77  C   UNL     1       0.258  13.492  10.760  1.00  0.00     0.148 A 
ATOM     78  C   UNL     1      -1.651  15.513  11.151  1.00  0.00     0.002 A 
ATOM     79  C   UNL     1      -0.979  13.191  11.318  1.00  0.00     0.091 A 
ATOM     80  F   UNL     1       1.201  12.556  10.584  1.00  0.00    -0.205 F 
ATOM     81  C   UNL     1      -1.927  14.203  11.533  1.00  0.00     0.022 A 
BRANCH  79  82
ATOM     82  S   UNL     1      -1.472  11.511  11.717  1.00  0.00     0.127 S 
ATOM     83  O   UNL     1      -1.498  11.546  13.177  1.00  0.00    -0.237 OA
ATOM     84  O   UNL     1      -2.786  11.423  11.079  1.00  0.00    -0.237 OA
ATOM     85  O   UNL     1      -0.458  10.651  11.123  1.00  0.00    -0.744 OA
ENDBRANCH  79  82
ENDBRANCH  51  75
BRANCH  63  86
ATOM     86  C   UNL     1       5.791  19.013  12.205  1.00  0.00     0.023 A 
ATOM     87  C   UNL     1       5.985  18.483  13.496  1.00  0.00     0.012 A 
ATOM     88  C   UNL     1       5.825  20.409  12.020  1.00  0.00     0.148 A 
ATOM     89  C   UNL     1       6.155  19.329  14.592  1.00  0.00     0.002 A 
ATOM     90  C   UNL     1       6.053  21.244  13.107  1.00  0.00     0.091 A 
ATOM     91  F   UNL     1       5.622  20.898  10.787  1.00  0.00    -0.205 F 
ATOM     92  C   UNL     1       6.199  20.707  14.396  1.00  0.00     0.022 A 
BRANCH  90  93
ATOM     93  S   UNL     1       6.229  23.022  12.927  1.00  0.00     0.127 S 
ATOM     94  O   UNL     1       4.944  23.501  13.433  1.00  0.00    -0.237 OA
ATOM     95  O   UNL     1       7.372  23.311  13.793  1.00  0.00    -0.237 OA
ATOM     96  O   UNL     1       6.474  23.256  11.510  1.00  0.00    -0.744 OA
ENDBRANCH  90  93
ENDBRANCH  63  86
ENDBRANCH  37  38
ENDBRANCH  29  32
ENDBRANCH  27  28
ENDBRANCH   1  27
TORSDOF 16
