REMARK SMILES CC1(CNS(=O)(=O)Cc2ccc(C(=O)NCCCNC(=O)c3ccc(-c4c5nc(c(-c6cccc(S(=O)(=O)[O-])c6F)c6ccc([nH]6)c(-c6cccc(S(=O)(=O)[O-])c6F)c6nc(c(-c7cccc(S(=O)(=O)[O-])c7F)c7ccc4[nH]7)C=C6)C=C5)cc3)cc2)COC1
REMARK SMILES IDX 16 1 15 2 13 3 14 4 12 6 9 7 10 8 86 9 11 10 85 11 8 12 5 13
REMARK SMILES IDX 6 14 7 15 4 16 3 18 2 19 1 20 87 21 89 22 88 23 17 24 18 25
REMARK SMILES IDX 19 26 20 27 21 29 22 30 23 31 84 32 24 33 83 34 25 35 26 36
REMARK SMILES IDX 27 37 77 38 28 39 82 40 76 41 78 42 29 43 81 44 75 45 74 46
REMARK SMILES IDX 30 48 62 49 42 50 61 51 43 52 46 53 60 54 79 55 44 56 45 57
REMARK SMILES IDX 59 59 80 60 47 61 31 62 32 63 40 64 33 65 35 66 41 67 34 68
REMARK SMILES IDX 36 69 37 70 38 71 39 72 63 73 64 74 72 75 65 76 67 77 73 78
REMARK SMILES IDX 66 79 68 80 69 81 70 82 71 83 48 84 49 85 57 86 50 87 52 88
REMARK SMILES IDX 58 89 51 90 53 91 54 92 55 93 56 94
REMARK H PARENT 15 5 4 17 19 28 78 47 46 58
REMARK Flexibility Score: inf
ROOT
ATOM      1  C   UNL     1       3.496  -4.197  -0.863  1.00  0.00     0.118 C 
ENDROOT
BRANCH   1   2
ATOM      2  N   UNL     1       2.924  -5.493  -0.536  1.00  0.00    -0.352 N 
ATOM      3  C   UNL     1       1.636  -5.878  -0.256  1.00  0.00     0.251 C 
ATOM      4  O   UNL     1       1.399  -7.080  -0.141  1.00  0.00    -0.269 OA
ATOM      5  H   UNL     1       3.579  -6.228  -0.512  1.00  0.00     0.163 HD
BRANCH   3   6
ATOM      6  C   UNL     1       0.518  -4.906  -0.137  1.00  0.00     0.039 A 
ATOM      7  C   UNL     1      -1.669  -3.113  -0.032  1.00  0.00    -0.032 A 
ATOM      8  C   UNL     1      -1.847  -4.426  -0.484  1.00  0.00     0.005 A 
ATOM      9  C   UNL     1      -0.410  -2.754   0.453  1.00  0.00     0.005 A 
ATOM     10  C   UNL     1      -0.764  -5.316  -0.528  1.00  0.00     0.014 A 
ATOM     11  C   UNL     1       0.672  -3.633   0.403  1.00  0.00     0.014 A 
BRANCH   7  12
ATOM     12  C   UNL     1      -2.812  -2.134   0.024  1.00  0.00     0.189 C 
BRANCH  12  13
ATOM     13  S   UNL     1      -2.687  -0.835  -1.228  1.00  0.00     0.215 S 
ATOM     14  O   UNL     1      -3.692   0.169  -0.939  1.00  0.00    -0.212 OA
ATOM     15  O   UNL     1      -2.627  -1.438  -2.541  1.00  0.00    -0.212 OA
BRANCH  13  16
ATOM     16  N   UNL     1      -1.192  -0.091  -1.008  1.00  0.00    -0.214 NA
ATOM     17  H   UNL     1      -0.499  -0.835  -0.922  1.00  0.00     0.141 HD
BRANCH  16  18
ATOM     18  C   UNL     1      -1.000   0.814   0.147  1.00  0.00     0.110 C 
BRANCH  18  19
ATOM     19  C   UNL     1       0.445   1.335   0.237  1.00  0.00     0.028 C 
ATOM     20  C   UNL     1       1.534   0.274   0.155  1.00  0.00     0.018 C 
ATOM     21  C   UNL     1       0.640   2.310   1.419  1.00  0.00     0.170 C 
ATOM     22  C   UNL     1       0.704   2.594  -0.615  1.00  0.00     0.170 C 
ATOM     23  O   UNL     1       0.466   3.448   0.533  1.00  0.00    -0.380 OA
ENDBRANCH  18  19
ENDBRANCH  16  18
ENDBRANCH  13  16
ENDBRANCH  12  13
ENDBRANCH   7  12
ENDBRANCH   3   6
ENDBRANCH   1   2
BRANCH   1  24
ATOM     24  C   UNL     1       4.304  -3.627   0.302  1.00  0.00     0.042 C 
BRANCH  24  25
ATOM     25  C   UNL     1       5.658  -4.305   0.496  1.00  0.00     0.118 C 
BRANCH  25  26
ATOM     26  N   UNL     1       6.568  -4.034  -0.608  1.00  0.00    -0.352 N 
ATOM     27  C   UNL     1       7.821  -3.474  -0.604  1.00  0.00     0.251 C 
ATOM     28  H   UNL     1       6.231  -4.292  -1.497  1.00  0.00     0.163 HD
ATOM     29  O   UNL     1       8.322  -3.124  -1.669  1.00  0.00    -0.269 OA
BRANCH  27  30
ATOM     30  C   UNL     1       8.564  -3.285   0.662  1.00  0.00     0.039 A 
ATOM     31  C   UNL     1       9.331  -2.127   0.824  1.00  0.00     0.014 A 
ATOM     32  C   UNL     1       8.549  -4.258   1.665  1.00  0.00     0.014 A 
ATOM     33  C   UNL     1      10.043  -1.926   2.008  1.00  0.00     0.010 A 
ATOM     34  C   UNL     1       9.196  -4.019   2.875  1.00  0.00     0.010 A 
ATOM     35  C   UNL     1       9.960  -2.857   3.056  1.00  0.00    -0.014 A 
BRANCH  35  36
ATOM     36  C   UNL     1      10.659  -2.626   4.347  1.00  0.00     0.031 A 
ATOM     37  C   UNL     1      11.729  -3.575   4.816  1.00  0.00     0.074 A 
ATOM     38  C   UNL     1      10.275  -1.600   5.133  1.00  0.00     0.049 A 
ATOM     39  N   UNL     1      12.412  -3.560   5.931  1.00  0.00    -0.248 NA
ATOM     40  C   UNL     1      12.059  -4.702   3.928  1.00  0.00     0.031 C 
ATOM     41  C   UNL     1       9.201  -0.654   4.822  1.00  0.00     0.029 A 
ATOM     42  N   UNL     1      10.727  -1.195   6.364  1.00  0.00    -0.354 N 
ATOM     43  C   UNL     1      13.225  -4.687   5.896  1.00  0.00     0.074 A 
ATOM     44  C   UNL     1      12.924  -5.385   4.664  1.00  0.00     0.031 C 
ATOM     45  C   UNL     1       9.082   0.224   5.830  1.00  0.00     0.029 A 
ATOM     46  C   UNL     1      10.043  -0.116   6.874  1.00  0.00     0.049 A 
ATOM     47  H   UNL     1      11.469  -1.635   6.837  1.00  0.00     0.167 HD
ATOM     48  C   UNL     1      14.157  -5.092   6.792  1.00  0.00     0.034 A 
ATOM     49  C   UNL     1      10.167   0.521   8.055  1.00  0.00     0.034 A 
ATOM     50  C   UNL     1      14.473  -4.379   8.000  1.00  0.00     0.049 A 
ATOM     51  C   UNL     1      11.225   0.064   9.022  1.00  0.00     0.074 A 
ATOM     52  C   UNL     1      15.454  -4.662   8.934  1.00  0.00     0.029 A 
ATOM     53  N   UNL     1      13.809  -3.248   8.449  1.00  0.00    -0.354 N 
ATOM     54  N   UNL     1      12.086  -0.917   8.901  1.00  0.00    -0.248 NA
ATOM     55  C   UNL     1      11.354   0.826  10.273  1.00  0.00     0.031 C 
ATOM     56  C   UNL     1      15.359  -3.722   9.966  1.00  0.00     0.029 A 
ATOM     57  C   UNL     1      14.348  -2.828   9.653  1.00  0.00     0.049 A 
ATOM     58  H   UNL     1      13.063  -2.808   7.981  1.00  0.00     0.167 HD
ATOM     59  C   UNL     1      12.884  -0.866  10.038  1.00  0.00     0.074 A 
ATOM     60  C   UNL     1      12.416   0.256  10.826  1.00  0.00     0.031 C 
ATOM     61  C   UNL     1      13.905  -1.681  10.403  1.00  0.00     0.034 A 
BRANCH  48  62
ATOM     62  C   UNL     1      14.933  -6.347   6.479  1.00  0.00     0.023 A 
ATOM     63  C   UNL     1      15.869  -6.346   5.425  1.00  0.00     0.012 A 
ATOM     64  C   UNL     1      14.780  -7.508   7.263  1.00  0.00     0.148 A 
ATOM     65  C   UNL     1      16.611  -7.489   5.130  1.00  0.00     0.002 A 
ATOM     66  C   UNL     1      15.559  -8.627   6.995  1.00  0.00     0.091 A 
ATOM     67  F   UNL     1      13.873  -7.498   8.251  1.00  0.00    -0.205 F 
ATOM     68  C   UNL     1      16.464  -8.624   5.920  1.00  0.00     0.022 A 
BRANCH  66  69
ATOM     69  S   UNL     1      15.506 -10.112   8.004  1.00  0.00     0.127 S 
ATOM     70  O   UNL     1      14.891 -11.070   7.086  1.00  0.00    -0.237 OA
ATOM     71  O   UNL     1      16.924 -10.351   8.273  1.00  0.00    -0.237 OA
ATOM     72  O   UNL     1      14.712  -9.774   9.177  1.00  0.00    -0.744 OA
ENDBRANCH  66  69
ENDBRANCH  48  62
BRANCH  49  73
ATOM     73  C   UNL     1       9.301   1.694   8.365  1.00  0.00     0.023 A 
ATOM     74  C   UNL     1       9.873   2.979   8.435  1.00  0.00     0.012 A 
ATOM     75  C   UNL     1       7.916   1.547   8.570  1.00  0.00     0.148 A 
ATOM     76  C   UNL     1       9.087   4.091   8.743  1.00  0.00     0.002 A 
ATOM     77  C   UNL     1       7.129   2.666   8.817  1.00  0.00     0.091 A 
ATOM     78  F   UNL     1       7.392   0.314   8.506  1.00  0.00    -0.205 F 
ATOM     79  C   UNL     1       7.716   3.936   8.924  1.00  0.00     0.022 A 
BRANCH  77  80
ATOM     80  S   UNL     1       5.339   2.579   8.928  1.00  0.00     0.127 S 
ATOM     81  O   UNL     1       5.112   2.865  10.341  1.00  0.00    -0.237 OA
ATOM     82  O   UNL     1       4.928   3.641   8.008  1.00  0.00    -0.237 OA
ATOM     83  O   UNL     1       4.980   1.237   8.489  1.00  0.00    -0.744 OA
ENDBRANCH  77  80
ENDBRANCH  49  73
BRANCH  61  84
ATOM     84  C   UNL     1      14.623  -1.366  11.690  1.00  0.00     0.023 A 
ATOM     85  C   UNL     1      13.986  -1.579  12.928  1.00  0.00     0.012 A 
ATOM     86  C   UNL     1      15.960  -0.919  11.668  1.00  0.00     0.148 A 
ATOM     87  C   UNL     1      14.653  -1.316  14.123  1.00  0.00     0.002 A 
ATOM     88  C   UNL     1      16.636  -0.711  12.864  1.00  0.00     0.091 A 
ATOM     89  F   UNL     1      16.544  -0.705  10.480  1.00  0.00    -0.205 F 
ATOM     90  C   UNL     1      15.980  -0.894  14.092  1.00  0.00     0.022 A 
BRANCH  88  91
ATOM     91  S   UNL     1      18.375  -0.265  12.922  1.00  0.00     0.127 S 
ATOM     92  O   UNL     1      18.311   1.121  13.382  1.00  0.00    -0.237 OA
ATOM     93  O   UNL     1      18.904  -1.210  13.905  1.00  0.00    -0.237 OA
ATOM     94  O   UNL     1      18.884  -0.451  11.570  1.00  0.00    -0.744 OA
ENDBRANCH  88  91
ENDBRANCH  61  84
ENDBRANCH  35  36
ENDBRANCH  27  30
ENDBRANCH  25  26
ENDBRANCH  24  25
ENDBRANCH   1  24
TORSDOF 18
