REMARK SMILES CC(C)CN(C)/C=C\C(=O)NCCCNC(=O)c1ccc(-c2c3nc(c(-c4cccc(S(=O)(=O)[O-])c4F)c4ccc([nH]4)c(-c4cccc(S(=O)(=O)[O-])c4F)c4nc(c(-c5cccc(S(=O)(=O)[O-])c5F)c5ccc2[nH]5)C=C4)C=C3)cc1
REMARK SMILES IDX 13 1 12 2 11 3 9 4 10 5 8 7 7 8 5 9 6 10 4 11 2 12 1 13 3 14
REMARK SMILES IDX 14 15 15 16 16 17 17 19 18 20 19 21 80 22 20 23 79 24 21 25
REMARK SMILES IDX 22 26 23 27 73 28 24 29 78 30 72 31 74 32 25 33 77 34 71 35
REMARK SMILES IDX 70 36 26 38 58 39 38 40 57 41 39 42 42 43 56 44 75 45 40 46
REMARK SMILES IDX 41 47 55 49 76 50 43 51 27 52 28 53 36 54 29 55 31 56 37 57
REMARK SMILES IDX 30 58 32 59 33 60 34 61 35 62 59 63 60 64 68 65 61 66 63 67
REMARK SMILES IDX 69 68 62 69 64 70 65 71 66 72 67 73 44 74 45 75 53 76 46 77
REMARK SMILES IDX 48 78 54 79 47 80 49 81 50 82 51 83 52 84
REMARK H PARENT 11 6 15 18 74 37 42 48
REMARK Flexibility Score: inf
ROOT
ATOM      1  C   UNL     1      -2.093   0.423   2.992  1.00  0.00     0.042 C 
ENDROOT
BRANCH   1   2
ATOM      2  C   UNL     1      -2.699   0.946   1.680  1.00  0.00     0.118 C 
BRANCH   2   3
ATOM      3  N   UNL     1      -1.816   1.720   0.821  1.00  0.00    -0.352 N 
ATOM      4  C   UNL     1      -1.310   1.455  -0.416  1.00  0.00     0.245 C 
ATOM      5  O   UNL     1      -0.776   2.361  -1.055  1.00  0.00    -0.270 OA
ATOM      6  H   UNL     1      -1.536   2.585   1.199  1.00  0.00     0.163 HD
BRANCH   4   7
ATOM      7  C   UNL     1      -1.484   0.135  -1.050  1.00  0.00     0.088 C 
ATOM      8  C   UNL     1      -1.102  -1.069  -0.607  1.00  0.00     0.086 C 
BRANCH   8   9
ATOM      9  N   UNL     1      -0.432  -1.514   0.522  1.00  0.00    -0.380 N 
ATOM     10  C   UNL     1      -0.731  -2.846   1.064  1.00  0.00     0.143 C 
BRANCH   9  11
ATOM     11  C   UNL     1       0.504  -0.700   1.310  1.00  0.00     0.118 C 
BRANCH  11  12
ATOM     12  C   UNL     1       1.988  -0.790   0.946  1.00  0.00     0.002 C 
ATOM     13  C   UNL     1       2.288  -0.596  -0.537  1.00  0.00     0.009 C 
ATOM     14  C   UNL     1       2.715   0.298   1.756  1.00  0.00     0.009 C 
ENDBRANCH  11  12
ENDBRANCH   9  11
ENDBRANCH   8   9
ENDBRANCH   4   7
ENDBRANCH   2   3
ENDBRANCH   1   2
BRANCH   1  15
ATOM     15  C   UNL     1      -1.037   1.293   3.683  1.00  0.00     0.118 C 
BRANCH  15  16
ATOM     16  N   UNL     1      -1.641   2.228   4.612  1.00  0.00    -0.352 N 
ATOM     17  C   UNL     1      -1.654   2.211   5.985  1.00  0.00     0.251 C 
ATOM     18  H   UNL     1      -2.113   2.986   4.197  1.00  0.00     0.163 HD
ATOM     19  O   UNL     1      -2.501   2.886   6.570  1.00  0.00    -0.269 OA
BRANCH  17  20
ATOM     20  C   UNL     1      -0.675   1.425   6.784  1.00  0.00     0.039 A 
ATOM     21  C   UNL     1      -1.128   0.804   7.955  1.00  0.00     0.014 A 
ATOM     22  C   UNL     1       0.693   1.416   6.493  1.00  0.00     0.014 A 
ATOM     23  C   UNL     1      -0.222   0.190   8.829  1.00  0.00     0.010 A 
ATOM     24  C   UNL     1       1.595   0.767   7.353  1.00  0.00     0.010 A 
ATOM     25  C   UNL     1       1.153   0.170   8.544  1.00  0.00    -0.014 A 
BRANCH  25  26
ATOM     26  C   UNL     1       2.112  -0.451   9.506  1.00  0.00     0.031 A 
ATOM     27  C   UNL     1       3.102   0.393  10.271  1.00  0.00     0.074 A 
ATOM     28  C   UNL     1       2.109  -1.787   9.692  1.00  0.00     0.049 A 
ATOM     29  N   UNL     1       3.981   0.025  11.171  1.00  0.00    -0.248 NA
ATOM     30  C   UNL     1       3.116   1.835   9.982  1.00  0.00     0.031 C 
ATOM     31  C   UNL     1       1.245  -2.733   8.986  1.00  0.00     0.029 A 
ATOM     32  N   UNL     1       2.867  -2.582  10.519  1.00  0.00    -0.354 N 
ATOM     33  C   UNL     1       4.667   1.179  11.536  1.00  0.00     0.074 A 
ATOM     34  C   UNL     1       4.119   2.257  10.741  1.00  0.00     0.031 C 
ATOM     35  C   UNL     1       1.520  -3.978   9.407  1.00  0.00     0.029 A 
ATOM     36  C   UNL     1       2.593  -3.925  10.398  1.00  0.00     0.049 A 
ATOM     37  H   UNL     1       3.542  -2.225  11.139  1.00  0.00     0.167 HD
ATOM     38  C   UNL     1       5.644   1.337  12.464  1.00  0.00     0.034 A 
ATOM     39  C   UNL     1       3.140  -4.996  11.009  1.00  0.00     0.034 A 
ATOM     40  C   UNL     1       6.170   0.276  13.284  1.00  0.00     0.049 A 
ATOM     41  C   UNL     1       4.207  -4.792  12.052  1.00  0.00     0.074 A 
ATOM     42  C   UNL     1       7.102   0.359  14.304  1.00  0.00     0.029 A 
ATOM     43  N   UNL     1       5.821  -1.061  13.174  1.00  0.00    -0.354 N 
ATOM     44  N   UNL     1       4.725  -3.672  12.495  1.00  0.00    -0.248 NA
ATOM     45  C   UNL     1       4.738  -5.997  12.709  1.00  0.00     0.031 C 
ATOM     46  C   UNL     1       7.336  -0.931  14.793  1.00  0.00     0.029 A 
ATOM     47  C   UNL     1       6.529  -1.814  14.097  1.00  0.00     0.049 A 
ATOM     48  H   UNL     1       5.166  -1.422  12.534  1.00  0.00     0.167 HD
ATOM     49  C   UNL     1       5.614  -4.034  13.502  1.00  0.00     0.074 A 
ATOM     50  C   UNL     1       5.548  -5.475  13.620  1.00  0.00     0.031 C 
ATOM     51  C   UNL     1       6.422  -3.243  14.250  1.00  0.00     0.034 A 
BRANCH  38  52
ATOM     52  C   UNL     1       6.186   2.727  12.686  1.00  0.00     0.023 A 
ATOM     53  C   UNL     1       5.391   3.684  13.348  1.00  0.00     0.012 A 
ATOM     54  C   UNL     1       7.503   3.064  12.314  1.00  0.00     0.148 A 
ATOM     55  C   UNL     1       5.883   4.964  13.606  1.00  0.00     0.002 A 
ATOM     56  C   UNL     1       8.002   4.329  12.612  1.00  0.00     0.091 A 
ATOM     57  F   UNL     1       8.242   2.147  11.673  1.00  0.00    -0.205 F 
ATOM     58  C   UNL     1       7.189   5.282  13.247  1.00  0.00     0.022 A 
BRANCH  56  59
ATOM     59  S   UNL     1       9.697   4.811  12.263  1.00  0.00     0.127 S 
ATOM     60  O   UNL     1       9.515   5.747  11.155  1.00  0.00    -0.237 OA
ATOM     61  O   UNL     1      10.108   5.431  13.523  1.00  0.00    -0.237 OA
ATOM     62  O   UNL     1      10.404   3.581  11.933  1.00  0.00    -0.744 OA
ENDBRANCH  56  59
ENDBRANCH  38  52
BRANCH  39  63
ATOM     63  C   UNL     1       2.641  -6.365  10.693  1.00  0.00     0.023 A 
ATOM     64  C   UNL     1       1.908  -7.080  11.660  1.00  0.00     0.012 A 
ATOM     65  C   UNL     1       2.867  -6.952   9.432  1.00  0.00     0.148 A 
ATOM     66  C   UNL     1       1.435  -8.364  11.389  1.00  0.00     0.002 A 
ATOM     67  C   UNL     1       2.342  -8.207   9.148  1.00  0.00     0.091 A 
ATOM     68  F   UNL     1       3.582  -6.264   8.531  1.00  0.00    -0.205 F 
ATOM     69  C   UNL     1       1.642  -8.923  10.131  1.00  0.00     0.022 A 
BRANCH  67  70
ATOM     70  S   UNL     1       2.442  -8.939   7.511  1.00  0.00     0.127 S 
ATOM     71  O   UNL     1       3.409 -10.016   7.723  1.00  0.00    -0.237 OA
ATOM     72  O   UNL     1       1.063  -9.385   7.295  1.00  0.00    -0.237 OA
ATOM     73  O   UNL     1       2.869  -7.869   6.627  1.00  0.00    -0.744 OA
ENDBRANCH  67  70
ENDBRANCH  39  63
BRANCH  51  74
ATOM     74  C   UNL     1       7.286  -3.905  15.293  1.00  0.00     0.023 A 
ATOM     75  C   UNL     1       8.402  -4.669  14.898  1.00  0.00     0.012 A 
ATOM     76  C   UNL     1       7.036  -3.710  16.666  1.00  0.00     0.148 A 
ATOM     77  C   UNL     1       9.236  -5.255  15.850  1.00  0.00     0.002 A 
ATOM     78  C   UNL     1       7.898  -4.258  17.610  1.00  0.00     0.091 A 
ATOM     79  F   UNL     1       5.959  -2.997  17.026  1.00  0.00    -0.205 F 
ATOM     80  C   UNL     1       8.991  -5.040  17.204  1.00  0.00     0.022 A 
BRANCH  78  81
ATOM     81  S   UNL     1       7.715  -3.957  19.372  1.00  0.00     0.127 S 
ATOM     82  O   UNL     1       7.231  -5.251  19.848  1.00  0.00    -0.237 OA
ATOM     83  O   UNL     1       9.084  -3.633  19.776  1.00  0.00    -0.237 OA
ATOM     84  O   UNL     1       6.773  -2.852  19.495  1.00  0.00    -0.744 OA
ENDBRANCH  78  81
ENDBRANCH  51  74
ENDBRANCH  25  26
ENDBRANCH  17  20
ENDBRANCH  15  16
ENDBRANCH   1  15
TORSDOF 16
