REMARK SMILES Cc1cc(N(C)[C@H](C)C(=O)NCCCNC(=O)c2ccc(-c3c4nc(c(-c5cccc(S(=O)(=O)[O-])c5F)c5ccc([nH]5)c(-c5cccc(S(=O)(=O)[O-])c5F)c5nc(c(-c6cccc(S(=O)(=O)[O-])c6F)c6ccc3[nH]6)C=C5)C=C4)cc2)ncc1[N+](=O)[O-]
REMARK SMILES IDX 13 1 12 2 11 3 9 4 10 5 7 7 8 8 5 9 6 10 4 11 1 12 2 13 3 14
REMARK SMILES IDX 83 15 82 16 81 17 84 18 85 19 86 20 14 21 15 22 16 23 17 25
REMARK SMILES IDX 18 26 19 27 80 28 20 29 79 30 21 31 22 32 23 33 73 34 24 35
REMARK SMILES IDX 78 36 72 37 74 38 25 39 77 40 71 41 70 42 26 44 58 45 38 46
REMARK SMILES IDX 57 47 39 48 42 49 56 50 75 51 40 52 41 53 55 55 76 56 43 57
REMARK SMILES IDX 27 58 28 59 36 60 29 61 31 62 37 63 30 64 32 65 33 66 34 67
REMARK SMILES IDX 35 68 59 69 60 70 68 71 61 72 63 73 69 74 62 75 64 76 65 77
REMARK SMILES IDX 66 78 67 79 44 80 45 81 53 82 46 83 48 84 54 85 47 86 49 87
REMARK SMILES IDX 50 88 51 89 52 90
REMARK H PARENT 11 6 15 24 74 43 42 54
REMARK Flexibility Score: inf
ROOT
ATOM      1  C   UNL     1       1.089  -0.903  -1.586  1.00  0.00     0.042 C 
ENDROOT
BRANCH   1   2
ATOM      2  C   UNL     1       2.226  -0.402  -0.721  1.00  0.00     0.117 C 
BRANCH   2   3
ATOM      3  N   UNL     1       3.117   0.502  -1.426  1.00  0.00    -0.354 N 
ATOM      4  C   UNL     1       3.772   1.621  -1.001  1.00  0.00     0.242 C 
ATOM      5  O   UNL     1       4.645   2.057  -1.763  1.00  0.00    -0.273 OA
ATOM      6  H   UNL     1       3.276   0.269  -2.369  1.00  0.00     0.163 HD
BRANCH   4   7
ATOM      7  C   UNL     1       3.471   2.325   0.342  1.00  0.00     0.169 C 
ATOM      8  C   UNL     1       2.011   2.770   0.456  1.00  0.00     0.042 C 
BRANCH   7   9
ATOM      9  N   UNL     1       3.953   1.611   1.559  1.00  0.00    -0.348 N 
ATOM     10  C   UNL     1       4.183   0.177   1.578  1.00  0.00     0.146 C 
BRANCH   9  11
ATOM     11  C   UNL     1       4.361   2.378   2.643  1.00  0.00     0.129 A 
ATOM     12  C   UNL     1       5.633   1.733   6.144  1.00  0.00     0.052 C 
ATOM     13  C   UNL     1       5.253   2.535   4.933  1.00  0.00     0.032 A 
ATOM     14  C   UNL     1       4.661   1.804   3.883  1.00  0.00     0.057 A 
ATOM     15  C   UNL     1       5.444   3.902   4.719  1.00  0.00     0.290 A 
ATOM     16  C   UNL     1       5.056   4.434   3.496  1.00  0.00     0.199 A 
ATOM     17  N   UNL     1       4.528   3.705   2.481  1.00  0.00    -0.232 NA
BRANCH  15  18
ATOM     18  N   UNL     1       6.024   4.824   5.691  1.00  0.00     0.064 N 
ATOM     19  O   UNL     1       6.489   5.890   5.262  1.00  0.00    -0.258 OA
ATOM     20  O   UNL     1       6.008   4.513   6.888  1.00  0.00    -0.258 OA
ENDBRANCH  15  18
ENDBRANCH   9  11
ENDBRANCH   7   9
ENDBRANCH   4   7
ENDBRANCH   2   3
ENDBRANCH   1   2
BRANCH   1  21
ATOM     21  C   UNL     1       1.557  -1.780  -2.740  1.00  0.00     0.118 C 
BRANCH  21  22
ATOM     22  N   UNL     1       2.249  -2.991  -2.301  1.00  0.00    -0.352 N 
ATOM     23  C   UNL     1       1.861  -4.312  -2.349  1.00  0.00     0.251 C 
ATOM     24  H   UNL     1       3.137  -2.837  -1.906  1.00  0.00     0.163 HD
ATOM     25  O   UNL     1       2.514  -5.158  -1.757  1.00  0.00    -0.269 OA
BRANCH  23  26
ATOM     26  C   UNL     1       0.643  -4.692  -3.098  1.00  0.00     0.039 A 
ATOM     27  C   UNL     1      -0.239  -5.625  -2.548  1.00  0.00     0.014 A 
ATOM     28  C   UNL     1       0.363  -4.109  -4.333  1.00  0.00     0.014 A 
ATOM     29  C   UNL     1      -1.448  -5.893  -3.195  1.00  0.00     0.010 A 
ATOM     30  C   UNL     1      -0.889  -4.279  -4.905  1.00  0.00     0.010 A 
ATOM     31  C   UNL     1      -1.807  -5.181  -4.351  1.00  0.00    -0.014 A 
BRANCH  31  32
ATOM     32  C   UNL     1      -3.127  -5.358  -5.009  1.00  0.00     0.031 A 
ATOM     33  C   UNL     1      -3.194  -5.776  -6.456  1.00  0.00     0.074 A 
ATOM     34  C   UNL     1      -4.256  -5.035  -4.344  1.00  0.00     0.049 A 
ATOM     35  N   UNL     1      -4.237  -5.874  -7.238  1.00  0.00    -0.248 NA
ATOM     36  C   UNL     1      -1.917  -6.087  -7.123  1.00  0.00     0.031 C 
ATOM     37  C   UNL     1      -4.318  -4.530  -2.970  1.00  0.00     0.029 A 
ATOM     38  N   UNL     1      -5.568  -5.054  -4.746  1.00  0.00    -0.354 N 
ATOM     39  C   UNL     1      -3.740  -6.211  -8.492  1.00  0.00     0.074 A 
ATOM     40  C   UNL     1      -2.300  -6.255  -8.380  1.00  0.00     0.031 C 
ATOM     41  C   UNL     1      -5.599  -4.300  -2.641  1.00  0.00     0.029 A 
ATOM     42  C   UNL     1      -6.447  -4.603  -3.788  1.00  0.00     0.049 A 
ATOM     43  H   UNL     1      -5.854  -5.362  -5.637  1.00  0.00     0.167 HD
ATOM     44  C   UNL     1      -4.420  -6.498  -9.627  1.00  0.00     0.034 A 
ATOM     45  C   UNL     1      -7.785  -4.445  -3.833  1.00  0.00     0.034 A 
ATOM     46  C   UNL     1      -5.853  -6.516  -9.717  1.00  0.00     0.049 A 
ATOM     47  C   UNL     1      -8.520  -4.822  -5.091  1.00  0.00     0.074 A 
ATOM     48  C   UNL     1      -6.642  -6.882 -10.793  1.00  0.00     0.029 A 
ATOM     49  N   UNL     1      -6.713  -6.155  -8.693  1.00  0.00    -0.354 N 
ATOM     50  N   UNL     1      -8.040  -5.287  -6.219  1.00  0.00    -0.248 NA
ATOM     51  C   UNL     1      -9.983  -4.688  -5.072  1.00  0.00     0.031 C 
ATOM     52  C   UNL     1      -7.981  -6.724 -10.424  1.00  0.00     0.029 A 
ATOM     53  C   UNL     1      -8.025  -6.287  -9.110  1.00  0.00     0.049 A 
ATOM     54  H   UNL     1      -6.432  -5.849  -7.800  1.00  0.00     0.167 HD
ATOM     55  C   UNL     1      -9.142  -5.540  -7.027  1.00  0.00     0.074 A 
ATOM     56  C   UNL     1     -10.316  -5.196  -6.251  1.00  0.00     0.031 C 
ATOM     57  C   UNL     1      -9.181  -6.000  -8.302  1.00  0.00     0.034 A 
BRANCH  44  58
ATOM     58  C   UNL     1      -3.622  -6.886 -10.845  1.00  0.00     0.023 A 
ATOM     59  C   UNL     1      -2.961  -8.131 -10.874  1.00  0.00     0.012 A 
ATOM     60  C   UNL     1      -3.580  -6.054 -11.981  1.00  0.00     0.148 A 
ATOM     61  C   UNL     1      -2.242  -8.528 -12.000  1.00  0.00     0.002 A 
ATOM     62  C   UNL     1      -2.901  -6.478 -13.117  1.00  0.00     0.091 A 
ATOM     63  F   UNL     1      -4.198  -4.866 -11.927  1.00  0.00    -0.205 F 
ATOM     64  C   UNL     1      -2.222  -7.708 -13.124  1.00  0.00     0.022 A 
BRANCH  62  65
ATOM     65  S   UNL     1      -2.881  -5.536 -14.646  1.00  0.00     0.127 S 
ATOM     66  O   UNL     1      -1.478  -5.129 -14.723  1.00  0.00    -0.237 OA
ATOM     67  O   UNL     1      -3.279  -6.542 -15.631  1.00  0.00    -0.237 OA
ATOM     68  O   UNL     1      -3.835  -4.451 -14.463  1.00  0.00    -0.744 OA
ENDBRANCH  62  65
ENDBRANCH  44  58
BRANCH  45  69
ATOM     69  C   UNL     1      -8.527  -3.968  -2.630  1.00  0.00     0.023 A 
ATOM     70  C   UNL     1      -9.379  -4.859  -1.947  1.00  0.00     0.012 A 
ATOM     71  C   UNL     1      -8.392  -2.650  -2.155  1.00  0.00     0.148 A 
ATOM     72  C   UNL     1     -10.114  -4.435  -0.840  1.00  0.00     0.002 A 
ATOM     73  C   UNL     1      -9.083  -2.250  -1.016  1.00  0.00     0.091 A 
ATOM     74  F   UNL     1      -7.586  -1.813  -2.822  1.00  0.00    -0.205 F 
ATOM     75  C   UNL     1      -9.960  -3.134  -0.369  1.00  0.00     0.022 A 
BRANCH  73  76
ATOM     76  S   UNL     1      -8.841  -0.637  -0.263  1.00  0.00     0.127 S 
ATOM     77  O   UNL     1     -10.085   0.045  -0.611  1.00  0.00    -0.237 OA
ATOM     78  O   UNL     1      -8.700  -0.981   1.152  1.00  0.00    -0.237 OA
ATOM     79  O   UNL     1      -7.630  -0.102  -0.871  1.00  0.00    -0.744 OA
ENDBRANCH  73  76
ENDBRANCH  45  69
BRANCH  57  80
ATOM     80  C   UNL     1     -10.534  -6.209  -8.928  1.00  0.00     0.023 A 
ATOM     81  C   UNL     1     -11.310  -5.098  -9.312  1.00  0.00     0.012 A 
ATOM     82  C   UNL     1     -10.998  -7.509  -9.210  1.00  0.00     0.148 A 
ATOM     83  C   UNL     1     -12.543  -5.278  -9.937  1.00  0.00     0.002 A 
ATOM     84  C   UNL     1     -12.203  -7.680  -9.879  1.00  0.00     0.091 A 
ATOM     85  F   UNL     1     -10.251  -8.553  -8.820  1.00  0.00    -0.205 F 
ATOM     86  C   UNL     1     -12.983  -6.567 -10.231  1.00  0.00     0.022 A 
BRANCH  84  87
ATOM     87  S   UNL     1     -12.800  -9.296 -10.387  1.00  0.00     0.127 S 
ATOM     88  O   UNL     1     -13.917  -9.504  -9.467  1.00  0.00    -0.237 OA
ATOM     89  O   UNL     1     -13.190  -9.058 -11.778  1.00  0.00    -0.237 OA
ATOM     90  O   UNL     1     -11.677 -10.209 -10.223  1.00  0.00    -0.744 OA
ENDBRANCH  84  87
ENDBRANCH  57  80
ENDBRANCH  31  32
ENDBRANCH  23  26
ENDBRANCH  21  22
ENDBRANCH   1  21
TORSDOF 16
