REMARK SMILES Cc1ccccc1-c1nc(CC(=O)NCCCNC(=O)c2ccc(-c3c4nc(c(-c5cccc(S(=O)(=O)[O-])c5F)c5ccc([nH]5)c(-c5cccc(S(=O)(=O)[O-])c5F)c5nc(c(-c6cccc(S(=O)(=O)[O-])c6F)c6ccc3[nH]6)C=C5)C=C4)cc2)cs1
REMARK SMILES IDX 16 1 15 2 14 3 12 4 13 5 11 7 10 8 8 9 9 10 85 11 84 12 7 13
REMARK SMILES IDX 1 14 2 15 3 16 4 17 6 18 5 19 17 20 18 21 19 22 20 24 21 25
REMARK SMILES IDX 22 26 83 27 23 28 82 29 24 30 25 31 26 32 76 33 27 34 81 35
REMARK SMILES IDX 75 36 77 37 28 38 80 39 74 40 73 41 29 43 61 44 41 45 60 46
REMARK SMILES IDX 42 47 45 48 59 49 78 50 43 51 44 52 58 54 79 55 46 56 30 57
REMARK SMILES IDX 31 58 39 59 32 60 34 61 40 62 33 63 35 64 36 65 37 66 38 67
REMARK SMILES IDX 62 68 63 69 71 70 64 71 66 72 72 73 65 74 67 75 68 76 69 77
REMARK SMILES IDX 70 78 47 79 48 80 56 81 49 82 51 83 57 84 50 85 52 86 53 87
REMARK SMILES IDX 54 88 55 89
REMARK H PARENT 14 6 18 23 77 42 45 53
REMARK Flexibility Score: inf
ROOT
ATOM      1  C   UNL     1       0.138   4.093  -2.845  1.00  0.00     0.042 C 
ENDROOT
BRANCH   1   2
ATOM      2  C   UNL     1       1.382   4.482  -3.634  1.00  0.00     0.117 C 
BRANCH   2   3
ATOM      3  N   UNL     1       1.988   5.714  -3.147  1.00  0.00    -0.356 N 
ATOM      4  C   UNL     1       2.940   5.875  -2.176  1.00  0.00     0.226 C 
ATOM      5  O   UNL     1       3.314   7.015  -1.893  1.00  0.00    -0.275 OA
ATOM      6  H   UNL     1       1.671   6.543  -3.574  1.00  0.00     0.163 HD
BRANCH   4   7
ATOM      7  C   UNL     1       3.544   4.667  -1.483  1.00  0.00     0.157 C 
BRANCH   7   8
ATOM      8  C   UNL     1       2.611   4.065  -0.488  1.00  0.00     0.061 A 
ATOM      9  C   UNL     1       1.233   2.449   0.177  1.00  0.00     0.123 A 
ATOM     10  N   UNL     1       2.138   2.780  -0.725  1.00  0.00    -0.241 NA
ATOM     11  S   UNL     1       0.996   3.609   1.427  1.00  0.00    -0.122 S 
ATOM     12  C   UNL     1       2.116   4.655   0.660  1.00  0.00     0.091 A 
BRANCH   9  13
ATOM     13  C   UNL     1       0.459   1.201   0.156  1.00  0.00     0.013 A 
ATOM     14  C   UNL     1       2.582  -0.235   0.096  1.00  0.00     0.045 C 
ATOM     15  C   UNL     1       1.087  -0.061   0.110  1.00  0.00    -0.041 A 
ATOM     16  C   UNL     1       0.294  -1.222   0.036  1.00  0.00     0.004 A 
ATOM     17  C   UNL     1      -1.098  -1.142   0.014  1.00  0.00     0.000 A 
ATOM     18  C   UNL     1      -0.949   1.262   0.123  1.00  0.00     0.011 A 
ATOM     19  C   UNL     1      -1.720   0.100   0.056  1.00  0.00     0.001 A 
ENDBRANCH   9  13
ENDBRANCH   7   8
ENDBRANCH   4   7
ENDBRANCH   2   3
ENDBRANCH   1   2
BRANCH   1  20
ATOM     20  C   UNL     1      -1.104   4.881  -3.212  1.00  0.00     0.118 C 
BRANCH  20  21
ATOM     21  N   UNL     1      -1.902   4.286  -4.269  1.00  0.00    -0.352 N 
ATOM     22  C   UNL     1      -3.096   4.717  -4.834  1.00  0.00     0.251 C 
ATOM     23  H   UNL     1      -1.542   3.449  -4.642  1.00  0.00     0.163 HD
ATOM     24  O   UNL     1      -3.661   3.987  -5.622  1.00  0.00    -0.269 OA
BRANCH  22  25
ATOM     25  C   UNL     1      -3.587   6.101  -4.574  1.00  0.00     0.039 A 
ATOM     26  C   UNL     1      -4.147   6.818  -5.643  1.00  0.00     0.014 A 
ATOM     27  C   UNL     1      -3.327   6.753  -3.375  1.00  0.00     0.014 A 
ATOM     28  C   UNL     1      -4.193   8.212  -5.593  1.00  0.00     0.010 A 
ATOM     29  C   UNL     1      -3.259   8.125  -3.364  1.00  0.00     0.010 A 
ATOM     30  C   UNL     1      -3.631   8.853  -4.497  1.00  0.00    -0.014 A 
BRANCH  30  31
ATOM     31  C   UNL     1      -3.316  10.268  -4.404  1.00  0.00     0.031 A 
ATOM     32  C   UNL     1      -4.114  11.128  -3.496  1.00  0.00     0.074 A 
ATOM     33  C   UNL     1      -2.121  10.681  -4.888  1.00  0.00     0.049 A 
ATOM     34  N   UNL     1      -3.940  12.396  -3.353  1.00  0.00    -0.248 NA
ATOM     35  C   UNL     1      -5.202  10.605  -2.673  1.00  0.00     0.031 C 
ATOM     36  C   UNL     1      -1.364  11.856  -4.460  1.00  0.00     0.029 A 
ATOM     37  N   UNL     1      -1.346  10.198  -5.945  1.00  0.00    -0.354 N 
ATOM     38  C   UNL     1      -4.667  12.803  -2.253  1.00  0.00     0.074 A 
ATOM     39  C   UNL     1      -5.505  11.675  -1.932  1.00  0.00     0.031 C 
ATOM     40  C   UNL     1      -0.470  12.164  -5.413  1.00  0.00     0.029 A 
ATOM     41  C   UNL     1      -0.799  11.335  -6.556  1.00  0.00     0.049 A 
ATOM     42  H   UNL     1      -1.212   9.258  -6.205  1.00  0.00     0.167 HD
ATOM     43  C   UNL     1      -4.359  14.003  -1.683  1.00  0.00     0.034 A 
ATOM     44  C   UNL     1      -1.188  11.837  -7.771  1.00  0.00     0.034 A 
ATOM     45  C   UNL     1      -3.416  14.747  -2.535  1.00  0.00     0.049 A 
ATOM     46  C   UNL     1      -1.638  13.296  -7.720  1.00  0.00     0.074 A 
ATOM     47  C   UNL     1      -2.045  14.943  -2.493  1.00  0.00     0.029 A 
ATOM     48  N   UNL     1      -3.837  15.188  -3.785  1.00  0.00    -0.354 N 
ATOM     49  N   UNL     1      -1.933  13.936  -6.621  1.00  0.00    -0.248 NA
ATOM     50  C   UNL     1      -1.789  14.149  -8.898  1.00  0.00     0.031 C 
ATOM     51  C   UNL     1      -1.633  15.421  -3.767  1.00  0.00     0.029 A 
ATOM     52  C   UNL     1      -2.754  15.550  -4.570  1.00  0.00     0.049 A 
ATOM     53  H   UNL     1      -4.777  15.238  -4.073  1.00  0.00     0.167 HD
ATOM     54  C   UNL     1      -2.406  15.190  -6.910  1.00  0.00     0.074 A 
ATOM     55  C   UNL     1      -2.221  15.299  -8.347  1.00  0.00     0.031 C 
ATOM     56  C   UNL     1      -2.957  15.996  -5.947  1.00  0.00     0.034 A 
BRANCH  43  57
ATOM     57  C   UNL     1      -4.684  14.446  -0.259  1.00  0.00     0.023 A 
ATOM     58  C   UNL     1      -4.001  15.587   0.228  1.00  0.00     0.012 A 
ATOM     59  C   UNL     1      -5.522  13.797   0.678  1.00  0.00     0.148 A 
ATOM     60  C   UNL     1      -4.078  16.007   1.562  1.00  0.00     0.002 A 
ATOM     61  C   UNL     1      -5.588  14.201   2.017  1.00  0.00     0.091 A 
ATOM     62  F   UNL     1      -6.298  12.786   0.299  1.00  0.00    -0.205 F 
ATOM     63  C   UNL     1      -4.857  15.302   2.464  1.00  0.00     0.022 A 
BRANCH  61  64
ATOM     64  S   UNL     1      -6.564  13.318   3.252  1.00  0.00     0.127 S 
ATOM     65  O   UNL     1      -5.541  12.918   4.220  1.00  0.00    -0.237 OA
ATOM     66  O   UNL     1      -7.479  14.354   3.728  1.00  0.00    -0.237 OA
ATOM     67  O   UNL     1      -7.204  12.205   2.560  1.00  0.00    -0.744 OA
ENDBRANCH  61  64
ENDBRANCH  43  57
BRANCH  44  68
ATOM     68  C   UNL     1      -1.724  10.810  -8.712  1.00  0.00     0.023 A 
ATOM     69  C   UNL     1      -0.832   9.790  -9.116  1.00  0.00     0.012 A 
ATOM     70  C   UNL     1      -3.106  10.613  -8.889  1.00  0.00     0.148 A 
ATOM     71  C   UNL     1      -1.306   8.546  -9.534  1.00  0.00     0.002 A 
ATOM     72  C   UNL     1      -3.572   9.369  -9.317  1.00  0.00     0.091 A 
ATOM     73  F   UNL     1      -3.944  11.612  -8.585  1.00  0.00    -0.205 F 
ATOM     74  C   UNL     1      -2.675   8.324  -9.597  1.00  0.00     0.022 A 
BRANCH  72  75
ATOM     75  S   UNL     1      -5.328   8.979  -9.392  1.00  0.00     0.127 S 
ATOM     76  O   UNL     1      -5.612   9.176 -10.811  1.00  0.00    -0.237 OA
ATOM     77  O   UNL     1      -5.356   7.586  -8.946  1.00  0.00    -0.237 OA
ATOM     78  O   UNL     1      -5.960   9.911  -8.470  1.00  0.00    -0.744 OA
ENDBRANCH  72  75
ENDBRANCH  44  68
BRANCH  56  79
ATOM     79  C   UNL     1      -3.752  17.272  -6.197  1.00  0.00     0.023 A 
ATOM     80  C   UNL     1      -4.304  17.584  -7.455  1.00  0.00     0.012 A 
ATOM     81  C   UNL     1      -4.107  18.137  -5.126  1.00  0.00     0.148 A 
ATOM     82  C   UNL     1      -5.110  18.712  -7.659  1.00  0.00     0.002 A 
ATOM     83  C   UNL     1      -5.000  19.193  -5.311  1.00  0.00     0.091 A 
ATOM     84  F   UNL     1      -3.566  17.961  -3.912  1.00  0.00    -0.205 F 
ATOM     85  C   UNL     1      -5.479  19.503  -6.583  1.00  0.00     0.022 A 
BRANCH  83  86
ATOM     86  S   UNL     1      -5.684  20.076  -3.900  1.00  0.00     0.127 S 
ATOM     87  O   UNL     1      -4.729  21.167  -3.728  1.00  0.00    -0.237 OA
ATOM     88  O   UNL     1      -7.000  20.493  -4.392  1.00  0.00    -0.237 OA
ATOM     89  O   UNL     1      -5.738  19.086  -2.833  1.00  0.00    -0.744 OA
ENDBRANCH  83  86
ENDBRANCH  56  79
ENDBRANCH  30  31
ENDBRANCH  22  25
ENDBRANCH  20  21
ENDBRANCH   1  20
TORSDOF 15
