REMARK SMILES COC(=O)c1c(NC(=O)[C@@H]2C[C@@H]2C(=O)NCCCNC(=O)c2ccc(-c3c4nc(c(-c5cccc(S(=O)(=O)[O-])c5F)c5ccc([nH]5)c(-c5cccc(S(=O)(=O)[O-])c5F)c5nc(c(-c6cccc(S(=O)(=O)[O-])c6F)c6ccc3[nH]6)C=C5)C=C4)cc2)sc2c1CC[N@@H+](Cc1ccccc1)C2
REMARK SMILES IDX 16 1 15 2 13 3 14 4 12 6 10 7 11 8 8 9 7 10 9 12 6 13 5 14
REMARK SMILES IDX 87 15 85 16 86 17 88 18 98 19 89 20 90 21 3 23 4 24 2 25
REMARK SMILES IDX 1 26 91 27 92 28 93 29 97 30 94 31 96 32 95 33 17 34 18 35
REMARK SMILES IDX 19 36 20 37 21 39 22 40 23 41 84 42 24 43 83 44 25 45 26 46
REMARK SMILES IDX 27 47 77 48 28 49 82 50 76 51 78 52 29 53 81 54 75 55 74 56
REMARK SMILES IDX 30 58 62 59 42 60 61 61 43 62 46 63 60 64 79 65 44 66 45 67
REMARK SMILES IDX 59 69 80 70 47 71 31 72 32 73 40 74 33 75 35 76 41 77 34 78
REMARK SMILES IDX 36 79 37 80 38 81 39 82 63 83 64 84 72 85 65 86 67 87 73 88
REMARK SMILES IDX 66 89 68 90 69 91 70 92 71 93 48 94 49 95 57 96 50 97 52 98
REMARK SMILES IDX 58 99 51 100 53 101 54 102 55 103 56 104
REMARK H PARENT 15 5 7 11 90 22 19 38 78 57 46 68
REMARK Flexibility Score: inf
ROOT
ATOM      1  C   UNL     1      -0.683  -3.753   0.795  1.00  0.00     0.117 C 
ENDROOT
BRANCH   1   2
ATOM      2  N   UNL     1      -2.012  -3.167   0.759  1.00  0.00    -0.356 N 
ATOM      3  C   UNL     1      -2.417  -1.885   0.520  1.00  0.00     0.223 C 
ATOM      4  O   UNL     1      -3.615  -1.646   0.431  1.00  0.00    -0.275 OA
ATOM      5  H   UNL     1      -2.744  -3.801   0.937  1.00  0.00     0.163 HD
BRANCH   3   6
ATOM      6  C   UNL     1      -1.416  -0.808   0.303  1.00  0.00     0.091 C 
ATOM      7  C   UNL     1      -1.498   0.540   0.999  1.00  0.00     0.092 C 
ATOM      8  C   UNL     1      -1.853   0.414  -0.465  1.00  0.00     0.028 C 
BRANCH   7   9
ATOM      9  C   UNL     1      -2.529   0.827   2.007  1.00  0.00     0.228 C 
ATOM     10  N   UNL     1      -2.310   0.583   3.332  1.00  0.00    -0.317 N 
ATOM     11  H   UNL     1      -3.131   0.643   3.872  1.00  0.00     0.170 HD
ATOM     12  O   UNL     1      -3.547   1.419   1.661  1.00  0.00    -0.274 OA
BRANCH  10  13
ATOM     13  C   UNL     1      -1.198   0.271   4.084  1.00  0.00     0.110 A 
ATOM     14  C   UNL     1       0.113  -0.169   3.963  1.00  0.00     0.098 A 
ATOM     15  C   UNL     1       0.786  -0.135   5.253  1.00  0.00    -0.006 A 
ATOM     16  S   UNL     1      -1.605   0.594   5.731  1.00  0.00    -0.116 S 
ATOM     17  C   UNL     1      -0.010   0.396   6.243  1.00  0.00     0.065 A 
ATOM     18  C   UNL     1       2.229  -0.451   5.532  1.00  0.00     0.099 C 
ATOM     19  C   UNL     1       0.461   0.789   7.611  1.00  0.00     0.310 C 
ATOM     20  C   UNL     1       2.642  -0.103   6.987  1.00  0.00     0.267 C 
ATOM     21  N   UNL     1       1.925   1.002   7.647  1.00  0.00    -0.326 N 
ATOM     22  H   UNL     1       2.200   0.959   8.628  1.00  0.00     0.348 HD
BRANCH  14  23
ATOM     23  C   UNL     1       0.831  -0.627   2.781  1.00  0.00     0.341 C 
ATOM     24  O   UNL     1       1.158  -1.786   2.609  1.00  0.00    -0.246 OA
BRANCH  23  25
ATOM     25  O   UNL     1       1.256   0.404   1.991  1.00  0.00    -0.465 OA
ATOM     26  C   UNL     1       1.993   0.035   0.822  1.00  0.00     0.282 C 
ENDBRANCH  23  25
ENDBRANCH  14  23
BRANCH  21  27
ATOM     27  C   UNL     1       2.374   2.362   7.311  1.00  0.00     0.299 C 
BRANCH  27  28
ATOM     28  C   UNL     1       2.304   2.804   5.864  1.00  0.00     0.006 A 
ATOM     29  C   UNL     1       3.434   2.728   5.035  1.00  0.00     0.009 A 
ATOM     30  C   UNL     1       1.095   3.247   5.307  1.00  0.00     0.009 A 
ATOM     31  C   UNL     1       3.332   2.996   3.668  1.00  0.00     0.001 A 
ATOM     32  C   UNL     1       0.988   3.493   3.938  1.00  0.00     0.001 A 
ATOM     33  C   UNL     1       2.103   3.356   3.117  1.00  0.00     0.000 A 
ENDBRANCH  27  28
ENDBRANCH  21  27
ENDBRANCH  10  13
ENDBRANCH   7   9
ENDBRANCH   3   6
ENDBRANCH   1   2
BRANCH   1  34
ATOM     34  C   UNL     1      -0.349  -4.415   2.132  1.00  0.00     0.042 C 
BRANCH  34  35
ATOM     35  C   UNL     1      -1.106  -5.711   2.356  1.00  0.00     0.118 C 
BRANCH  35  36
ATOM     36  N   UNL     1      -0.705  -6.795   1.440  1.00  0.00    -0.352 N 
ATOM     37  C   UNL     1      -1.179  -8.098   1.398  1.00  0.00     0.251 C 
ATOM     38  H   UNL     1      -0.016  -6.565   0.776  1.00  0.00     0.163 HD
ATOM     39  O   UNL     1      -0.564  -8.982   0.813  1.00  0.00    -0.269 OA
BRANCH  37  40
ATOM     40  C   UNL     1      -2.459  -8.388   2.066  1.00  0.00     0.039 A 
ATOM     41  C   UNL     1      -2.687  -9.537   2.833  1.00  0.00     0.014 A 
ATOM     42  C   UNL     1      -3.427  -7.404   1.957  1.00  0.00     0.014 A 
ATOM     43  C   UNL     1      -3.879  -9.634   3.551  1.00  0.00     0.010 A 
ATOM     44  C   UNL     1      -4.438  -7.374   2.865  1.00  0.00     0.010 A 
ATOM     45  C   UNL     1      -4.745  -8.535   3.564  1.00  0.00    -0.014 A 
BRANCH  45  46
ATOM     46  C   UNL     1      -5.974  -8.480   4.344  1.00  0.00     0.031 A 
ATOM     47  C   UNL     1      -5.774  -8.544   5.818  1.00  0.00     0.074 A 
ATOM     48  C   UNL     1      -7.113  -8.038   3.753  1.00  0.00     0.049 A 
ATOM     49  N   UNL     1      -6.245  -9.415   6.649  1.00  0.00    -0.248 NA
ATOM     50  C   UNL     1      -4.817  -7.603   6.428  1.00  0.00     0.031 C 
ATOM     51  C   UNL     1      -7.286  -7.611   2.350  1.00  0.00     0.029 A 
ATOM     52  N   UNL     1      -8.290  -7.657   4.314  1.00  0.00    -0.354 N 
ATOM     53  C   UNL     1      -5.857  -8.964   7.911  1.00  0.00     0.074 A 
ATOM     54  C   UNL     1      -4.796  -8.020   7.695  1.00  0.00     0.031 C 
ATOM     55  C   UNL     1      -8.341  -6.774   2.259  1.00  0.00     0.029 A 
ATOM     56  C   UNL     1      -9.023  -6.757   3.536  1.00  0.00     0.049 A 
ATOM     57  H   UNL     1      -8.599  -7.985   5.190  1.00  0.00     0.167 HD
ATOM     58  C   UNL     1      -6.644  -9.160   9.006  1.00  0.00     0.034 A 
ATOM     59  C   UNL     1     -10.071  -5.995   3.938  1.00  0.00     0.034 A 
ATOM     60  C   UNL     1      -7.669 -10.140   8.749  1.00  0.00     0.049 A 
ATOM     61  C   UNL     1     -10.586  -6.597   5.187  1.00  0.00     0.074 A 
ATOM     62  C   UNL     1      -7.686 -11.456   8.331  1.00  0.00     0.029 A 
ATOM     63  N   UNL     1      -8.939  -9.661   8.535  1.00  0.00    -0.354 N 
ATOM     64  N   UNL     1     -11.117  -7.786   5.243  1.00  0.00    -0.248 NA
ATOM     65  C   UNL     1     -10.080  -6.072   6.444  1.00  0.00     0.031 C 
ATOM     66  C   UNL     1      -8.799 -11.539   7.442  1.00  0.00     0.029 A 
ATOM     67  C   UNL     1      -9.439 -10.298   7.431  1.00  0.00     0.049 A 
ATOM     68  H   UNL     1      -9.405  -8.983   9.076  1.00  0.00     0.167 HD
ATOM     69  C   UNL     1     -10.587  -8.340   6.401  1.00  0.00     0.074 A 
ATOM     70  C   UNL     1     -10.051  -7.204   7.153  1.00  0.00     0.031 C 
ATOM     71  C   UNL     1     -10.354  -9.683   6.496  1.00  0.00     0.034 A 
BRANCH  58  72
ATOM     72  C   UNL     1      -6.765  -8.197  10.170  1.00  0.00     0.023 A 
ATOM     73  C   UNL     1      -7.487  -8.642  11.300  1.00  0.00     0.012 A 
ATOM     74  C   UNL     1      -6.468  -6.815  10.106  1.00  0.00     0.148 A 
ATOM     75  C   UNL     1      -7.941  -7.752  12.280  1.00  0.00     0.002 A 
ATOM     76  C   UNL     1      -6.847  -5.949  11.125  1.00  0.00     0.091 A 
ATOM     77  F   UNL     1      -5.941  -6.290   8.998  1.00  0.00    -0.205 F 
ATOM     78  C   UNL     1      -7.615  -6.405  12.197  1.00  0.00     0.022 A 
BRANCH  76  79
ATOM     79  S   UNL     1      -6.405  -4.206  11.089  1.00  0.00     0.127 S 
ATOM     80  O   UNL     1      -7.679  -3.591  10.728  1.00  0.00    -0.237 OA
ATOM     81  O   UNL     1      -5.973  -3.979  12.468  1.00  0.00    -0.237 OA
ATOM     82  O   UNL     1      -5.334  -4.099  10.106  1.00  0.00    -0.744 OA
ENDBRANCH  76  79
ENDBRANCH  58  72
BRANCH  59  83
ATOM     83  C   UNL     1     -10.473  -4.638   3.497  1.00  0.00     0.023 A 
ATOM     84  C   UNL     1     -11.795  -4.191   3.700  1.00  0.00     0.012 A 
ATOM     85  C   UNL     1      -9.499  -3.682   3.135  1.00  0.00     0.148 A 
ATOM     86  C   UNL     1     -12.129  -2.836   3.570  1.00  0.00     0.002 A 
ATOM     87  C   UNL     1      -9.836  -2.338   3.002  1.00  0.00     0.091 A 
ATOM     88  F   UNL     1      -8.225  -4.080   3.013  1.00  0.00    -0.205 F 
ATOM     89  C   UNL     1     -11.149  -1.908   3.229  1.00  0.00     0.022 A 
BRANCH  87  90
ATOM     90  S   UNL     1      -8.619  -1.079   2.594  1.00  0.00     0.127 S 
ATOM     91  O   UNL     1      -9.268  -0.392   1.477  1.00  0.00    -0.237 OA
ATOM     92  O   UNL     1      -8.556  -0.312   3.835  1.00  0.00    -0.237 OA
ATOM     93  O   UNL     1      -7.413  -1.814   2.241  1.00  0.00    -0.744 OA
ENDBRANCH  87  90
ENDBRANCH  59  83
BRANCH  71  94
ATOM     94  C   UNL     1     -10.882 -10.575   5.397  1.00  0.00     0.023 A 
ATOM     95  C   UNL     1     -10.410 -10.505   4.068  1.00  0.00     0.012 A 
ATOM     96  C   UNL     1     -11.739 -11.628   5.752  1.00  0.00     0.148 A 
ATOM     97  C   UNL     1     -10.797 -11.449   3.113  1.00  0.00     0.002 A 
ATOM     98  C   UNL     1     -12.089 -12.590   4.811  1.00  0.00     0.091 A 
ATOM     99  F   UNL     1     -12.171 -11.690   7.020  1.00  0.00    -0.205 F 
ATOM    100  C   UNL     1     -11.628 -12.500   3.488  1.00  0.00     0.022 A 
BRANCH  98 101
ATOM    101  S   UNL     1     -13.054 -14.032   5.261  1.00  0.00     0.127 S 
ATOM    102  O   UNL     1     -14.347 -13.738   4.646  1.00  0.00    -0.237 OA
ATOM    103  O   UNL     1     -12.308 -15.120   4.627  1.00  0.00    -0.237 OA
ATOM    104  O   UNL     1     -13.051 -14.081   6.718  1.00  0.00    -0.744 OA
ENDBRANCH  98 101
ENDBRANCH  71  94
ENDBRANCH  45  46
ENDBRANCH  37  40
ENDBRANCH  35  36
ENDBRANCH  34  35
ENDBRANCH   1  34
TORSDOF 19
