REMARK SMILES O=C(NCCCNC(=O)c1cccc(NC(=O)c2ccc(N3C(=O)CCC3=O)cc2)c1)c1ccc(-c2c3nc(c(-c4cccc(S(=O)(=O)[O-])c4F)c4ccc([nH]4)c(-c4cccc(S(=O)(=O)[O-])c4F)c4nc(c(-c5cccc(S(=O)(=O)[O-])c5F)c5ccc2[nH]5)C=C4)C=C3)cc1
REMARK SMILES IDX 5 1 4 2 3 3 1 4 2 5 32 7 33 8 94 9 34 10 93 11 35 12 36 13
REMARK SMILES IDX 37 14 87 15 38 16 92 17 86 18 88 19 39 20 91 21 85 22 84 23
REMARK SMILES IDX 40 25 72 26 52 27 71 28 53 29 56 30 70 31 89 32 54 33 55 34
REMARK SMILES IDX 69 36 90 37 57 38 41 39 42 40 50 41 43 42 45 43 51 44 44 45
REMARK SMILES IDX 46 46 47 47 48 48 49 49 73 50 74 51 82 52 75 53 77 54 83 55
REMARK SMILES IDX 76 56 78 57 79 58 80 59 81 60 58 61 59 62 67 63 60 64 62 65
REMARK SMILES IDX 68 66 61 67 63 68 64 69 65 70 66 71 6 72 7 73 8 74 9 76
REMARK SMILES IDX 10 77 11 78 31 79 12 80 14 81 13 82 15 83 16 84 17 86 18 87
REMARK SMILES IDX 19 88 30 89 20 90 29 91 21 92 22 93 23 94 27 95 24 96 25 97
REMARK SMILES IDX 26 98 28 99
REMARK H PARENT 3 6 88 24 56 35 7 75 15 85
REMARK Flexibility Score: inf
ROOT
ATOM      1  C   UNL     1       4.743   0.406  -2.564  1.00  0.00     0.042 C 
ENDROOT
BRANCH   1   2
ATOM      2  C   UNL     1       4.409   0.909  -1.170  1.00  0.00     0.118 C 
BRANCH   2   3
ATOM      3  N   UNL     1       2.985   0.838  -0.865  1.00  0.00    -0.352 N 
ATOM      4  O   UNL     1       1.082   0.027   0.015  1.00  0.00    -0.269 OA
ATOM      5  C   UNL     1       2.304   0.056   0.043  1.00  0.00     0.251 C 
ATOM      6  H   UNL     1       2.419   1.447  -1.392  1.00  0.00     0.163 HD
BRANCH   5   7
ATOM      7  C   UNL     1       3.055  -0.763   1.022  1.00  0.00     0.039 A 
ATOM      8  C   UNL     1       4.195  -0.254   1.640  1.00  0.00     0.014 A 
ATOM      9  C   UNL     1       2.617  -2.056   1.326  1.00  0.00     0.014 A 
ATOM     10  C   UNL     1       5.006  -1.095   2.387  1.00  0.00     0.010 A 
ATOM     11  C   UNL     1       3.370  -2.861   2.191  1.00  0.00     0.010 A 
ATOM     12  C   UNL     1       4.595  -2.402   2.696  1.00  0.00    -0.014 A 
BRANCH  12  13
ATOM     13  C   UNL     1       5.441  -3.204   3.618  1.00  0.00     0.031 A 
ATOM     14  C   UNL     1       6.069  -4.505   3.197  1.00  0.00     0.074 A 
ATOM     15  C   UNL     1       5.688  -2.702   4.845  1.00  0.00     0.049 A 
ATOM     16  N   UNL     1       6.913  -5.256   3.858  1.00  0.00    -0.248 NA
ATOM     17  C   UNL     1       5.702  -5.042   1.877  1.00  0.00     0.031 C 
ATOM     18  C   UNL     1       5.083  -1.481   5.388  1.00  0.00     0.029 A 
ATOM     19  N   UNL     1       6.522  -3.127   5.846  1.00  0.00    -0.354 N 
ATOM     20  C   UNL     1       7.155  -6.364   3.056  1.00  0.00     0.074 A 
ATOM     21  C   UNL     1       6.356  -6.197   1.861  1.00  0.00     0.031 C 
ATOM     22  C   UNL     1       5.607  -1.225   6.593  1.00  0.00     0.029 A 
ATOM     23  C   UNL     1       6.535  -2.293   6.939  1.00  0.00     0.049 A 
ATOM     24  H   UNL     1       7.059  -3.950   5.787  1.00  0.00     0.167 HD
ATOM     25  C   UNL     1       7.983  -7.413   3.285  1.00  0.00     0.034 A 
ATOM     26  C   UNL     1       7.211  -2.377   8.101  1.00  0.00     0.034 A 
ATOM     27  C   UNL     1       8.799  -7.557   4.464  1.00  0.00     0.049 A 
ATOM     28  C   UNL     1       8.160  -3.521   8.300  1.00  0.00     0.074 A 
ATOM     29  C   UNL     1       9.695  -8.567   4.772  1.00  0.00     0.029 A 
ATOM     30  N   UNL     1       8.822  -6.668   5.528  1.00  0.00    -0.354 N 
ATOM     31  N   UNL     1       8.459  -4.495   7.476  1.00  0.00    -0.248 NA
ATOM     32  C   UNL     1       8.886  -3.563   9.575  1.00  0.00     0.031 C 
ATOM     33  C   UNL     1      10.251  -8.292   6.027  1.00  0.00     0.029 A 
ATOM     34  C   UNL     1       9.716  -7.103   6.493  1.00  0.00     0.049 A 
ATOM     35  H   UNL     1       8.281  -5.847   5.589  1.00  0.00     0.167 HD
ATOM     36  C   UNL     1       9.413  -5.264   8.129  1.00  0.00     0.074 A 
ATOM     37  C   UNL     1       9.677  -4.612   9.396  1.00  0.00     0.031 C 
ATOM     38  C   UNL     1       9.995  -6.422   7.731  1.00  0.00     0.034 A 
BRANCH  25  39
ATOM     39  C   UNL     1       8.095  -8.471   2.216  1.00  0.00     0.023 A 
ATOM     40  C   UNL     1       8.814  -8.187   1.038  1.00  0.00     0.012 A 
ATOM     41  C   UNL     1       7.570  -9.765   2.409  1.00  0.00     0.148 A 
ATOM     42  C   UNL     1       8.990  -9.164   0.058  1.00  0.00     0.002 A 
ATOM     43  C   UNL     1       7.782 -10.745   1.445  1.00  0.00     0.091 A 
ATOM     44  F   UNL     1       6.875 -10.012   3.528  1.00  0.00    -0.205 F 
ATOM     45  C   UNL     1       8.485 -10.444   0.266  1.00  0.00     0.022 A 
BRANCH  43  46
ATOM     46  S   UNL     1       7.238 -12.446   1.649  1.00  0.00     0.127 S 
ATOM     47  O   UNL     1       6.165 -12.532   0.660  1.00  0.00    -0.237 OA
ATOM     48  O   UNL     1       8.445 -13.199   1.307  1.00  0.00    -0.237 OA
ATOM     49  O   UNL     1       6.818 -12.569   3.038  1.00  0.00    -0.744 OA
ENDBRANCH  43  46
ENDBRANCH  25  39
BRANCH  26  50
ATOM     50  C   UNL     1       7.029  -1.324   9.137  1.00  0.00     0.023 A 
ATOM     51  C   UNL     1       8.086  -0.445   9.438  1.00  0.00     0.012 A 
ATOM     52  C   UNL     1       5.791  -1.155   9.787  1.00  0.00     0.148 A 
ATOM     53  C   UNL     1       7.920   0.567  10.385  1.00  0.00     0.002 A 
ATOM     54  C   UNL     1       5.612  -0.104  10.678  1.00  0.00     0.091 A 
ATOM     55  F   UNL     1       4.800  -2.014   9.506  1.00  0.00    -0.205 F 
ATOM     56  C   UNL     1       6.681   0.747  10.993  1.00  0.00     0.022 A 
BRANCH  54  57
ATOM     57  S   UNL     1       3.998   0.282  11.365  1.00  0.00     0.127 S 
ATOM     58  O   UNL     1       4.086  -0.317  12.693  1.00  0.00    -0.237 OA
ATOM     59  O   UNL     1       3.996   1.746  11.347  1.00  0.00    -0.237 OA
ATOM     60  O   UNL     1       3.040  -0.322  10.448  1.00  0.00    -0.744 OA
ENDBRANCH  54  57
ENDBRANCH  26  50
BRANCH  38  61
ATOM     61  C   UNL     1      10.977  -7.052   8.681  1.00  0.00     0.023 A 
ATOM     62  C   UNL     1      10.506  -7.669   9.857  1.00  0.00     0.012 A 
ATOM     63  C   UNL     1      12.356  -7.062   8.398  1.00  0.00     0.148 A 
ATOM     64  C   UNL     1      11.396  -8.250  10.759  1.00  0.00     0.002 A 
ATOM     65  C   UNL     1      13.233  -7.684   9.279  1.00  0.00     0.091 A 
ATOM     66  F   UNL     1      12.788  -6.450   7.286  1.00  0.00    -0.205 F 
ATOM     67  C   UNL     1      12.757  -8.266  10.466  1.00  0.00     0.022 A 
BRANCH  65  68
ATOM     68  S   UNL     1      14.991  -7.824   8.937  1.00  0.00     0.127 S 
ATOM     69  O   UNL     1      15.547  -6.782   9.798  1.00  0.00    -0.237 OA
ATOM     70  O   UNL     1      15.286  -9.191   9.365  1.00  0.00    -0.237 OA
ATOM     71  O   UNL     1      15.133  -7.599   7.504  1.00  0.00    -0.744 OA
ENDBRANCH  65  68
ENDBRANCH  38  61
ENDBRANCH  12  13
ENDBRANCH   5   7
ENDBRANCH   2   3
ENDBRANCH   1   2
BRANCH   1  72
ATOM     72  C   UNL     1       4.125   1.234  -3.678  1.00  0.00     0.118 C 
BRANCH  72  73
ATOM     73  N   UNL     1       4.548   2.627  -3.630  1.00  0.00    -0.352 N 
ATOM     74  C   UNL     1       5.481   3.308  -4.367  1.00  0.00     0.251 C 
ATOM     75  H   UNL     1       4.086   3.172  -2.952  1.00  0.00     0.163 HD
ATOM     76  O   UNL     1       5.860   4.415  -3.993  1.00  0.00    -0.269 OA
BRANCH  74  77
ATOM     77  C   UNL     1       6.034   2.736  -5.612  1.00  0.00     0.041 A 
ATOM     78  C   UNL     1       7.387   2.929  -5.892  1.00  0.00     0.014 A 
ATOM     79  C   UNL     1       5.213   2.078  -6.535  1.00  0.00     0.040 A 
ATOM     80  C   UNL     1       7.910   2.448  -7.086  1.00  0.00     0.003 A 
ATOM     81  C   UNL     1       5.750   1.500  -7.688  1.00  0.00     0.042 A 
ATOM     82  C   UNL     1       7.093   1.745  -7.979  1.00  0.00     0.026 A 
BRANCH  81  83
ATOM     83  N   UNL     1       4.866   0.708  -8.449  1.00  0.00    -0.322 N 
ATOM     84  C   UNL     1       5.042  -0.167  -9.495  1.00  0.00     0.255 C 
ATOM     85  H   UNL     1       3.925   0.801  -8.174  1.00  0.00     0.170 HD
ATOM     86  O   UNL     1       4.070  -0.679 -10.047  1.00  0.00    -0.269 OA
BRANCH  84  87
ATOM     87  C   UNL     1       6.382  -0.506  -9.982  1.00  0.00     0.040 A 
ATOM     88  C   UNL     1       6.766  -0.009 -11.224  1.00  0.00     0.016 A 
ATOM     89  C   UNL     1       7.277  -1.234  -9.198  1.00  0.00     0.016 A 
ATOM     90  C   UNL     1       8.096  -0.135 -11.627  1.00  0.00     0.027 A 
ATOM     91  C   UNL     1       8.606  -1.368  -9.620  1.00  0.00     0.027 A 
ATOM     92  C   UNL     1       9.051  -0.774 -10.816  1.00  0.00     0.052 A 
BRANCH  92  93
ATOM     93  N   UNL     1      10.430  -0.770 -11.179  1.00  0.00    -0.251 N 
ATOM     94  C   UNL     1      11.362  -1.676 -10.729  1.00  0.00     0.234 C 
ATOM     95  C   UNL     1      11.007   0.191 -11.982  1.00  0.00     0.234 C 
ATOM     96  O   UNL     1      11.208  -2.640  -9.991  1.00  0.00    -0.274 OA
ATOM     97  C   UNL     1      12.688  -1.369 -11.357  1.00  0.00     0.111 C 
ATOM     98  C   UNL     1      12.479  -0.061 -12.075  1.00  0.00     0.111 C 
ATOM     99  O   UNL     1      10.494   1.173 -12.504  1.00  0.00    -0.274 OA
ENDBRANCH  92  93
ENDBRANCH  84  87
ENDBRANCH  81  83
ENDBRANCH  74  77
ENDBRANCH  72  73
ENDBRANCH   1  72
TORSDOF 16
