REMARK SMILES COc1ccc([C@H]2CC(c3ccc(S(C)(=O)=O)cc3)=NN2c2ccc(C(=O)NCCCNC(=O)c3ccc(-c4c5nc(c(-c6cccc(S(=O)(=O)[O-])c6F)c6ccc([nH]6)c(-c6cccc(S(=O)(=O)[O-])c6F)c6nc(c(-c7cccc(S(=O)(=O)[O-])c7F)c7ccc4[nH]7)C=C6)C=C5)cc3)cc2)cc1OC
REMARK SMILES IDX 30 1 29 2 28 3 26 4 27 5 25 7 22 8 23 9 99 10 24 11 98 12
REMARK SMILES IDX 21 13 7 14 8 15 9 16 20 17 6 18 3 19 4 20 101 21 5 22 100 23
REMARK SMILES IDX 2 24 1 25 102 26 103 27 10 28 11 29 19 30 12 31 18 32 13 33
REMARK SMILES IDX 14 34 15 35 16 36 17 37 31 38 32 39 33 40 34 42 35 43 36 44
REMARK SMILES IDX 97 45 37 46 96 47 38 48 39 49 40 50 90 51 41 52 95 53 89 54
REMARK SMILES IDX 91 55 42 56 94 57 88 58 87 59 43 61 75 62 55 63 74 64 56 65
REMARK SMILES IDX 59 66 73 67 92 68 57 69 58 70 72 72 93 73 60 74 44 75 45 76
REMARK SMILES IDX 53 77 46 78 48 79 54 80 47 81 49 82 50 83 51 84 52 85 76 86
REMARK SMILES IDX 77 87 85 88 78 89 80 90 86 91 79 92 81 93 82 94 83 95 84 96
REMARK SMILES IDX 61 97 62 98 70 99 63 100 65 101 71 102 64 103 66 104 67 105
REMARK SMILES IDX 68 106 69 107
REMARK H PARENT 28 6 32 41 91 60 59 71
REMARK Flexibility Score: inf
ROOT
ATOM      1  C   UNL     1      -0.405 -11.615   2.045  1.00  0.00     0.042 C 
ENDROOT
BRANCH   1   2
ATOM      2  C   UNL     1      -0.023 -10.273   2.668  1.00  0.00     0.118 C 
BRANCH   2   3
ATOM      3  N   UNL     1       1.367 -10.265   3.082  1.00  0.00    -0.352 N 
ATOM      4  C   UNL     1       2.498  -9.729   2.524  1.00  0.00     0.251 C 
ATOM      5  O   UNL     1       3.546  -9.839   3.163  1.00  0.00    -0.269 OA
ATOM      6  H   UNL     1       1.530 -10.737   3.931  1.00  0.00     0.163 HD
BRANCH   4   7
ATOM      7  C   UNL     1       2.508  -8.980   1.236  1.00  0.00     0.039 A 
ATOM      8  C   UNL     1       2.666  -7.421  -1.124  1.00  0.00     0.060 A 
ATOM      9  C   UNL     1       3.625  -7.294  -0.114  1.00  0.00     0.029 A 
ATOM     10  C   UNL     1       1.659  -8.374  -0.960  1.00  0.00     0.029 A 
ATOM     11  C   UNL     1       3.537  -8.045   1.060  1.00  0.00     0.016 A 
ATOM     12  C   UNL     1       1.604  -9.173   0.189  1.00  0.00     0.016 A 
BRANCH   8  13
ATOM     13  N   UNL     1       2.760  -6.646  -2.266  1.00  0.00    -0.257 N 
ATOM     14  C   UNL     1       1.693  -5.800  -2.798  1.00  0.00     0.144 C 
ATOM     15  C   UNL     1       2.229  -5.419  -4.186  1.00  0.00     0.091 C 
ATOM     16  C   UNL     1       3.538  -6.157  -4.175  1.00  0.00     0.071 C 
ATOM     17  N   UNL     1       3.812  -6.827  -3.103  1.00  0.00    -0.176 NA
BRANCH  14  18
ATOM     18  C   UNL     1       1.462  -4.582  -1.915  1.00  0.00    -0.019 A 
ATOM     19  C   UNL     1       1.066  -2.332  -0.259  1.00  0.00     0.160 A 
ATOM     20  C   UNL     1      -0.016  -3.140  -0.637  1.00  0.00     0.051 A 
ATOM     21  C   UNL     1       2.359  -2.649  -0.685  1.00  0.00     0.161 A 
ATOM     22  C   UNL     1       0.179  -4.251  -1.466  1.00  0.00     0.010 A 
ATOM     23  C   UNL     1       2.538  -3.769  -1.509  1.00  0.00     0.056 A 
BRANCH  19  24
ATOM     24  O   UNL     1       0.835  -1.303   0.615  1.00  0.00    -0.493 OA
ATOM     25  C   UNL     1       0.127  -0.230  -0.003  1.00  0.00     0.278 C 
ENDBRANCH  19  24
BRANCH  21  26
ATOM     26  O   UNL     1       3.537  -2.013  -0.401  1.00  0.00    -0.493 OA
ATOM     27  C   UNL     1       3.488  -0.745   0.232  1.00  0.00     0.278 C 
ENDBRANCH  21  26
ENDBRANCH  14  18
BRANCH  16  28
ATOM     28  C   UNL     1       4.424  -6.147  -5.338  1.00  0.00    -0.002 A 
ATOM     29  C   UNL     1       4.685  -7.356  -5.992  1.00  0.00     0.011 A 
ATOM     30  C   UNL     1       5.029  -4.958  -5.747  1.00  0.00     0.011 A 
ATOM     31  C   UNL     1       5.553  -7.375  -7.083  1.00  0.00     0.021 A 
ATOM     32  C   UNL     1       5.918  -4.980  -6.824  1.00  0.00     0.021 A 
ATOM     33  C   UNL     1       6.177  -6.189  -7.483  1.00  0.00     0.067 A 
BRANCH  33  34
ATOM     34  S   UNL     1       7.312  -6.222  -8.850  1.00  0.00     0.175 S 
ATOM     35  C   UNL     1       8.587  -7.345  -8.337  1.00  0.00     0.163 C 
ATOM     36  O   UNL     1       6.601  -6.811  -9.972  1.00  0.00    -0.224 OA
ATOM     37  O   UNL     1       7.909  -4.907  -8.958  1.00  0.00    -0.224 OA
ENDBRANCH  33  34
ENDBRANCH  16  28
ENDBRANCH   8  13
ENDBRANCH   4   7
ENDBRANCH   2   3
ENDBRANCH   1   2
BRANCH   1  38
ATOM     38  C   UNL     1      -0.535 -12.741   3.069  1.00  0.00     0.118 C 
BRANCH  38  39
ATOM     39  N   UNL     1      -1.678 -12.540   3.951  1.00  0.00    -0.352 N 
ATOM     40  C   UNL     1      -2.760 -13.350   4.189  1.00  0.00     0.251 C 
ATOM     41  H   UNL     1      -1.674 -11.693   4.453  1.00  0.00     0.163 HD
ATOM     42  O   UNL     1      -3.731 -12.894   4.788  1.00  0.00    -0.269 OA
BRANCH  40  43
ATOM     43  C   UNL     1      -2.767 -14.757   3.732  1.00  0.00     0.039 A 
ATOM     44  C   UNL     1      -3.949 -15.288   3.207  1.00  0.00     0.014 A 
ATOM     45  C   UNL     1      -1.635 -15.566   3.865  1.00  0.00     0.014 A 
ATOM     46  C   UNL     1      -3.982 -16.616   2.774  1.00  0.00     0.010 A 
ATOM     47  C   UNL     1      -1.651 -16.869   3.374  1.00  0.00     0.010 A 
ATOM     48  C   UNL     1      -2.826 -17.410   2.832  1.00  0.00    -0.014 A 
BRANCH  48  49
ATOM     49  C   UNL     1      -2.820 -18.804   2.320  1.00  0.00     0.031 A 
ATOM     50  C   UNL     1      -2.585 -19.958   3.256  1.00  0.00     0.074 A 
ATOM     51  C   UNL     1      -2.932 -19.021   0.995  1.00  0.00     0.049 A 
ATOM     52  N   UNL     1      -2.487 -21.233   2.983  1.00  0.00    -0.248 NA
ATOM     53  C   UNL     1      -2.411 -19.635   4.681  1.00  0.00     0.031 C 
ATOM     54  C   UNL     1      -3.088 -17.978  -0.020  1.00  0.00     0.029 A 
ATOM     55  N   UNL     1      -2.902 -20.187   0.273  1.00  0.00    -0.354 N 
ATOM     56  C   UNL     1      -2.198 -21.860   4.189  1.00  0.00     0.074 A 
ATOM     57  C   UNL     1      -2.111 -20.820   5.193  1.00  0.00     0.031 C 
ATOM     58  C   UNL     1      -3.144 -18.551  -1.233  1.00  0.00     0.029 A 
ATOM     59  C   UNL     1      -3.000 -19.996  -1.085  1.00  0.00     0.049 A 
ATOM     60  H   UNL     1      -2.819 -21.076   0.687  1.00  0.00     0.167 HD
ATOM     61  C   UNL     1      -2.045 -23.181   4.445  1.00  0.00     0.034 A 
ATOM     62  C   UNL     1      -2.973 -20.883  -2.099  1.00  0.00     0.034 A 
ATOM     63  C   UNL     1      -2.181 -24.213   3.453  1.00  0.00     0.049 A 
ATOM     64  C   UNL     1      -2.844 -22.348  -1.784  1.00  0.00     0.074 A 
ATOM     65  C   UNL     1      -2.153 -25.586   3.628  1.00  0.00     0.029 A 
ATOM     66  N   UNL     1      -2.360 -23.988   2.096  1.00  0.00    -0.354 N 
ATOM     67  N   UNL     1      -2.744 -22.935  -0.616  1.00  0.00    -0.248 NA
ATOM     68  C   UNL     1      -2.858 -23.276  -2.924  1.00  0.00     0.031 C 
ATOM     69  C   UNL     1      -2.294 -26.190   2.373  1.00  0.00     0.029 A 
ATOM     70  C   UNL     1      -2.429 -25.194   1.419  1.00  0.00     0.049 A 
ATOM     71  H   UNL     1      -2.428 -23.100   1.676  1.00  0.00     0.167 HD
ATOM     72  C   UNL     1      -2.715 -24.300  -0.876  1.00  0.00     0.074 A 
ATOM     73  C   UNL     1      -2.829 -24.453  -2.313  1.00  0.00     0.031 C 
ATOM     74  C   UNL     1      -2.590 -25.333  -0.006  1.00  0.00     0.034 A 
BRANCH  61  75
ATOM     75  C   UNL     1      -1.764 -23.588   5.869  1.00  0.00     0.023 A 
ATOM     76  C   UNL     1      -2.786 -23.485   6.836  1.00  0.00     0.012 A 
ATOM     77  C   UNL     1      -0.510 -24.109   6.244  1.00  0.00     0.148 A 
ATOM     78  C   UNL     1      -2.552 -23.853   8.160  1.00  0.00     0.002 A 
ATOM     79  C   UNL     1      -0.299 -24.515   7.558  1.00  0.00     0.091 A 
ATOM     80  F   UNL     1       0.458 -24.179   5.320  1.00  0.00    -0.205 F 
ATOM     81  C   UNL     1      -1.313 -24.377   8.519  1.00  0.00     0.022 A 
BRANCH  79  82
ATOM     82  S   UNL     1       1.239 -25.273   8.095  1.00  0.00     0.127 S 
ATOM     83  O   UNL     1       1.875 -24.172   8.817  1.00  0.00    -0.237 OA
ATOM     84  O   UNL     1       0.767 -26.367   8.946  1.00  0.00    -0.237 OA
ATOM     85  O   UNL     1       1.915 -25.704   6.879  1.00  0.00    -0.744 OA
ENDBRANCH  79  82
ENDBRANCH  61  75
BRANCH  62  86
ATOM     86  C   UNL     1      -3.156 -20.408  -3.499  1.00  0.00     0.023 A 
ATOM     87  C   UNL     1      -4.368 -20.685  -4.161  1.00  0.00     0.012 A 
ATOM     88  C   UNL     1      -2.173 -19.643  -4.155  1.00  0.00     0.148 A 
ATOM     89  C   UNL     1      -4.590 -20.227  -5.460  1.00  0.00     0.002 A 
ATOM     90  C   UNL     1      -2.422 -19.145  -5.429  1.00  0.00     0.091 A 
ATOM     91  F   UNL     1      -1.024 -19.398  -3.510  1.00  0.00    -0.205 F 
ATOM     92  C   UNL     1      -3.623 -19.448  -6.089  1.00  0.00     0.022 A 
BRANCH  90  93
ATOM     93  S   UNL     1      -1.294 -18.023  -6.266  1.00  0.00     0.127 S 
ATOM     94  O   UNL     1      -0.805 -18.854  -7.363  1.00  0.00    -0.237 OA
ATOM     95  O   UNL     1      -2.191 -16.938  -6.667  1.00  0.00    -0.237 OA
ATOM     96  O   UNL     1      -0.302 -17.644  -5.269  1.00  0.00    -0.744 OA
ENDBRANCH  90  93
ENDBRANCH  62  86
BRANCH  74  97
ATOM     97  C   UNL     1      -2.588 -26.728  -0.576  1.00  0.00     0.023 A 
ATOM     98  C   UNL     1      -1.456 -27.194  -1.274  1.00  0.00     0.012 A 
ATOM     99  C   UNL     1      -3.673 -27.599  -0.357  1.00  0.00     0.148 A 
ATOM    100  C   UNL     1      -1.417 -28.496  -1.770  1.00  0.00     0.002 A 
ATOM    101  C   UNL     1      -3.608 -28.910  -0.814  1.00  0.00     0.091 A 
ATOM    102  F   UNL     1      -4.750 -27.130   0.291  1.00  0.00    -0.205 F 
ATOM    103  C   UNL     1      -2.486 -29.357  -1.531  1.00  0.00     0.022 A 
BRANCH 101 104
ATOM    104  S   UNL     1      -4.896 -30.113  -0.469  1.00  0.00     0.127 S 
ATOM    105  O   UNL     1      -5.559 -30.222  -1.768  1.00  0.00    -0.237 OA
ATOM    106  O   UNL     1      -4.125 -31.294  -0.078  1.00  0.00    -0.237 OA
ATOM    107  O   UNL     1      -5.702 -29.540   0.600  1.00  0.00    -0.744 OA
ENDBRANCH 101 104
ENDBRANCH  74  97
ENDBRANCH  48  49
ENDBRANCH  40  43
ENDBRANCH  38  39
ENDBRANCH   1  38
TORSDOF 19
