REMARK SMILES CC(C)CCNC(=O)[C@@H](C)Oc1ccc(N)cc1C(=O)NCCCNC(=O)c1ccc(-c2c3nc(c(-c4cccc(S(=O)(=O)[O-])c4F)c4ccc([nH]4)c(-c4cccc(S(=O)(=O)[O-])c4F)c4nc(c(-c5cccc(S(=O)(=O)[O-])c5F)c5ccc2[nH]5)C=C4)C=C3)cc1
REMARK SMILES IDX 19 1 20 2 21 3 18 5 12 6 13 7 14 8 17 9 15 10 11 11 9 12
REMARK SMILES IDX 10 13 7 14 6 15 8 17 5 18 4 19 2 20 1 21 3 22 16 23 22 26
REMARK SMILES IDX 23 27 24 28 25 29 26 30 27 32 28 33 29 34 90 35 30 36 89 37
REMARK SMILES IDX 31 38 32 39 33 40 83 41 34 42 88 43 82 44 84 45 35 46 87 47
REMARK SMILES IDX 81 48 80 49 36 51 68 52 48 53 67 54 49 55 52 56 66 57 85 58
REMARK SMILES IDX 50 59 51 60 65 62 86 63 53 64 37 65 38 66 46 67 39 68 41 69
REMARK SMILES IDX 47 70 40 71 42 72 43 73 44 74 45 75 69 76 70 77 78 78 71 79
REMARK SMILES IDX 73 80 79 81 72 82 74 83 75 84 76 85 77 86 54 87 55 88 63 89
REMARK SMILES IDX 56 90 58 91 64 92 57 93 59 94 60 95 61 96 62 97
REMARK H PARENT 21 4 6 16 16 24 16 25 25 31 84 50 52 61
REMARK Flexibility Score: inf
ROOT
ATOM      1  C   UNL     1      -5.693   1.515   1.741  1.00  0.00     0.255 C 
ATOM      2  O   UNL     1      -6.343   0.766   2.482  1.00  0.00    -0.269 OA
ATOM      3  N   UNL     1      -6.462   2.428   1.070  1.00  0.00    -0.352 N 
ATOM      4  H   UNL     1      -7.418   2.405   1.304  1.00  0.00     0.163 HD
ENDROOT
BRANCH   1   5
ATOM      5  C   UNL     1      -4.186   1.360   1.711  1.00  0.00     0.083 A 
ATOM      6  C   UNL     1      -3.169   2.233   1.280  1.00  0.00     0.133 A 
ATOM      7  C   UNL     1      -1.876   2.067   1.796  1.00  0.00     0.049 A 
ATOM      8  C   UNL     1      -1.509   0.910   2.485  1.00  0.00     0.029 A 
ATOM      9  C   UNL     1      -3.764   0.169   2.365  1.00  0.00     0.043 A 
ATOM     10  C   UNL     1      -2.432  -0.103   2.675  1.00  0.00     0.032 A 
BRANCH   6  11
ATOM     11  O   UNL     1      -3.339   3.342   0.509  1.00  0.00    -0.480 OA
BRANCH  11  12
ATOM     12  C   UNL     1      -2.840   3.359  -0.854  1.00  0.00     0.258 C 
ATOM     13  C   UNL     1      -3.511   2.427  -1.898  1.00  0.00     0.064 C 
BRANCH  12  14
ATOM     14  C   UNL     1      -1.327   3.504  -1.121  1.00  0.00     0.260 C 
ATOM     15  N   UNL     1      -0.532   2.403  -1.258  1.00  0.00    -0.353 N 
ATOM     16  H   UNL     1       0.351   2.557  -1.667  1.00  0.00     0.163 HD
ATOM     17  O   UNL     1      -0.802   4.616  -1.231  1.00  0.00    -0.271 OA
BRANCH  15  18
ATOM     18  C   UNL     1      -0.824   1.038  -0.877  1.00  0.00     0.116 C 
BRANCH  18  19
ATOM     19  C   UNL     1      -0.339   0.002  -1.870  1.00  0.00     0.024 C 
BRANCH  19  20
ATOM     20  C   UNL     1       1.185  -0.196  -1.852  1.00  0.00    -0.016 C 
ATOM     21  C   UNL     1       1.722  -0.508  -0.451  1.00  0.00     0.007 C 
ATOM     22  C   UNL     1       1.547  -1.328  -2.811  1.00  0.00     0.007 C 
ENDBRANCH  19  20
ENDBRANCH  18  19
ENDBRANCH  15  18
ENDBRANCH  12  14
ENDBRANCH  11  12
ENDBRANCH   6  11
BRANCH  10  23
ATOM     23  N   UNL     1      -2.077  -1.278   3.320  1.00  0.00    -0.399 N 
ATOM     24  H   UNL     1      -1.132  -1.456   3.532  1.00  0.00     0.156 HD
ATOM     25  H   UNL     1      -2.769  -1.933   3.564  1.00  0.00     0.156 HD
ENDBRANCH  10  23
ENDBRANCH   1   5
BRANCH   3  26
ATOM     26  C   UNL     1      -6.117   3.410   0.087  1.00  0.00     0.118 C 
BRANCH  26  27
ATOM     27  C   UNL     1      -6.935   3.358  -1.182  1.00  0.00     0.042 C 
BRANCH  27  28
ATOM     28  C   UNL     1      -8.254   4.071  -1.029  1.00  0.00     0.118 C 
BRANCH  28  29
ATOM     29  N   UNL     1      -8.089   5.520  -0.944  1.00  0.00    -0.352 N 
ATOM     30  C   UNL     1      -8.075   6.504  -1.903  1.00  0.00     0.251 C 
ATOM     31  H   UNL     1      -7.964   5.855  -0.026  1.00  0.00     0.163 HD
ATOM     32  O   UNL     1      -7.717   7.639  -1.580  1.00  0.00    -0.269 OA
BRANCH  30  33
ATOM     33  C   UNL     1      -8.440   6.226  -3.312  1.00  0.00     0.039 A 
ATOM     34  C   UNL     1      -7.823   6.945  -4.342  1.00  0.00     0.014 A 
ATOM     35  C   UNL     1      -9.407   5.280  -3.635  1.00  0.00     0.014 A 
ATOM     36  C   UNL     1      -8.122   6.652  -5.678  1.00  0.00     0.010 A 
ATOM     37  C   UNL     1      -9.579   4.877  -4.951  1.00  0.00     0.010 A 
ATOM     38  C   UNL     1      -8.966   5.578  -5.996  1.00  0.00    -0.014 A 
BRANCH  38  39
ATOM     39  C   UNL     1      -9.275   5.176  -7.395  1.00  0.00     0.031 A 
ATOM     40  C   UNL     1     -10.713   5.086  -7.846  1.00  0.00     0.074 A 
ATOM     41  C   UNL     1      -8.285   4.772  -8.216  1.00  0.00     0.049 A 
ATOM     42  N   UNL     1     -11.204   4.595  -8.954  1.00  0.00    -0.248 NA
ATOM     43  C   UNL     1     -11.742   5.566  -6.904  1.00  0.00     0.031 C 
ATOM     44  C   UNL     1      -6.860   4.739  -7.879  1.00  0.00     0.029 A 
ATOM     45  N   UNL     1      -8.331   4.276  -9.496  1.00  0.00    -0.354 N 
ATOM     46  C   UNL     1     -12.586   4.650  -8.815  1.00  0.00     0.074 A 
ATOM     47  C   UNL     1     -12.860   5.178  -7.498  1.00  0.00     0.031 C 
ATOM     48  C   UNL     1      -6.169   4.259  -8.925  1.00  0.00     0.029 A 
ATOM     49  C   UNL     1      -7.102   3.902  -9.988  1.00  0.00     0.049 A 
ATOM     50  H   UNL     1      -9.165   4.196 -10.013  1.00  0.00     0.167 HD
ATOM     51  C   UNL     1     -13.546   4.325  -9.712  1.00  0.00     0.034 A 
ATOM     52  C   UNL     1      -6.764   3.319 -11.156  1.00  0.00     0.034 A 
ATOM     53  C   UNL     1     -13.269   3.869 -11.045  1.00  0.00     0.049 A 
ATOM     54  C   UNL     1      -7.845   3.009 -12.156  1.00  0.00     0.074 A 
ATOM     55  C   UNL     1     -14.163   3.613 -12.069  1.00  0.00     0.029 A 
ATOM     56  N   UNL     1     -12.002   3.599 -11.539  1.00  0.00    -0.354 N 
ATOM     57  N   UNL     1      -9.138   3.202 -12.059  1.00  0.00    -0.248 NA
ATOM     58  C   UNL     1      -7.421   2.429 -13.439  1.00  0.00     0.031 C 
ATOM     59  C   UNL     1     -13.439   3.156 -13.173  1.00  0.00     0.029 A 
ATOM     60  C   UNL     1     -12.091   3.167 -12.850  1.00  0.00     0.049 A 
ATOM     61  H   UNL     1     -11.165   3.700 -11.032  1.00  0.00     0.167 HD
ATOM     62  C   UNL     1      -9.676   2.810 -13.279  1.00  0.00     0.074 A 
ATOM     63  C   UNL     1      -8.567   2.377 -14.104  1.00  0.00     0.031 C 
ATOM     64  C   UNL     1     -10.971   2.800 -13.677  1.00  0.00     0.034 A 
BRANCH  51  65
ATOM     65  C   UNL     1     -14.986   4.502  -9.302  1.00  0.00     0.023 A 
ATOM     66  C   UNL     1     -15.509   5.798  -9.119  1.00  0.00     0.012 A 
ATOM     67  C   UNL     1     -15.835   3.388  -9.150  1.00  0.00     0.148 A 
ATOM     68  C   UNL     1     -16.841   5.983  -8.751  1.00  0.00     0.002 A 
ATOM     69  C   UNL     1     -17.175   3.582  -8.835  1.00  0.00     0.091 A 
ATOM     70  F   UNL     1     -15.317   2.162  -9.309  1.00  0.00    -0.205 F 
ATOM     71  C   UNL     1     -17.675   4.876  -8.620  1.00  0.00     0.022 A 
BRANCH  69  72
ATOM     72  S   UNL     1     -18.352   2.229  -8.729  1.00  0.00     0.127 S 
ATOM     73  O   UNL     1     -18.640   2.201  -7.295  1.00  0.00    -0.237 OA
ATOM     74  O   UNL     1     -19.452   2.715  -9.562  1.00  0.00    -0.237 OA
ATOM     75  O   UNL     1     -17.665   1.056  -9.249  1.00  0.00    -0.744 OA
ENDBRANCH  69  72
ENDBRANCH  51  65
BRANCH  52  76
ATOM     76  C   UNL     1      -5.332   3.041 -11.464  1.00  0.00     0.023 A 
ATOM     77  C   UNL     1      -4.683   3.791 -12.465  1.00  0.00     0.012 A 
ATOM     78  C   UNL     1      -4.604   2.063 -10.760  1.00  0.00     0.148 A 
ATOM     79  C   UNL     1      -3.346   3.548 -12.782  1.00  0.00     0.002 A 
ATOM     80  C   UNL     1      -3.258   1.864 -11.042  1.00  0.00     0.091 A 
ATOM     81  F   UNL     1      -5.241   1.355  -9.816  1.00  0.00    -0.205 F 
ATOM     82  C   UNL     1      -2.631   2.592 -12.066  1.00  0.00     0.022 A 
BRANCH  80  83
ATOM     83  S   UNL     1      -2.226   0.747 -10.085  1.00  0.00     0.127 S 
ATOM     84  O   UNL     1      -1.957  -0.315 -11.051  1.00  0.00    -0.237 OA
ATOM     85  O   UNL     1      -1.077   1.596  -9.766  1.00  0.00    -0.237 OA
ATOM     86  O   UNL     1      -3.025   0.363  -8.929  1.00  0.00    -0.744 OA
ENDBRANCH  80  83
ENDBRANCH  52  76
BRANCH  64  87
ATOM     87  C   UNL     1     -11.275   2.365 -15.085  1.00  0.00     0.023 A 
ATOM     88  C   UNL     1     -11.196   1.003 -15.436  1.00  0.00     0.012 A 
ATOM     89  C   UNL     1     -11.752   3.299 -16.027  1.00  0.00     0.148 A 
ATOM     90  C   UNL     1     -11.568   0.581 -16.712  1.00  0.00     0.002 A 
ATOM     91  C   UNL     1     -12.171   2.863 -17.277  1.00  0.00     0.091 A 
ATOM     92  F   UNL     1     -11.805   4.591 -15.673  1.00  0.00    -0.205 F 
ATOM     93  C   UNL     1     -12.068   1.507 -17.626  1.00  0.00     0.022 A 
BRANCH  91  94
ATOM     94  S   UNL     1     -12.925   3.963 -18.480  1.00  0.00     0.127 S 
ATOM     95  O   UNL     1     -11.915   3.986 -19.537  1.00  0.00    -0.237 OA
ATOM     96  O   UNL     1     -14.153   3.246 -18.824  1.00  0.00    -0.237 OA
ATOM     97  O   UNL     1     -13.134   5.231 -17.795  1.00  0.00    -0.744 OA
ENDBRANCH  91  94
ENDBRANCH  64  87
ENDBRANCH  38  39
ENDBRANCH  30  33
ENDBRANCH  28  29
ENDBRANCH  27  28
ENDBRANCH  26  27
ENDBRANCH   3  26
TORSDOF 20
