REMARK SMILES O=C(NCCCNC(=O)[C@@H]1CC=CC[C@@H]1C(=O)Nc1ccc(O)cc1)c1ccc(-c2c3nc(c(-c4cccc(S(=O)(=O)[O-])c4F)c4ccc([nH]4)c(-c4cccc(S(=O)(=O)[O-])c4F)c4nc(c(-c5cccc(S(=O)(=O)[O-])c5F)c5ccc2[nH]5)C=C4)C=C3)cc1
REMARK SMILES IDX 5 1 4 2 3 3 1 4 2 5 26 7 27 8 88 9 28 10 87 11 29 12 30 13
REMARK SMILES IDX 31 14 81 15 32 16 86 17 80 18 82 19 33 20 85 21 79 22 78 23
REMARK SMILES IDX 34 25 66 26 46 27 65 28 47 29 50 30 64 31 83 32 48 33 49 34
REMARK SMILES IDX 63 36 84 37 51 38 35 39 36 40 44 41 37 42 39 43 45 44 38 45
REMARK SMILES IDX 40 46 41 47 42 48 43 49 67 50 68 51 76 52 69 53 71 54 77 55
REMARK SMILES IDX 70 56 72 57 73 58 74 59 75 60 52 61 53 62 61 63 54 64 56 65
REMARK SMILES IDX 62 66 55 67 57 68 58 69 59 70 60 71 6 72 7 73 8 74 9 76
REMARK SMILES IDX 10 77 11 78 15 79 12 80 14 81 13 82 16 83 17 84 18 85 19 87
REMARK SMILES IDX 20 88 25 89 21 90 24 91 22 92 23 93
REMARK H PARENT 3 6 82 24 50 35 7 75 18 86 23 94
REMARK Flexibility Score: inf
ROOT
ATOM      1  C   UNL     1       5.567  -6.492  -0.708  1.00  0.00     0.042 C 
ENDROOT
BRANCH   1   2
ATOM      2  C   UNL     1       5.291  -7.931  -1.130  1.00  0.00     0.118 C 
BRANCH   2   3
ATOM      3  N   UNL     1       6.471  -8.786  -1.123  1.00  0.00    -0.352 N 
ATOM      4  O   UNL     1       8.171 -10.042  -0.364  1.00  0.00    -0.269 OA
ATOM      5  C   UNL     1       7.096  -9.509  -0.128  1.00  0.00     0.251 C 
ATOM      6  H   UNL     1       6.908  -8.862  -2.002  1.00  0.00     0.163 HD
BRANCH   5   7
ATOM      7  C   UNL     1       6.505  -9.588   1.228  1.00  0.00     0.039 A 
ATOM      8  C   UNL     1       5.131  -9.698   1.397  1.00  0.00     0.014 A 
ATOM      9  C   UNL     1       7.331  -9.545   2.356  1.00  0.00     0.014 A 
ATOM     10  C   UNL     1       4.571  -9.480   2.645  1.00  0.00     0.010 A 
ATOM     11  C   UNL     1       6.765  -9.493   3.638  1.00  0.00     0.010 A 
ATOM     12  C   UNL     1       5.376  -9.389   3.792  1.00  0.00    -0.014 A 
BRANCH  12  13
ATOM     13  C   UNL     1       4.706  -9.219   5.112  1.00  0.00     0.031 A 
ATOM     14  C   UNL     1       5.001  -8.038   6.000  1.00  0.00     0.074 A 
ATOM     15  C   UNL     1       3.751 -10.105   5.467  1.00  0.00     0.049 A 
ATOM     16  N   UNL     1       4.429  -7.699   7.128  1.00  0.00    -0.248 NA
ATOM     17  C   UNL     1       6.082  -7.128   5.589  1.00  0.00     0.031 C 
ATOM     18  C   UNL     1       3.407 -11.313   4.710  1.00  0.00     0.029 A 
ATOM     19  N   UNL     1       2.864 -10.113   6.513  1.00  0.00    -0.354 N 
ATOM     20  C   UNL     1       5.121  -6.586   7.593  1.00  0.00     0.074 A 
ATOM     21  C   UNL     1       6.152  -6.298   6.621  1.00  0.00     0.031 C 
ATOM     22  C   UNL     1       2.323 -11.882   5.252  1.00  0.00     0.029 A 
ATOM     23  C   UNL     1       1.946 -11.137   6.446  1.00  0.00     0.049 A 
ATOM     24  H   UNL     1       2.882  -9.450   7.241  1.00  0.00     0.167 HD
ATOM     25  C   UNL     1       4.910  -5.865   8.720  1.00  0.00     0.034 A 
ATOM     26  C   UNL     1       0.915 -11.450   7.254  1.00  0.00     0.034 A 
ATOM     27  C   UNL     1       3.834  -6.112   9.644  1.00  0.00     0.049 A 
ATOM     28  C   UNL     1       0.658 -10.587   8.453  1.00  0.00     0.074 A 
ATOM     29  C   UNL     1       3.495  -5.401  10.781  1.00  0.00     0.029 A 
ATOM     30  N   UNL     1       2.916  -7.146   9.532  1.00  0.00    -0.354 N 
ATOM     31  N   UNL     1       1.269  -9.487   8.820  1.00  0.00    -0.248 NA
ATOM     32  C   UNL     1      -0.432 -11.002   9.345  1.00  0.00     0.031 C 
ATOM     33  C   UNL     1       2.378  -6.011  11.363  1.00  0.00     0.029 A 
ATOM     34  C   UNL     1       2.013  -7.095  10.580  1.00  0.00     0.049 A 
ATOM     35  H   UNL     1       2.907  -7.817   8.812  1.00  0.00     0.167 HD
ATOM     36  C   UNL     1       0.635  -9.072   9.983  1.00  0.00     0.074 A 
ATOM     37  C   UNL     1      -0.434 -10.019  10.236  1.00  0.00     0.031 C 
ATOM     38  C   UNL     1       0.930  -8.021  10.787  1.00  0.00     0.034 A 
BRANCH  25  39
ATOM     39  C   UNL     1       5.844  -4.718   9.010  1.00  0.00     0.023 A 
ATOM     40  C   UNL     1       5.729  -3.518   8.279  1.00  0.00     0.012 A 
ATOM     41  C   UNL     1       6.795  -4.805  10.045  1.00  0.00     0.148 A 
ATOM     42  C   UNL     1       6.564  -2.435   8.556  1.00  0.00     0.002 A 
ATOM     43  C   UNL     1       7.598  -3.708  10.340  1.00  0.00     0.091 A 
ATOM     44  F   UNL     1       6.910  -5.962  10.713  1.00  0.00    -0.205 F 
ATOM     45  C   UNL     1       7.490  -2.526   9.592  1.00  0.00     0.022 A 
BRANCH  43  46
ATOM     46  S   UNL     1       8.767  -3.714  11.706  1.00  0.00     0.127 S 
ATOM     47  O   UNL     1      10.036  -3.914  11.008  1.00  0.00    -0.237 OA
ATOM     48  O   UNL     1       8.590  -2.377  12.275  1.00  0.00    -0.237 OA
ATOM     49  O   UNL     1       8.348  -4.800  12.580  1.00  0.00    -0.744 OA
ENDBRANCH  43  46
ENDBRANCH  25  39
BRANCH  26  50
ATOM     50  C   UNL     1       0.030 -12.600   6.912  1.00  0.00     0.023 A 
ATOM     51  C   UNL     1      -1.301 -12.358   6.521  1.00  0.00     0.012 A 
ATOM     52  C   UNL     1       0.518 -13.921   6.897  1.00  0.00     0.148 A 
ATOM     53  C   UNL     1      -2.129 -13.412   6.128  1.00  0.00     0.002 A 
ATOM     54  C   UNL     1      -0.290 -14.955   6.439  1.00  0.00     0.091 A 
ATOM     55  F   UNL     1       1.778 -14.139   7.301  1.00  0.00    -0.205 F 
ATOM     56  C   UNL     1      -1.619 -14.706   6.069  1.00  0.00     0.022 A 
BRANCH  54  57
ATOM     57  S   UNL     1       0.358 -16.610   6.171  1.00  0.00     0.127 S 
ATOM     58  O   UNL     1      -0.120 -17.315   7.356  1.00  0.00    -0.237 OA
ATOM     59  O   UNL     1      -0.292 -16.997   4.918  1.00  0.00    -0.237 OA
ATOM     60  O   UNL     1       1.801 -16.441   6.062  1.00  0.00    -0.744 OA
ENDBRANCH  54  57
ENDBRANCH  26  50
BRANCH  38  61
ATOM     61  C   UNL     1       0.076  -7.838  12.010  1.00  0.00     0.023 A 
ATOM     62  C   UNL     1       0.253  -8.697  13.113  1.00  0.00     0.012 A 
ATOM     63  C   UNL     1      -0.861  -6.791  12.089  1.00  0.00     0.148 A 
ATOM     64  C   UNL     1      -0.514  -8.535  14.265  1.00  0.00     0.002 A 
ATOM     65  C   UNL     1      -1.592  -6.610  13.257  1.00  0.00     0.091 A 
ATOM     66  F   UNL     1      -1.032  -6.001  11.018  1.00  0.00    -0.205 F 
ATOM     67  C   UNL     1      -1.428  -7.486  14.341  1.00  0.00     0.022 A 
BRANCH  65  68
ATOM     68  S   UNL     1      -2.724  -5.231  13.461  1.00  0.00     0.127 S 
ATOM     69  O   UNL     1      -4.015  -5.863  13.199  1.00  0.00    -0.237 OA
ATOM     70  O   UNL     1      -2.505  -4.846  14.857  1.00  0.00    -0.237 OA
ATOM     71  O   UNL     1      -2.301  -4.229  12.492  1.00  0.00    -0.744 OA
ENDBRANCH  65  68
ENDBRANCH  38  61
ENDBRANCH  12  13
ENDBRANCH   5   7
ENDBRANCH   2   3
ENDBRANCH   1   2
BRANCH   1  72
ATOM     72  C   UNL     1       6.179  -5.626  -1.803  1.00  0.00     0.117 C 
BRANCH  72  73
ATOM     73  N   UNL     1       5.327  -5.479  -2.973  1.00  0.00    -0.356 N 
ATOM     74  C   UNL     1       5.400  -4.679  -4.066  1.00  0.00     0.224 C 
ATOM     75  H   UNL     1       4.545  -6.077  -2.970  1.00  0.00     0.163 HD
ATOM     76  O   UNL     1       4.574  -4.914  -4.958  1.00  0.00    -0.275 OA
BRANCH  74  77
ATOM     77  C   UNL     1       6.317  -3.466  -4.178  1.00  0.00     0.095 C 
ATOM     78  C   UNL     1       6.385  -2.900  -5.620  1.00  0.00     0.041 C 
ATOM     79  C   UNL     1       7.708  -3.417  -3.538  1.00  0.00     0.095 C 
ATOM     80  C   UNL     1       7.121  -1.593  -5.696  1.00  0.00    -0.030 C 
ATOM     81  C   UNL     1       8.043  -1.891  -3.398  1.00  0.00     0.041 C 
ATOM     82  C   UNL     1       7.850  -1.119  -4.676  1.00  0.00    -0.030 C 
BRANCH  79  83
ATOM     83  C   UNL     1       8.933  -4.149  -4.146  1.00  0.00     0.228 C 
ATOM     84  O   UNL     1      10.009  -3.546  -4.273  1.00  0.00    -0.274 OA
ATOM     85  N   UNL     1       9.040  -5.506  -4.242  1.00  0.00    -0.326 N 
ATOM     86  H   UNL     1       9.934  -5.823  -3.977  1.00  0.00     0.169 HD
BRANCH  85  87
ATOM     87  C   UNL     1       8.204  -6.561  -4.621  1.00  0.00     0.041 A 
ATOM     88  C   UNL     1       7.195  -6.449  -5.568  1.00  0.00     0.030 A 
ATOM     89  C   UNL     1       8.487  -7.830  -4.103  1.00  0.00     0.030 A 
ATOM     90  C   UNL     1       6.363  -7.533  -5.871  1.00  0.00     0.048 A 
ATOM     91  C   UNL     1       7.680  -8.928  -4.423  1.00  0.00     0.048 A 
ATOM     92  C   UNL     1       6.594  -8.759  -5.269  1.00  0.00     0.115 A 
BRANCH  92  93
ATOM     93  O   UNL     1       5.775  -9.823  -5.487  1.00  0.00    -0.508 OA
ATOM     94  H   UNL     1       5.034  -9.736  -6.054  1.00  0.00     0.293 HD
ENDBRANCH  92  93
ENDBRANCH  85  87
ENDBRANCH  79  83
ENDBRANCH  74  77
ENDBRANCH  72  73
ENDBRANCH   1  72
TORSDOF 16
