REMARK SMILES O=C(NCCCNC(=O)c1c(/C=C2/SC(=S)N=C2O)cnc2ccccc12)c1ccc(-c2c3nc(c(-c4cccc(S(=O)(=O)[O-])c4F)c4ccc([nH]4)c(-c4cccc(S(=O)(=O)[O-])c4F)c4nc(c(-c5cccc(S(=O)(=O)[O-])c5F)c5ccc2[nH]5)C=C4)C=C3)cc1
REMARK SMILES IDX 4 1 3 2 1 3 2 4 28 6 29 7 90 8 30 9 89 10 31 11 32 12 33 13
REMARK SMILES IDX 83 14 34 15 88 16 82 17 84 18 35 19 87 20 81 21 80 22 36 24
REMARK SMILES IDX 68 25 48 26 67 27 49 28 52 29 66 30 85 31 50 32 51 33 65 35
REMARK SMILES IDX 86 36 53 37 37 38 38 39 46 40 39 41 41 42 47 43 40 44 42 45
REMARK SMILES IDX 43 46 44 47 45 48 69 49 70 50 78 51 71 52 73 53 79 54 72 55
REMARK SMILES IDX 74 56 75 57 76 58 77 59 54 60 55 61 63 62 56 63 58 64 64 65
REMARK SMILES IDX 57 66 59 67 60 68 61 69 62 70 5 71 6 72 7 73 8 74 9 76 10 77
REMARK SMILES IDX 11 78 27 79 20 80 22 81 26 82 21 83 23 84 25 85 24 86 12 87
REMARK SMILES IDX 13 88 14 89 18 90 15 91 17 92 16 93 19 94
REMARK H PARENT 3 5 84 23 52 34 7 75 19 95
REMARK Flexibility Score: inf
ROOT
ATOM      1  C   UNL     1       4.543  -0.532  -1.349  1.00  0.00     0.118 C 
ENDROOT
BRANCH   1   2
ATOM      2  N   UNL     1       3.113  -0.341  -1.141  1.00  0.00    -0.352 N 
ATOM      3  O   UNL     1       1.176   0.077  -0.099  1.00  0.00    -0.269 OA
ATOM      4  C   UNL     1       2.399   0.198  -0.096  1.00  0.00     0.251 C 
ATOM      5  H   UNL     1       2.554  -0.657  -1.887  1.00  0.00     0.163 HD
BRANCH   4   6
ATOM      6  C   UNL     1       3.075   0.871   1.037  1.00  0.00     0.039 A 
ATOM      7  C   UNL     1       4.199   1.669   0.846  1.00  0.00     0.014 A 
ATOM      8  C   UNL     1       2.549   0.728   2.327  1.00  0.00     0.014 A 
ATOM      9  C   UNL     1       4.918   2.132   1.941  1.00  0.00     0.010 A 
ATOM     10  C   UNL     1       3.205   1.305   3.422  1.00  0.00     0.010 A 
ATOM     11  C   UNL     1       4.430   1.963   3.247  1.00  0.00    -0.014 A 
BRANCH  11  12
ATOM     12  C   UNL     1       5.210   2.519   4.386  1.00  0.00     0.031 A 
ATOM     13  C   UNL     1       5.747   1.630   5.478  1.00  0.00     0.074 A 
ATOM     14  C   UNL     1       5.476   3.841   4.409  1.00  0.00     0.049 A 
ATOM     15  N   UNL     1       6.527   1.945   6.482  1.00  0.00    -0.248 NA
ATOM     16  C   UNL     1       5.353   0.212   5.455  1.00  0.00     0.031 C 
ATOM     17  C   UNL     1       4.968   4.818   3.442  1.00  0.00     0.029 A 
ATOM     18  N   UNL     1       6.257   4.590   5.253  1.00  0.00    -0.354 N 
ATOM     19  C   UNL     1       6.673   0.785   7.234  1.00  0.00     0.074 A 
ATOM     20  C   UNL     1       5.898  -0.243   6.576  1.00  0.00     0.031 C 
ATOM     21  C   UNL     1       5.500   6.019   3.707  1.00  0.00     0.029 A 
ATOM     22  C   UNL     1       6.345   5.914   4.890  1.00  0.00     0.049 A 
ATOM     23  H   UNL     1       6.710   4.216   6.043  1.00  0.00     0.167 HD
ATOM     24  C   UNL     1       7.403   0.587   8.358  1.00  0.00     0.034 A 
ATOM     25  C   UNL     1       7.034   6.933   5.440  1.00  0.00     0.034 A 
ATOM     26  C   UNL     1       8.230   1.591   8.974  1.00  0.00     0.049 A 
ATOM     27  C   UNL     1       7.891   6.666   6.643  1.00  0.00     0.074 A 
ATOM     28  C   UNL     1       9.068   1.462  10.068  1.00  0.00     0.029 A 
ATOM     29  N   UNL     1       8.327   2.907   8.550  1.00  0.00    -0.354 N 
ATOM     30  N   UNL     1       8.121   5.529   7.255  1.00  0.00    -0.248 NA
ATOM     31  C   UNL     1       8.603   7.816   7.218  1.00  0.00     0.031 C 
ATOM     32  C   UNL     1       9.666   2.704  10.310  1.00  0.00     0.029 A 
ATOM     33  C   UNL     1       9.207   3.603   9.362  1.00  0.00     0.049 A 
ATOM     34  H   UNL     1       7.842   3.291   7.784  1.00  0.00     0.167 HD
ATOM     35  C   UNL     1       9.019   5.822   8.274  1.00  0.00     0.074 A 
ATOM     36  C   UNL     1       9.315   7.237   8.176  1.00  0.00     0.031 C 
ATOM     37  C   UNL     1       9.533   4.999   9.220  1.00  0.00     0.034 A 
BRANCH  24  38
ATOM     38  C   UNL     1       7.385  -0.787   8.975  1.00  0.00     0.023 A 
ATOM     39  C   UNL     1       8.122  -1.827   8.375  1.00  0.00     0.012 A 
ATOM     40  C   UNL     1       6.699  -1.032  10.181  1.00  0.00     0.148 A 
ATOM     41  C   UNL     1       8.156  -3.097   8.951  1.00  0.00     0.002 A 
ATOM     42  C   UNL     1       6.767  -2.291  10.768  1.00  0.00     0.091 A 
ATOM     43  F   UNL     1       5.981  -0.039  10.724  1.00  0.00    -0.205 F 
ATOM     44  C   UNL     1       7.489  -3.326  10.152  1.00  0.00     0.022 A 
BRANCH  42  45
ATOM     45  S   UNL     1       5.996  -2.655  12.350  1.00  0.00     0.127 S 
ATOM     46  O   UNL     1       4.792  -3.371  11.934  1.00  0.00    -0.237 OA
ATOM     47  O   UNL     1       7.004  -3.489  13.007  1.00  0.00    -0.237 OA
ATOM     48  O   UNL     1       5.777  -1.364  12.988  1.00  0.00    -0.744 OA
ENDBRANCH  42  45
ENDBRANCH  24  38
BRANCH  25  49
ATOM     49  C   UNL     1       6.997   8.278   4.801  1.00  0.00     0.023 A 
ATOM     50  C   UNL     1       8.147   8.764   4.150  1.00  0.00     0.012 A 
ATOM     51  C   UNL     1       5.819   9.049   4.779  1.00  0.00     0.148 A 
ATOM     52  C   UNL     1       8.130  10.000   3.503  1.00  0.00     0.002 A 
ATOM     53  C   UNL     1       5.791  10.251   4.082  1.00  0.00     0.091 A 
ATOM     54  F   UNL     1       4.740   8.582   5.423  1.00  0.00    -0.205 F 
ATOM     55  C   UNL     1       6.949  10.736   3.456  1.00  0.00     0.022 A 
BRANCH  53  56
ATOM     56  S   UNL     1       4.268  11.176   3.853  1.00  0.00     0.127 S 
ATOM     57  O   UNL     1       4.404  12.231   4.852  1.00  0.00    -0.237 OA
ATOM     58  O   UNL     1       4.383  11.623   2.463  1.00  0.00    -0.237 OA
ATOM     59  O   UNL     1       3.198  10.212   4.078  1.00  0.00    -0.744 OA
ENDBRANCH  53  56
ENDBRANCH  25  49
BRANCH  37  60
ATOM     60  C   UNL     1      10.479   5.602  10.221  1.00  0.00     0.023 A 
ATOM     61  C   UNL     1       9.971   6.420  11.249  1.00  0.00     0.012 A 
ATOM     62  C   UNL     1      11.857   5.314  10.182  1.00  0.00     0.148 A 
ATOM     63  C   UNL     1      10.824   6.967  12.207  1.00  0.00     0.002 A 
ATOM     64  C   UNL     1      12.695   5.829  11.165  1.00  0.00     0.091 A 
ATOM     65  F   UNL     1      12.327   4.554   9.182  1.00  0.00    -0.205 F 
ATOM     66  C   UNL     1      12.183   6.663  12.171  1.00  0.00     0.022 A 
BRANCH  64  67
ATOM     67  S   UNL     1      14.440   5.409  11.235  1.00  0.00     0.127 S 
ATOM     68  O   UNL     1      15.054   6.567  10.589  1.00  0.00    -0.237 OA
ATOM     69  O   UNL     1      14.687   5.312  12.674  1.00  0.00    -0.237 OA
ATOM     70  O   UNL     1      14.566   4.144  10.522  1.00  0.00    -0.744 OA
ENDBRANCH  64  67
ENDBRANCH  37  60
ENDBRANCH  11  12
ENDBRANCH   4   6
ENDBRANCH   1   2
BRANCH   1  71
ATOM     71  C   UNL     1       5.013  -1.946  -1.040  1.00  0.00     0.042 C 
BRANCH  71  72
ATOM     72  C   UNL     1       4.343  -3.022  -1.877  1.00  0.00     0.118 C 
BRANCH  72  73
ATOM     73  N   UNL     1       4.437  -2.781  -3.311  1.00  0.00    -0.352 N 
ATOM     74  C   UNL     1       4.883  -3.632  -4.283  1.00  0.00     0.252 C 
ATOM     75  H   UNL     1       4.142  -1.894  -3.619  1.00  0.00     0.163 HD
ATOM     76  O   UNL     1       4.744  -3.403  -5.479  1.00  0.00    -0.269 OA
BRANCH  74  77
ATOM     77  C   UNL     1       5.553  -4.868  -3.925  1.00  0.00     0.058 A 
ATOM     78  C   UNL     1       6.943  -4.963  -4.032  1.00  0.00     0.007 A 
ATOM     79  C   UNL     1       4.720  -5.945  -3.491  1.00  0.00     0.014 A 
ATOM     80  C   UNL     1       7.430  -6.221  -3.667  1.00  0.00     0.120 A 
ATOM     81  C   UNL     1       5.373  -7.119  -3.095  1.00  0.00     0.071 A 
ATOM     82  C   UNL     1       3.302  -5.892  -3.392  1.00  0.00     0.011 A 
ATOM     83  N   UNL     1       6.698  -7.265  -3.206  1.00  0.00    -0.256 NA
ATOM     84  C   UNL     1       4.626  -8.157  -2.551  1.00  0.00     0.029 A 
ATOM     85  C   UNL     1       2.571  -6.942  -2.843  1.00  0.00     0.001 A 
ATOM     86  C   UNL     1       3.240  -8.074  -2.405  1.00  0.00     0.002 A 
BRANCH  78  87
ATOM     87  C   UNL     1       7.985  -3.925  -4.285  1.00  0.00     0.031 C 
ATOM     88  C   UNL     1       8.198  -2.684  -4.774  1.00  0.00     0.077 C 
ATOM     89  S   UNL     1       9.835  -2.034  -4.506  1.00  0.00    -0.053 SA
ATOM     90  C   UNL     1       7.509  -1.547  -5.436  1.00  0.00     0.227 C 
ATOM     91  C   UNL     1       9.323  -0.404  -4.957  1.00  0.00     0.168 C 
ATOM     92  N   UNL     1       8.068  -0.383  -5.504  1.00  0.00    -0.194 NA
ATOM     93  S   UNL     1      10.316   0.921  -4.740  1.00  0.00    -0.050 S 
BRANCH  90  94
ATOM     94  O   UNL     1       6.347  -1.683  -6.058  1.00  0.00    -0.492 OA
ATOM     95  H   UNL     1       5.899  -2.506  -6.040  1.00  0.00     0.295 HD
ENDBRANCH  90  94
ENDBRANCH  78  87
ENDBRANCH  74  77
ENDBRANCH  72  73
ENDBRANCH  71  72
ENDBRANCH   1  71
TORSDOF 15
