REMARK SMILES O=C(CCc1cccnc1)Nc1cccc(F)c1C(=O)NCCCNC(=O)c1ccc(-c2c3nc(c(-c4cccc(S(=O)(=O)[O-])c4F)c4ccc([nH]4)c(-c4cccc(S(=O)(=O)[O-])c4F)c4nc(c(-c5cccc(S(=O)(=O)[O-])c5F)c5ccc2[nH]5)C=C4)C=C3)cc1
REMARK SMILES IDX 22 1 21 2 19 3 20 4 18 6 12 7 13 8 14 9 16 10 15 11 17 12
REMARK SMILES IDX 11 13 1 14 2 15 3 17 4 18 5 19 6 20 10 21 7 22 9 23 8 24
REMARK SMILES IDX 23 25 24 26 25 27 26 28 27 30 28 31 29 32 90 33 30 34 89 35
REMARK SMILES IDX 31 36 32 37 33 38 83 39 34 40 88 41 82 42 84 43 35 44 87 45
REMARK SMILES IDX 81 46 80 47 36 49 68 50 48 51 67 52 49 53 52 54 66 55 85 56
REMARK SMILES IDX 50 57 51 58 65 60 86 61 53 62 37 63 38 64 46 65 39 66 41 67
REMARK SMILES IDX 47 68 40 69 42 70 43 71 44 72 45 73 69 74 70 75 78 76 71 77
REMARK SMILES IDX 73 78 79 79 72 80 74 81 75 82 76 83 77 84 54 85 55 86 63 87
REMARK SMILES IDX 56 88 58 89 64 90 57 91 59 92 60 93 61 94 62 95
REMARK H PARENT 21 5 11 16 25 29 84 48 52 59
REMARK Flexibility Score: inf
ROOT
ATOM      1  C   UNL     1       3.307   2.414   6.003  1.00  0.00     0.118 C 
ENDROOT
BRANCH   1   2
ATOM      2  N   UNL     1       3.812   2.117   4.676  1.00  0.00    -0.352 N 
ATOM      3  C   UNL     1       3.447   1.274   3.664  1.00  0.00     0.256 C 
ATOM      4  O   UNL     1       4.096   1.432   2.626  1.00  0.00    -0.269 OA
ATOM      5  H   UNL     1       4.607   2.651   4.450  1.00  0.00     0.163 HD
BRANCH   3   6
ATOM      6  C   UNL     1       2.346   0.266   3.653  1.00  0.00     0.099 A 
ATOM      7  C   UNL     1       1.857  -0.216   2.397  1.00  0.00     0.056 A 
ATOM      8  C   UNL     1       0.793  -1.135   2.377  1.00  0.00     0.027 A 
ATOM      9  C   UNL     1       0.214  -1.595   3.557  1.00  0.00     0.005 A 
ATOM     10  C   UNL     1       1.788  -0.272   4.816  1.00  0.00     0.138 A 
ATOM     11  C   UNL     1       0.719  -1.169   4.775  1.00  0.00     0.040 A 
ATOM     12  F   UNL     1       2.288  -0.020   6.029  1.00  0.00    -0.206 F 
BRANCH   7  13
ATOM     13  N   UNL     1       2.503   0.152   1.177  1.00  0.00    -0.325 N 
ATOM     14  O   UNL     1       0.922  -0.387  -0.423  1.00  0.00    -0.275 OA
ATOM     15  C   UNL     1       2.067  -0.054  -0.112  1.00  0.00     0.224 C 
ATOM     16  H   UNL     1       3.369   0.610   1.270  1.00  0.00     0.169 HD
BRANCH  15  17
ATOM     17  C   UNL     1       3.124   0.049  -1.208  1.00  0.00     0.105 C 
BRANCH  17  18
ATOM     18  C   UNL     1       4.085   1.238  -1.173  1.00  0.00     0.047 C 
BRANCH  18  19
ATOM     19  C   UNL     1       5.275   1.149  -0.252  1.00  0.00    -0.029 A 
ATOM     20  C   UNL     1       5.813   2.320   0.296  1.00  0.00     0.007 A 
ATOM     21  C   UNL     1       5.901  -0.047   0.093  1.00  0.00     0.114 A 
ATOM     22  C   UNL     1       6.865   2.246   1.206  1.00  0.00     0.020 A 
ATOM     23  N   UNL     1       6.931  -0.149   0.962  1.00  0.00    -0.264 NA
ATOM     24  C   UNL     1       7.372   0.998   1.519  1.00  0.00     0.111 A 
ENDBRANCH  18  19
ENDBRANCH  17  18
ENDBRANCH  15  17
ENDBRANCH   7  13
ENDBRANCH   3   6
ENDBRANCH   1   2
BRANCH   1  25
ATOM     25  C   UNL     1       4.202   1.819   7.092  1.00  0.00     0.042 C 
BRANCH  25  26
ATOM     26  C   UNL     1       5.557   2.517   7.243  1.00  0.00     0.118 C 
BRANCH  26  27
ATOM     27  N   UNL     1       5.420   3.906   7.662  1.00  0.00    -0.352 N 
ATOM     28  C   UNL     1       5.788   4.534   8.825  1.00  0.00     0.251 C 
ATOM     29  H   UNL     1       4.992   4.494   6.998  1.00  0.00     0.163 HD
ATOM     30  O   UNL     1       5.341   5.656   9.057  1.00  0.00    -0.269 OA
BRANCH  28  31
ATOM     31  C   UNL     1       6.713   3.899   9.791  1.00  0.00     0.039 A 
ATOM     32  C   UNL     1       6.495   4.100  11.159  1.00  0.00     0.014 A 
ATOM     33  C   UNL     1       7.836   3.184   9.368  1.00  0.00     0.014 A 
ATOM     34  C   UNL     1       7.375   3.551  12.096  1.00  0.00     0.010 A 
ATOM     35  C   UNL     1       8.675   2.579  10.305  1.00  0.00     0.010 A 
ATOM     36  C   UNL     1       8.460   2.764  11.678  1.00  0.00    -0.014 A 
BRANCH  36  37
ATOM     37  C   UNL     1       9.365   2.121  12.667  1.00  0.00     0.031 A 
ATOM     38  C   UNL     1      10.820   2.500  12.739  1.00  0.00     0.074 A 
ATOM     39  C   UNL     1       8.884   1.146  13.464  1.00  0.00     0.049 A 
ATOM     40  N   UNL     1      11.754   2.030  13.525  1.00  0.00    -0.248 NA
ATOM     41  C   UNL     1      11.296   3.522  11.792  1.00  0.00     0.031 C 
ATOM     42  C   UNL     1       7.510   0.640  13.436  1.00  0.00     0.029 A 
ATOM     43  N   UNL     1       9.493   0.396  14.438  1.00  0.00    -0.354 N 
ATOM     44  C   UNL     1      12.928   2.674  13.152  1.00  0.00     0.074 A 
ATOM     45  C   UNL     1      12.598   3.543  12.044  1.00  0.00     0.031 C 
ATOM     46  C   UNL     1       7.376  -0.320  14.364  1.00  0.00     0.029 A 
ATOM     47  C   UNL     1       8.657  -0.521  15.034  1.00  0.00     0.049 A 
ATOM     48  H   UNL     1      10.440   0.503  14.688  1.00  0.00     0.167 HD
ATOM     49  C   UNL     1      14.161   2.576  13.704  1.00  0.00     0.034 A 
ATOM     50  C   UNL     1       8.891  -1.418  16.012  1.00  0.00     0.034 A 
ATOM     51  C   UNL     1      14.470   1.748  14.838  1.00  0.00     0.049 A 
ATOM     52  C   UNL     1      10.258  -1.476  16.639  1.00  0.00     0.074 A 
ATOM     53  C   UNL     1      15.668   1.643  15.521  1.00  0.00     0.029 A 
ATOM     54  N   UNL     1      13.578   0.888  15.459  1.00  0.00    -0.354 N 
ATOM     55  N   UNL     1      11.318  -0.755  16.365  1.00  0.00    -0.248 NA
ATOM     56  C   UNL     1      10.455  -2.442  17.729  1.00  0.00     0.031 C 
ATOM     57  C   UNL     1      15.506   0.705  16.544  1.00  0.00     0.029 A 
ATOM     58  C   UNL     1      14.200   0.244  16.514  1.00  0.00     0.049 A 
ATOM     59  H   UNL     1      12.640   0.754  15.188  1.00  0.00     0.167 HD
ATOM     60  C   UNL     1      12.296  -1.155  17.267  1.00  0.00     0.074 A 
ATOM     61  C   UNL     1      11.699  -2.174  18.107  1.00  0.00     0.031 C 
ATOM     62  C   UNL     1      13.577  -0.725  17.379  1.00  0.00     0.034 A 
BRANCH  49  63
ATOM     63  C   UNL     1      15.261   3.440  13.142  1.00  0.00     0.023 A 
ATOM     64  C   UNL     1      15.241   4.828  13.390  1.00  0.00     0.012 A 
ATOM     65  C   UNL     1      16.357   2.877  12.458  1.00  0.00     0.148 A 
ATOM     66  C   UNL     1      16.278   5.646  12.945  1.00  0.00     0.002 A 
ATOM     67  C   UNL     1      17.409   3.693  12.056  1.00  0.00     0.091 A 
ATOM     68  F   UNL     1      16.351   1.559  12.217  1.00  0.00    -0.205 F 
ATOM     69  C   UNL     1      17.366   5.077  12.290  1.00  0.00     0.022 A 
BRANCH  67  70
ATOM     70  S   UNL     1      18.896   3.049  11.278  1.00  0.00     0.127 S 
ATOM     71  O   UNL     1      18.754   3.551   9.912  1.00  0.00    -0.237 OA
ATOM     72  O   UNL     1      19.954   3.693  12.057  1.00  0.00    -0.237 OA
ATOM     73  O   UNL     1      18.830   1.602  11.422  1.00  0.00    -0.744 OA
ENDBRANCH  67  70
ENDBRANCH  49  63
BRANCH  50  74
ATOM     74  C   UNL     1       7.768  -2.256  16.520  1.00  0.00     0.023 A 
ATOM     75  C   UNL     1       7.226  -1.980  17.790  1.00  0.00     0.012 A 
ATOM     76  C   UNL     1       7.179  -3.260  15.725  1.00  0.00     0.148 A 
ATOM     77  C   UNL     1       6.128  -2.696  18.267  1.00  0.00     0.002 A 
ATOM     78  C   UNL     1       6.050  -3.931  16.183  1.00  0.00     0.091 A 
ATOM     79  F   UNL     1       7.715  -3.514  14.524  1.00  0.00    -0.205 F 
ATOM     80  C   UNL     1       5.532  -3.661  17.459  1.00  0.00     0.022 A 
BRANCH  78  81
ATOM     81  S   UNL     1       5.130  -5.084  15.157  1.00  0.00     0.127 S 
ATOM     82  O   UNL     1       5.386  -6.355  15.832  1.00  0.00    -0.237 OA
ATOM     83  O   UNL     1       3.762  -4.580  15.292  1.00  0.00    -0.237 OA
ATOM     84  O   UNL     1       5.688  -4.956  13.820  1.00  0.00    -0.744 OA
ENDBRANCH  78  81
ENDBRANCH  50  74
BRANCH  62  85
ATOM     85  C   UNL     1      14.438  -1.323  18.460  1.00  0.00     0.023 A 
ATOM     86  C   UNL     1      14.958  -2.621  18.296  1.00  0.00     0.012 A 
ATOM     87  C   UNL     1      14.850  -0.543  19.559  1.00  0.00     0.148 A 
ATOM     88  C   UNL     1      15.869  -3.138  19.216  1.00  0.00     0.002 A 
ATOM     89  C   UNL     1      15.794  -1.047  20.445  1.00  0.00     0.091 A 
ATOM     90  F   UNL     1      14.331   0.686  19.701  1.00  0.00    -0.205 F 
ATOM     91  C   UNL     1      16.299  -2.347  20.279  1.00  0.00     0.022 A 
BRANCH  89  92
ATOM     92  S   UNL     1      16.487  -0.067  21.783  1.00  0.00     0.127 S 
ATOM     93  O   UNL     1      15.946  -0.747  22.960  1.00  0.00    -0.237 OA
ATOM     94  O   UNL     1      17.925  -0.245  21.583  1.00  0.00    -0.237 OA
ATOM     95  O   UNL     1      16.008   1.293  21.578  1.00  0.00    -0.744 OA
ENDBRANCH  89  92
ENDBRANCH  62  85
ENDBRANCH  36  37
ENDBRANCH  28  31
ENDBRANCH  26  27
ENDBRANCH  25  26
ENDBRANCH   1  25
TORSDOF 17
