REMARK SMILES O=C(CN1C(=O)c2ccccc2C1=O)Nc1c(Br)cc(Br)cc1C(=O)NCCCNC(=O)c1ccc(-c2c3nc(c(-c4cccc(S(=O)(=O)[O-])c4F)c4ccc([nH]4)c(-c4cccc(S(=O)(=O)[O-])c4F)c4nc(c(-c5cccc(S(=O)(=O)[O-])c5F)c5ccc2[nH]5)C=C4)C=C3)cc1
REMARK SMILES IDX 28 1 27 2 26 3 24 4 25 5 23 7 16 8 17 9 18 10 19 11 22 12
REMARK SMILES IDX 20 13 21 14 15 15 1 16 2 17 3 19 4 20 5 21 13 22 6 23 7 24
REMARK SMILES IDX 12 25 14 26 8 27 11 28 9 29 10 30 29 31 30 32 31 33 32 35
REMARK SMILES IDX 33 36 34 37 95 38 35 39 94 40 36 41 37 42 38 43 88 44 39 45
REMARK SMILES IDX 93 46 87 47 89 48 40 49 92 50 86 51 85 52 41 54 73 55 53 56
REMARK SMILES IDX 72 57 54 58 57 59 71 60 90 61 55 62 56 63 70 65 91 66 58 67
REMARK SMILES IDX 42 68 43 69 51 70 44 71 46 72 52 73 45 74 47 75 48 76 49 77
REMARK SMILES IDX 50 78 74 79 75 80 83 81 76 82 78 83 84 84 77 85 79 86 80 87
REMARK SMILES IDX 81 88 82 89 59 90 60 91 68 92 61 93 63 94 69 95 62 96 64 97
REMARK SMILES IDX 65 98 66 99 67 100
REMARK H PARENT 26 6 15 18 30 34 89 53 57 64
REMARK Flexibility Score: inf
ROOT
ATOM      1  C   UNL     1       5.400  -0.175   0.146  1.00  0.00     0.042 C 
ENDROOT
BRANCH   1   2
ATOM      2  C   UNL     1       5.388  -1.380   1.105  1.00  0.00     0.118 C 
BRANCH   2   3
ATOM      3  N   UNL     1       4.952  -1.092   2.459  1.00  0.00    -0.352 N 
ATOM      4  C   UNL     1       3.803  -1.317   3.183  1.00  0.00     0.253 C 
ATOM      5  O   UNL     1       3.852  -1.064   4.391  1.00  0.00    -0.269 OA
ATOM      6  H   UNL     1       5.643  -0.627   2.985  1.00  0.00     0.163 HD
BRANCH   4   7
ATOM      7  C   UNL     1       2.571  -1.972   2.657  1.00  0.00     0.065 A 
ATOM      8  C   UNL     1       1.945  -1.754   1.415  1.00  0.00     0.068 A 
ATOM      9  C   UNL     1       0.879  -2.591   1.025  1.00  0.00     0.043 A 
ATOM     10  Br  UNL     1       0.082  -2.446  -0.697  1.00  0.00    -0.048 Br
ATOM     11  C   UNL     1       0.322  -3.507   1.918  1.00  0.00     0.033 A 
ATOM     12  C   UNL     1       1.981  -2.887   3.555  1.00  0.00     0.031 A 
ATOM     13  C   UNL     1       0.850  -3.616   3.197  1.00  0.00     0.020 A 
ATOM     14  Br  UNL     1       0.027  -4.756   4.461  1.00  0.00    -0.051 Br
BRANCH   8  15
ATOM     15  N   UNL     1       2.185  -0.601   0.631  1.00  0.00    -0.323 N 
ATOM     16  O   UNL     1       0.895   0.734   2.015  1.00  0.00    -0.273 OA
ATOM     17  C   UNL     1       1.648   0.622   1.050  1.00  0.00     0.244 C 
ATOM     18  H   UNL     1       2.720  -0.657  -0.193  1.00  0.00     0.170 HD
BRANCH  17  19
ATOM     19  C   UNL     1       2.119   1.830   0.230  1.00  0.00     0.229 C 
BRANCH  19  20
ATOM     20  N   UNL     1       2.749   2.807   1.103  1.00  0.00    -0.265 N 
ATOM     21  C   UNL     1       3.619   2.467   2.091  1.00  0.00     0.262 C 
ATOM     22  C   UNL     1       2.883   4.133   0.798  1.00  0.00     0.262 C 
ATOM     23  O   UNL     1       3.985   1.373   2.464  1.00  0.00    -0.269 OA
ATOM     24  C   UNL     1       4.236   3.671   2.586  1.00  0.00     0.053 A 
ATOM     25  C   UNL     1       3.764   4.716   1.821  1.00  0.00     0.053 A 
ATOM     26  O   UNL     1       2.516   4.709  -0.206  1.00  0.00    -0.269 OA
ATOM     27  C   UNL     1       5.227   3.799   3.540  1.00  0.00     0.015 A 
ATOM     28  C   UNL     1       4.243   5.992   2.017  1.00  0.00     0.015 A 
ATOM     29  C   UNL     1       5.740   5.075   3.738  1.00  0.00     0.001 A 
ATOM     30  C   UNL     1       5.240   6.165   2.994  1.00  0.00     0.001 A 
ENDBRANCH  19  20
ENDBRANCH  17  19
ENDBRANCH   8  15
ENDBRANCH   4   7
ENDBRANCH   2   3
ENDBRANCH   1   2
BRANCH   1  31
ATOM     31  C   UNL     1       6.326   1.009   0.483  1.00  0.00     0.118 C 
BRANCH  31  32
ATOM     32  N   UNL     1       7.438   1.105  -0.455  1.00  0.00    -0.352 N 
ATOM     33  C   UNL     1       7.783   2.070  -1.375  1.00  0.00     0.251 C 
ATOM     34  H   UNL     1       8.056   0.339  -0.425  1.00  0.00     0.163 HD
ATOM     35  O   UNL     1       8.621   1.772  -2.227  1.00  0.00    -0.269 OA
BRANCH  33  36
ATOM     36  C   UNL     1       7.215   3.449  -1.387  1.00  0.00     0.039 A 
ATOM     37  C   UNL     1       6.992   4.071  -2.625  1.00  0.00     0.014 A 
ATOM     38  C   UNL     1       7.058   4.210  -0.230  1.00  0.00     0.014 A 
ATOM     39  C   UNL     1       6.577   5.415  -2.701  1.00  0.00     0.010 A 
ATOM     40  C   UNL     1       6.627   5.551  -0.317  1.00  0.00     0.010 A 
ATOM     41  C   UNL     1       6.358   6.180  -1.544  1.00  0.00    -0.014 A 
BRANCH  41  42
ATOM     42  C   UNL     1       5.830   7.590  -1.625  1.00  0.00     0.031 A 
ATOM     43  C   UNL     1       6.553   8.773  -1.008  1.00  0.00     0.074 A 
ATOM     44  C   UNL     1       4.633   7.835  -2.209  1.00  0.00     0.049 A 
ATOM     45  N   UNL     1       6.222  10.045  -1.022  1.00  0.00    -0.248 NA
ATOM     46  C   UNL     1       7.782   8.497  -0.252  1.00  0.00     0.031 C 
ATOM     47  C   UNL     1       3.732   6.814  -2.741  1.00  0.00     0.029 A 
ATOM     48  N   UNL     1       3.958   9.016  -2.436  1.00  0.00    -0.354 N 
ATOM     49  C   UNL     1       7.171  10.709  -0.251  1.00  0.00     0.074 A 
ATOM     50  C   UNL     1       8.073   9.691   0.249  1.00  0.00     0.031 C 
ATOM     51  C   UNL     1       2.643   7.407  -3.256  1.00  0.00     0.029 A 
ATOM     52  C   UNL     1       2.745   8.852  -3.070  1.00  0.00     0.049 A 
ATOM     53  H   UNL     1       4.310   9.896  -2.170  1.00  0.00     0.167 HD
ATOM     54  C   UNL     1       7.314  12.037  -0.002  1.00  0.00     0.034 A 
ATOM     55  C   UNL     1       1.813   9.746  -3.466  1.00  0.00     0.034 A 
ATOM     56  C   UNL     1       6.475  13.076  -0.545  1.00  0.00     0.049 A 
ATOM     57  C   UNL     1       2.036  11.220  -3.257  1.00  0.00     0.074 A 
ATOM     58  C   UNL     1       6.640  14.450  -0.449  1.00  0.00     0.029 A 
ATOM     59  N   UNL     1       5.317  12.871  -1.275  1.00  0.00    -0.354 N 
ATOM     60  N   UNL     1       3.054  11.831  -2.703  1.00  0.00    -0.248 NA
ATOM     61  C   UNL     1       0.997  12.133  -3.764  1.00  0.00     0.031 C 
ATOM     62  C   UNL     1       5.570  15.074  -1.101  1.00  0.00     0.029 A 
ATOM     63  C   UNL     1       4.751  14.089  -1.625  1.00  0.00     0.049 A 
ATOM     64  H   UNL     1       4.949  11.989  -1.512  1.00  0.00     0.167 HD
ATOM     65  C   UNL     1       2.793  13.194  -2.824  1.00  0.00     0.074 A 
ATOM     66  C   UNL     1       1.536  13.322  -3.526  1.00  0.00     0.031 C 
ATOM     67  C   UNL     1       3.530  14.239  -2.373  1.00  0.00     0.034 A 
BRANCH  54  68
ATOM     68  C   UNL     1       8.483  12.474   0.850  1.00  0.00     0.023 A 
ATOM     69  C   UNL     1       9.788  12.404   0.320  1.00  0.00     0.012 A 
ATOM     70  C   UNL     1       8.289  13.039   2.127  1.00  0.00     0.148 A 
ATOM     71  C   UNL     1      10.883  12.849   1.060  1.00  0.00     0.002 A 
ATOM     72  C   UNL     1       9.381  13.523   2.840  1.00  0.00     0.091 A 
ATOM     73  F   UNL     1       7.044  13.091   2.622  1.00  0.00    -0.205 F 
ATOM     74  C   UNL     1      10.678  13.417   2.314  1.00  0.00     0.022 A 
BRANCH  72  75
ATOM     75  S   UNL     1       9.212  14.350   4.427  1.00  0.00     0.127 S 
ATOM     76  O   UNL     1       9.697  13.321   5.347  1.00  0.00    -0.237 OA
ATOM     77  O   UNL     1      10.105  15.500   4.275  1.00  0.00    -0.237 OA
ATOM     78  O   UNL     1       7.802  14.690   4.551  1.00  0.00    -0.744 OA
ENDBRANCH  72  75
ENDBRANCH  54  68
BRANCH  55  79
ATOM     79  C   UNL     1       0.596   9.273  -4.192  1.00  0.00     0.023 A 
ATOM     80  C   UNL     1       0.469   9.545  -5.569  1.00  0.00     0.012 A 
ATOM     81  C   UNL     1      -0.418   8.547  -3.538  1.00  0.00     0.148 A 
ATOM     82  C   UNL     1      -0.659   9.128  -6.276  1.00  0.00     0.002 A 
ATOM     83  C   UNL     1      -1.512   8.085  -4.261  1.00  0.00     0.091 A 
ATOM     84  F   UNL     1      -0.286   8.316  -2.225  1.00  0.00    -0.205 F 
ATOM     85  C   UNL     1      -1.643   8.390  -5.626  1.00  0.00     0.022 A 
BRANCH  83  86
ATOM     86  S   UNL     1      -2.768   7.020  -3.545  1.00  0.00     0.127 S 
ATOM     87  O   UNL     1      -3.940   7.891  -3.555  1.00  0.00    -0.237 OA
ATOM     88  O   UNL     1      -2.811   5.919  -4.508  1.00  0.00    -0.237 OA
ATOM     89  O   UNL     1      -2.269   6.649  -2.228  1.00  0.00    -0.744 OA
ENDBRANCH  83  86
ENDBRANCH  55  79
BRANCH  67  90
ATOM     90  C   UNL     1       3.026  15.636  -2.645  1.00  0.00     0.023 A 
ATOM     91  C   UNL     1       1.901  16.124  -1.950  1.00  0.00     0.012 A 
ATOM     92  C   UNL     1       3.708  16.492  -3.534  1.00  0.00     0.148 A 
ATOM     93  C   UNL     1       1.443  17.426  -2.160  1.00  0.00     0.002 A 
ATOM     94  C   UNL     1       3.273  17.803  -3.704  1.00  0.00     0.091 A 
ATOM     95  F   UNL     1       4.765  16.009  -4.203  1.00  0.00    -0.205 F 
ATOM     96  C   UNL     1       2.135  18.268  -3.026  1.00  0.00     0.022 A 
BRANCH  94  97
ATOM     97  S   UNL     1       4.153  18.988  -4.731  1.00  0.00     0.127 S 
ATOM     98  O   UNL     1       3.260  19.106  -5.883  1.00  0.00    -0.237 OA
ATOM     99  O   UNL     1       4.200  20.172  -3.873  1.00  0.00    -0.237 OA
ATOM    100  O   UNL     1       5.453  18.391  -5.007  1.00  0.00    -0.744 OA
ENDBRANCH  94  97
ENDBRANCH  67  90
ENDBRANCH  41  42
ENDBRANCH  33  36
ENDBRANCH  31  32
ENDBRANCH   1  31
TORSDOF 16
