REMARK SMILES C[C@@]12CCC[C@](C)(C(=O)NCCCNC(=O)c3ccc(-c4c5nc(c(-c6cccc(S(=O)(=O)[O-])c6F)c6ccc([nH]6)c(-c6cccc(S(=O)(=O)[O-])c6F)c6nc(c(-c7cccc(S(=O)(=O)[O-])c7F)c7ccc4[nH]7)C=C6)C=C5)cc3)[C@H]1CC[C@@]13C=C(CO)[C@@H](CC[C@@H]12)C3
REMARK SMILES IDX 12 1 11 2 10 3 8 4 9 5 6 7 1 8 2 9 3 10 80 11 91 12 4 13
REMARK SMILES IDX 81 14 83 15 90 16 5 17 7 18 82 19 84 20 92 21 89 22 85 23
REMARK SMILES IDX 88 24 86 25 87 26 13 28 14 29 15 30 16 32 17 33 18 34 79 35
REMARK SMILES IDX 19 36 78 37 20 38 21 39 22 40 72 41 23 42 77 43 71 44 73 45
REMARK SMILES IDX 24 46 76 47 70 48 69 49 25 51 57 52 37 53 56 54 38 55 41 56
REMARK SMILES IDX 55 57 74 58 39 59 40 60 54 62 75 63 42 64 26 65 27 66 35 67
REMARK SMILES IDX 28 68 30 69 36 70 29 71 31 72 32 73 33 74 34 75 58 76 59 77
REMARK SMILES IDX 67 78 60 79 62 80 68 81 61 82 63 83 64 84 65 85 66 86 43 87
REMARK SMILES IDX 44 88 52 89 45 90 47 91 53 92 46 93 48 94 49 95 50 96 51 97
REMARK H PARENT 10 6 87 27 14 31 73 50 41 61
REMARK Flexibility Score: inf
ROOT
ATOM      1  C   UNL     1       1.881   3.897   0.733  1.00  0.00     0.042 C 
ENDROOT
BRANCH   1   2
ATOM      2  C   UNL     1       2.857   2.891   1.327  1.00  0.00     0.117 C 
BRANCH   2   3
ATOM      3  N   UNL     1       2.368   2.337   2.588  1.00  0.00    -0.356 N 
ATOM      4  C   UNL     1       2.011   1.081   2.992  1.00  0.00     0.226 C 
ATOM      5  O   UNL     1       1.595   0.983   4.149  1.00  0.00    -0.274 OA
ATOM      6  H   UNL     1       2.277   3.013   3.298  1.00  0.00     0.163 HD
BRANCH   4   7
ATOM      7  C   UNL     1       2.189  -0.162   2.084  1.00  0.00     0.050 C 
ATOM      8  C   UNL     1       2.552  -1.503  -0.661  1.00  0.00     0.012 C 
ATOM      9  C   UNL     1       1.180  -1.565   0.100  1.00  0.00    -0.025 C 
ATOM     10  C   UNL     1       1.161  -2.823   0.997  1.00  0.00     0.007 C 
ATOM     11  C   UNL     1       1.003  -0.324   1.024  1.00  0.00     0.010 C 
ATOM     12  C   UNL     1       0.104  -1.668  -1.033  1.00  0.00     0.005 C 
ATOM     13  C   UNL     1       2.127  -2.767   2.183  1.00  0.00     0.002 C 
ATOM     14  C   UNL     1       0.559   0.935   0.271  1.00  0.00     0.006 C 
ATOM     15  C   UNL     1      -0.345  -0.315  -1.718  1.00  0.00    -0.008 C 
ATOM     16  C   UNL     1      -1.067  -2.636  -1.105  1.00  0.00     0.006 C 
ATOM     17  C   UNL     1       2.063  -1.450   2.974  1.00  0.00     0.017 C 
ATOM     18  C   UNL     1       3.679  -0.115   1.639  1.00  0.00     0.022 C 
ATOM     19  C   UNL     1      -0.609   0.763  -0.694  1.00  0.00     0.012 C 
ATOM     20  C   UNL     1       0.685  -0.102  -2.783  1.00  0.00    -0.018 C 
ATOM     21  C   UNL     1      -1.539  -0.484  -2.698  1.00  0.00     0.019 C 
ATOM     22  C   UNL     1      -1.243  -2.903  -2.655  1.00  0.00     0.008 C 
ATOM     23  C   UNL     1       0.438  -1.017  -3.746  1.00  0.00    -0.045 C 
ATOM     24  C   UNL     1      -0.985  -1.624  -3.554  1.00  0.00     0.018 C 
BRANCH  23  25
ATOM     25  C   UNL     1       1.395  -1.376  -4.829  1.00  0.00     0.187 C 
BRANCH  25  26
ATOM     26  O   UNL     1       2.699  -1.598  -4.286  1.00  0.00    -0.392 OA
ATOM     27  H   UNL     1       3.011  -0.789  -3.851  1.00  0.00     0.211 HD
ENDBRANCH  25  26
ENDBRANCH  23  25
ENDBRANCH   4   7
ENDBRANCH   2   3
ENDBRANCH   1   2
BRANCH   1  28
ATOM     28  C   UNL     1       1.829   5.184   1.524  1.00  0.00     0.118 C 
BRANCH  28  29
ATOM     29  N   UNL     1       2.835   6.122   1.063  1.00  0.00    -0.352 N 
ATOM     30  C   UNL     1       2.667   7.272   0.332  1.00  0.00     0.251 C 
ATOM     31  H   UNL     1       3.764   5.904   1.308  1.00  0.00     0.163 HD
ATOM     32  O   UNL     1       3.642   7.785  -0.213  1.00  0.00    -0.269 OA
BRANCH  30  33
ATOM     33  C   UNL     1       1.323   7.882   0.189  1.00  0.00     0.039 A 
ATOM     34  C   UNL     1       0.984   8.501  -1.016  1.00  0.00     0.014 A 
ATOM     35  C   UNL     1       0.407   7.877   1.245  1.00  0.00     0.014 A 
ATOM     36  C   UNL     1      -0.277   9.085  -1.165  1.00  0.00     0.010 A 
ATOM     37  C   UNL     1      -0.887   8.341   1.050  1.00  0.00     0.010 A 
ATOM     38  C   UNL     1      -1.232   8.995  -0.139  1.00  0.00    -0.014 A 
BRANCH  38  39
ATOM     39  C   UNL     1      -2.572   9.621  -0.265  1.00  0.00     0.031 A 
ATOM     40  C   UNL     1      -3.010  10.675   0.720  1.00  0.00     0.074 A 
ATOM     41  C   UNL     1      -3.428   9.193  -1.213  1.00  0.00     0.049 A 
ATOM     42  N   UNL     1      -4.153  11.304   0.804  1.00  0.00    -0.248 NA
ATOM     43  C   UNL     1      -2.050  11.043   1.776  1.00  0.00     0.031 C 
ATOM     44  C   UNL     1      -3.163   8.113  -2.165  1.00  0.00     0.029 A 
ATOM     45  N   UNL     1      -4.705   9.596  -1.513  1.00  0.00    -0.354 N 
ATOM     46  C   UNL     1      -4.066  12.101   1.940  1.00  0.00     0.074 A 
ATOM     47  C   UNL     1      -2.779  11.838   2.542  1.00  0.00     0.031 C 
ATOM     48  C   UNL     1      -4.241   7.942  -2.946  1.00  0.00     0.029 A 
ATOM     49  C   UNL     1      -5.283   8.877  -2.532  1.00  0.00     0.049 A 
ATOM     50  H   UNL     1      -5.163  10.329  -1.043  1.00  0.00     0.167 HD
ATOM     51  C   UNL     1      -4.958  12.999   2.423  1.00  0.00     0.034 A 
ATOM     52  C   UNL     1      -6.517   8.954  -3.068  1.00  0.00     0.034 A 
ATOM     53  C   UNL     1      -6.216  13.293   1.793  1.00  0.00     0.049 A 
ATOM     54  C   UNL     1      -7.471  10.000  -2.561  1.00  0.00     0.074 A 
ATOM     55  C   UNL     1      -7.145  14.259   2.134  1.00  0.00     0.029 A 
ATOM     56  N   UNL     1      -6.728  12.614   0.698  1.00  0.00    -0.354 N 
ATOM     57  N   UNL     1      -7.303  10.867  -1.593  1.00  0.00    -0.248 NA
ATOM     58  C   UNL     1      -8.766  10.107  -3.246  1.00  0.00     0.031 C 
ATOM     59  C   UNL     1      -8.234  14.142   1.264  1.00  0.00     0.029 A 
ATOM     60  C   UNL     1      -7.968  13.127   0.358  1.00  0.00     0.049 A 
ATOM     61  H   UNL     1      -6.276  11.874   0.231  1.00  0.00     0.167 HD
ATOM     62  C   UNL     1      -8.458  11.641  -1.567  1.00  0.00     0.074 A 
ATOM     63  C   UNL     1      -9.308  11.152  -2.634  1.00  0.00     0.031 C 
ATOM     64  C   UNL     1      -8.788  12.655  -0.729  1.00  0.00     0.034 A 
BRANCH  51  65
ATOM     65  C   UNL     1      -4.574  13.757   3.670  1.00  0.00     0.023 A 
ATOM     66  C   UNL     1      -3.516  14.690   3.627  1.00  0.00     0.012 A 
ATOM     67  C   UNL     1      -5.264  13.557   4.882  1.00  0.00     0.148 A 
ATOM     68  C   UNL     1      -3.114  15.368   4.777  1.00  0.00     0.002 A 
ATOM     69  C   UNL     1      -4.891  14.276   6.013  1.00  0.00     0.091 A 
ATOM     70  F   UNL     1      -6.252  12.652   4.916  1.00  0.00    -0.205 F 
ATOM     71  C   UNL     1      -3.807  15.167   5.967  1.00  0.00     0.022 A 
BRANCH  69  72
ATOM     72  S   UNL     1      -5.778  14.149   7.570  1.00  0.00     0.127 S 
ATOM     73  O   UNL     1      -4.856  13.346   8.371  1.00  0.00    -0.237 OA
ATOM     74  O   UNL     1      -5.881  15.550   7.981  1.00  0.00    -0.237 OA
ATOM     75  O   UNL     1      -7.052  13.519   7.252  1.00  0.00    -0.744 OA
ENDBRANCH  69  72
ENDBRANCH  51  65
BRANCH  52  76
ATOM     76  C   UNL     1      -6.880   8.045  -4.190  1.00  0.00     0.023 A 
ATOM     77  C   UNL     1      -6.986   8.558  -5.496  1.00  0.00     0.012 A 
ATOM     78  C   UNL     1      -7.040   6.661  -3.978  1.00  0.00     0.148 A 
ATOM     79  C   UNL     1      -7.262   7.712  -6.571  1.00  0.00     0.002 A 
ATOM     80  C   UNL     1      -7.257   5.817  -5.060  1.00  0.00     0.091 A 
ATOM     81  F   UNL     1      -6.939   6.196  -2.725  1.00  0.00    -0.205 F 
ATOM     82  C   UNL     1      -7.385   6.342  -6.355  1.00  0.00     0.022 A 
BRANCH  80  83
ATOM     83  S   UNL     1      -7.282   4.028  -4.896  1.00  0.00     0.127 S 
ATOM     84  O   UNL     1      -8.667   3.715  -5.252  1.00  0.00    -0.237 OA
ATOM     85  O   UNL     1      -6.287   3.624  -5.893  1.00  0.00    -0.237 OA
ATOM     86  O   UNL     1      -6.907   3.747  -3.523  1.00  0.00    -0.744 OA
ENDBRANCH  80  83
ENDBRANCH  52  76
BRANCH  64  87
ATOM     87  C   UNL     1     -10.118  13.331  -0.940  1.00  0.00     0.023 A 
ATOM     88  C   UNL     1     -11.309  12.659  -0.602  1.00  0.00     0.012 A 
ATOM     89  C   UNL     1     -10.181  14.661  -1.400  1.00  0.00     0.148 A 
ATOM     90  C   UNL     1     -12.544  13.290  -0.748  1.00  0.00     0.002 A 
ATOM     91  C   UNL     1     -11.411  15.300  -1.495  1.00  0.00     0.091 A 
ATOM     92  F   UNL     1      -9.038  15.277  -1.734  1.00  0.00    -0.205 F 
ATOM     93  C   UNL     1     -12.595  14.612  -1.182  1.00  0.00     0.022 A 
BRANCH  91  94
ATOM     94  S   UNL     1     -11.564  17.032  -1.949  1.00  0.00     0.127 S 
ATOM     95  O   UNL     1     -12.137  16.938  -3.291  1.00  0.00    -0.237 OA
ATOM     96  O   UNL     1     -12.481  17.540  -0.928  1.00  0.00    -0.237 OA
ATOM     97  O   UNL     1     -10.219  17.586  -1.882  1.00  0.00    -0.744 OA
ENDBRANCH  91  94
ENDBRANCH  64  87
ENDBRANCH  38  39
ENDBRANCH  30  33
ENDBRANCH  28  29
ENDBRANCH   1  28
TORSDOF 15
