REMARK SMILES CCc1nc(COC)cc(N2CCCC[C@H]2C(=O)NCCCNC(=O)c2ccc(-c3c4nc(c(-c5cccc(S(=O)(=O)[O-])c5F)c5ccc([nH]5)c(-c5cccc(S(=O)(=O)[O-])c5F)c5nc(c(-c6cccc(S(=O)(=O)[O-])c6F)c6ccc3[nH]6)C=C5)C=C4)cc2)n1
REMARK SMILES IDX 21 1 20 2 19 3 17 4 18 5 16 7 11 8 12 9 13 10 15 11 14 12
REMARK SMILES IDX 10 13 3 14 4 15 89 16 5 17 9 18 2 19 1 20 6 21 7 22 8 23
REMARK SMILES IDX 22 24 23 25 24 26 25 28 26 29 27 30 88 31 28 32 87 33 29 34
REMARK SMILES IDX 30 35 31 36 81 37 32 38 86 39 80 40 82 41 33 42 85 43 79 44
REMARK SMILES IDX 78 45 34 47 66 48 46 49 65 50 47 51 50 52 64 53 83 54 48 55
REMARK SMILES IDX 49 56 63 58 84 59 51 60 35 61 36 62 44 63 37 64 39 65 45 66
REMARK SMILES IDX 38 67 40 68 41 69 42 70 43 71 67 72 68 73 76 74 69 75 71 76
REMARK SMILES IDX 77 77 70 78 72 79 73 80 74 81 75 82 52 83 53 84 61 85 54 86
REMARK SMILES IDX 56 87 62 88 55 89 57 90 58 91 59 92 60 93
REMARK H PARENT 19 6 23 27 82 46 50 57
REMARK Flexibility Score: inf
ROOT
ATOM      1  C   UNL     1       1.999   7.396   6.559  1.00  0.00     0.042 C 
ENDROOT
BRANCH   1   2
ATOM      2  C   UNL     1       2.287   6.776   5.197  1.00  0.00     0.117 C 
BRANCH   2   3
ATOM      3  N   UNL     1       3.686   6.423   5.045  1.00  0.00    -0.354 N 
ATOM      4  C   UNL     1       4.309   5.208   5.076  1.00  0.00     0.242 C 
ATOM      5  O   UNL     1       5.543   5.216   5.041  1.00  0.00    -0.273 OA
ATOM      6  H   UNL     1       4.287   7.188   4.896  1.00  0.00     0.163 HD
BRANCH   4   7
ATOM      7  C   UNL     1       3.483   3.902   5.083  1.00  0.00     0.173 C 
ATOM      8  N   UNL     1       3.589   3.232   3.777  1.00  0.00    -0.344 N 
ATOM      9  C   UNL     1       4.811   2.513   3.445  1.00  0.00     0.119 C 
ATOM     10  C   UNL     1       5.175   1.526   4.547  1.00  0.00     0.022 C 
ATOM     11  C   UNL     1       3.934   2.955   6.208  1.00  0.00     0.035 C 
ATOM     12  C   UNL     1       5.233   2.208   5.909  1.00  0.00     0.004 C 
BRANCH   8  13
ATOM     13  C   UNL     1       2.484   3.089   2.968  1.00  0.00     0.133 A 
ATOM     14  C   UNL     1       1.030   1.739   1.808  1.00  0.00     0.130 A 
ATOM     15  N   UNL     1       0.300   2.768   1.347  1.00  0.00    -0.235 NA
ATOM     16  N   UNL     1       2.124   1.855   2.581  1.00  0.00    -0.216 NA
ATOM     17  C   UNL     1       0.706   4.002   1.699  1.00  0.00     0.072 A 
ATOM     18  C   UNL     1       1.789   4.201   2.534  1.00  0.00     0.073 A 
BRANCH  14  19
ATOM     19  C   UNL     1       0.609   0.358   1.394  1.00  0.00     0.074 C 
ATOM     20  C   UNL     1       1.074   0.042  -0.018  1.00  0.00     0.012 C 
ENDBRANCH  14  19
BRANCH  17  21
ATOM     21  C   UNL     1      -0.024   5.186   1.103  1.00  0.00     0.216 C 
BRANCH  21  22
ATOM     22  O   UNL     1       0.067   5.254  -0.326  1.00  0.00    -0.378 OA
ATOM     23  C   UNL     1       1.389   5.486  -0.794  1.00  0.00     0.195 C 
ENDBRANCH  21  22
ENDBRANCH  17  21
ENDBRANCH   8  13
ENDBRANCH   4   7
ENDBRANCH   2   3
ENDBRANCH   1   2
BRANCH   1  24
ATOM     24  C   UNL     1       2.774   8.681   6.840  1.00  0.00     0.118 C 
BRANCH  24  25
ATOM     25  N   UNL     1       2.530   9.714   5.844  1.00  0.00    -0.352 N 
ATOM     26  C   UNL     1       2.081  11.002   5.990  1.00  0.00     0.251 C 
ATOM     27  H   UNL     1       2.717   9.445   4.916  1.00  0.00     0.163 HD
ATOM     28  O   UNL     1       1.773  11.639   4.984  1.00  0.00    -0.269 OA
BRANCH  26  29
ATOM     29  C   UNL     1       1.958  11.623   7.327  1.00  0.00     0.039 A 
ATOM     30  C   UNL     1       0.876  12.475   7.572  1.00  0.00     0.014 A 
ATOM     31  C   UNL     1       2.921  11.422   8.319  1.00  0.00     0.014 A 
ATOM     32  C   UNL     1       0.741  13.089   8.819  1.00  0.00     0.010 A 
ATOM     33  C   UNL     1       2.742  11.970   9.588  1.00  0.00     0.010 A 
ATOM     34  C   UNL     1       1.663  12.827   9.846  1.00  0.00    -0.014 A 
BRANCH  34  35
ATOM     35  C   UNL     1       1.516  13.456  11.184  1.00  0.00     0.031 A 
ATOM     36  C   UNL     1       2.567  14.403  11.702  1.00  0.00     0.074 A 
ATOM     37  C   UNL     1       0.465  13.129  11.961  1.00  0.00     0.049 A 
ATOM     38  N   UNL     1       2.609  15.043  12.842  1.00  0.00    -0.248 NA
ATOM     39  C   UNL     1       3.737  14.643  10.841  1.00  0.00     0.031 C 
ATOM     40  C   UNL     1      -0.574  12.157  11.614  1.00  0.00     0.029 A 
ATOM     41  N   UNL     1       0.106  13.564  13.213  1.00  0.00    -0.354 N 
ATOM     42  C   UNL     1       3.818  15.729  12.851  1.00  0.00     0.074 A 
ATOM     43  C   UNL     1       4.499  15.397  11.619  1.00  0.00     0.031 C 
ATOM     44  C   UNL     1      -1.457  12.078  12.622  1.00  0.00     0.029 A 
ATOM     45  C   UNL     1      -1.041  12.977  13.694  1.00  0.00     0.049 A 
ATOM     46  H   UNL     1       0.622  14.234  13.718  1.00  0.00     0.167 HD
ATOM     47  C   UNL     1       4.305  16.585  13.781  1.00  0.00     0.034 A 
ATOM     48  C   UNL     1      -1.689  13.151  14.862  1.00  0.00     0.034 A 
ATOM     49  C   UNL     1       3.603  16.954  14.981  1.00  0.00     0.049 A 
ATOM     50  C   UNL     1      -1.167  14.165  15.843  1.00  0.00     0.074 A 
ATOM     51  C   UNL     1       3.971  17.877  15.945  1.00  0.00     0.029 A 
ATOM     52  N   UNL     1       2.389  16.421  15.382  1.00  0.00    -0.354 N 
ATOM     53  N   UNL     1      -0.105  14.928  15.756  1.00  0.00    -0.248 NA
ATOM     54  C   UNL     1      -1.961  14.379  17.062  1.00  0.00     0.031 C 
ATOM     55  C   UNL     1       2.983  17.892  16.936  1.00  0.00     0.029 A 
ATOM     56  C   UNL     1       1.990  16.995  16.577  1.00  0.00     0.049 A 
ATOM     57  H   UNL     1       1.884  15.734  14.890  1.00  0.00     0.167 HD
ATOM     58  C   UNL     1      -0.124  15.740  16.884  1.00  0.00     0.074 A 
ATOM     59  C   UNL     1      -1.316  15.390  17.629  1.00  0.00     0.031 C 
ATOM     60  C   UNL     1       0.771  16.680  17.277  1.00  0.00     0.034 A 
BRANCH  47  61
ATOM     61  C   UNL     1       5.639  17.232  13.506  1.00  0.00     0.023 A 
ATOM     62  C   UNL     1       5.738  18.213  12.498  1.00  0.00     0.012 A 
ATOM     63  C   UNL     1       6.776  16.915  14.274  1.00  0.00     0.148 A 
ATOM     64  C   UNL     1       6.954  18.841  12.232  1.00  0.00     0.002 A 
ATOM     65  C   UNL     1       7.975  17.578  14.034  1.00  0.00     0.091 A 
ATOM     66  F   UNL     1       6.670  15.965  15.214  1.00  0.00    -0.205 F 
ATOM     67  C   UNL     1       8.069  18.532  13.007  1.00  0.00     0.022 A 
BRANCH  65  68
ATOM     68  S   UNL     1       9.446  17.309  15.030  1.00  0.00     0.127 S 
ATOM     69  O   UNL     1      10.298  16.566  14.101  1.00  0.00    -0.237 OA
ATOM     70  O   UNL     1       9.890  18.677  15.301  1.00  0.00    -0.237 OA
ATOM     71  O   UNL     1       9.006  16.571  16.204  1.00  0.00    -0.744 OA
ENDBRANCH  65  68
ENDBRANCH  47  61
BRANCH  48  72
ATOM     72  C   UNL     1      -2.956  12.412  15.126  1.00  0.00     0.023 A 
ATOM     73  C   UNL     1      -4.177  13.113  15.126  1.00  0.00     0.012 A 
ATOM     74  C   UNL     1      -2.963  11.021  15.344  1.00  0.00     0.148 A 
ATOM     75  C   UNL     1      -5.379  12.450  15.375  1.00  0.00     0.002 A 
ATOM     76  C   UNL     1      -4.169  10.357  15.536  1.00  0.00     0.091 A 
ATOM     77  F   UNL     1      -1.790  10.372  15.350  1.00  0.00    -0.205 F 
ATOM     78  C   UNL     1      -5.376  11.072  15.570  1.00  0.00     0.022 A 
BRANCH  76  79
ATOM     79  S   UNL     1      -4.269   8.568  15.658  1.00  0.00     0.127 S 
ATOM     80  O   UNL     1      -4.565   8.382  17.078  1.00  0.00    -0.237 OA
ATOM     81  O   UNL     1      -5.382   8.264  14.754  1.00  0.00    -0.237 OA
ATOM     82  O   UNL     1      -2.981   8.071  15.207  1.00  0.00    -0.744 OA
ENDBRANCH  76  79
ENDBRANCH  48  72
BRANCH  60  83
ATOM     83  C   UNL     1       0.478  17.433  18.548  1.00  0.00     0.023 A 
ATOM     84  C   UNL     1       0.598  16.784  19.793  1.00  0.00     0.012 A 
ATOM     85  C   UNL     1       0.138  18.799  18.512  1.00  0.00     0.148 A 
ATOM     86  C   UNL     1       0.345  17.472  20.979  1.00  0.00     0.002 A 
ATOM     87  C   UNL     1      -0.064  19.492  19.700  1.00  0.00     0.091 A 
ATOM     88  F   UNL     1       0.006  19.397  17.318  1.00  0.00    -0.205 F 
ATOM     89  C   UNL     1       0.025  18.827  20.933  1.00  0.00     0.022 A 
BRANCH  87  90
ATOM     90  S   UNL     1      -0.384  21.259  19.729  1.00  0.00     0.127 S 
ATOM     91  O   UNL     1      -1.831  21.298  19.934  1.00  0.00    -0.237 OA
ATOM     92  O   UNL     1       0.406  21.703  20.879  1.00  0.00    -0.237 OA
ATOM     93  O   UNL     1       0.087  21.766  18.447  1.00  0.00    -0.744 OA
ENDBRANCH  87  90
ENDBRANCH  60  83
ENDBRANCH  34  35
ENDBRANCH  26  29
ENDBRANCH  24  25
ENDBRANCH   1  24
TORSDOF 17
