REMARK SMILES Cc1ccc(NC(=O)NC[C@@H]2CC[C@@H](C(=O)NCCCNC(=O)c3ccc(-c4c5nc(c(-c6cccc(S(=O)(=O)[O-])c6F)c6ccc([nH]6)c(-c6cccc(S(=O)(=O)[O-])c6F)c6nc(c(-c7cccc(S(=O)(=O)[O-])c7F)c7ccc4[nH]7)C=C6)C=C5)cc3)O2)c(F)c1
REMARK SMILES IDX 19 1 18 2 17 3 15 4 16 5 14 7 11 8 12 9 87 10 13 11 10 12
REMARK SMILES IDX 9 13 6 14 7 15 8 17 5 19 1 20 2 21 3 22 90 23 4 24 88 25
REMARK SMILES IDX 89 26 20 27 21 28 22 29 23 31 24 32 25 33 86 34 26 35 85 36
REMARK SMILES IDX 27 37 28 38 29 39 79 40 30 41 84 42 78 43 80 44 31 45 83 46
REMARK SMILES IDX 77 47 76 48 32 50 64 51 44 52 63 53 45 54 48 55 62 56 81 57
REMARK SMILES IDX 46 58 47 59 61 61 82 62 49 63 33 64 34 65 42 66 35 67 37 68
REMARK SMILES IDX 43 69 36 70 38 71 39 72 40 73 41 74 65 75 66 76 74 77 67 78
REMARK SMILES IDX 69 79 75 80 68 81 70 82 71 83 72 84 73 85 50 86 51 87 59 88
REMARK SMILES IDX 52 89 54 90 60 91 53 92 55 93 56 94 57 95 58 96
REMARK H PARENT 17 6 6 16 9 18 21 30 80 49 48 60
REMARK Flexibility Score: inf
ROOT
ATOM      1  C   UNL     1      -6.631   5.962  -0.362  1.00  0.00     0.042 C 
ENDROOT
BRANCH   1   2
ATOM      2  C   UNL     1      -6.307   4.604  -0.957  1.00  0.00     0.117 C 
BRANCH   2   3
ATOM      3  N   UNL     1      -5.729   4.730  -2.284  1.00  0.00    -0.354 N 
ATOM      4  C   UNL     1      -4.409   4.634  -2.629  1.00  0.00     0.249 C 
ATOM      5  O   UNL     1      -4.077   4.870  -3.790  1.00  0.00    -0.272 OA
ATOM      6  H   UNL     1      -6.360   4.904  -3.020  1.00  0.00     0.163 HD
BRANCH   4   7
ATOM      7  C   UNL     1      -3.416   4.276  -1.520  1.00  0.00     0.207 C 
ATOM      8  C   UNL     1      -2.744   2.102  -0.970  1.00  0.00     0.138 C 
ATOM      9  C   UNL     1      -1.507   2.967  -1.116  1.00  0.00     0.037 C 
ATOM     10  O   UNL     1      -3.813   3.050  -0.868  1.00  0.00    -0.363 OA
ATOM     11  C   UNL     1      -2.002   4.064  -2.022  1.00  0.00     0.045 C 
BRANCH   8  12
ATOM     12  C   UNL     1      -2.764   1.164   0.253  1.00  0.00     0.149 C 
BRANCH  12  13
ATOM     13  N   UNL     1      -3.459  -0.089  -0.050  1.00  0.00    -0.335 N 
ATOM     14  N   UNL     1      -1.884  -1.885   0.064  1.00  0.00    -0.305 N 
ATOM     15  C   UNL     1      -3.128  -1.388  -0.069  1.00  0.00     0.319 C 
ATOM     16  H   UNL     1      -1.882  -2.830   0.342  1.00  0.00     0.171 HD
ATOM     17  O   UNL     1      -4.057  -2.204  -0.111  1.00  0.00    -0.249 OA
ATOM     18  H   UNL     1      -4.400   0.058  -0.300  1.00  0.00     0.165 HD
BRANCH  14  19
ATOM     19  C   UNL     1      -0.589  -1.372  -0.102  1.00  0.00     0.078 A 
ATOM     20  C   UNL     1       3.240   0.570   0.207  1.00  0.00     0.044 C 
ATOM     21  C   UNL     1       1.971  -0.196  -0.020  1.00  0.00    -0.048 A 
ATOM     22  C   UNL     1       1.730  -1.414   0.623  1.00  0.00     0.006 A 
ATOM     23  C   UNL     1       0.971   0.336  -0.829  1.00  0.00     0.045 A 
ATOM     24  C   UNL     1       0.458  -2.003   0.576  1.00  0.00     0.029 A 
ATOM     25  C   UNL     1      -0.271  -0.291  -0.911  1.00  0.00     0.147 A 
ATOM     26  F   UNL     1      -1.148   0.151  -1.818  1.00  0.00    -0.205 F 
ENDBRANCH  14  19
ENDBRANCH  12  13
ENDBRANCH   8  12
ENDBRANCH   4   7
ENDBRANCH   2   3
ENDBRANCH   1   2
BRANCH   1  27
ATOM     27  C   UNL     1      -7.664   6.724  -1.173  1.00  0.00     0.118 C 
BRANCH  27  28
ATOM     28  N   UNL     1      -8.906   5.974  -1.328  1.00  0.00    -0.352 N 
ATOM     29  C   UNL     1     -10.179   6.300  -0.935  1.00  0.00     0.251 C 
ATOM     30  H   UNL     1      -8.817   5.105  -1.782  1.00  0.00     0.163 HD
ATOM     31  O   UNL     1     -11.063   5.453  -0.950  1.00  0.00    -0.269 OA
BRANCH  29  32
ATOM     32  C   UNL     1     -10.462   7.676  -0.484  1.00  0.00     0.039 A 
ATOM     33  C   UNL     1     -11.261   7.871   0.643  1.00  0.00     0.014 A 
ATOM     34  C   UNL     1      -9.918   8.766  -1.168  1.00  0.00     0.014 A 
ATOM     35  C   UNL     1     -11.463   9.166   1.120  1.00  0.00     0.010 A 
ATOM     36  C   UNL     1     -10.031  10.039  -0.630  1.00  0.00     0.010 A 
ATOM     37  C   UNL     1     -10.821  10.255   0.508  1.00  0.00    -0.014 A 
BRANCH  37  38
ATOM     38  C   UNL     1     -10.961  11.632   1.036  1.00  0.00     0.031 A 
ATOM     39  C   UNL     1     -11.569  12.708   0.180  1.00  0.00     0.074 A 
ATOM     40  C   UNL     1     -10.461  11.930   2.250  1.00  0.00     0.049 A 
ATOM     41  N   UNL     1     -11.744  13.975   0.450  1.00  0.00    -0.248 NA
ATOM     42  C   UNL     1     -12.008  12.317  -1.171  1.00  0.00     0.031 C 
ATOM     43  C   UNL     1      -9.781  10.987   3.141  1.00  0.00     0.029 A 
ATOM     44  N   UNL     1     -10.432  13.116   2.937  1.00  0.00    -0.354 N 
ATOM     45  C   UNL     1     -12.273  14.538  -0.705  1.00  0.00     0.074 A 
ATOM     46  C   UNL     1     -12.346  13.485  -1.693  1.00  0.00     0.031 C 
ATOM     47  C   UNL     1      -9.428  11.625   4.268  1.00  0.00     0.029 A 
ATOM     48  C   UNL     1      -9.820  13.026   4.164  1.00  0.00     0.049 A 
ATOM     49  H   UNL     1     -10.813  13.953   2.584  1.00  0.00     0.167 HD
ATOM     50  C   UNL     1     -12.690  15.809  -0.916  1.00  0.00     0.034 A 
ATOM     51  C   UNL     1      -9.601  13.969   5.101  1.00  0.00     0.034 A 
ATOM     52  C   UNL     1     -12.641  16.841   0.083  1.00  0.00     0.049 A 
ATOM     53  C   UNL     1     -10.087  15.370   4.852  1.00  0.00     0.074 A 
ATOM     54  C   UNL     1     -13.122  18.136   0.007  1.00  0.00     0.029 A 
ATOM     55  N   UNL     1     -12.060  16.703   1.335  1.00  0.00    -0.354 N 
ATOM     56  N   UNL     1     -10.732  15.848   3.816  1.00  0.00    -0.248 NA
ATOM     57  C   UNL     1      -9.841  16.353   5.916  1.00  0.00     0.031 C 
ATOM     58  C   UNL     1     -12.794  18.792   1.199  1.00  0.00     0.029 A 
ATOM     59  C   UNL     1     -12.148  17.894   2.034  1.00  0.00     0.049 A 
ATOM     60  H   UNL     1     -11.646  15.877   1.676  1.00  0.00     0.167 HD
ATOM     61  C   UNL     1     -11.006  17.177   4.118  1.00  0.00     0.074 A 
ATOM     62  C   UNL     1     -10.467  17.422   5.441  1.00  0.00     0.031 C 
ATOM     63  C   UNL     1     -11.640  18.112   3.366  1.00  0.00     0.034 A 
BRANCH  50  64
ATOM     64  C   UNL     1     -13.259  16.133  -2.274  1.00  0.00     0.023 A 
ATOM     65  C   UNL     1     -14.485  15.560  -2.678  1.00  0.00     0.012 A 
ATOM     66  C   UNL     1     -12.589  17.009  -3.150  1.00  0.00     0.148 A 
ATOM     67  C   UNL     1     -15.002  15.806  -3.950  1.00  0.00     0.002 A 
ATOM     68  C   UNL     1     -13.139  17.292  -4.395  1.00  0.00     0.091 A 
ATOM     69  F   UNL     1     -11.416  17.529  -2.763  1.00  0.00    -0.205 F 
ATOM     70  C   UNL     1     -14.334  16.678  -4.804  1.00  0.00     0.022 A 
BRANCH  68  71
ATOM     71  S   UNL     1     -12.396  18.469  -5.530  1.00  0.00     0.127 S 
ATOM     72  O   UNL     1     -11.819  17.582  -6.539  1.00  0.00    -0.237 OA
ATOM     73  O   UNL     1     -13.558  19.234  -5.985  1.00  0.00    -0.237 OA
ATOM     74  O   UNL     1     -11.440  19.234  -4.742  1.00  0.00    -0.744 OA
ENDBRANCH  68  71
ENDBRANCH  50  64
BRANCH  51  75
ATOM     75  C   UNL     1      -8.971  13.590   6.396  1.00  0.00     0.023 A 
ATOM     76  C   UNL     1      -9.764  13.566   7.561  1.00  0.00     0.012 A 
ATOM     77  C   UNL     1      -7.619  13.205   6.477  1.00  0.00     0.148 A 
ATOM     78  C   UNL     1      -9.216  13.191   8.787  1.00  0.00     0.002 A 
ATOM     79  C   UNL     1      -7.093  12.782   7.691  1.00  0.00     0.091 A 
ATOM     80  F   UNL     1      -6.884  13.235   5.356  1.00  0.00    -0.205 F 
ATOM     81  C   UNL     1      -7.884  12.790   8.851  1.00  0.00     0.022 A 
BRANCH  79  82
ATOM     82  S   UNL     1      -5.426  12.130   7.852  1.00  0.00     0.127 S 
ATOM     83  O   UNL     1      -4.802  13.116   8.730  1.00  0.00    -0.237 OA
ATOM     84  O   UNL     1      -5.675  10.826   8.466  1.00  0.00    -0.237 OA
ATOM     85  O   UNL     1      -4.891  12.070   6.498  1.00  0.00    -0.744 OA
ENDBRANCH  79  82
ENDBRANCH  51  75
BRANCH  63  86
ATOM     86  C   UNL     1     -11.823  19.483   3.966  1.00  0.00     0.023 A 
ATOM     87  C   UNL     1     -10.714  20.338   4.124  1.00  0.00     0.012 A 
ATOM     88  C   UNL     1     -13.109  19.948   4.306  1.00  0.00     0.148 A 
ATOM     89  C   UNL     1     -10.877  21.621   4.645  1.00  0.00     0.002 A 
ATOM     90  C   UNL     1     -13.271  21.247   4.773  1.00  0.00     0.091 A 
ATOM     91  F   UNL     1     -14.149  19.114   4.165  1.00  0.00    -0.205 F 
ATOM     92  C   UNL     1     -12.155  22.079   4.957  1.00  0.00     0.022 A 
BRANCH  90  93
ATOM     93  S   UNL     1     -14.887  21.957   5.104  1.00  0.00     0.127 S 
ATOM     94  O   UNL     1     -14.877  22.053   6.563  1.00  0.00    -0.237 OA
ATOM     95  O   UNL     1     -14.808  23.242   4.408  1.00  0.00    -0.237 OA
ATOM     96  O   UNL     1     -15.859  21.026   4.547  1.00  0.00    -0.744 OA
ENDBRANCH  90  93
ENDBRANCH  63  86
ENDBRANCH  37  38
ENDBRANCH  29  32
ENDBRANCH  27  28
ENDBRANCH   1  27
TORSDOF 16
