REMARK SMILES CC1(C)CCC[N@@H+](Cc2ccc(C(=O)NCCCNC(=O)c3ccc(-c4c5nc(c(-c6cccc(S(=O)(=O)[O-])c6F)c6ccc([nH]6)c(-c6cccc(S(=O)(=O)[O-])c6F)c6nc(c(-c7cccc(S(=O)(=O)[O-])c7F)c7ccc4[nH]7)C=C6)C=C5)cc3)cn2)C1
REMARK SMILES IDX 17 1 16 2 15 3 13 4 14 5 12 7 9 8 10 9 86 10 11 11 85 12
REMARK SMILES IDX 8 13 7 14 1 15 2 16 3 17 4 18 87 19 5 20 6 21 18 23 19 24
REMARK SMILES IDX 20 25 21 27 22 28 23 29 84 30 24 31 83 32 25 33 26 34 27 35
REMARK SMILES IDX 77 36 28 37 82 38 76 39 78 40 29 41 81 42 75 43 74 44 30 46
REMARK SMILES IDX 62 47 42 48 61 49 43 50 46 51 60 52 79 53 44 54 45 55 59 57
REMARK SMILES IDX 80 58 47 59 31 60 32 61 40 62 33 63 35 64 41 65 34 66 36 67
REMARK SMILES IDX 37 68 38 69 39 70 63 71 64 72 72 73 65 74 67 75 73 76 66 77
REMARK SMILES IDX 68 78 69 79 70 80 71 81 48 82 49 83 57 84 50 85 52 86 58 87
REMARK SMILES IDX 51 88 53 89 54 90 55 91 56 92
REMARK H PARENT 15 6 7 22 19 26 78 45 46 56
REMARK Flexibility Score: inf
ROOT
ATOM      1  C   UNL     1       1.302   3.160   6.588  1.00  0.00     0.042 C 
ENDROOT
BRANCH   1   2
ATOM      2  C   UNL     1       0.417   1.943   6.338  1.00  0.00     0.118 C 
BRANCH   2   3
ATOM      3  N   UNL     1      -0.959   2.179   6.747  1.00  0.00    -0.352 N 
ATOM      4  C   UNL     1      -2.095   2.397   6.009  1.00  0.00     0.252 C 
ATOM      5  O   UNL     1      -3.181   2.413   6.582  1.00  0.00    -0.269 OA
ATOM      6  H   UNL     1      -1.099   2.182   7.722  1.00  0.00     0.163 HD
BRANCH   4   7
ATOM      7  C   UNL     1      -2.058   2.542   4.540  1.00  0.00     0.058 A 
ATOM      8  C   UNL     1      -2.102   2.528   1.783  1.00  0.00     0.095 A 
ATOM      9  C   UNL     1      -1.101   3.237   2.446  1.00  0.00     0.030 A 
ATOM     10  N   UNL     1      -3.115   1.917   2.449  1.00  0.00    -0.255 NA
ATOM     11  C   UNL     1      -1.084   3.246   3.840  1.00  0.00     0.017 A 
ATOM     12  C   UNL     1      -3.076   1.951   3.805  1.00  0.00     0.125 A 
BRANCH   8  13
ATOM     13  C   UNL     1      -2.002   2.299   0.280  1.00  0.00     0.319 C 
BRANCH  13  14
ATOM     14  N   UNL     1      -1.264   1.081  -0.148  1.00  0.00    -0.329 N 
ATOM     15  C   UNL     1       1.187  -0.055  -1.679  1.00  0.00     0.017 C 
ATOM     16  C   UNL     1       0.945  -0.139  -0.161  1.00  0.00     0.014 C 
ATOM     17  C   UNL     1       2.312  -0.135   0.548  1.00  0.00     0.017 C 
ATOM     18  C   UNL     1       0.191  -1.436   0.201  1.00  0.00     0.018 C 
ATOM     19  C   UNL     1       0.127   1.078   0.333  1.00  0.00     0.268 C 
ATOM     20  C   UNL     1      -1.267  -1.396  -0.254  1.00  0.00     0.062 C 
ATOM     21  C   UNL     1      -1.973  -0.141   0.258  1.00  0.00     0.262 C 
ATOM     22  H   UNL     1      -1.225   1.098  -1.167  1.00  0.00     0.348 HD
ENDBRANCH  13  14
ENDBRANCH   8  13
ENDBRANCH   4   7
ENDBRANCH   2   3
ENDBRANCH   1   2
BRANCH   1  23
ATOM     23  C   UNL     1       1.562   3.442   8.065  1.00  0.00     0.118 C 
BRANCH  23  24
ATOM     24  N   UNL     1       2.418   2.436   8.677  1.00  0.00    -0.352 N 
ATOM     25  C   UNL     1       3.628   2.576   9.312  1.00  0.00     0.251 C 
ATOM     26  H   UNL     1       2.076   1.514   8.629  1.00  0.00     0.163 HD
ATOM     27  O   UNL     1       4.283   1.571   9.576  1.00  0.00    -0.269 OA
BRANCH  25  28
ATOM     28  C   UNL     1       4.151   3.915   9.671  1.00  0.00     0.039 A 
ATOM     29  C   UNL     1       5.522   4.158   9.546  1.00  0.00     0.014 A 
ATOM     30  C   UNL     1       3.313   4.911  10.179  1.00  0.00     0.014 A 
ATOM     31  C   UNL     1       6.045   5.408   9.893  1.00  0.00     0.010 A 
ATOM     32  C   UNL     1       3.821   6.180  10.447  1.00  0.00     0.010 A 
ATOM     33  C   UNL     1       5.195   6.437  10.329  1.00  0.00    -0.014 A 
BRANCH  33  34
ATOM     34  C   UNL     1       5.724   7.777  10.692  1.00  0.00     0.031 A 
ATOM     35  C   UNL     1       5.580   8.290  12.101  1.00  0.00     0.074 A 
ATOM     36  C   UNL     1       6.258   8.567   9.739  1.00  0.00     0.049 A 
ATOM     37  N   UNL     1       5.917   9.453  12.595  1.00  0.00    -0.248 NA
ATOM     38  C   UNL     1       4.945   7.388  13.076  1.00  0.00     0.031 C 
ATOM     39  C   UNL     1       6.382   8.217   8.323  1.00  0.00     0.029 A 
ATOM     40  N   UNL     1       6.768   9.839   9.813  1.00  0.00    -0.354 N 
ATOM     41  C   UNL     1       5.497   9.440  13.921  1.00  0.00     0.074 A 
ATOM     42  C   UNL     1       4.849   8.167  14.144  1.00  0.00     0.031 C 
ATOM     43  C   UNL     1       6.935   9.248   7.662  1.00  0.00     0.029 A 
ATOM     44  C   UNL     1       7.179  10.340   8.600  1.00  0.00     0.049 A 
ATOM     45  H   UNL     1       6.835  10.345  10.655  1.00  0.00     0.167 HD
ATOM     46  C   UNL     1       5.662  10.387  14.875  1.00  0.00     0.034 A 
ATOM     47  C   UNL     1       7.690  11.544   8.277  1.00  0.00     0.034 A 
ATOM     48  C   UNL     1       6.352  11.631  14.662  1.00  0.00     0.049 A 
ATOM     49  C   UNL     1       7.920  12.556   9.367  1.00  0.00     0.074 A 
ATOM     50  C   UNL     1       6.652  12.619  15.583  1.00  0.00     0.029 A 
ATOM     51  N   UNL     1       6.849  12.059  13.441  1.00  0.00    -0.354 N 
ATOM     52  N   UNL     1       7.656  12.463  10.648  1.00  0.00    -0.248 NA
ATOM     53  C   UNL     1       8.558  13.821   8.976  1.00  0.00     0.031 C 
ATOM     54  C   UNL     1       7.314  13.653  14.914  1.00  0.00     0.029 A 
ATOM     55  C   UNL     1       7.452  13.297  13.582  1.00  0.00     0.049 A 
ATOM     56  H   UNL     1       6.784  11.556  12.597  1.00  0.00     0.167 HD
ATOM     57  C   UNL     1       8.132  13.636  11.222  1.00  0.00     0.074 A 
ATOM     58  C   UNL     1       8.716  14.417  10.151  1.00  0.00     0.031 C 
ATOM     59  C   UNL     1       8.081  14.036  12.517  1.00  0.00     0.034 A 
BRANCH  46  60
ATOM     60  C   UNL     1       5.128  10.090  16.254  1.00  0.00     0.023 A 
ATOM     61  C   UNL     1       5.757   9.107  17.047  1.00  0.00     0.012 A 
ATOM     62  C   UNL     1       4.038  10.807  16.783  1.00  0.00     0.148 A 
ATOM     63  C   UNL     1       5.282   8.812  18.324  1.00  0.00     0.002 A 
ATOM     64  C   UNL     1       3.600  10.541  18.076  1.00  0.00     0.091 A 
ATOM     65  F   UNL     1       3.438  11.724  16.009  1.00  0.00    -0.205 F 
ATOM     66  C   UNL     1       4.211   9.534  18.841  1.00  0.00     0.022 A 
BRANCH  64  67
ATOM     67  S   UNL     1       2.282  11.474  18.862  1.00  0.00     0.127 S 
ATOM     68  O   UNL     1       1.189  10.502  18.857  1.00  0.00    -0.237 OA
ATOM     69  O   UNL     1       2.845  11.750  20.184  1.00  0.00    -0.237 OA
ATOM     70  O   UNL     1       2.077  12.653  18.033  1.00  0.00    -0.744 OA
ENDBRANCH  64  67
ENDBRANCH  46  60
BRANCH  47  71
ATOM     71  C   UNL     1       8.095  11.825   6.870  1.00  0.00     0.023 A 
ATOM     72  C   UNL     1       9.463  11.913   6.550  1.00  0.00     0.012 A 
ATOM     73  C   UNL     1       7.139  11.964   5.845  1.00  0.00     0.148 A 
ATOM     74  C   UNL     1       9.873  12.165   5.241  1.00  0.00     0.002 A 
ATOM     75  C   UNL     1       7.556  12.159   4.533  1.00  0.00     0.091 A 
ATOM     76  F   UNL     1       5.841  11.884   6.172  1.00  0.00    -0.205 F 
ATOM     77  C   UNL     1       8.921  12.278   4.231  1.00  0.00     0.022 A 
BRANCH  75  78
ATOM     78  S   UNL     1       6.409  12.180   3.150  1.00  0.00     0.127 S 
ATOM     79  O   UNL     1       6.461  13.581   2.740  1.00  0.00    -0.237 OA
ATOM     80  O   UNL     1       7.040  11.241   2.222  1.00  0.00    -0.237 OA
ATOM     81  O   UNL     1       5.134  11.725   3.689  1.00  0.00    -0.744 OA
ENDBRANCH  75  78
ENDBRANCH  47  71
BRANCH  59  82
ATOM     82  C   UNL     1       8.715  15.357  12.867  1.00  0.00     0.023 A 
ATOM     83  C   UNL     1       8.098  16.561  12.476  1.00  0.00     0.012 A 
ATOM     84  C   UNL     1       9.887  15.402  13.648  1.00  0.00     0.148 A 
ATOM     85  C   UNL     1       8.655  17.790  12.827  1.00  0.00     0.002 A 
ATOM     86  C   UNL     1      10.409  16.630  14.037  1.00  0.00     0.091 A 
ATOM     87  F   UNL     1      10.472  14.246  13.993  1.00  0.00    -0.205 F 
ATOM     88  C   UNL     1       9.803  17.825  13.617  1.00  0.00     0.022 A 
BRANCH  86  89
ATOM     89  S   UNL     1      11.825  16.765  15.135  1.00  0.00     0.127 S 
ATOM     90  O   UNL     1      12.884  17.158  14.209  1.00  0.00    -0.237 OA
ATOM     91  O   UNL     1      11.402  17.817  16.061  1.00  0.00    -0.237 OA
ATOM     92  O   UNL     1      11.980  15.452  15.748  1.00  0.00    -0.744 OA
ENDBRANCH  86  89
ENDBRANCH  59  82
ENDBRANCH  33  34
ENDBRANCH  25  28
ENDBRANCH  23  24
ENDBRANCH   1  23
TORSDOF 15
