REMARK SMILES Cc1c(C)c2c(c(C)c1O)CC[C@@](C)(C(=O)NCCCNC(=O)c1ccc(-c3c4nc(c(-c5cccc(S(=O)(=O)[O-])c5F)c5ccc([nH]5)c(-c5cccc(S(=O)(=O)[O-])c5F)c5nc(c(-c6cccc(S(=O)(=O)[O-])c6F)c6ccc3[nH]6)C=C5)C=C4)cc1)O2
REMARK SMILES IDX 20 1 19 2 18 3 17 4 15 5 16 6 13 8 1 9 2 10 3 11 9 12 4 13
REMARK SMILES IDX 5 14 7 15 6 16 87 17 8 18 11 19 12 20 14 21 10 22 21 24
REMARK SMILES IDX 22 25 23 27 24 28 25 29 86 30 26 31 85 32 27 33 28 34 29 35
REMARK SMILES IDX 79 36 30 37 84 38 78 39 80 40 31 41 83 42 77 43 76 44 32 46
REMARK SMILES IDX 64 47 44 48 63 49 45 50 48 51 62 52 81 53 46 54 47 55 61 57
REMARK SMILES IDX 82 58 49 59 33 60 34 61 42 62 35 63 37 64 43 65 36 66 38 67
REMARK SMILES IDX 39 68 40 69 41 70 65 71 66 72 74 73 67 74 69 75 75 76 68 77
REMARK SMILES IDX 70 78 71 79 72 80 73 81 50 82 51 83 59 84 52 85 54 86 60 87
REMARK SMILES IDX 53 88 55 89 56 90 57 91 58 92
REMARK H PARENT 17 7 10 23 21 26 80 45 48 56
REMARK Flexibility Score: inf
ROOT
ATOM      1  C   UNL     1       0.157 -10.124   4.742  1.00  0.00     0.118 C 
ENDROOT
BRANCH   1   2
ATOM      2  C   UNL     1       0.106  -8.624   4.977  1.00  0.00     0.042 C 
BRANCH   2   3
ATOM      3  C   UNL     1       1.318  -7.883   4.429  1.00  0.00     0.118 C 
BRANCH   3   4
ATOM      4  N   UNL     1       1.362  -7.876   2.973  1.00  0.00    -0.353 N 
ATOM      5  C   UNL     1       1.230  -6.860   2.062  1.00  0.00     0.263 C 
ATOM      6  O   UNL     1       1.341  -7.174   0.873  1.00  0.00    -0.270 OA
ATOM      7  H   UNL     1       1.514  -8.761   2.570  1.00  0.00     0.163 HD
BRANCH   5   8
ATOM      8  C   UNL     1       0.982  -5.395   2.520  1.00  0.00     0.184 C 
ATOM      9  C   UNL     1       0.938   0.117  -0.117  1.00  0.00     0.049 C 
ATOM     10  C   UNL     1       0.488  -0.930   0.869  1.00  0.00    -0.002 A 
ATOM     11  C   UNL     1       0.794  -2.292   0.627  1.00  0.00    -0.002 A 
ATOM     12  C   UNL     1      -0.177  -0.584   2.060  1.00  0.00     0.122 A 
ATOM     13  C   UNL     1       1.513  -2.699  -0.637  1.00  0.00     0.049 C 
ATOM     14  C   UNL     1       0.449  -3.256   1.591  1.00  0.00     0.127 A 
ATOM     15  C   UNL     1      -0.545  -1.542   3.014  1.00  0.00    -0.002 A 
ATOM     16  C   UNL     1      -0.245  -2.896   2.763  1.00  0.00     0.001 A 
ATOM     17  O   UNL     1       0.852  -4.554   1.349  1.00  0.00    -0.477 OA
ATOM     18  C   UNL     1      -1.246  -1.148   4.291  1.00  0.00     0.049 C 
ATOM     19  C   UNL     1      -0.620  -3.944   3.775  1.00  0.00     0.044 C 
ATOM     20  C   UNL     1      -0.362  -5.335   3.247  1.00  0.00     0.063 C 
ATOM     21  C   UNL     1       2.249  -4.920   3.265  1.00  0.00     0.067 C 
BRANCH  12  22
ATOM     22  O   UNL     1      -0.483   0.723   2.336  1.00  0.00    -0.507 OA
ATOM     23  H   UNL     1      -0.256   1.396   1.725  1.00  0.00     0.293 HD
ENDBRANCH  12  22
ENDBRANCH   5   8
ENDBRANCH   3   4
ENDBRANCH   2   3
ENDBRANCH   1   2
BRANCH   1  24
ATOM     24  N   UNL     1       1.256 -10.758   5.460  1.00  0.00    -0.352 N 
ATOM     25  C   UNL     1       1.238 -11.588   6.552  1.00  0.00     0.251 C 
ATOM     26  H   UNL     1       2.153 -10.559   5.104  1.00  0.00     0.163 HD
ATOM     27  O   UNL     1       2.291 -11.833   7.141  1.00  0.00    -0.269 OA
BRANCH  25  28
ATOM     28  C   UNL     1      -0.032 -12.174   7.029  1.00  0.00     0.039 A 
ATOM     29  C   UNL     1      -0.266 -12.262   8.404  1.00  0.00     0.014 A 
ATOM     30  C   UNL     1      -0.981 -12.660   6.127  1.00  0.00     0.014 A 
ATOM     31  C   UNL     1      -1.476 -12.783   8.868  1.00  0.00     0.010 A 
ATOM     32  C   UNL     1      -2.222 -13.084   6.586  1.00  0.00     0.010 A 
ATOM     33  C   UNL     1      -2.476 -13.170   7.961  1.00  0.00    -0.014 A 
BRANCH  33  34
ATOM     34  C   UNL     1      -3.786 -13.685   8.430  1.00  0.00     0.031 A 
ATOM     35  C   UNL     1      -4.213 -15.087   8.092  1.00  0.00     0.074 A 
ATOM     36  C   UNL     1      -4.625 -12.866   9.095  1.00  0.00     0.049 A 
ATOM     37  N   UNL     1      -5.328 -15.701   8.389  1.00  0.00    -0.248 NA
ATOM     38  C   UNL     1      -3.279 -15.897   7.293  1.00  0.00     0.031 C 
ATOM     39  C   UNL     1      -4.357 -11.462   9.410  1.00  0.00     0.029 A 
ATOM     40  N   UNL     1      -5.878 -13.090   9.606  1.00  0.00    -0.354 N 
ATOM     41  C   UNL     1      -5.245 -16.950   7.787  1.00  0.00     0.074 A 
ATOM     42  C   UNL     1      -3.990 -16.992   7.070  1.00  0.00     0.031 C 
ATOM     43  C   UNL     1      -5.407 -10.954  10.073  1.00  0.00     0.029 A 
ATOM     44  C   UNL     1      -6.434 -11.984  10.204  1.00  0.00     0.049 A 
ATOM     45  H   UNL     1      -6.336 -13.959   9.549  1.00  0.00     0.167 HD
ATOM     46  C   UNL     1      -6.116 -17.984   7.855  1.00  0.00     0.034 A 
ATOM     47  C   UNL     1      -7.636 -11.815  10.792  1.00  0.00     0.034 A 
ATOM     48  C   UNL     1      -7.339 -17.952   8.609  1.00  0.00     0.049 A 
ATOM     49  C   UNL     1      -8.575 -12.986  10.887  1.00  0.00     0.074 A 
ATOM     50  C   UNL     1      -8.239 -18.980   8.826  1.00  0.00     0.029 A 
ATOM     51  N   UNL     1      -7.841 -16.834   9.258  1.00  0.00    -0.354 N 
ATOM     52  N   UNL     1      -8.404 -14.214  10.459  1.00  0.00    -0.248 NA
ATOM     53  C   UNL     1      -9.855 -12.762  11.573  1.00  0.00     0.031 C 
ATOM     54  C   UNL     1      -9.304 -18.473   9.576  1.00  0.00     0.029 A 
ATOM     55  C   UNL     1      -9.052 -17.139   9.856  1.00  0.00     0.049 A 
ATOM     56  H   UNL     1      -7.402 -15.954   9.288  1.00  0.00     0.167 HD
ATOM     57  C   UNL     1      -9.544 -14.914  10.837  1.00  0.00     0.074 A 
ATOM     58  C   UNL     1     -10.387 -13.979  11.555  1.00  0.00     0.031 C 
ATOM     59  C   UNL     1      -9.868 -16.209  10.597  1.00  0.00     0.034 A 
BRANCH  46  60
ATOM     60  C   UNL     1      -5.748 -19.259   7.139  1.00  0.00     0.023 A 
ATOM     61  C   UNL     1      -4.682 -20.046   7.622  1.00  0.00     0.012 A 
ATOM     62  C   UNL     1      -6.491 -19.709   6.030  1.00  0.00     0.148 A 
ATOM     63  C   UNL     1      -4.335 -21.239   6.990  1.00  0.00     0.002 A 
ATOM     64  C   UNL     1      -6.171 -20.925   5.437  1.00  0.00     0.091 A 
ATOM     65  F   UNL     1      -7.486 -18.938   5.570  1.00  0.00    -0.205 F 
ATOM     66  C   UNL     1      -5.086 -21.684   5.907  1.00  0.00     0.022 A 
BRANCH  64  67
ATOM     67  S   UNL     1      -7.133 -21.630   4.094  1.00  0.00     0.127 S 
ATOM     68  O   UNL     1      -6.215 -21.484   2.966  1.00  0.00    -0.237 OA
ATOM     69  O   UNL     1      -7.329 -23.008   4.546  1.00  0.00    -0.237 OA
ATOM     70  O   UNL     1      -8.352 -20.838   4.015  1.00  0.00    -0.744 OA
ENDBRANCH  64  67
ENDBRANCH  46  60
BRANCH  47  71
ATOM     71  C   UNL     1      -7.963 -10.496  11.405  1.00  0.00     0.023 A 
ATOM     72  C   UNL     1      -7.980 -10.374  12.807  1.00  0.00     0.012 A 
ATOM     73  C   UNL     1      -8.151  -9.347  10.611  1.00  0.00     0.148 A 
ATOM     74  C   UNL     1      -8.185  -9.132  13.410  1.00  0.00     0.002 A 
ATOM     75  C   UNL     1      -8.295  -8.104  11.217  1.00  0.00     0.091 A 
ATOM     76  F   UNL     1      -8.136  -9.488   9.278  1.00  0.00    -0.205 F 
ATOM     77  C   UNL     1      -8.327  -7.996  12.617  1.00  0.00     0.022 A 
BRANCH  75  78
ATOM     78  S   UNL     1      -8.328  -6.569  10.285  1.00  0.00     0.127 S 
ATOM     79  O   UNL     1      -9.659  -6.054  10.600  1.00  0.00    -0.237 OA
ATOM     80  O   UNL     1      -7.221  -5.829  10.891  1.00  0.00    -0.237 OA
ATOM     81  O   UNL     1      -8.115  -6.943   8.893  1.00  0.00    -0.744 OA
ENDBRANCH  75  78
ENDBRANCH  47  71
BRANCH  59  82
ATOM     82  C   UNL     1     -11.197 -16.714  11.101  1.00  0.00     0.023 A 
ATOM     83  C   UNL     1     -12.383 -16.302  10.462  1.00  0.00     0.012 A 
ATOM     84  C   UNL     1     -11.262 -17.689  12.117  1.00  0.00     0.148 A 
ATOM     85  C   UNL     1     -13.614 -16.838  10.838  1.00  0.00     0.002 A 
ATOM     86  C   UNL     1     -12.486 -18.257  12.450  1.00  0.00     0.091 A 
ATOM     87  F   UNL     1     -10.123 -18.057  12.723  1.00  0.00    -0.205 F 
ATOM     88  C   UNL     1     -13.664 -17.826  11.819  1.00  0.00     0.022 A 
BRANCH  86  89
ATOM     89  S   UNL     1     -12.638 -19.612  13.621  1.00  0.00     0.127 S 
ATOM     90  O   UNL     1     -13.331 -18.966  14.735  1.00  0.00    -0.237 OA
ATOM     91  O   UNL     1     -13.448 -20.576  12.876  1.00  0.00    -0.237 OA
ATOM     92  O   UNL     1     -11.280 -20.053  13.907  1.00  0.00    -0.744 OA
ENDBRANCH  86  89
ENDBRANCH  59  82
ENDBRANCH  33  34
ENDBRANCH  25  28
ENDBRANCH   1  24
TORSDOF 14
