REMARK SMILES O=C(NCCCNC(=O)c1cc(-c2ccc(N3C(=O)[C@@H]4CC=CC[C@H]4C3=O)cc2)nc2c(Cl)cccc12)c1ccc(-c2c3nc(c(-c4cccc(S(=O)(=O)[O-])c4F)c4ccc([nH]4)c(-c4cccc(S(=O)(=O)[O-])c4F)c4nc(c(-c5cccc(S(=O)(=O)[O-])c5F)c5ccc2[nH]5)C=C4)C=C3)cc1
REMARK SMILES IDX 4 1 3 2 1 3 2 4 38 6 39 7 100 8 40 9 99 10 41 11 42 12 43 13
REMARK SMILES IDX 93 14 44 15 98 16 92 17 94 18 45 19 97 20 91 21 90 22 46 24
REMARK SMILES IDX 78 25 58 26 77 27 59 28 62 29 76 30 95 31 60 32 61 33 75 35
REMARK SMILES IDX 96 36 63 37 47 38 48 39 56 40 49 41 51 42 57 43 50 44 52 45
REMARK SMILES IDX 53 46 54 47 55 48 79 49 80 50 88 51 81 52 83 53 89 54 82 55
REMARK SMILES IDX 84 56 85 57 86 58 87 59 64 60 65 61 73 62 66 63 68 64 74 65
REMARK SMILES IDX 67 66 69 67 70 68 71 69 72 70 5 71 6 72 7 73 8 74 9 76 10 77
REMARK SMILES IDX 11 78 37 79 12 80 31 81 36 82 30 83 32 84 35 85 33 86 34 87
REMARK SMILES IDX 13 88 14 89 29 90 15 91 28 92 16 93 17 94 18 95 26 96 19 97
REMARK SMILES IDX 20 98 25 99 27 100 21 101 24 102 22 103 23 104
REMARK H PARENT 3 5 94 23 62 34 7 75
REMARK Flexibility Score: inf
ROOT
ATOM      1  C   UNL     1       4.536  -0.975  -0.817  1.00  0.00     0.118 C 
ENDROOT
BRANCH   1   2
ATOM      2  N   UNL     1       3.088  -0.797  -0.773  1.00  0.00    -0.352 N 
ATOM      3  O   UNL     1       1.087  -0.061  -0.051  1.00  0.00    -0.269 OA
ATOM      4  C   UNL     1       2.309   0.058  -0.025  1.00  0.00     0.251 C 
ATOM      5  H   UNL     1       2.584  -1.386  -1.380  1.00  0.00     0.163 HD
BRANCH   4   6
ATOM      6  C   UNL     1       2.943   1.076   0.842  1.00  0.00     0.039 A 
ATOM      7  C   UNL     1       4.061   1.780   0.404  1.00  0.00     0.014 A 
ATOM      8  C   UNL     1       2.441   1.304   2.126  1.00  0.00     0.014 A 
ATOM      9  C   UNL     1       4.825   2.492   1.317  1.00  0.00     0.010 A 
ATOM     10  C   UNL     1       3.133   2.148   3.002  1.00  0.00     0.010 A 
ATOM     11  C   UNL     1       4.370   2.695   2.629  1.00  0.00    -0.014 A 
BRANCH  11  12
ATOM     12  C   UNL     1       5.201   3.506   3.560  1.00  0.00     0.031 A 
ATOM     13  C   UNL     1       5.714   2.935   4.857  1.00  0.00     0.074 A 
ATOM     14  C   UNL     1       5.530   4.764   3.203  1.00  0.00     0.049 A 
ATOM     15  N   UNL     1       6.499   3.493   5.745  1.00  0.00    -0.248 NA
ATOM     16  C   UNL     1       5.290   1.572   5.215  1.00  0.00     0.031 C 
ATOM     17  C   UNL     1       5.070   5.443   1.988  1.00  0.00     0.029 A 
ATOM     18  N   UNL     1       6.336   5.692   3.811  1.00  0.00    -0.354 N 
ATOM     19  C   UNL     1       6.617   2.578   6.785  1.00  0.00     0.074 A 
ATOM     20  C   UNL     1       5.820   1.427   6.422  1.00  0.00     0.031 C 
ATOM     21  C   UNL     1       5.638   6.654   1.914  1.00  0.00     0.029 A 
ATOM     22  C   UNL     1       6.443   6.870   3.109  1.00  0.00     0.049 A 
ATOM     23  H   UNL     1       6.794   5.531   4.668  1.00  0.00     0.167 HD
ATOM     24  C   UNL     1       7.331   2.681   7.933  1.00  0.00     0.034 A 
ATOM     25  C   UNL     1       7.098   8.009   3.398  1.00  0.00     0.034 A 
ATOM     26  C   UNL     1       8.152   3.814   8.274  1.00  0.00     0.049 A 
ATOM     27  C   UNL     1       7.895   8.085   4.667  1.00  0.00     0.074 A 
ATOM     28  C   UNL     1       8.966   3.984   9.380  1.00  0.00     0.029 A 
ATOM     29  N   UNL     1       8.253   4.976   7.524  1.00  0.00    -0.354 N 
ATOM     30  N   UNL     1       8.086   7.162   5.578  1.00  0.00    -0.248 NA
ATOM     31  C   UNL     1       8.592   9.350   4.934  1.00  0.00     0.031 C 
ATOM     32  C   UNL     1       9.527   5.264   9.320  1.00  0.00     0.029 A 
ATOM     33  C   UNL     1       9.103   5.873   8.150  1.00  0.00     0.049 A 
ATOM     34  H   UNL     1       7.788   5.140   6.672  1.00  0.00     0.167 HD
ATOM     35  C   UNL     1       8.958   7.719   6.504  1.00  0.00     0.074 A 
ATOM     36  C   UNL     1       9.272   9.052   6.032  1.00  0.00     0.031 C 
ATOM     37  C   UNL     1       9.447   7.178   7.647  1.00  0.00     0.034 A 
BRANCH  24  38
ATOM     38  C   UNL     1       7.269   1.533   8.911  1.00  0.00     0.023 A 
ATOM     39  C   UNL     1       7.898   0.309   8.608  1.00  0.00     0.012 A 
ATOM     40  C   UNL     1       6.641   1.692  10.164  1.00  0.00     0.148 A 
ATOM     41  C   UNL     1       7.871  -0.750   9.517  1.00  0.00     0.002 A 
ATOM     42  C   UNL     1       6.660   0.650  11.083  1.00  0.00     0.091 A 
ATOM     43  F   UNL     1       6.033   2.857  10.430  1.00  0.00    -0.205 F 
ATOM     44  C   UNL     1       7.262  -0.575  10.757  1.00  0.00     0.022 A 
BRANCH  42  45
ATOM     45  S   UNL     1       5.979   0.805  12.738  1.00  0.00     0.127 S 
ATOM     46  O   UNL     1       4.804  -0.062  12.655  1.00  0.00    -0.237 OA
ATOM     47  O   UNL     1       7.065   0.283  13.568  1.00  0.00    -0.237 OA
ATOM     48  O   UNL     1       5.697   2.221  12.927  1.00  0.00    -0.744 OA
ENDBRANCH  42  45
ENDBRANCH  24  38
BRANCH  25  49
ATOM     49  C   UNL     1       7.055   9.154   2.446  1.00  0.00     0.023 A 
ATOM     50  C   UNL     1       8.225   9.533   1.760  1.00  0.00     0.012 A 
ATOM     51  C   UNL     1       5.856   9.850   2.199  1.00  0.00     0.148 A 
ATOM     52  C   UNL     1       8.209  10.608   0.871  1.00  0.00     0.002 A 
ATOM     53  C   UNL     1       5.833  10.879   1.267  1.00  0.00     0.091 A 
ATOM     54  F   UNL     1       4.756   9.477   2.868  1.00  0.00    -0.205 F 
ATOM     55  C   UNL     1       7.012  11.274   0.617  1.00  0.00     0.022 A 
BRANCH  53  56
ATOM     56  S   UNL     1       4.313  11.699   0.776  1.00  0.00     0.127 S 
ATOM     57  O   UNL     1       4.500  13.035   1.336  1.00  0.00    -0.237 OA
ATOM     58  O   UNL     1       4.390  11.624  -0.683  1.00  0.00    -0.237 OA
ATOM     59  O   UNL     1       3.235  10.914   1.361  1.00  0.00    -0.744 OA
ENDBRANCH  53  56
ENDBRANCH  25  49
BRANCH  37  60
ATOM     60  C   UNL     1      10.429   8.002   8.438  1.00  0.00     0.023 A 
ATOM     61  C   UNL     1      10.001   9.153   9.129  1.00  0.00     0.012 A 
ATOM     62  C   UNL     1      11.777   7.602   8.531  1.00  0.00     0.148 A 
ATOM     63  C   UNL     1      10.908   9.918   9.862  1.00  0.00     0.002 A 
ATOM     64  C   UNL     1      12.662   8.336   9.309  1.00  0.00     0.091 A 
ATOM     65  F   UNL     1      12.171   6.517   7.849  1.00  0.00    -0.205 F 
ATOM     66  C   UNL     1      12.234   9.504   9.961  1.00  0.00     0.022 A 
BRANCH  64  67
ATOM     67  S   UNL     1      14.361   7.818   9.576  1.00  0.00     0.127 S 
ATOM     68  O   UNL     1      15.098   8.784   8.764  1.00  0.00    -0.237 OA
ATOM     69  O   UNL     1      14.514   7.992  11.021  1.00  0.00    -0.237 OA
ATOM     70  O   UNL     1      14.434   6.435   9.125  1.00  0.00    -0.744 OA
ENDBRANCH  64  67
ENDBRANCH  37  60
ENDBRANCH  11  12
ENDBRANCH   4   6
ENDBRANCH   1   2
BRANCH   1  71
ATOM     71  C   UNL     1       5.011  -2.277  -0.196  1.00  0.00     0.042 C 
BRANCH  71  72
ATOM     72  C   UNL     1       4.531  -3.520  -0.919  1.00  0.00     0.118 C 
BRANCH  72  73
ATOM     73  N   UNL     1       4.907  -3.551  -2.326  1.00  0.00    -0.352 N 
ATOM     74  C   UNL     1       5.526  -4.533  -3.054  1.00  0.00     0.252 C 
ATOM     75  H   UNL     1       4.681  -2.739  -2.834  1.00  0.00     0.163 HD
ATOM     76  O   UNL     1       5.798  -4.340  -4.236  1.00  0.00    -0.269 OA
BRANCH  74  77
ATOM     77  C   UNL     1       5.923  -5.808  -2.423  1.00  0.00     0.051 A 
ATOM     78  C   UNL     1       7.267  -6.144  -2.565  1.00  0.00     0.043 A 
ATOM     79  C   UNL     1       5.024  -6.651  -1.731  1.00  0.00     0.015 A 
ATOM     80  C   UNL     1       7.704  -7.313  -1.981  1.00  0.00     0.072 A 
ATOM     81  C   UNL     1       5.582  -7.772  -1.086  1.00  0.00     0.090 A 
ATOM     82  C   UNL     1       3.626  -6.423  -1.646  1.00  0.00     0.011 A 
ATOM     83  N   UNL     1       6.888  -8.096  -1.241  1.00  0.00    -0.246 NA
ATOM     84  C   UNL     1       4.730  -8.539  -0.273  1.00  0.00     0.067 A 
ATOM     85  C   UNL     1       2.811  -7.191  -0.823  1.00  0.00     0.002 A 
ATOM     86  Cl  UNL     1       5.340  -9.906   0.603  1.00  0.00    -0.082 Cl
ATOM     87  C   UNL     1       3.371  -8.241  -0.116  1.00  0.00     0.023 A 
BRANCH  80  88
ATOM     88  C   UNL     1       9.069  -7.804  -2.172  1.00  0.00     0.000 A 
ATOM     89  C   UNL     1      10.173  -7.142  -1.621  1.00  0.00     0.012 A 
ATOM     90  C   UNL     1       9.303  -8.947  -2.949  1.00  0.00     0.012 A 
ATOM     91  C   UNL     1      11.473  -7.620  -1.829  1.00  0.00     0.027 A 
ATOM     92  C   UNL     1      10.604  -9.394  -3.202  1.00  0.00     0.027 A 
ATOM     93  C   UNL     1      11.705  -8.742  -2.635  1.00  0.00     0.052 A 
BRANCH  93  94
ATOM     94  N   UNL     1      13.019  -9.212  -2.865  1.00  0.00    -0.250 N 
ATOM     95  C   UNL     1      14.036  -9.182  -1.917  1.00  0.00     0.238 C 
ATOM     96  C   UNL     1      13.459  -9.775  -4.056  1.00  0.00     0.238 C 
ATOM     97  O   UNL     1      14.064  -8.670  -0.811  1.00  0.00    -0.274 OA
ATOM     98  C   UNL     1      15.111 -10.078  -2.461  1.00  0.00     0.096 C 
ATOM     99  C   UNL     1      14.957  -9.820  -3.947  1.00  0.00     0.096 C 
ATOM    100  O   UNL     1      12.834 -10.079  -5.060  1.00  0.00    -0.274 OA
ATOM    101  C   UNL     1      16.542  -9.860  -2.016  1.00  0.00     0.041 C 
ATOM    102  C   UNL     1      15.725 -10.845  -4.757  1.00  0.00     0.041 C 
ATOM    103  C   UNL     1      17.485 -10.553  -2.974  1.00  0.00    -0.030 C 
ATOM    104  C   UNL     1      17.115 -11.016  -4.184  1.00  0.00    -0.030 C 
ENDBRANCH  93  94
ENDBRANCH  80  88
ENDBRANCH  74  77
ENDBRANCH  72  73
ENDBRANCH  71  72
ENDBRANCH   1  71
TORSDOF 15
