REMARK SMILES O=C(NCCCNC(=O)c1sccc1S(=O)(=O)Nc1ccccc1N1CCCCC1)c1ccc(-c2c3nc(c(-c4cccc(S(=O)(=O)[O-])c4F)c4ccc([nH]4)c(-c4cccc(S(=O)(=O)[O-])c4F)c4nc(c(-c5cccc(S(=O)(=O)[O-])c5F)c5ccc2[nH]5)C=C4)C=C3)cc1
REMARK SMILES IDX 5 1 4 2 3 3 1 4 2 5 31 7 32 8 93 9 33 10 92 11 34 12 35 13
REMARK SMILES IDX 36 14 86 15 37 16 91 17 85 18 87 19 38 20 90 21 84 22 83 23
REMARK SMILES IDX 39 25 71 26 51 27 70 28 52 29 55 30 69 31 88 32 53 33 54 34
REMARK SMILES IDX 68 36 89 37 56 38 40 39 41 40 49 41 42 42 44 43 50 44 43 45
REMARK SMILES IDX 45 46 46 47 47 48 48 49 72 50 73 51 81 52 74 53 76 54 82 55
REMARK SMILES IDX 75 56 77 57 78 58 79 59 80 60 57 61 58 62 66 63 59 64 61 65
REMARK SMILES IDX 67 66 60 67 62 68 63 69 64 70 65 71 6 72 7 73 8 74 9 76
REMARK SMILES IDX 10 77 11 78 14 79 12 80 13 81 15 82 16 83 17 84 18 85 19 87
REMARK SMILES IDX 20 88 24 89 21 90 23 91 22 92 25 93 26 94 30 95 27 96 29 97
REMARK SMILES IDX 28 98
REMARK H PARENT 3 6 87 24 55 35 7 75 18 86
REMARK Flexibility Score: inf
ROOT
ATOM      1  C   UNL     1       5.282  -1.828   0.069  1.00  0.00     0.042 C 
ENDROOT
BRANCH   1   2
ATOM      2  C   UNL     1       4.743  -0.572  -0.605  1.00  0.00     0.118 C 
BRANCH   2   3
ATOM      3  N   UNL     1       3.283  -0.513  -0.652  1.00  0.00    -0.352 N 
ATOM      4  O   UNL     1       1.188   0.065  -0.035  1.00  0.00    -0.269 OA
ATOM      5  C   UNL     1       2.398   0.215   0.111  1.00  0.00     0.251 C 
ATOM      6  H   UNL     1       2.868  -1.085  -1.337  1.00  0.00     0.163 HD
BRANCH   5   7
ATOM      7  C   UNL     1       2.935   1.111   1.149  1.00  0.00     0.039 A 
ATOM      8  C   UNL     1       3.986   1.964   0.836  1.00  0.00     0.014 A 
ATOM      9  C   UNL     1       2.501   0.973   2.468  1.00  0.00     0.014 A 
ATOM     10  C   UNL     1       4.795   2.425   1.859  1.00  0.00     0.010 A 
ATOM     11  C   UNL     1       3.220   1.593   3.491  1.00  0.00     0.010 A 
ATOM     12  C   UNL     1       4.422   2.257   3.204  1.00  0.00    -0.014 A 
BRANCH  12  13
ATOM     13  C   UNL     1       5.304   2.810   4.267  1.00  0.00     0.031 A 
ATOM     14  C   UNL     1       5.865   1.940   5.364  1.00  0.00     0.074 A 
ATOM     15  C   UNL     1       5.632   4.116   4.205  1.00  0.00     0.049 A 
ATOM     16  N   UNL     1       6.659   2.276   6.349  1.00  0.00    -0.248 NA
ATOM     17  C   UNL     1       5.480   0.519   5.375  1.00  0.00     0.031 C 
ATOM     18  C   UNL     1       5.124   5.064   3.208  1.00  0.00     0.029 A 
ATOM     19  N   UNL     1       6.482   4.871   4.970  1.00  0.00    -0.354 N 
ATOM     20  C   UNL     1       6.807   1.137   7.133  1.00  0.00     0.074 A 
ATOM     21  C   UNL     1       6.029   0.092   6.505  1.00  0.00     0.031 C 
ATOM     22  C   UNL     1       5.725   6.248   3.374  1.00  0.00     0.029 A 
ATOM     23  C   UNL     1       6.586   6.175   4.546  1.00  0.00     0.049 A 
ATOM     24  H   UNL     1       6.970   4.515   5.747  1.00  0.00     0.167 HD
ATOM     25  C   UNL     1       7.531   0.977   8.268  1.00  0.00     0.034 A 
ATOM     26  C   UNL     1       7.277   7.212   5.053  1.00  0.00     0.034 A 
ATOM     27  C   UNL     1       8.356   2.005   8.848  1.00  0.00     0.049 A 
ATOM     28  C   UNL     1       8.109   6.987   6.278  1.00  0.00     0.074 A 
ATOM     29  C   UNL     1       9.184   1.923   9.954  1.00  0.00     0.029 A 
ATOM     30  N   UNL     1       8.461   3.302   8.368  1.00  0.00    -0.354 N 
ATOM     31  N   UNL     1       8.307   5.877   6.945  1.00  0.00    -0.248 NA
ATOM     32  C   UNL     1       8.826   8.152   6.809  1.00  0.00     0.031 C 
ATOM     33  C   UNL     1       9.773   3.176  10.155  1.00  0.00     0.029 A 
ATOM     34  C   UNL     1       9.333   4.032   9.159  1.00  0.00     0.049 A 
ATOM     35  H   UNL     1       7.986   3.653   7.580  1.00  0.00     0.167 HD
ATOM     36  C   UNL     1       9.191   6.202   7.965  1.00  0.00     0.074 A 
ATOM     37  C   UNL     1       9.512   7.607   7.805  1.00  0.00     0.031 C 
ATOM     38  C   UNL     1       9.677   5.416   8.955  1.00  0.00     0.034 A 
BRANCH  25  39
ATOM     39  C   UNL     1       7.487  -0.365   8.958  1.00  0.00     0.023 A 
ATOM     40  C   UNL     1       8.160  -1.469   8.398  1.00  0.00     0.012 A 
ATOM     41  C   UNL     1       6.838  -0.513  10.202  1.00  0.00     0.148 A 
ATOM     42  C   UNL     1       8.165  -2.704   9.048  1.00  0.00     0.002 A 
ATOM     43  C   UNL     1       6.884  -1.736  10.864  1.00  0.00     0.091 A 
ATOM     44  F   UNL     1       6.184   0.540  10.712  1.00  0.00    -0.205 F 
ATOM     45  C   UNL     1       7.537  -2.834  10.284  1.00  0.00     0.022 A 
BRANCH  43  46
ATOM     46  S   UNL     1       6.175  -1.977  12.498  1.00  0.00     0.127 S 
ATOM     47  O   UNL     1       4.988  -2.773  12.190  1.00  0.00    -0.237 OA
ATOM     48  O   UNL     1       7.236  -2.709  13.191  1.00  0.00    -0.237 OA
ATOM     49  O   UNL     1       5.918  -0.643  13.024  1.00  0.00    -0.744 OA
ENDBRANCH  43  46
ENDBRANCH  25  39
BRANCH  26  50
ATOM     50  C   UNL     1       7.230   8.534   4.368  1.00  0.00     0.023 A 
ATOM     51  C   UNL     1       8.382   9.019   3.722  1.00  0.00     0.012 A 
ATOM     52  C   UNL     1       6.036   9.277   4.296  1.00  0.00     0.148 A 
ATOM     53  C   UNL     1       8.351  10.231   3.032  1.00  0.00     0.002 A 
ATOM     54  C   UNL     1       5.994  10.449   3.552  1.00  0.00     0.091 A 
ATOM     55  F   UNL     1       4.953   8.806   4.931  1.00  0.00    -0.205 F 
ATOM     56  C   UNL     1       7.155  10.938   2.934  1.00  0.00     0.022 A 
BRANCH  54  57
ATOM     57  S   UNL     1       4.459  11.328   3.242  1.00  0.00     0.127 S 
ATOM     58  O   UNL     1       4.598  12.490   4.115  1.00  0.00    -0.237 OA
ATOM     59  O   UNL     1       4.556  11.616   1.810  1.00  0.00    -0.237 OA
ATOM     60  O   UNL     1       3.398  10.392   3.590  1.00  0.00    -0.744 OA
ENDBRANCH  54  57
ENDBRANCH  26  50
BRANCH  38  61
ATOM     61  C   UNL     1      10.639   6.051   9.922  1.00  0.00     0.023 A 
ATOM     62  C   UNL     1      10.166   6.972  10.878  1.00  0.00     0.012 A 
ATOM     63  C   UNL     1      12.002   5.702   9.910  1.00  0.00     0.148 A 
ATOM     64  C   UNL     1      11.044   7.567  11.781  1.00  0.00     0.002 A 
ATOM     65  C   UNL     1      12.863   6.262  10.846  1.00  0.00     0.091 A 
ATOM     66  F   UNL     1      12.437   4.843   8.977  1.00  0.00    -0.205 F 
ATOM     67  C   UNL     1      12.389   7.204  11.773  1.00  0.00     0.022 A 
BRANCH  65  68
ATOM     68  S   UNL     1      14.588   5.777  10.964  1.00  0.00     0.127 S 
ATOM     69  O   UNL     1      15.261   6.912  10.335  1.00  0.00    -0.237 OA
ATOM     70  O   UNL     1      14.787   5.676  12.411  1.00  0.00    -0.237 OA
ATOM     71  O   UNL     1      14.694   4.510  10.254  1.00  0.00    -0.744 OA
ENDBRANCH  65  68
ENDBRANCH  38  61
ENDBRANCH  12  13
ENDBRANCH   5   7
ENDBRANCH   2   3
ENDBRANCH   1   2
BRANCH   1  72
ATOM     72  C   UNL     1       5.257  -3.009  -0.878  1.00  0.00     0.118 C 
BRANCH  72  73
ATOM     73  N   UNL     1       6.157  -2.824  -1.996  1.00  0.00    -0.351 N 
ATOM     74  C   UNL     1       6.758  -3.743  -2.801  1.00  0.00     0.262 C 
ATOM     75  H   UNL     1       6.369  -1.886  -2.208  1.00  0.00     0.163 HD
ATOM     76  O   UNL     1       7.580  -3.303  -3.611  1.00  0.00    -0.268 OA
BRANCH  74  77
ATOM     77  C   UNL     1       6.501  -5.151  -2.631  1.00  0.00     0.112 A 
ATOM     78  S   UNL     1       7.941  -6.100  -2.447  1.00  0.00    -0.137 S 
ATOM     79  C   UNL     1       5.368  -5.950  -2.634  1.00  0.00     0.111 A 
ATOM     80  C   UNL     1       7.072  -7.550  -2.314  1.00  0.00     0.067 A 
ATOM     81  C   UNL     1       5.720  -7.336  -2.414  1.00  0.00     0.035 A 
BRANCH  79  82
ATOM     82  S   UNL     1       3.686  -5.535  -2.761  1.00  0.00     0.263 S 
ATOM     83  O   UNL     1       3.082  -6.749  -3.283  1.00  0.00    -0.201 OA
ATOM     84  O   UNL     1       3.349  -5.159  -1.403  1.00  0.00    -0.201 OA
BRANCH  82  85
ATOM     85  N   UNL     1       3.110  -4.301  -3.733  1.00  0.00    -0.277 N 
ATOM     86  H   UNL     1       2.134  -4.225  -3.837  1.00  0.00     0.180 HD
BRANCH  85  87
ATOM     87  C   UNL     1       3.919  -3.350  -4.423  1.00  0.00     0.072 A 
ATOM     88  C   UNL     1       3.717  -1.998  -4.102  1.00  0.00     0.029 A 
ATOM     89  C   UNL     1       4.830  -3.718  -5.434  1.00  0.00     0.061 A 
ATOM     90  C   UNL     1       4.482  -0.999  -4.700  1.00  0.00     0.002 A 
ATOM     91  C   UNL     1       5.602  -2.689  -6.006  1.00  0.00     0.028 A 
ATOM     92  C   UNL     1       5.442  -1.349  -5.638  1.00  0.00     0.002 A 
BRANCH  89  93
ATOM     93  N   UNL     1       4.943  -5.007  -5.928  1.00  0.00    -0.370 N 
ATOM     94  C   UNL     1       6.239  -5.675  -6.006  1.00  0.00     0.116 C 
ATOM     95  C   UNL     1       3.745  -5.736  -6.342  1.00  0.00     0.116 C 
ATOM     96  C   UNL     1       6.437  -6.319  -7.371  1.00  0.00     0.021 C 
ATOM     97  C   UNL     1       3.961  -6.365  -7.716  1.00  0.00     0.021 C 
ATOM     98  C   UNL     1       5.242  -7.194  -7.739  1.00  0.00     0.004 C 
ENDBRANCH  89  93
ENDBRANCH  85  87
ENDBRANCH  82  85
ENDBRANCH  79  82
ENDBRANCH  74  77
ENDBRANCH  72  73
ENDBRANCH   1  72
TORSDOF 17
