REMARK SMILES C/C=C/C=C/C(=O)N[C@@](C)(C(=O)NCCCNC(=O)c1ccc(-c2c3nc(c(-c4cccc(S(=O)(=O)[O-])c4F)c4ccc([nH]4)c(-c4cccc(S(=O)(=O)[O-])c4F)c4nc(c(-c5cccc(S(=O)(=O)[O-])c5F)c5ccc2[nH]5)C=C4)C=C3)cc1)C(F)(F)F
REMARK SMILES IDX 15 1 14 2 13 3 11 4 12 5 9 7 10 8 8 9 6 10 7 11 5 13 4 14
REMARK SMILES IDX 3 15 1 16 2 17 83 18 84 19 85 20 86 21 16 22 17 23 18 24
REMARK SMILES IDX 19 26 20 27 21 28 82 29 22 30 81 31 23 32 24 33 25 34 75 35
REMARK SMILES IDX 26 36 80 37 74 38 76 39 27 40 79 41 73 42 72 43 28 45 60 46
REMARK SMILES IDX 40 47 59 48 41 49 44 50 58 51 77 52 42 53 43 54 57 56 78 57
REMARK SMILES IDX 45 58 29 59 30 60 38 61 31 62 33 63 39 64 32 65 34 66 35 67
REMARK SMILES IDX 36 68 37 69 61 70 62 71 70 72 63 73 65 74 71 75 64 76 66 77
REMARK SMILES IDX 67 78 68 79 69 80 46 81 47 82 55 83 48 84 50 85 56 86 49 87
REMARK SMILES IDX 51 88 52 89 53 90 54 91
REMARK H PARENT 13 6 8 12 17 25 76 44 44 55
REMARK Flexibility Score: inf
ROOT
ATOM      1  C   UNL     1      -3.256  -4.417   7.894  1.00  0.00     0.042 C 
ENDROOT
BRANCH   1   2
ATOM      2  C   UNL     1      -1.881  -4.405   7.245  1.00  0.00     0.117 C 
BRANCH   2   3
ATOM      3  N   UNL     1      -1.972  -4.611   5.812  1.00  0.00    -0.354 N 
ATOM      4  C   UNL     1      -1.546  -3.911   4.732  1.00  0.00     0.254 C 
ATOM      5  O   UNL     1      -2.055  -4.277   3.667  1.00  0.00    -0.272 OA
ATOM      6  H   UNL     1      -2.446  -5.439   5.572  1.00  0.00     0.163 HD
BRANCH   4   7
ATOM      7  C   UNL     1      -0.570  -2.720   4.815  1.00  0.00     0.212 C 
ATOM      8  C   UNL     1       0.641  -2.984   5.736  1.00  0.00     0.056 C 
BRANCH   7   9
ATOM      9  N   UNL     1      -1.334  -1.568   5.419  1.00  0.00    -0.331 N 
ATOM     10  C   UNL     1      -1.865  -0.369   5.096  1.00  0.00     0.245 C 
ATOM     11  O   UNL     1      -2.587   0.165   5.939  1.00  0.00    -0.270 OA
ATOM     12  H   UNL     1      -1.504  -1.753   6.371  1.00  0.00     0.165 HD
BRANCH  10  13
ATOM     13  C   UNL     1      -1.679   0.319   3.811  1.00  0.00     0.071 C 
ATOM     14  C   UNL     1      -0.500   0.404   3.193  1.00  0.00     0.005 C 
BRANCH  14  15
ATOM     15  C   UNL     1      -0.302   0.954   1.873  1.00  0.00    -0.004 C 
ATOM     16  C   UNL     1       0.848   0.758  -0.371  1.00  0.00     0.035 C 
ATOM     17  C   UNL     1       0.522   0.328   1.016  1.00  0.00    -0.030 C 
ENDBRANCH  14  15
ENDBRANCH  10  13
ENDBRANCH   7   9
BRANCH   7  18
ATOM     18  C   UNL     1       0.024  -2.694   3.381  1.00  0.00     0.420 C 
ATOM     19  F   UNL     1      -0.826  -2.278   2.426  1.00  0.00    -0.168 F 
ATOM     20  F   UNL     1       1.133  -1.909   3.326  1.00  0.00    -0.168 F 
ATOM     21  F   UNL     1       0.481  -3.925   3.015  1.00  0.00    -0.168 F 
ENDBRANCH   7  18
ENDBRANCH   4   7
ENDBRANCH   2   3
ENDBRANCH   1   2
BRANCH   1  22
ATOM     22  C   UNL     1      -4.079  -5.666   7.612  1.00  0.00     0.118 C 
BRANCH  22  23
ATOM     23  N   UNL     1      -3.420  -6.891   8.044  1.00  0.00    -0.352 N 
ATOM     24  C   UNL     1      -3.809  -7.803   9.000  1.00  0.00     0.251 C 
ATOM     25  H   UNL     1      -2.574  -7.098   7.586  1.00  0.00     0.163 HD
ATOM     26  O   UNL     1      -3.037  -8.681   9.355  1.00  0.00    -0.269 OA
BRANCH  24  27
ATOM     27  C   UNL     1      -5.153  -7.690   9.608  1.00  0.00     0.039 A 
ATOM     28  C   UNL     1      -5.282  -7.814  10.993  1.00  0.00     0.014 A 
ATOM     29  C   UNL     1      -6.275  -7.436   8.816  1.00  0.00     0.014 A 
ATOM     30  C   UNL     1      -6.529  -7.606  11.588  1.00  0.00     0.010 A 
ATOM     31  C   UNL     1      -7.488  -7.125   9.419  1.00  0.00     0.010 A 
ATOM     32  C   UNL     1      -7.633  -7.218  10.811  1.00  0.00    -0.014 A 
BRANCH  32  33
ATOM     33  C   UNL     1      -8.945  -6.901  11.433  1.00  0.00     0.031 A 
ATOM     34  C   UNL     1     -10.173  -7.686  11.050  1.00  0.00     0.074 A 
ATOM     35  C   UNL     1      -9.050  -5.848  12.269  1.00  0.00     0.049 A 
ATOM     36  N   UNL     1     -11.409  -7.519  11.441  1.00  0.00    -0.248 NA
ATOM     37  C   UNL     1      -9.998  -8.780  10.079  1.00  0.00     0.031 C 
ATOM     38  C   UNL     1      -7.955  -4.948  12.643  1.00  0.00     0.029 A 
ATOM     39  N   UNL     1     -10.138  -5.333  12.931  1.00  0.00    -0.354 N 
ATOM     40  C   UNL     1     -12.161  -8.447  10.729  1.00  0.00     0.074 A 
ATOM     41  C   UNL     1     -11.249  -9.160   9.865  1.00  0.00     0.031 C 
ATOM     42  C   UNL     1      -8.425  -3.996  13.464  1.00  0.00     0.029 A 
ATOM     43  C   UNL     1      -9.859  -4.192  13.650  1.00  0.00     0.049 A 
ATOM     44  H   UNL     1     -11.033  -5.741  12.895  1.00  0.00     0.167 HD
ATOM     45  C   UNL     1     -13.489  -8.698  10.806  1.00  0.00     0.034 A 
ATOM     46  C   UNL     1     -10.669  -3.385  14.363  1.00  0.00     0.034 A 
ATOM     47  C   UNL     1     -14.383  -8.029  11.709  1.00  0.00     0.049 A 
ATOM     48  C   UNL     1     -12.129  -3.733  14.479  1.00  0.00     0.074 A 
ATOM     49  C   UNL     1     -15.717  -8.301  11.952  1.00  0.00     0.029 A 
ATOM     50  N   UNL     1     -14.042  -6.947  12.504  1.00  0.00    -0.354 N 
ATOM     51  N   UNL     1     -12.782  -4.737  13.947  1.00  0.00    -0.248 NA
ATOM     52  C   UNL     1     -12.957  -2.861  15.325  1.00  0.00     0.031 C 
ATOM     53  C   UNL     1     -16.195  -7.356  12.864  1.00  0.00     0.029 A 
ATOM     54  C   UNL     1     -15.147  -6.525  13.222  1.00  0.00     0.049 A 
ATOM     55  H   UNL     1     -13.148  -6.539  12.550  1.00  0.00     0.167 HD
ATOM     56  C   UNL     1     -14.085  -4.639  14.422  1.00  0.00     0.074 A 
ATOM     57  C   UNL     1     -14.122  -3.493  15.306  1.00  0.00     0.031 C 
ATOM     58  C   UNL     1     -15.158  -5.418  14.141  1.00  0.00     0.034 A 
BRANCH  45  59
ATOM     59  C   UNL     1     -14.063  -9.772   9.920  1.00  0.00     0.023 A 
ATOM     60  C   UNL     1     -13.791 -11.128  10.191  1.00  0.00     0.012 A 
ATOM     61  C   UNL     1     -14.957  -9.438   8.883  1.00  0.00     0.148 A 
ATOM     62  C   UNL     1     -14.382 -12.135   9.429  1.00  0.00     0.002 A 
ATOM     63  C   UNL     1     -15.579 -10.448   8.161  1.00  0.00     0.091 A 
ATOM     64  F   UNL     1     -15.186  -8.142   8.630  1.00  0.00    -0.205 F 
ATOM     65  C   UNL     1     -15.286 -11.796   8.425  1.00  0.00     0.022 A 
BRANCH  63  66
ATOM     66  S   UNL     1     -16.825 -10.120   6.909  1.00  0.00     0.127 S 
ATOM     67  O   UNL     1     -16.148 -10.576   5.695  1.00  0.00    -0.237 OA
ATOM     68  O   UNL     1     -17.930 -10.973   7.348  1.00  0.00    -0.237 OA
ATOM     69  O   UNL     1     -17.093  -8.691   6.969  1.00  0.00    -0.744 OA
ENDBRANCH  63  66
ENDBRANCH  45  59
BRANCH  46  70
ATOM     70  C   UNL     1     -10.118  -2.183  15.053  1.00  0.00     0.023 A 
ATOM     71  C   UNL     1     -10.086  -2.138  16.461  1.00  0.00     0.012 A 
ATOM     72  C   UNL     1      -9.635  -1.081  14.322  1.00  0.00     0.148 A 
ATOM     73  C   UNL     1      -9.630  -0.999  17.127  1.00  0.00     0.002 A 
ATOM     74  C   UNL     1      -9.124   0.025  14.991  1.00  0.00     0.091 A 
ATOM     75  F   UNL     1      -9.684  -1.136  12.983  1.00  0.00    -0.205 F 
ATOM     76  C   UNL     1      -9.141   0.078  16.392  1.00  0.00     0.022 A 
BRANCH  74  77
ATOM     77  S   UNL     1      -8.350   1.394  14.124  1.00  0.00     0.127 S 
ATOM     78  O   UNL     1      -9.361   2.440  14.254  1.00  0.00    -0.237 OA
ATOM     79  O   UNL     1      -7.137   1.606  14.915  1.00  0.00    -0.237 OA
ATOM     80  O   UNL     1      -8.104   0.909  12.773  1.00  0.00    -0.744 OA
ENDBRANCH  74  77
ENDBRANCH  46  70
BRANCH  58  81
ATOM     81  C   UNL     1     -16.457  -5.097  14.831  1.00  0.00     0.023 A 
ATOM     82  C   UNL     1     -17.183  -3.945  14.470  1.00  0.00     0.012 A 
ATOM     83  C   UNL     1     -16.994  -5.984  15.786  1.00  0.00     0.148 A 
ATOM     84  C   UNL     1     -18.406  -3.661  15.078  1.00  0.00     0.002 A 
ATOM     85  C   UNL     1     -18.238  -5.722  16.346  1.00  0.00     0.091 A 
ATOM     86  F   UNL     1     -16.279  -7.066  16.127  1.00  0.00    -0.205 F 
ATOM     87  C   UNL     1     -18.938  -4.554  16.005  1.00  0.00     0.022 A 
BRANCH  85  88
ATOM     88  S   UNL     1     -19.046  -6.867  17.469  1.00  0.00     0.127 S 
ATOM     89  O   UNL     1     -18.952  -6.153  18.741  1.00  0.00    -0.237 OA
ATOM     90  O   UNL     1     -20.397  -6.946  16.911  1.00  0.00    -0.237 OA
ATOM     91  O   UNL     1     -18.288  -8.109  17.393  1.00  0.00    -0.744 OA
ENDBRANCH  85  88
ENDBRANCH  58  81
ENDBRANCH  32  33
ENDBRANCH  24  27
ENDBRANCH  22  23
ENDBRANCH   1  22
TORSDOF 17
