REMARK SMILES Cc1c(I)c(C(=O)NCCCNC(=O)c2ccc(-c3c4nc(c(-c5cccc(S(=O)(=O)[O-])c5F)c5ccc([nH]5)c(-c5cccc(S(=O)(=O)[O-])c5F)c5nc(c(-c6cccc(S(=O)(=O)[O-])c6F)c6ccc3[nH]6)C=C5)C=C4)cc2)nn1C(F)F
REMARK SMILES IDX 11 1 10 2 9 3 8 4 6 5 7 6 5 8 1 9 2 10 3 11 79 12 4 13 78 14
REMARK SMILES IDX 80 15 81 16 82 17 12 18 13 19 14 21 15 22 16 23 77 24 17 25
REMARK SMILES IDX 76 26 18 27 19 28 20 29 70 30 21 31 75 32 69 33 71 34 22 35
REMARK SMILES IDX 74 36 68 37 67 38 23 40 55 41 35 42 54 43 36 44 39 45 53 46
REMARK SMILES IDX 72 47 37 48 38 49 52 51 73 52 40 53 24 54 25 55 33 56 26 57
REMARK SMILES IDX 28 58 34 59 27 60 29 61 30 62 31 63 32 64 56 65 57 66 65 67
REMARK SMILES IDX 58 68 60 69 66 70 59 71 61 72 62 73 63 74 64 75 41 76 42 77
REMARK SMILES IDX 50 78 43 79 45 80 51 81 44 82 46 83 47 84 48 85 49 86
REMARK H PARENT 8 7 12 20 71 39 39 50
REMARK Flexibility Score: inf
ROOT
ATOM      1  C   UNL     1      -3.076  -5.536   5.006  1.00  0.00     0.118 C 
ENDROOT
BRANCH   1   2
ATOM      2  C   UNL     1      -2.447  -4.245   4.496  1.00  0.00     0.042 C 
BRANCH   2   3
ATOM      3  C   UNL     1      -0.917  -4.313   4.508  1.00  0.00     0.118 C 
BRANCH   3   4
ATOM      4  N   UNL     1      -0.374  -5.097   3.409  1.00  0.00    -0.351 N 
ATOM      5  C   UNL     1       0.142  -4.706   2.190  1.00  0.00     0.272 C 
ATOM      6  O   UNL     1       0.656  -5.594   1.508  1.00  0.00    -0.267 OA
ATOM      7  H   UNL     1      -0.375  -6.069   3.561  1.00  0.00     0.163 HD
BRANCH   5   8
ATOM      8  C   UNL     1       0.111  -3.291   1.759  1.00  0.00     0.163 A 
ATOM      9  C   UNL     1       0.980  -0.218  -0.159  1.00  0.00     0.068 C 
ATOM     10  C   UNL     1       0.505  -1.329   0.709  1.00  0.00     0.056 A 
ATOM     11  C   UNL     1       0.777  -2.684   0.659  1.00  0.00     0.067 A 
ATOM     12  N   UNL     1      -0.334  -1.183   1.792  1.00  0.00    -0.207 N 
ATOM     13  I   UNL     1       1.978  -3.555  -0.739  1.00  0.00    -0.040 I 
ATOM     14  N   UNL     1      -0.603  -2.353   2.409  1.00  0.00    -0.161 NA
BRANCH  12  15
ATOM     15  C   UNL     1      -0.881   0.047   2.366  1.00  0.00     0.465 C 
ATOM     16  F   UNL     1      -2.214  -0.051   2.622  1.00  0.00    -0.184 F 
ATOM     17  F   UNL     1      -0.274   0.353   3.547  1.00  0.00    -0.184 F 
ENDBRANCH  12  15
ENDBRANCH   5   8
ENDBRANCH   3   4
ENDBRANCH   2   3
ENDBRANCH   1   2
BRANCH   1  18
ATOM     18  N   UNL     1      -2.833  -5.751   6.436  1.00  0.00    -0.352 N 
ATOM     19  C   UNL     1      -3.184  -6.830   7.228  1.00  0.00     0.251 C 
ATOM     20  H   UNL     1      -2.354  -5.026   6.898  1.00  0.00     0.163 HD
ATOM     21  O   UNL     1      -3.185  -6.730   8.443  1.00  0.00    -0.269 OA
BRANCH  19  22
ATOM     22  C   UNL     1      -3.581  -8.095   6.577  1.00  0.00     0.039 A 
ATOM     23  C   UNL     1      -4.663  -8.831   7.061  1.00  0.00     0.014 A 
ATOM     24  C   UNL     1      -2.894  -8.514   5.442  1.00  0.00     0.014 A 
ATOM     25  C   UNL     1      -5.110  -9.926   6.327  1.00  0.00     0.010 A 
ATOM     26  C   UNL     1      -3.433  -9.491   4.637  1.00  0.00     0.010 A 
ATOM     27  C   UNL     1      -4.521 -10.229   5.085  1.00  0.00    -0.014 A 
BRANCH  27  28
ATOM     28  C   UNL     1      -5.131 -11.234   4.213  1.00  0.00     0.031 A 
ATOM     29  C   UNL     1      -6.609 -11.121   4.088  1.00  0.00     0.074 A 
ATOM     30  C   UNL     1      -4.456 -12.122   3.449  1.00  0.00     0.049 A 
ATOM     31  N   UNL     1      -7.489 -11.880   4.653  1.00  0.00    -0.248 NA
ATOM     32  C   UNL     1      -7.179  -9.953   3.402  1.00  0.00     0.031 C 
ATOM     33  C   UNL     1      -3.009 -12.205   3.212  1.00  0.00     0.029 A 
ATOM     34  N   UNL     1      -4.949 -13.085   2.617  1.00  0.00    -0.354 N 
ATOM     35  C   UNL     1      -8.720 -11.445   4.173  1.00  0.00     0.074 A 
ATOM     36  C   UNL     1      -8.487 -10.147   3.594  1.00  0.00     0.031 C 
ATOM     37  C   UNL     1      -2.771 -12.972   2.126  1.00  0.00     0.029 A 
ATOM     38  C   UNL     1      -4.016 -13.590   1.717  1.00  0.00     0.049 A 
ATOM     39  H   UNL     1      -5.883 -13.395   2.651  1.00  0.00     0.167 HD
ATOM     40  C   UNL     1      -9.760 -12.314   4.044  1.00  0.00     0.034 A 
ATOM     41  C   UNL     1      -4.247 -14.453   0.701  1.00  0.00     0.034 A 
ATOM     42  C   UNL     1      -9.505 -13.546   4.753  1.00  0.00     0.049 A 
ATOM     43  C   UNL     1      -5.480 -15.194   1.036  1.00  0.00     0.074 A 
ATOM     44  C   UNL     1      -9.217 -13.902   6.055  1.00  0.00     0.029 A 
ATOM     45  N   UNL     1      -9.147 -14.621   3.976  1.00  0.00    -0.354 N 
ATOM     46  N   UNL     1      -5.563 -16.043   2.020  1.00  0.00    -0.248 NA
ATOM     47  C   UNL     1      -6.747 -14.729   0.500  1.00  0.00     0.031 C 
ATOM     48  C   UNL     1      -8.298 -14.990   5.949  1.00  0.00     0.029 A 
ATOM     49  C   UNL     1      -8.122 -15.282   4.594  1.00  0.00     0.049 A 
ATOM     50  H   UNL     1      -9.559 -14.873   3.119  1.00  0.00     0.167 HD
ATOM     51  C   UNL     1      -6.834 -15.839   2.536  1.00  0.00     0.074 A 
ATOM     52  C   UNL     1      -7.560 -15.153   1.470  1.00  0.00     0.031 C 
ATOM     53  C   UNL     1      -7.075 -15.977   3.874  1.00  0.00     0.034 A 
BRANCH  40  54
ATOM     54  C   UNL     1     -10.809 -12.257   2.951  1.00  0.00     0.023 A 
ATOM     55  C   UNL     1     -11.883 -13.174   3.042  1.00  0.00     0.012 A 
ATOM     56  C   UNL     1     -10.646 -11.589   1.716  1.00  0.00     0.148 A 
ATOM     57  C   UNL     1     -12.703 -13.462   1.945  1.00  0.00     0.002 A 
ATOM     58  C   UNL     1     -11.514 -11.818   0.653  1.00  0.00     0.091 A 
ATOM     59  F   UNL     1      -9.571 -10.829   1.499  1.00  0.00    -0.205 F 
ATOM     60  C   UNL     1     -12.521 -12.779   0.750  1.00  0.00     0.022 A 
BRANCH  58  61
ATOM     61  S   UNL     1     -11.356 -10.925  -0.899  1.00  0.00     0.127 S 
ATOM     62  O   UNL     1     -10.810 -11.958  -1.773  1.00  0.00    -0.237 OA
ATOM     63  O   UNL     1     -12.744 -10.550  -1.169  1.00  0.00    -0.237 OA
ATOM     64  O   UNL     1     -10.480  -9.796  -0.611  1.00  0.00    -0.744 OA
ENDBRANCH  58  61
ENDBRANCH  40  54
BRANCH  41  65
ATOM     65  C   UNL     1      -3.589 -14.592  -0.615  1.00  0.00     0.023 A 
ATOM     66  C   UNL     1      -3.717 -15.800  -1.331  1.00  0.00     0.012 A 
ATOM     67  C   UNL     1      -3.111 -13.454  -1.300  1.00  0.00     0.148 A 
ATOM     68  C   UNL     1      -3.433 -15.859  -2.699  1.00  0.00     0.002 A 
ATOM     69  C   UNL     1      -2.831 -13.518  -2.662  1.00  0.00     0.091 A 
ATOM     70  F   UNL     1      -3.023 -12.294  -0.636  1.00  0.00    -0.205 F 
ATOM     71  C   UNL     1      -3.006 -14.716  -3.368  1.00  0.00     0.022 A 
BRANCH  69  72
ATOM     72  S   UNL     1      -2.312 -12.078  -3.606  1.00  0.00     0.127 S 
ATOM     73  O   UNL     1      -1.145 -12.592  -4.323  1.00  0.00    -0.237 OA
ATOM     74  O   UNL     1      -3.483 -11.829  -4.443  1.00  0.00    -0.237 OA
ATOM     75  O   UNL     1      -2.007 -11.047  -2.623  1.00  0.00    -0.744 OA
ENDBRANCH  69  72
ENDBRANCH  41  65
BRANCH  53  76
ATOM     76  C   UNL     1      -6.043 -16.707   4.702  1.00  0.00     0.023 A 
ATOM     77  C   UNL     1      -4.705 -16.274   4.816  1.00  0.00     0.012 A 
ATOM     78  C   UNL     1      -6.463 -17.806   5.472  1.00  0.00     0.148 A 
ATOM     79  C   UNL     1      -3.799 -16.949   5.640  1.00  0.00     0.002 A 
ATOM     80  C   UNL     1      -5.572 -18.445   6.326  1.00  0.00     0.091 A 
ATOM     81  F   UNL     1      -7.739 -18.209   5.362  1.00  0.00    -0.205 F 
ATOM     82  C   UNL     1      -4.235 -18.029   6.402  1.00  0.00     0.022 A 
BRANCH  80  83
ATOM     83  S   UNL     1      -6.111 -19.767   7.413  1.00  0.00     0.127 S 
ATOM     84  O   UNL     1      -5.660 -20.957   6.696  1.00  0.00    -0.237 OA
ATOM     85  O   UNL     1      -5.377 -19.483   8.648  1.00  0.00    -0.237 OA
ATOM     86  O   UNL     1      -7.555 -19.613   7.537  1.00  0.00    -0.744 OA
ENDBRANCH  80  83
ENDBRANCH  53  76
ENDBRANCH  27  28
ENDBRANCH  19  22
ENDBRANCH   1  18
TORSDOF 14
