REMARK SMILES O=C(CCCN1C(=O)C(=O)/C(=C(\[O-])c2ccccc2)[C@H]1c1ccc([N+](=O)[O-])cc1)NCCCNC(=O)c1ccc(-c2c3nc(c(-c4cccc(S(=O)(=O)[O-])c4F)c4ccc([nH]4)c(-c4cccc(S(=O)(=O)[O-])c4F)c4nc(c(-c5cccc(S(=O)(=O)[O-])c5F)c5ccc2[nH]5)C=C4)C=C3)cc1
REMARK SMILES IDX 31 1 30 2 1 3 2 4 3 6 4 7 5 8 6 9 7 10 20 11 8 12 9 13 11 14
REMARK SMILES IDX 10 15 12 16 13 17 21 18 22 19 29 20 23 21 28 22 24 23 25 24
REMARK SMILES IDX 26 25 27 26 14 27 15 28 19 29 16 30 18 31 17 32 32 33 33 34
REMARK SMILES IDX 34 35 35 36 36 38 37 39 38 40 99 41 39 42 98 43 40 44 41 45
REMARK SMILES IDX 42 46 92 47 43 48 97 49 91 50 93 51 44 52 96 53 90 54 89 55
REMARK SMILES IDX 45 57 77 58 57 59 76 60 58 61 61 62 75 63 94 64 59 65 60 66
REMARK SMILES IDX 74 68 95 69 62 70 46 71 47 72 55 73 48 74 50 75 56 76 49 77
REMARK SMILES IDX 51 78 52 79 53 80 54 81 78 82 79 83 87 84 80 85 82 86 88 87
REMARK SMILES IDX 81 88 83 89 84 90 85 91 86 92 63 93 64 94 72 95 65 96 67 97
REMARK SMILES IDX 73 98 66 99 68 100 69 101 70 102 71 103
REMARK H PARENT 30 5 34 37 93 56 61 67
REMARK Flexibility Score: inf
ROOT
ATOM      1  C   UNL     1       1.904   2.500  -1.036  1.00  0.00     0.117 C 
ENDROOT
BRANCH   1   2
ATOM      2  N   UNL     1       2.555   1.407  -0.343  1.00  0.00    -0.356 N 
ATOM      3  O   UNL     1       0.945  -0.146  -0.868  1.00  0.00    -0.275 OA
ATOM      4  C   UNL     1       2.015   0.143  -0.340  1.00  0.00     0.220 C 
ATOM      5  H   UNL     1       3.399   1.573   0.135  1.00  0.00     0.163 HD
BRANCH   4   6
ATOM      6  C   UNL     1       2.874  -0.917   0.310  1.00  0.00     0.102 C 
BRANCH   6   7
ATOM      7  C   UNL     1       3.802  -1.567  -0.712  1.00  0.00     0.031 C 
BRANCH   7   8
ATOM      8  C   UNL     1       5.115  -0.829  -0.959  1.00  0.00     0.121 C 
BRANCH   8   9
ATOM      9  N   UNL     1       5.904  -0.496   0.221  1.00  0.00    -0.325 N 
ATOM     10  C   UNL     1       6.014   0.810   0.648  1.00  0.00     0.295 C 
ATOM     11  C   UNL     1       6.875  -1.394   0.851  1.00  0.00     0.150 C 
ATOM     12  O   UNL     1       5.281   1.736   0.390  1.00  0.00    -0.265 OA
ATOM     13  C   UNL     1       7.302   0.902   1.455  1.00  0.00     0.248 C 
ATOM     14  C   UNL     1       7.870  -0.460   1.510  1.00  0.00     0.025 C 
ATOM     15  O   UNL     1       7.779   1.904   1.939  1.00  0.00    -0.283 OA
ATOM     16  C   UNL     1       9.039  -0.704   2.124  1.00  0.00    -0.092 C 
ATOM     17  O   UNL     1       9.816   0.269   2.719  1.00  0.00    -0.872 OA
BRANCH  11  18
ATOM     18  C   UNL     1       6.202  -2.376   1.807  1.00  0.00    -0.020 A 
ATOM     19  C   UNL     1       6.047  -2.114   3.183  1.00  0.00     0.013 A 
ATOM     20  C   UNL     1       5.720  -3.600   1.308  1.00  0.00     0.013 A 
ATOM     21  C   UNL     1       5.458  -3.052   4.037  1.00  0.00     0.086 A 
ATOM     22  C   UNL     1       5.083  -4.523   2.144  1.00  0.00     0.086 A 
ATOM     23  C   UNL     1       4.969  -4.249   3.509  1.00  0.00     0.269 A 
BRANCH  23  24
ATOM     24  N   UNL     1       4.338  -5.230   4.394  1.00  0.00     0.062 N 
ATOM     25  O   UNL     1       4.585  -5.157   5.606  1.00  0.00    -0.258 OA
ATOM     26  O   UNL     1       3.602  -6.081   3.874  1.00  0.00    -0.258 OA
ENDBRANCH  23  24
ENDBRANCH  11  18
BRANCH  16  27
ATOM     27  C   UNL     1       9.520  -2.072   2.364  1.00  0.00    -0.033 A 
ATOM     28  C   UNL     1       9.632  -2.515   3.689  1.00  0.00     0.007 A 
ATOM     29  C   UNL     1       9.800  -2.963   1.321  1.00  0.00     0.007 A 
ATOM     30  C   UNL     1       9.966  -3.840   3.970  1.00  0.00     0.001 A 
ATOM     31  C   UNL     1      10.134  -4.290   1.603  1.00  0.00     0.001 A 
ATOM     32  C   UNL     1      10.205  -4.729   2.925  1.00  0.00     0.000 A 
ENDBRANCH  16  27
ENDBRANCH   8   9
ENDBRANCH   7   8
ENDBRANCH   6   7
ENDBRANCH   4   6
ENDBRANCH   1   2
BRANCH   1  33
ATOM     33  C   UNL     1       2.066   3.853  -0.352  1.00  0.00     0.042 C 
BRANCH  33  34
ATOM     34  C   UNL     1       3.482   4.418  -0.305  1.00  0.00     0.118 C 
BRANCH  34  35
ATOM     35  N   UNL     1       4.115   4.565  -1.606  1.00  0.00    -0.352 N 
ATOM     36  C   UNL     1       5.050   5.489  -2.006  1.00  0.00     0.251 C 
ATOM     37  H   UNL     1       3.836   3.915  -2.292  1.00  0.00     0.163 HD
ATOM     38  O   UNL     1       5.438   5.497  -3.172  1.00  0.00    -0.269 OA
BRANCH  36  39
ATOM     39  C   UNL     1       5.561   6.498  -1.050  1.00  0.00     0.039 A 
ATOM     40  C   UNL     1       5.621   7.833  -1.460  1.00  0.00     0.014 A 
ATOM     41  C   UNL     1       5.987   6.144   0.234  1.00  0.00     0.014 A 
ATOM     42  C   UNL     1       6.062   8.816  -0.570  1.00  0.00     0.010 A 
ATOM     43  C   UNL     1       6.368   7.135   1.140  1.00  0.00     0.010 A 
ATOM     44  C   UNL     1       6.420   8.480   0.746  1.00  0.00    -0.014 A 
BRANCH  44  45
ATOM     45  C   UNL     1       6.847   9.536   1.703  1.00  0.00     0.031 A 
ATOM     46  C   UNL     1       8.256   9.569   2.234  1.00  0.00     0.074 A 
ATOM     47  C   UNL     1       5.954  10.451   2.130  1.00  0.00     0.049 A 
ATOM     48  N   UNL     1       8.818  10.450   3.022  1.00  0.00    -0.248 NA
ATOM     49  C   UNL     1       9.144   8.459   1.849  1.00  0.00     0.031 C 
ATOM     50  C   UNL     1       4.534  10.478   1.771  1.00  0.00     0.029 A 
ATOM     51  N   UNL     1       6.104  11.528   2.968  1.00  0.00    -0.354 N 
ATOM     52  C   UNL     1      10.111   9.992   3.246  1.00  0.00     0.074 A 
ATOM     53  C   UNL     1      10.239   8.734   2.543  1.00  0.00     0.031 C 
ATOM     54  C   UNL     1       3.948  11.526   2.373  1.00  0.00     0.029 A 
ATOM     55  C   UNL     1       4.944  12.241   3.165  1.00  0.00     0.049 A 
ATOM     56  H   UNL     1       6.961  11.768   3.389  1.00  0.00     0.167 HD
ATOM     57  C   UNL     1      11.115  10.579   3.942  1.00  0.00     0.034 A 
ATOM     58  C   UNL     1       4.712  13.356   3.886  1.00  0.00     0.034 A 
ATOM     59  C   UNL     1      11.003  11.851   4.606  1.00  0.00     0.049 A 
ATOM     60  C   UNL     1       5.863  14.032   4.583  1.00  0.00     0.074 A 
ATOM     61  C   UNL     1      11.984  12.566   5.269  1.00  0.00     0.029 A 
ATOM     62  N   UNL     1       9.839  12.598   4.691  1.00  0.00    -0.354 N 
ATOM     63  N   UNL     1       7.124  13.678   4.630  1.00  0.00    -0.248 NA
ATOM     64  C   UNL     1       5.568  15.292   5.284  1.00  0.00     0.031 C 
ATOM     65  C   UNL     1      11.411  13.744   5.763  1.00  0.00     0.029 A 
ATOM     66  C   UNL     1      10.077  13.769   5.392  1.00  0.00     0.049 A 
ATOM     67  H   UNL     1       8.970  12.336   4.309  1.00  0.00     0.167 HD
ATOM     68  C   UNL     1       7.779  14.690   5.323  1.00  0.00     0.074 A 
ATOM     69  C   UNL     1       6.779  15.681   5.661  1.00  0.00     0.031 C 
ATOM     70  C   UNL     1       9.089  14.781   5.663  1.00  0.00     0.034 A 
BRANCH  57  71
ATOM     71  C   UNL     1      12.450   9.882   3.962  1.00  0.00     0.023 A 
ATOM     72  C   UNL     1      13.236   9.866   2.790  1.00  0.00     0.012 A 
ATOM     73  C   UNL     1      12.954   9.295   5.138  1.00  0.00     0.148 A 
ATOM     74  C   UNL     1      14.485   9.248   2.779  1.00  0.00     0.002 A 
ATOM     75  C   UNL     1      14.219   8.717   5.131  1.00  0.00     0.091 A 
ATOM     76  F   UNL     1      12.186   9.300   6.237  1.00  0.00    -0.205 F 
ATOM     77  C   UNL     1      14.980   8.683   3.951  1.00  0.00     0.022 A 
BRANCH  75  78
ATOM     78  S   UNL     1      14.979   8.032   6.608  1.00  0.00     0.127 S 
ATOM     79  O   UNL     1      14.883   6.596   6.351  1.00  0.00    -0.237 OA
ATOM     80  O   UNL     1      16.336   8.574   6.539  1.00  0.00    -0.237 OA
ATOM     81  O   UNL     1      14.188   8.523   7.728  1.00  0.00    -0.744 OA
ENDBRANCH  75  78
ENDBRANCH  57  71
BRANCH  58  82
ATOM     82  C   UNL     1       3.352  13.966   3.896  1.00  0.00     0.023 A 
ATOM     83  C   UNL     1       3.134  15.175   3.206  1.00  0.00     0.012 A 
ATOM     84  C   UNL     1       2.274  13.350   4.559  1.00  0.00     0.148 A 
ATOM     85  C   UNL     1       1.876  15.778   3.205  1.00  0.00     0.002 A 
ATOM     86  C   UNL     1       1.011  13.929   4.511  1.00  0.00     0.091 A 
ATOM     87  F   UNL     1       2.504  12.207   5.221  1.00  0.00    -0.205 F 
ATOM     88  C   UNL     1       0.813  15.151   3.849  1.00  0.00     0.022 A 
BRANCH  86  89
ATOM     89  S   UNL     1      -0.440  13.126   5.203  1.00  0.00     0.127 S 
ATOM     90  O   UNL     1      -0.685  13.930   6.397  1.00  0.00    -0.237 OA
ATOM     91  O   UNL     1      -1.423  13.297   4.133  1.00  0.00    -0.237 OA
ATOM     92  O   UNL     1      -0.046  11.744   5.437  1.00  0.00    -0.744 OA
ENDBRANCH  86  89
ENDBRANCH  58  82
BRANCH  70  93
ATOM     93  C   UNL     1       9.535  16.016   6.403  1.00  0.00     0.023 A 
ATOM     94  C   UNL     1       9.172  16.195   7.753  1.00  0.00     0.012 A 
ATOM     95  C   UNL     1      10.366  16.968   5.779  1.00  0.00     0.148 A 
ATOM     96  C   UNL     1       9.598  17.320   8.458  1.00  0.00     0.002 A 
ATOM     97  C   UNL     1      10.824  18.063   6.503  1.00  0.00     0.091 A 
ATOM     98  F   UNL     1      10.684  16.796   4.488  1.00  0.00    -0.205 F 
ATOM     99  C   UNL     1      10.432  18.247   7.838  1.00  0.00     0.022 A 
BRANCH  97 100
ATOM    100  S   UNL     1      11.977  19.249   5.802  1.00  0.00     0.127 S 
ATOM    101  O   UNL     1      11.087  20.341   5.413  1.00  0.00    -0.237 OA
ATOM    102  O   UNL     1      12.851  19.551   6.937  1.00  0.00    -0.237 OA
ATOM    103  O   UNL     1      12.640  18.552   4.707  1.00  0.00    -0.744 OA
ENDBRANCH  97 100
ENDBRANCH  70  93
ENDBRANCH  44  45
ENDBRANCH  36  39
ENDBRANCH  34  35
ENDBRANCH  33  34
ENDBRANCH   1  33
TORSDOF 19
