REMARK SMILES C[C@@H](c1ccc(F)cc1)N1C[C@H](C(=O)NCCCNC(=O)c2ccc(-c3c4nc(c(-c5cccc(S(=O)(=O)[O-])c5F)c5ccc([nH]5)c(-c5cccc(S(=O)(=O)[O-])c5F)c5nc(c(-c6cccc(S(=O)(=O)[O-])c6F)c6ccc3[nH]6)C=C5)C=C4)cc2)CC1=O
REMARK SMILES IDX 17 1 16 2 15 3 13 4 14 5 12 7 10 8 11 9 86 10 85 11 87 12
REMARK SMILES IDX 2 13 1 14 3 15 4 16 9 17 5 18 8 19 6 20 7 21 18 22 19 23
REMARK SMILES IDX 20 24 21 26 22 27 23 28 84 29 24 30 83 31 25 32 26 33 27 34
REMARK SMILES IDX 77 35 28 36 82 37 76 38 78 39 29 40 81 41 75 42 74 43 30 45
REMARK SMILES IDX 62 46 42 47 61 48 43 49 46 50 60 51 79 52 44 53 45 54 59 56
REMARK SMILES IDX 80 57 47 58 31 59 32 60 40 61 33 62 35 63 41 64 34 65 36 66
REMARK SMILES IDX 37 67 38 68 39 69 63 70 64 71 72 72 65 73 67 74 73 75 66 76
REMARK SMILES IDX 68 77 69 78 70 79 71 80 48 81 49 82 57 83 50 84 52 85 58 86
REMARK SMILES IDX 51 87 53 88 54 89 55 90 56 91
REMARK H PARENT 15 6 19 25 78 44 46 55
REMARK Flexibility Score: inf
ROOT
ATOM      1  C   UNL     1      -6.819   1.717  -1.135  1.00  0.00     0.042 C 
ENDROOT
BRANCH   1   2
ATOM      2  C   UNL     1      -5.987   0.472  -0.853  1.00  0.00     0.117 C 
BRANCH   2   3
ATOM      3  N   UNL     1      -4.782   0.415  -1.660  1.00  0.00    -0.356 N 
ATOM      4  C   UNL     1      -3.476   0.360  -1.274  1.00  0.00     0.225 C 
ATOM      5  O   UNL     1      -2.621   0.220  -2.147  1.00  0.00    -0.275 OA
ATOM      6  H   UNL     1      -4.930   0.416  -2.634  1.00  0.00     0.163 HD
BRANCH   4   7
ATOM      7  C   UNL     1      -3.143   0.428   0.205  1.00  0.00     0.107 C 
ATOM      8  N   UNL     1      -1.018   1.381   0.530  1.00  0.00    -0.335 N 
ATOM      9  C   UNL     1      -1.684   0.100   0.465  1.00  0.00     0.134 C 
ATOM     10  C   UNL     1      -1.921   2.374   0.877  1.00  0.00     0.223 C 
ATOM     11  C   UNL     1      -3.322   1.832   0.768  1.00  0.00     0.115 C 
ATOM     12  O   UNL     1      -1.665   3.503   1.283  1.00  0.00    -0.275 OA
BRANCH   8  13
ATOM     13  C   UNL     1       0.444   1.534   0.590  1.00  0.00     0.112 C 
ATOM     14  C   UNL     1       1.204   0.207   0.425  1.00  0.00     0.036 C 
BRANCH  13  15
ATOM     15  C   UNL     1       0.948   2.603  -0.386  1.00  0.00    -0.026 A 
ATOM     16  C   UNL     1       0.987   3.948   0.031  1.00  0.00     0.009 A 
ATOM     17  C   UNL     1       1.355   2.310  -1.699  1.00  0.00     0.009 A 
ATOM     18  C   UNL     1       1.396   4.966  -0.832  1.00  0.00     0.039 A 
ATOM     19  C   UNL     1       1.797   3.326  -2.554  1.00  0.00     0.039 A 
ATOM     20  C   UNL     1       1.805   4.644  -2.116  1.00  0.00     0.123 A 
ATOM     21  F   UNL     1       2.210   5.615  -2.944  1.00  0.00    -0.207 F 
ENDBRANCH  13  15
ENDBRANCH   8  13
ENDBRANCH   4   7
ENDBRANCH   2   3
ENDBRANCH   1   2
BRANCH   1  22
ATOM     22  C   UNL     1      -7.279   1.866  -2.583  1.00  0.00     0.118 C 
BRANCH  22  23
ATOM     23  N   UNL     1      -8.069   0.736  -3.050  1.00  0.00    -0.352 N 
ATOM     24  C   UNL     1      -9.335   0.689  -3.580  1.00  0.00     0.251 C 
ATOM     25  H   UNL     1      -7.623  -0.139  -2.973  1.00  0.00     0.163 HD
ATOM     26  O   UNL     1      -9.863  -0.406  -3.758  1.00  0.00    -0.269 OA
BRANCH  24  27
ATOM     27  C   UNL     1     -10.073   1.928  -3.917  1.00  0.00     0.039 A 
ATOM     28  C   UNL     1     -11.444   1.979  -3.650  1.00  0.00     0.014 A 
ATOM     29  C   UNL     1      -9.444   3.022  -4.518  1.00  0.00     0.014 A 
ATOM     30  C   UNL     1     -12.165   3.144  -3.925  1.00  0.00     0.010 A 
ATOM     31  C   UNL     1     -10.146   4.211  -4.715  1.00  0.00     0.010 A 
ATOM     32  C   UNL     1     -11.515   4.285  -4.424  1.00  0.00    -0.014 A 
BRANCH  32  33
ATOM     33  C   UNL     1     -12.256   5.561  -4.605  1.00  0.00     0.031 A 
ATOM     34  C   UNL     1     -12.414   6.181  -5.967  1.00  0.00     0.074 A 
ATOM     35  C   UNL     1     -12.748   6.194  -3.519  1.00  0.00     0.049 A 
ATOM     36  N   UNL     1     -13.053   7.272  -6.301  1.00  0.00    -0.248 NA
ATOM     37  C   UNL     1     -11.757   5.505  -7.098  1.00  0.00     0.031 C 
ATOM     38  C   UNL     1     -12.584   5.740  -2.136  1.00  0.00     0.029 A 
ATOM     39  N   UNL     1     -13.473   7.354  -3.402  1.00  0.00    -0.354 N 
ATOM     40  C   UNL     1     -12.857   7.427  -7.668  1.00  0.00     0.074 A 
ATOM     41  C   UNL     1     -12.009   6.339  -8.099  1.00  0.00     0.031 C 
ATOM     42  C   UNL     1     -13.212   6.594  -1.315  1.00  0.00     0.029 A 
ATOM     43  C   UNL     1     -13.799   7.673  -2.103  1.00  0.00     0.049 A 
ATOM     44  H   UNL     1     -13.736   7.905  -4.174  1.00  0.00     0.167 HD
ATOM     45  C   UNL     1     -13.366   8.371  -8.494  1.00  0.00     0.034 A 
ATOM     46  C   UNL     1     -14.496   8.712  -1.600  1.00  0.00     0.034 A 
ATOM     47  C   UNL     1     -14.247   9.424  -8.066  1.00  0.00     0.049 A 
ATOM     48  C   UNL     1     -15.089   9.722  -2.543  1.00  0.00     0.074 A 
ATOM     49  C   UNL     1     -14.887  10.372  -8.845  1.00  0.00     0.029 A 
ATOM     50  N   UNL     1     -14.609   9.672  -6.752  1.00  0.00    -0.354 N 
ATOM     51  N   UNL     1     -15.024   9.758  -3.852  1.00  0.00    -0.248 NA
ATOM     52  C   UNL     1     -15.880  10.812  -1.953  1.00  0.00     0.031 C 
ATOM     53  C   UNL     1     -15.613  11.212  -7.999  1.00  0.00     0.029 A 
ATOM     54  C   UNL     1     -15.455  10.765  -6.697  1.00  0.00     0.049 A 
ATOM     55  H   UNL     1     -14.309   9.149  -5.974  1.00  0.00     0.167 HD
ATOM     56  C   UNL     1     -15.793  10.847  -4.244  1.00  0.00     0.074 A 
ATOM     57  C   UNL     1     -16.323  11.442  -3.035  1.00  0.00     0.031 C 
ATOM     58  C   UNL     1     -16.029  11.313  -5.494  1.00  0.00     0.034 A 
BRANCH  45  59
ATOM     59  C   UNL     1     -13.051   8.281  -9.964  1.00  0.00     0.023 A 
ATOM     60  C   UNL     1     -13.653   7.268 -10.738  1.00  0.00     0.012 A 
ATOM     61  C   UNL     1     -12.264   9.261 -10.601  1.00  0.00     0.148 A 
ATOM     62  C   UNL     1     -13.462   7.220 -12.118  1.00  0.00     0.002 A 
ATOM     63  C   UNL     1     -12.115   9.233 -11.982  1.00  0.00     0.091 A 
ATOM     64  F   UNL     1     -11.687  10.207  -9.845  1.00  0.00    -0.205 F 
ATOM     65  C   UNL     1     -12.706   8.209 -12.741  1.00  0.00     0.022 A 
BRANCH  63  66
ATOM     66  S   UNL     1     -11.238  10.511 -12.892  1.00  0.00     0.127 S 
ATOM     67  O   UNL     1     -10.064   9.780 -13.367  1.00  0.00    -0.237 OA
ATOM     68  O   UNL     1     -12.201  10.861 -13.936  1.00  0.00    -0.237 OA
ATOM     69  O   UNL     1     -10.965  11.572 -11.934  1.00  0.00    -0.744 OA
ENDBRANCH  63  66
ENDBRANCH  45  59
BRANCH  46  70
ATOM     70  C   UNL     1     -14.743   8.783  -0.131  1.00  0.00     0.023 A 
ATOM     71  C   UNL     1     -16.037   8.531   0.365  1.00  0.00     0.012 A 
ATOM     72  C   UNL     1     -13.692   9.014   0.778  1.00  0.00     0.148 A 
ATOM     73  C   UNL     1     -16.284   8.523   1.738  1.00  0.00     0.002 A 
ATOM     74  C   UNL     1     -13.933   8.946   2.146  1.00  0.00     0.091 A 
ATOM     75  F   UNL     1     -12.470   9.261   0.286  1.00  0.00    -0.205 F 
ATOM     76  C   UNL     1     -15.231   8.716   2.628  1.00  0.00     0.022 A 
BRANCH  74  77
ATOM     77  S   UNL     1     -12.613   9.030   3.363  1.00  0.00     0.127 S 
ATOM     78  O   UNL     1     -12.887  10.308   4.014  1.00  0.00    -0.237 OA
ATOM     79  O   UNL     1     -12.885   7.848   4.183  1.00  0.00    -0.237 OA
ATOM     80  O   UNL     1     -11.372   8.960   2.604  1.00  0.00    -0.744 OA
ENDBRANCH  74  77
ENDBRANCH  46  70
BRANCH  58  81
ATOM     81  C   UNL     1     -16.928  12.508  -5.661  1.00  0.00     0.023 A 
ATOM     82  C   UNL     1     -16.439  13.795  -5.365  1.00  0.00     0.012 A 
ATOM     83  C   UNL     1     -18.190  12.367  -6.274  1.00  0.00     0.148 A 
ATOM     84  C   UNL     1     -17.195  14.925  -5.676  1.00  0.00     0.002 A 
ATOM     85  C   UNL     1     -18.915  13.498  -6.625  1.00  0.00     0.091 A 
ATOM     86  F   UNL     1     -18.636  11.129  -6.534  1.00  0.00    -0.205 F 
ATOM     87  C   UNL     1     -18.422  14.778  -6.320  1.00  0.00     0.022 A 
BRANCH  85  88
ATOM     88  S   UNL     1     -20.450  13.415  -7.555  1.00  0.00     0.127 S 
ATOM     89  O   UNL     1     -21.413  13.935  -6.585  1.00  0.00    -0.237 OA
ATOM     90  O   UNL     1     -20.176  14.306  -8.681  1.00  0.00    -0.237 OA
ATOM     91  O   UNL     1     -20.631  12.015  -7.914  1.00  0.00    -0.744 OA
ENDBRANCH  85  88
ENDBRANCH  58  81
ENDBRANCH  32  33
ENDBRANCH  24  27
ENDBRANCH  22  23
ENDBRANCH   1  22
TORSDOF 15
