REMARK SMILES O=C(NCCCNC(=O)c1cc(Cl)ccc1NC(=O)c1ccc2c(c1)C(=O)N(Cc1ccco1)C2=O)c1ccc(-c2c3nc(c(-c4cccc(S(=O)(=O)[O-])c4F)c4ccc([nH]4)c(-c4cccc(S(=O)(=O)[O-])c4F)c4nc(c(-c5cccc(S(=O)(=O)[O-])c5F)c5ccc2[nH]5)C=C4)C=C3)cc1
REMARK SMILES IDX 5 1 4 2 3 3 1 4 2 5 37 7 38 8 99 9 39 10 98 11 40 12 41 13
REMARK SMILES IDX 42 14 92 15 43 16 97 17 91 18 93 19 44 20 96 21 90 22 89 23
REMARK SMILES IDX 45 25 77 26 57 27 76 28 58 29 61 30 75 31 94 32 59 33 60 34
REMARK SMILES IDX 74 36 95 37 62 38 46 39 47 40 55 41 48 42 50 43 56 44 49 45
REMARK SMILES IDX 51 46 52 47 53 48 54 49 78 50 79 51 87 52 80 53 82 54 88 55
REMARK SMILES IDX 81 56 83 57 84 58 85 59 86 60 63 61 64 62 72 63 65 64 67 65
REMARK SMILES IDX 73 66 66 67 68 68 69 69 70 70 71 71 6 72 7 73 8 74 9 76
REMARK SMILES IDX 10 77 11 78 16 79 12 80 15 81 13 82 14 83 17 84 18 85 19 87
REMARK SMILES IDX 20 88 21 89 25 90 22 91 24 92 23 93 26 94 35 95 27 96 28 97
REMARK SMILES IDX 36 98 29 99 30 100 31 101 34 102 32 103 33 104
REMARK H PARENT 3 6 93 24 61 35 7 75 17 86
REMARK Flexibility Score: inf
ROOT
ATOM      1  C   UNL     1       4.946   1.876   1.642  1.00  0.00     0.042 C 
ENDROOT
BRANCH   1   2
ATOM      2  C   UNL     1       4.543   0.456   1.282  1.00  0.00     0.118 C 
BRANCH   2   3
ATOM      3  N   UNL     1       3.104   0.313   1.102  1.00  0.00    -0.352 N 
ATOM      4  O   UNL     1       1.155   0.178  -0.008  1.00  0.00    -0.269 OA
ATOM      5  C   UNL     1       2.376   0.054  -0.035  1.00  0.00     0.251 C 
ATOM      6  H   UNL     1       2.570   0.417   1.923  1.00  0.00     0.163 HD
BRANCH   5   7
ATOM      7  C   UNL     1       3.064  -0.347  -1.281  1.00  0.00     0.039 A 
ATOM      8  C   UNL     1       4.137  -1.238  -1.241  1.00  0.00     0.014 A 
ATOM      9  C   UNL     1       2.622   0.158  -2.506  1.00  0.00     0.014 A 
ATOM     10  C   UNL     1       4.872  -1.491  -2.390  1.00  0.00     0.010 A 
ATOM     11  C   UNL     1       3.293  -0.191  -3.682  1.00  0.00     0.010 A 
ATOM     12  C   UNL     1       4.441  -0.997  -3.630  1.00  0.00    -0.014 A 
BRANCH  12  13
ATOM     13  C   UNL     1       5.141  -1.435  -4.863  1.00  0.00     0.031 A 
ATOM     14  C   UNL     1       5.820  -0.452  -5.773  1.00  0.00     0.074 A 
ATOM     15  C   UNL     1       5.142  -2.750  -5.161  1.00  0.00     0.049 A 
ATOM     16  N   UNL     1       6.461  -0.680  -6.890  1.00  0.00    -0.248 NA
ATOM     17  C   UNL     1       5.771   0.968  -5.391  1.00  0.00     0.031 C 
ATOM     18  C   UNL     1       4.481  -3.792  -4.369  1.00  0.00     0.029 A 
ATOM     19  N   UNL     1       5.700  -3.437  -6.207  1.00  0.00    -0.354 N 
ATOM     20  C   UNL     1       6.852   0.564  -7.370  1.00  0.00     0.074 A 
ATOM     21  C   UNL     1       6.379   1.547  -6.419  1.00  0.00     0.031 C 
ATOM     22  C   UNL     1       4.683  -4.983  -4.947  1.00  0.00     0.029 A 
ATOM     23  C   UNL     1       5.421  -4.784  -6.187  1.00  0.00     0.049 A 
ATOM     24  H   UNL     1       6.247  -3.009  -6.905  1.00  0.00     0.167 HD
ATOM     25  C   UNL     1       7.544   0.855  -8.498  1.00  0.00     0.034 A 
ATOM     26  C   UNL     1       5.688  -5.750  -7.085  1.00  0.00     0.034 A 
ATOM     27  C   UNL     1       8.026  -0.135  -9.426  1.00  0.00     0.049 A 
ATOM     28  C   UNL     1       6.448  -5.392  -8.328  1.00  0.00     0.074 A 
ATOM     29  C   UNL     1       8.807   0.055 -10.553  1.00  0.00     0.029 A 
ATOM     30  N   UNL     1       7.754  -1.492  -9.355  1.00  0.00    -0.354 N 
ATOM     31  N   UNL     1       6.933  -4.230  -8.690  1.00  0.00    -0.248 NA
ATOM     32  C   UNL     1       6.720  -6.481  -9.275  1.00  0.00     0.031 C 
ATOM     33  C   UNL     1       8.962  -1.179 -11.191  1.00  0.00     0.029 A 
ATOM     34  C   UNL     1       8.323  -2.147 -10.435  1.00  0.00     0.049 A 
ATOM     35  H   UNL     1       7.232  -1.927  -8.642  1.00  0.00     0.167 HD
ATOM     36  C   UNL     1       7.590  -4.451  -9.893  1.00  0.00     0.074 A 
ATOM     37  C   UNL     1       7.464  -5.865 -10.183  1.00  0.00     0.031 C 
ATOM     38  C   UNL     1       8.226  -3.561 -10.692  1.00  0.00     0.034 A 
BRANCH  25  39
ATOM     39  C   UNL     1       7.834   2.302  -8.802  1.00  0.00     0.023 A 
ATOM     40  C   UNL     1       8.787   3.007  -8.039  1.00  0.00     0.012 A 
ATOM     41  C   UNL     1       7.225   2.937  -9.903  1.00  0.00     0.148 A 
ATOM     42  C   UNL     1       9.108   4.328  -8.350  1.00  0.00     0.002 A 
ATOM     43  C   UNL     1       7.584   4.238 -10.234  1.00  0.00     0.091 A 
ATOM     44  F   UNL     1       6.310   2.256 -10.607  1.00  0.00    -0.205 F 
ATOM     45  C   UNL     1       8.517   4.939  -9.453  1.00  0.00     0.022 A 
BRANCH  43  46
ATOM     46  S   UNL     1       6.941   5.084 -11.683  1.00  0.00     0.127 S 
ATOM     47  O   UNL     1       6.117   6.127 -11.072  1.00  0.00    -0.237 OA
ATOM     48  O   UNL     1       8.164   5.570 -12.322  1.00  0.00    -0.237 OA
ATOM     49  O   UNL     1       6.211   4.082 -12.445  1.00  0.00    -0.744 OA
ENDBRANCH  43  46
ENDBRANCH  25  39
BRANCH  26  50
ATOM     50  C   UNL     1       5.226  -7.144  -6.835  1.00  0.00     0.023 A 
ATOM     51  C   UNL     1       6.169  -8.161  -6.596  1.00  0.00     0.012 A 
ATOM     52  C   UNL     1       3.853  -7.457  -6.810  1.00  0.00     0.148 A 
ATOM     53  C   UNL     1       5.753  -9.473  -6.372  1.00  0.00     0.002 A 
ATOM     54  C   UNL     1       3.444  -8.753  -6.524  1.00  0.00     0.091 A 
ATOM     55  F   UNL     1       2.972  -6.475  -7.049  1.00  0.00    -0.205 F 
ATOM     56  C   UNL     1       4.392  -9.767  -6.326  1.00  0.00     0.022 A 
BRANCH  54  57
ATOM     57  S   UNL     1       1.715  -9.189  -6.308  1.00  0.00     0.127 S 
ATOM     58  O   UNL     1       1.463 -10.004  -7.494  1.00  0.00    -0.237 OA
ATOM     59  O   UNL     1       1.748  -9.928  -5.046  1.00  0.00    -0.237 OA
ATOM     60  O   UNL     1       0.995  -7.925  -6.244  1.00  0.00    -0.744 OA
ENDBRANCH  54  57
ENDBRANCH  26  50
BRANCH  38  61
ATOM     61  C   UNL     1       8.874  -4.091 -11.944  1.00  0.00     0.023 A 
ATOM     62  C   UNL     1       8.077  -4.513 -13.027  1.00  0.00     0.012 A 
ATOM     63  C   UNL     1      10.277  -4.102 -12.071  1.00  0.00     0.148 A 
ATOM     64  C   UNL     1       8.668  -4.967 -14.205  1.00  0.00     0.002 A 
ATOM     65  C   UNL     1      10.857  -4.503 -13.267  1.00  0.00     0.091 A 
ATOM     66  F   UNL     1      11.016  -3.713 -11.022  1.00  0.00    -0.205 F 
ATOM     67  C   UNL     1      10.055  -4.950 -14.330  1.00  0.00     0.022 A 
BRANCH  65  68
ATOM     68  S   UNL     1      12.628  -4.423 -13.557  1.00  0.00     0.127 S 
ATOM     69  O   UNL     1      12.978  -5.839 -13.655  1.00  0.00    -0.237 OA
ATOM     70  O   UNL     1      12.700  -3.688 -14.819  1.00  0.00    -0.237 OA
ATOM     71  O   UNL     1      13.194  -3.723 -12.412  1.00  0.00    -0.744 OA
ENDBRANCH  65  68
ENDBRANCH  38  61
ENDBRANCH  12  13
ENDBRANCH   5   7
ENDBRANCH   2   3
ENDBRANCH   1   2
BRANCH   1  72
ATOM     72  C   UNL     1       4.393   2.343   2.978  1.00  0.00     0.118 C 
BRANCH  72  73
ATOM     73  N   UNL     1       4.935   1.591   4.107  1.00  0.00    -0.352 N 
ATOM     74  C   UNL     1       5.787   2.005   5.104  1.00  0.00     0.253 C 
ATOM     75  H   UNL     1       4.649   0.650   4.162  1.00  0.00     0.163 HD
ATOM     76  O   UNL     1       6.303   1.196   5.868  1.00  0.00    -0.269 OA
BRANCH  74  77
ATOM     77  C   UNL     1       6.128   3.438   5.204  1.00  0.00     0.064 A 
ATOM     78  C   UNL     1       5.077   4.368   5.240  1.00  0.00     0.036 A 
ATOM     79  C   UNL     1       7.470   3.857   5.197  1.00  0.00     0.054 A 
ATOM     80  C   UNL     1       5.351   5.717   5.080  1.00  0.00     0.041 A 
ATOM     81  C   UNL     1       7.704   5.204   4.905  1.00  0.00     0.028 A 
ATOM     82  Cl  UNL     1       4.067   6.856   5.061  1.00  0.00    -0.084 Cl
ATOM     83  C   UNL     1       6.657   6.134   4.863  1.00  0.00     0.023 A 
BRANCH  79  84
ATOM     84  N   UNL     1       8.498   2.925   5.495  1.00  0.00    -0.321 N 
ATOM     85  C   UNL     1       9.814   3.074   5.887  1.00  0.00     0.255 C 
ATOM     86  H   UNL     1       8.217   1.986   5.405  1.00  0.00     0.170 HD
ATOM     87  O   UNL     1      10.557   2.104   6.012  1.00  0.00    -0.269 OA
BRANCH  85  88
ATOM     88  C   UNL     1      10.371   4.405   6.191  1.00  0.00     0.041 A 
ATOM     89  C   UNL     1      11.448   4.854   5.390  1.00  0.00     0.015 A 
ATOM     90  C   UNL     1       9.757   5.241   7.137  1.00  0.00     0.028 A 
ATOM     91  C   UNL     1      11.835   6.195   5.421  1.00  0.00     0.015 A 
ATOM     92  C   UNL     1      10.144   6.567   7.123  1.00  0.00     0.054 A 
ATOM     93  C   UNL     1      11.129   7.030   6.266  1.00  0.00     0.053 A 
ATOM     94  C   UNL     1       9.542   7.733   7.769  1.00  0.00     0.261 C 
ATOM     95  C   UNL     1      11.128   8.486   6.341  1.00  0.00     0.261 C 
ATOM     96  O   UNL     1       8.582   7.671   8.516  1.00  0.00    -0.269 OA
ATOM     97  N   UNL     1      10.202   8.828   7.288  1.00  0.00    -0.267 N 
ATOM     98  O   UNL     1      11.791   9.197   5.612  1.00  0.00    -0.269 OA
BRANCH  97  99
ATOM     99  C   UNL     1       9.854  10.195   7.611  1.00  0.00     0.204 C 
BRANCH  99 100
ATOM    100  C   UNL     1      10.966  10.826   8.371  1.00  0.00     0.123 A 
ATOM    101  C   UNL     1      12.246  11.214   8.027  1.00  0.00     0.047 A 
ATOM    102  O   UNL     1      10.736  11.108   9.686  1.00  0.00    -0.467 OA
ATOM    103  C   UNL     1      12.836  11.738   9.198  1.00  0.00     0.042 A 
ATOM    104  C   UNL     1      11.875  11.661  10.177  1.00  0.00     0.195 A 
ENDBRANCH  99 100
ENDBRANCH  97  99
ENDBRANCH  85  88
ENDBRANCH  79  84
ENDBRANCH  74  77
ENDBRANCH  72  73
ENDBRANCH   1  72
TORSDOF 17
