REMARK SMILES CC(C)(Br)[C@H](Br)C(=O)NCCCNC(=O)c1ccc(-c2c3nc(c(-c4cccc(S(=O)(=O)[O-])c4F)c4ccc([nH]4)c(-c4cccc(S(=O)(=O)[O-])c4F)c4nc(c(-c5cccc(S(=O)(=O)[O-])c5F)c5ccc2[nH]5)C=C4)C=C3)cc1
REMARK SMILES IDX 12 1 11 2 10 3 9 4 7 5 8 6 5 8 6 9 2 10 1 11 3 12 4 13 13 14
REMARK SMILES IDX 14 15 15 17 16 18 17 19 78 20 18 21 77 22 19 23 20 24 21 25
REMARK SMILES IDX 71 26 22 27 76 28 70 29 72 30 23 31 75 32 69 33 68 34 24 36
REMARK SMILES IDX 56 37 36 38 55 39 37 40 40 41 54 42 73 43 38 44 39 45 53 47
REMARK SMILES IDX 74 48 41 49 25 50 26 51 34 52 27 53 29 54 35 55 28 56 30 57
REMARK SMILES IDX 31 58 32 59 33 60 57 61 58 62 66 63 59 64 61 65 67 66 60 67
REMARK SMILES IDX 62 68 63 69 64 70 65 71 42 72 43 73 51 74 44 75 46 76 52 77
REMARK SMILES IDX 45 78 47 79 48 80 49 81 50 82
REMARK H PARENT 9 7 13 16 72 35 40 46
REMARK Flexibility Score: inf
ROOT
ATOM      1  C   UNL     1       4.580  -0.770  -1.153  1.00  0.00     0.118 C 
ENDROOT
BRANCH   1   2
ATOM      2  C   UNL     1       3.063  -0.664  -1.086  1.00  0.00     0.042 C 
BRANCH   2   3
ATOM      3  C   UNL     1       2.444  -1.341   0.128  1.00  0.00     0.117 C 
BRANCH   3   4
ATOM      4  N   UNL     1       2.882  -0.765   1.387  1.00  0.00    -0.355 N 
ATOM      5  C   UNL     1       2.231  -0.077   2.356  1.00  0.00     0.235 C 
ATOM      6  O   UNL     1       2.920   0.255   3.332  1.00  0.00    -0.274 OA
ATOM      7  H   UNL     1       3.840  -0.901   1.573  1.00  0.00     0.163 HD
BRANCH   5   8
ATOM      8  C   UNL     1       0.738   0.232   2.373  1.00  0.00     0.162 C 
ATOM      9  Br  UNL     1       0.202   1.171   0.755  1.00  0.00    -0.077 Br
BRANCH   8  10
ATOM     10  C   UNL     1      -0.222  -0.860   2.881  1.00  0.00     0.042 C 
ATOM     11  C   UNL     1      -1.608  -0.275   3.207  1.00  0.00     0.025 C 
ATOM     12  C   UNL     1       0.332  -1.539   4.145  1.00  0.00     0.025 C 
ATOM     13  Br  UNL     1      -0.553  -2.320   1.596  1.00  0.00    -0.084 Br
ENDBRANCH   8  10
ENDBRANCH   5   8
ENDBRANCH   3   4
ENDBRANCH   2   3
ENDBRANCH   1   2
BRANCH   1  14
ATOM     14  N   UNL     1       5.053  -2.145  -1.290  1.00  0.00    -0.352 N 
ATOM     15  C   UNL     1       5.565  -2.808  -2.380  1.00  0.00     0.251 C 
ATOM     16  H   UNL     1       4.996  -2.684  -0.468  1.00  0.00     0.163 HD
ATOM     17  O   UNL     1       5.743  -4.023  -2.323  1.00  0.00    -0.269 OA
BRANCH  15  18
ATOM     18  C   UNL     1       5.876  -2.073  -3.624  1.00  0.00     0.039 A 
ATOM     19  C   UNL     1       5.496  -2.616  -4.855  1.00  0.00     0.014 A 
ATOM     20  C   UNL     1       6.536  -0.845  -3.578  1.00  0.00     0.014 A 
ATOM     21  C   UNL     1       5.690  -1.881  -6.028  1.00  0.00     0.010 A 
ATOM     22  C   UNL     1       6.637  -0.074  -4.729  1.00  0.00     0.010 A 
ATOM     23  C   UNL     1       6.215  -0.580  -5.968  1.00  0.00    -0.014 A 
BRANCH  23  24
ATOM     24  C   UNL     1       6.330   0.290  -7.167  1.00  0.00     0.031 A 
ATOM     25  C   UNL     1       7.676   0.832  -7.569  1.00  0.00     0.074 A 
ATOM     26  C   UNL     1       5.216   0.710  -7.801  1.00  0.00     0.049 A 
ATOM     27  N   UNL     1       7.967   1.749  -8.455  1.00  0.00    -0.248 NA
ATOM     28  C   UNL     1       8.847   0.303  -6.848  1.00  0.00     0.031 C 
ATOM     29  C   UNL     1       3.846   0.320  -7.459  1.00  0.00     0.029 A 
ATOM     30  N   UNL     1       5.056   1.593  -8.841  1.00  0.00    -0.354 N 
ATOM     31  C   UNL     1       9.338   1.950  -8.354  1.00  0.00     0.074 A 
ATOM     32  C   UNL     1       9.819   1.079  -7.304  1.00  0.00     0.031 C 
ATOM     33  C   UNL     1       2.988   0.961  -8.268  1.00  0.00     0.029 A 
ATOM     34  C   UNL     1       3.740   1.836  -9.162  1.00  0.00     0.049 A 
ATOM     35  H   UNL     1       5.812   2.012  -9.312  1.00  0.00     0.167 HD
ATOM     36  C   UNL     1      10.132   2.766  -9.087  1.00  0.00     0.034 A 
ATOM     37  C   UNL     1       3.199   2.680 -10.063  1.00  0.00     0.034 A 
ATOM     38  C   UNL     1       9.662   3.570 -10.181  1.00  0.00     0.049 A 
ATOM     39  C   UNL     1       4.110   3.518 -10.918  1.00  0.00     0.074 A 
ATOM     40  C   UNL     1      10.399   4.352 -11.053  1.00  0.00     0.029 A 
ATOM     41  N   UNL     1       8.334   3.687 -10.562  1.00  0.00    -0.354 N 
ATOM     42  N   UNL     1       5.419   3.587 -10.904  1.00  0.00    -0.248 NA
ATOM     43  C   UNL     1       3.476   4.370 -11.935  1.00  0.00     0.031 C 
ATOM     44  C   UNL     1       9.514   4.945 -11.959  1.00  0.00     0.029 A 
ATOM     45  C   UNL     1       8.229   4.522 -11.659  1.00  0.00     0.049 A 
ATOM     46  H   UNL     1       7.578   3.240 -10.117  1.00  0.00     0.167 HD
ATOM     47  C   UNL     1       5.767   4.453 -11.934  1.00  0.00     0.074 A 
ATOM     48  C   UNL     1       4.531   4.876 -12.560  1.00  0.00     0.031 C 
ATOM     49  C   UNL     1       6.997   4.872 -12.317  1.00  0.00     0.034 A 
BRANCH  36  50
ATOM     50  C   UNL     1      11.605   2.776  -8.776  1.00  0.00     0.023 A 
ATOM     51  C   UNL     1      12.394   1.662  -9.128  1.00  0.00     0.012 A 
ATOM     52  C   UNL     1      12.219   3.901  -8.192  1.00  0.00     0.148 A 
ATOM     53  C   UNL     1      13.764   1.651  -8.871  1.00  0.00     0.002 A 
ATOM     54  C   UNL     1      13.593   3.900  -7.978  1.00  0.00     0.091 A 
ATOM     55  F   UNL     1      11.451   4.942  -7.843  1.00  0.00    -0.205 F 
ATOM     56  C   UNL     1      14.364   2.773  -8.306  1.00  0.00     0.022 A 
BRANCH  54  57
ATOM     57  S   UNL     1      14.470   5.327  -7.329  1.00  0.00     0.127 S 
ATOM     58  O   UNL     1      14.756   4.901  -5.960  1.00  0.00    -0.237 OA
ATOM     59  O   UNL     1      15.642   5.396  -8.203  1.00  0.00    -0.237 OA
ATOM     60  O   UNL     1      13.554   6.451  -7.459  1.00  0.00    -0.744 OA
ENDBRANCH  54  57
ENDBRANCH  36  50
BRANCH  37  61
ATOM     61  C   UNL     1       1.721   2.712 -10.258  1.00  0.00     0.023 A 
ATOM     62  C   UNL     1       1.174   2.158 -11.432  1.00  0.00     0.012 A 
ATOM     63  C   UNL     1       0.856   3.244  -9.283  1.00  0.00     0.148 A 
ATOM     64  C   UNL     1      -0.204   2.159 -11.646  1.00  0.00     0.002 A 
ATOM     65  C   UNL     1      -0.521   3.196  -9.479  1.00  0.00     0.091 A 
ATOM     66  F   UNL     1       1.394   3.779  -8.178  1.00  0.00    -0.205 F 
ATOM     67  C   UNL     1      -1.052   2.668 -10.666  1.00  0.00     0.022 A 
BRANCH  65  68
ATOM     68  S   UNL     1      -1.690   3.710  -8.214  1.00  0.00     0.127 S 
ATOM     69  O   UNL     1      -2.170   4.981  -8.749  1.00  0.00    -0.237 OA
ATOM     70  O   UNL     1      -2.668   2.621  -8.242  1.00  0.00    -0.237 OA
ATOM     71  O   UNL     1      -0.919   3.788  -6.981  1.00  0.00    -0.744 OA
ENDBRANCH  65  68
ENDBRANCH  37  61
BRANCH  49  72
ATOM     72  C   UNL     1       7.091   5.797 -13.499  1.00  0.00     0.023 A 
ATOM     73  C   UNL     1       6.753   7.156 -13.351  1.00  0.00     0.012 A 
ATOM     74  C   UNL     1       7.621   5.341 -14.723  1.00  0.00     0.148 A 
ATOM     75  C   UNL     1       6.925   8.045 -14.411  1.00  0.00     0.002 A 
ATOM     76  C   UNL     1       7.831   6.242 -15.760  1.00  0.00     0.091 A 
ATOM     77  F   UNL     1       7.918   4.039 -14.846  1.00  0.00    -0.205 F 
ATOM     78  C   UNL     1       7.476   7.593 -15.608  1.00  0.00     0.022 A 
BRANCH  76  79
ATOM     79  S   UNL     1       8.622   5.768 -17.301  1.00  0.00     0.127 S 
ATOM     80  O   UNL     1       7.496   5.788 -18.233  1.00  0.00    -0.237 OA
ATOM     81  O   UNL     1       9.595   6.844 -17.495  1.00  0.00    -0.237 OA
ATOM     82  O   UNL     1       9.213   4.458 -17.062  1.00  0.00    -0.744 OA
ENDBRANCH  76  79
ENDBRANCH  49  72
ENDBRANCH  23  24
ENDBRANCH  15  18
ENDBRANCH   1  14
TORSDOF 14
