REMARK SMILES CC(C)[NH2+][C@]1(C(=O)NCCCNC(=O)c2ccc(-c3c4nc(c(-c5cccc(S(=O)(=O)[O-])c5F)c5ccc([nH]5)c(-c5cccc(S(=O)(=O)[O-])c5F)c5nc(c(-c6cccc(S(=O)(=O)[O-])c6F)c6ccc3[nH]6)C=C5)C=C4)cc2)CC[C@H]([NH+]2CCC(C)(C)CC2)C1
REMARK SMILES IDX 10 1 9 2 8 3 6 4 7 5 5 7 78 8 89 9 79 10 80 11 4 12 2 15
REMARK SMILES IDX 1 16 3 17 81 18 82 19 88 20 83 22 87 23 84 24 85 25 86 26
REMARK SMILES IDX 11 27 12 28 13 29 14 31 15 32 16 33 77 34 17 35 76 36 18 37
REMARK SMILES IDX 19 38 20 39 70 40 21 41 75 42 69 43 71 44 22 45 74 46 68 47
REMARK SMILES IDX 67 48 23 50 55 51 35 52 54 53 36 54 39 55 53 56 72 57 37 58
REMARK SMILES IDX 38 59 52 61 73 62 40 63 24 64 25 65 33 66 26 67 28 68 34 69
REMARK SMILES IDX 27 70 29 71 30 72 31 73 32 74 56 75 57 76 65 77 58 78 60 79
REMARK SMILES IDX 66 80 59 81 61 82 62 83 63 84 64 85 41 86 42 87 50 88 43 89
REMARK SMILES IDX 45 90 51 91 44 92 46 93 47 94 48 95 49 96
REMARK H PARENT 8 6 4 13 4 14 81 21 12 30 71 49 39 60
REMARK Flexibility Score: inf
ROOT
ATOM      1  C   UNL     1       1.921  -3.198   2.406  1.00  0.00     0.042 C 
ENDROOT
BRANCH   1   2
ATOM      2  C   UNL     1       0.806  -2.184   2.285  1.00  0.00     0.118 C 
BRANCH   2   3
ATOM      3  N   UNL     1       0.698  -1.618   0.941  1.00  0.00    -0.351 N 
ATOM      4  C   UNL     1      -0.350  -1.721   0.052  1.00  0.00     0.281 C 
ATOM      5  O   UNL     1      -0.312  -1.073  -0.995  1.00  0.00    -0.268 OA
ATOM      6  H   UNL     1       1.474  -1.096   0.632  1.00  0.00     0.163 HD
BRANCH   4   7
ATOM      7  C   UNL     1      -1.507  -2.676   0.397  1.00  0.00     0.181 C 
ATOM      8  C   UNL     1      -2.614  -2.879  -0.648  1.00  0.00     0.085 C 
ATOM      9  C   UNL     1      -0.844  -4.085   0.311  1.00  0.00     0.144 C 
ATOM     10  C   UNL     1      -3.159  -4.297  -0.359  1.00  0.00     0.072 C 
ATOM     11  C   UNL     1      -1.937  -5.127   0.085  1.00  0.00     0.191 C 
BRANCH   7  12
ATOM     12  N   UNL     1      -2.108  -2.367   1.718  1.00  0.00    -0.331 N 
ATOM     13  H   UNL     1      -2.906  -2.995   1.815  1.00  0.00     0.347 HD
ATOM     14  H   UNL     1      -1.300  -2.463   2.333  1.00  0.00     0.347 HD
BRANCH  12  15
ATOM     15  C   UNL     1      -2.597  -1.035   2.090  1.00  0.00     0.176 C 
ATOM     16  C   UNL     1      -2.887  -1.148   3.599  1.00  0.00     0.075 C 
ATOM     17  C   UNL     1      -1.692   0.185   1.898  1.00  0.00     0.075 C 
ENDBRANCH  12  15
ENDBRANCH   7  12
BRANCH  11  18
ATOM     18  N   UNL     1      -2.049  -6.043   1.234  1.00  0.00    -0.332 N 
ATOM     19  C   UNL     1      -2.822  -7.250   0.942  1.00  0.00     0.263 C 
ATOM     20  C   UNL     1      -2.358  -5.416   2.518  1.00  0.00     0.263 C 
ATOM     21  H   UNL     1      -1.093  -6.366   1.379  1.00  0.00     0.348 HD
ATOM     22  C   UNL     1      -2.872  -8.230   2.126  1.00  0.00     0.068 C 
ATOM     23  C   UNL     1      -2.387  -6.384   3.694  1.00  0.00     0.068 C 
ATOM     24  C   UNL     1      -3.334  -7.561   3.436  1.00  0.00    -0.025 C 
ATOM     25  C   UNL     1      -3.235  -8.542   4.614  1.00  0.00     0.011 C 
ATOM     26  C   UNL     1      -4.796  -7.085   3.327  1.00  0.00     0.011 C 
ENDBRANCH  11  18
ENDBRANCH   4   7
ENDBRANCH   2   3
ENDBRANCH   1   2
BRANCH   1  27
ATOM     27  C   UNL     1       3.271  -2.523   2.410  1.00  0.00     0.118 C 
BRANCH  27  28
ATOM     28  N   UNL     1       3.465  -1.697   3.602  1.00  0.00    -0.352 N 
ATOM     29  C   UNL     1       4.270  -1.916   4.692  1.00  0.00     0.251 C 
ATOM     30  H   UNL     1       2.942  -0.864   3.626  1.00  0.00     0.163 HD
ATOM     31  O   UNL     1       4.126  -1.251   5.714  1.00  0.00    -0.269 OA
BRANCH  29  32
ATOM     32  C   UNL     1       5.297  -2.970   4.615  1.00  0.00     0.039 A 
ATOM     33  C   UNL     1       5.507  -3.824   5.698  1.00  0.00     0.014 A 
ATOM     34  C   UNL     1       6.007  -3.145   3.428  1.00  0.00     0.014 A 
ATOM     35  C   UNL     1       6.381  -4.901   5.552  1.00  0.00     0.010 A 
ATOM     36  C   UNL     1       6.733  -4.305   3.233  1.00  0.00     0.010 A 
ATOM     37  C   UNL     1       6.967  -5.174   4.303  1.00  0.00    -0.014 A 
BRANCH  37  38
ATOM     38  C   UNL     1       7.859  -6.339   4.092  1.00  0.00     0.031 A 
ATOM     39  C   UNL     1       9.260  -6.125   3.578  1.00  0.00     0.074 A 
ATOM     40  C   UNL     1       7.380  -7.586   4.268  1.00  0.00     0.049 A 
ATOM     41  N   UNL     1      10.177  -7.011   3.293  1.00  0.00    -0.248 NA
ATOM     42  C   UNL     1       9.670  -4.736   3.296  1.00  0.00     0.031 C 
ATOM     43  C   UNL     1       6.003  -7.923   4.641  1.00  0.00     0.029 A 
ATOM     44  N   UNL     1       7.996  -8.804   4.143  1.00  0.00    -0.354 N 
ATOM     45  C   UNL     1      11.239  -6.294   2.752  1.00  0.00     0.074 A 
ATOM     46  C   UNL     1      10.829  -4.912   2.683  1.00  0.00     0.031 C 
ATOM     47  C   UNL     1       5.892  -9.256   4.755  1.00  0.00     0.029 A 
ATOM     48  C   UNL     1       7.178  -9.868   4.439  1.00  0.00     0.049 A 
ATOM     49  H   UNL     1       8.935  -8.906   3.867  1.00  0.00     0.167 HD
ATOM     50  C   UNL     1      12.467  -6.734   2.395  1.00  0.00     0.034 A 
ATOM     51  C   UNL     1       7.444 -11.188   4.468  1.00  0.00     0.034 A 
ATOM     52  C   UNL     1      12.892  -8.097   2.548  1.00  0.00     0.049 A 
ATOM     53  C   UNL     1       8.844 -11.646   4.163  1.00  0.00     0.074 A 
ATOM     54  C   UNL     1      14.147  -8.637   2.341  1.00  0.00     0.029 A 
ATOM     55  N   UNL     1      12.067  -9.136   2.951  1.00  0.00    -0.354 N 
ATOM     56  N   UNL     1       9.893 -10.931   3.832  1.00  0.00    -0.248 NA
ATOM     57  C   UNL     1       9.107 -13.087   4.273  1.00  0.00     0.031 C 
ATOM     58  C   UNL     1      14.075 -10.010   2.603  1.00  0.00     0.029 A 
ATOM     59  C   UNL     1      12.780 -10.319   2.992  1.00  0.00     0.049 A 
ATOM     60  H   UNL     1      11.112  -9.044   3.175  1.00  0.00     0.167 HD
ATOM     61  C   UNL     1      10.947 -11.830   3.719  1.00  0.00     0.074 A 
ATOM     62  C   UNL     1      10.413 -13.137   4.047  1.00  0.00     0.031 C 
ATOM     63  C   UNL     1      12.235 -11.601   3.360  1.00  0.00     0.034 A 
BRANCH  50  64
ATOM     64  C   UNL     1      13.448  -5.712   1.879  1.00  0.00     0.023 A 
ATOM     65  C   UNL     1      13.959  -4.731   2.756  1.00  0.00     0.012 A 
ATOM     66  C   UNL     1      13.872  -5.723   0.537  1.00  0.00     0.148 A 
ATOM     67  C   UNL     1      14.831  -3.747   2.296  1.00  0.00     0.002 A 
ATOM     68  C   UNL     1      14.783  -4.768   0.097  1.00  0.00     0.091 A 
ATOM     69  F   UNL     1      13.358  -6.643  -0.291  1.00  0.00    -0.205 F 
ATOM     70  C   UNL     1      15.250  -3.771   0.969  1.00  0.00     0.022 A 
BRANCH  68  71
ATOM     71  S   UNL     1      15.446  -4.766  -1.572  1.00  0.00     0.127 S 
ATOM     72  O   UNL     1      14.729  -3.643  -2.174  1.00  0.00    -0.237 OA
ATOM     73  O   UNL     1      16.871  -4.524  -1.338  1.00  0.00    -0.237 OA
ATOM     74  O   UNL     1      15.139  -6.078  -2.123  1.00  0.00    -0.744 OA
ENDBRANCH  68  71
ENDBRANCH  50  64
BRANCH  51  75
ATOM     75  C   UNL     1       6.392 -12.145   4.914  1.00  0.00     0.023 A 
ATOM     76  C   UNL     1       6.511 -12.752   6.180  1.00  0.00     0.012 A 
ATOM     77  C   UNL     1       5.255 -12.414   4.128  1.00  0.00     0.148 A 
ATOM     78  C   UNL     1       5.531 -13.628   6.646  1.00  0.00     0.002 A 
ATOM     79  C   UNL     1       4.257 -13.248   4.620  1.00  0.00     0.091 A 
ATOM     80  F   UNL     1       5.163 -11.830   2.925  1.00  0.00    -0.205 F 
ATOM     81  C   UNL     1       4.400 -13.868   5.871  1.00  0.00     0.022 A 
BRANCH  79  82
ATOM     82  S   UNL     1       2.705 -13.515   3.754  1.00  0.00     0.127 S 
ATOM     83  O   UNL     1       2.816 -14.920   3.369  1.00  0.00    -0.237 OA
ATOM     84  O   UNL     1       1.723 -13.240   4.803  1.00  0.00    -0.237 OA
ATOM     85  O   UNL     1       2.696 -12.559   2.655  1.00  0.00    -0.744 OA
ENDBRANCH  79  82
ENDBRANCH  51  75
BRANCH  63  86
ATOM     86  C   UNL     1      13.160 -12.787   3.313  1.00  0.00     0.023 A 
ATOM     87  C   UNL     1      13.030 -13.729   2.273  1.00  0.00     0.012 A 
ATOM     88  C   UNL     1      14.198 -12.930   4.253  1.00  0.00     0.148 A 
ATOM     89  C   UNL     1      13.898 -14.816   2.191  1.00  0.00     0.002 A 
ATOM     90  C   UNL     1      15.091 -13.988   4.135  1.00  0.00     0.091 A 
ATOM     91  F   UNL     1      14.294 -12.032   5.245  1.00  0.00    -0.205 F 
ATOM     92  C   UNL     1      14.934 -14.939   3.114  1.00  0.00     0.022 A 
BRANCH  90  93
ATOM     93  S   UNL     1      16.511 -14.167   5.219  1.00  0.00     0.127 S 
ATOM     94  O   UNL     1      16.079 -15.249   6.102  1.00  0.00    -0.237 OA
ATOM     95  O   UNL     1      17.575 -14.531   4.283  1.00  0.00    -0.237 OA
ATOM     96  O   UNL     1      16.691 -12.869   5.857  1.00  0.00    -0.744 OA
ENDBRANCH  90  93
ENDBRANCH  63  86
ENDBRANCH  37  38
ENDBRANCH  29  32
ENDBRANCH  27  28
ENDBRANCH   1  27
TORSDOF 16
