REMARK SMILES C[NH2+][C@](C)(C(=O)NCCCNC(=O)c1ccc(-c2c3nc(c(-c4cccc(S(=O)(=O)[O-])c4F)c4ccc([nH]4)c(-c4cccc(S(=O)(=O)[O-])c4F)c4nc(c(-c5cccc(S(=O)(=O)[O-])c5F)c5ccc2[nH]5)C=C4)C=C3)cc1)c1cccc(Cl)c1
REMARK SMILES IDX 10 1 9 2 8 3 7 4 5 5 6 6 3 8 4 9 2 10 1 11 77 14 78 15 83 16
REMARK SMILES IDX 79 17 81 18 80 19 82 20 11 21 12 22 13 24 14 25 15 26 76 27
REMARK SMILES IDX 16 28 75 29 17 30 18 31 19 32 69 33 20 34 74 35 68 36 70 37
REMARK SMILES IDX 21 38 73 39 67 40 66 41 22 43 54 44 34 45 53 46 35 47 38 48
REMARK SMILES IDX 52 49 71 50 36 51 37 52 51 54 72 55 39 56 23 57 24 58 32 59
REMARK SMILES IDX 25 60 27 61 33 62 26 63 28 64 29 65 30 66 31 67 55 68 56 69
REMARK SMILES IDX 64 70 57 71 59 72 65 73 58 74 60 75 61 76 62 77 63 78 40 79
REMARK SMILES IDX 41 80 49 81 42 82 44 83 50 84 43 85 45 86 46 87 47 88 48 89
REMARK H PARENT 7 7 2 12 2 13 11 23 70 42 38 53
REMARK Flexibility Score: inf
ROOT
ATOM      1  C   UNL     1       0.701  -6.114  -1.256  1.00  0.00     0.118 C 
ENDROOT
BRANCH   1   2
ATOM      2  C   UNL     1       1.069  -4.644  -1.394  1.00  0.00     0.042 C 
BRANCH   2   3
ATOM      3  C   UNL     1      -0.127  -3.729  -1.577  1.00  0.00     0.118 C 
BRANCH   3   4
ATOM      4  N   UNL     1      -1.036  -3.741  -0.445  1.00  0.00    -0.350 N 
ATOM      5  C   UNL     1      -1.583  -2.709   0.273  1.00  0.00     0.285 C 
ATOM      6  O   UNL     1      -2.554  -3.023   0.972  1.00  0.00    -0.267 OA
ATOM      7  H   UNL     1      -1.303  -4.639  -0.142  1.00  0.00     0.163 HD
BRANCH   5   8
ATOM      8  C   UNL     1      -1.040  -1.225   0.145  1.00  0.00     0.198 C 
ATOM      9  C   UNL     1       0.515  -1.213   0.213  1.00  0.00     0.096 C 
BRANCH   8  10
ATOM     10  N   UNL     1      -1.526  -0.575  -1.112  1.00  0.00    -0.332 N 
ATOM     11  C   UNL     1      -2.266  -1.337  -2.095  1.00  0.00     0.332 C 
ATOM     12  H   UNL     1      -2.128   0.197  -0.827  1.00  0.00     0.347 HD
ATOM     13  H   UNL     1      -0.660  -0.349  -1.602  1.00  0.00     0.347 HD
ENDBRANCH   8  10
BRANCH   8  14
ATOM     14  C   UNL     1      -1.466  -0.306   1.338  1.00  0.00     0.023 A 
ATOM     15  C   UNL     1      -1.466   1.100   1.170  1.00  0.00     0.011 A 
ATOM     16  C   UNL     1      -1.716  -0.794   2.634  1.00  0.00     0.031 A 
ATOM     17  C   UNL     1      -1.723   1.972   2.230  1.00  0.00     0.002 A 
ATOM     18  C   UNL     1      -1.992   0.082   3.689  1.00  0.00     0.041 A 
ATOM     19  C   UNL     1      -1.992   1.461   3.494  1.00  0.00     0.020 A 
ATOM     20  Cl  UNL     1      -2.316  -0.544   5.261  1.00  0.00    -0.084 Cl
ENDBRANCH   8  14
ENDBRANCH   5   8
ENDBRANCH   3   4
ENDBRANCH   2   3
ENDBRANCH   1   2
BRANCH   1  21
ATOM     21  N   UNL     1      -0.021  -6.633  -2.414  1.00  0.00    -0.352 N 
ATOM     22  C   UNL     1       0.341  -7.592  -3.332  1.00  0.00     0.251 C 
ATOM     23  H   UNL     1      -0.908  -6.233  -2.562  1.00  0.00     0.163 HD
ATOM     24  O   UNL     1      -0.334  -7.754  -4.339  1.00  0.00    -0.269 OA
BRANCH  22  25
ATOM     25  C   UNL     1       1.555  -8.406  -3.107  1.00  0.00     0.039 A 
ATOM     26  C   UNL     1       2.412  -8.662  -4.180  1.00  0.00     0.014 A 
ATOM     27  C   UNL     1       1.855  -8.903  -1.838  1.00  0.00     0.014 A 
ATOM     28  C   UNL     1       3.611  -9.345  -3.958  1.00  0.00     0.010 A 
ATOM     29  C   UNL     1       3.095  -9.479  -1.598  1.00  0.00     0.010 A 
ATOM     30  C   UNL     1       3.984  -9.718  -2.656  1.00  0.00    -0.014 A 
BRANCH  30  31
ATOM     31  C   UNL     1       5.299 -10.348  -2.373  1.00  0.00     0.031 A 
ATOM     32  C   UNL     1       5.366 -11.705  -1.725  1.00  0.00     0.074 A 
ATOM     33  C   UNL     1       6.431  -9.651  -2.597  1.00  0.00     0.049 A 
ATOM     34  N   UNL     1       6.416 -12.381  -1.337  1.00  0.00    -0.248 NA
ATOM     35  C   UNL     1       4.086 -12.374  -1.438  1.00  0.00     0.031 C 
ATOM     36  C   UNL     1       6.495  -8.285  -3.121  1.00  0.00     0.029 A 
ATOM     37  N   UNL     1       7.745  -9.984  -2.380  1.00  0.00    -0.354 N 
ATOM     38  C   UNL     1       5.923 -13.525  -0.719  1.00  0.00     0.074 A 
ATOM     39  C   UNL     1       4.481 -13.434  -0.749  1.00  0.00     0.031 C 
ATOM     40  C   UNL     1       7.779  -7.898  -3.188  1.00  0.00     0.029 A 
ATOM     41  C   UNL     1       8.627  -8.972  -2.682  1.00  0.00     0.049 A 
ATOM     42  H   UNL     1       8.030 -10.863  -2.040  1.00  0.00     0.167 HD
ATOM     43  C   UNL     1       6.608 -14.571  -0.200  1.00  0.00     0.034 A 
ATOM     44  C   UNL     1       9.967  -8.909  -2.555  1.00  0.00     0.034 A 
ATOM     45  C   UNL     1       8.040 -14.682  -0.222  1.00  0.00     0.049 A 
ATOM     46  C   UNL     1      10.709 -10.113  -2.045  1.00  0.00     0.074 A 
ATOM     47  C   UNL     1       8.826 -15.753   0.164  1.00  0.00     0.029 A 
ATOM     48  N   UNL     1       8.904 -13.681  -0.639  1.00  0.00    -0.354 N 
ATOM     49  N   UNL     1      10.231 -11.264  -1.638  1.00  0.00    -0.248 NA
ATOM     50  C   UNL     1      12.176 -10.028  -2.013  1.00  0.00     0.031 C 
ATOM     51  C   UNL     1      10.167 -15.387   0.010  1.00  0.00     0.029 A 
ATOM     52  C   UNL     1      10.216 -14.102  -0.505  1.00  0.00     0.049 A 
ATOM     53  H   UNL     1       8.625 -12.801  -0.982  1.00  0.00     0.167 HD
ATOM     54  C   UNL     1      11.335 -12.050  -1.330  1.00  0.00     0.074 A 
ATOM     55  C   UNL     1      12.508 -11.251  -1.621  1.00  0.00     0.031 C 
ATOM     56  C   UNL     1      11.374 -13.312  -0.838  1.00  0.00     0.034 A 
BRANCH  43  57
ATOM     57  C   UNL     1       5.810 -15.703   0.397  1.00  0.00     0.023 A 
ATOM     58  C   UNL     1       5.046 -16.541  -0.442  1.00  0.00     0.012 A 
ATOM     59  C   UNL     1       5.852 -15.965   1.780  1.00  0.00     0.148 A 
ATOM     60  C   UNL     1       4.303 -17.594   0.090  1.00  0.00     0.002 A 
ATOM     61  C   UNL     1       5.149 -17.047   2.297  1.00  0.00     0.091 A 
ATOM     62  F   UNL     1       6.564 -15.145   2.566  1.00  0.00    -0.205 F 
ATOM     63  C   UNL     1       4.363 -17.853   1.457  1.00  0.00     0.022 A 
BRANCH  61  64
ATOM     64  S   UNL     1       5.230 -17.515   4.029  1.00  0.00     0.127 S 
ATOM     65  O   UNL     1       3.900 -17.131   4.500  1.00  0.00    -0.237 OA
ATOM     66  O   UNL     1       5.455 -18.958   3.947  1.00  0.00    -0.237 OA
ATOM     67  O   UNL     1       6.338 -16.759   4.597  1.00  0.00    -0.744 OA
ENDBRANCH  61  64
ENDBRANCH  43  57
BRANCH  44  68
ATOM     68  C   UNL     1      10.691  -7.676  -2.976  1.00  0.00     0.023 A 
ATOM     69  C   UNL     1      11.486  -7.699  -4.139  1.00  0.00     0.012 A 
ATOM     70  C   UNL     1      10.556  -6.472  -2.259  1.00  0.00     0.148 A 
ATOM     71  C   UNL     1      12.156  -6.551  -4.564  1.00  0.00     0.002 A 
ATOM     72  C   UNL     1      11.178  -5.318  -2.721  1.00  0.00     0.091 A 
ATOM     73  F   UNL     1       9.801  -6.474  -1.152  1.00  0.00    -0.205 F 
ATOM     74  C   UNL     1      11.993  -5.359  -3.862  1.00  0.00     0.022 A 
BRANCH  72  75
ATOM     75  S   UNL     1      10.910  -3.710  -1.965  1.00  0.00     0.127 S 
ATOM     76  O   UNL     1      12.218  -3.434  -1.377  1.00  0.00    -0.237 OA
ATOM     77  O   UNL     1      10.568  -2.887  -3.125  1.00  0.00    -0.237 OA
ATOM     78  O   UNL     1       9.818  -3.896  -1.019  1.00  0.00    -0.744 OA
ENDBRANCH  72  75
ENDBRANCH  44  68
BRANCH  56  79
ATOM     79  C   UNL     1      12.728 -13.931  -0.607  1.00  0.00     0.023 A 
ATOM     80  C   UNL     1      13.533 -13.484   0.460  1.00  0.00     0.012 A 
ATOM     81  C   UNL     1      13.168 -15.009  -1.401  1.00  0.00     0.148 A 
ATOM     82  C   UNL     1      14.769 -14.078   0.711  1.00  0.00     0.002 A 
ATOM     83  C   UNL     1      14.377 -15.629  -1.112  1.00  0.00     0.091 A 
ATOM     84  F   UNL     1      12.396 -15.407  -2.422  1.00  0.00    -0.205 F 
ATOM     85  C   UNL     1      15.185 -15.157  -0.066  1.00  0.00     0.022 A 
BRANCH  83  86
ATOM     86  S   UNL     1      14.945 -17.087  -1.995  1.00  0.00     0.127 S 
ATOM     87  O   UNL     1      16.045 -16.543  -2.790  1.00  0.00    -0.237 OA
ATOM     88  O   UNL     1      15.359 -17.969  -0.903  1.00  0.00    -0.237 OA
ATOM     89  O   UNL     1      13.800 -17.567  -2.757  1.00  0.00    -0.744 OA
ENDBRANCH  83  86
ENDBRANCH  56  79
ENDBRANCH  30  31
ENDBRANCH  22  25
ENDBRANCH   1  21
TORSDOF 15
