REMARK SMILES Cc1ccc(S(=O)(=O)N[C@@H](C)C(=O)Oc2csc(C(=O)NCCCNC(=O)c3ccc(-c4c5nc(c(-c6cccc(S(=O)(=O)[O-])c6F)c6ccc([nH]6)c(-c6cccc(S(=O)(=O)[O-])c6F)c6nc(c(-c7cccc(S(=O)(=O)[O-])c7F)c7ccc4[nH]7)C=C6)C=C5)cc3)c2C)cc1
REMARK SMILES IDX 19 1 20 2 21 3 18 5 15 6 16 7 91 8 17 9 92 10 14 11 12 12
REMARK SMILES IDX 13 13 10 14 11 15 9 16 6 18 7 19 8 20 5 21 1 22 2 23 3 24
REMARK SMILES IDX 94 25 4 26 93 27 22 28 23 29 24 30 25 31 26 32 27 34 28 35
REMARK SMILES IDX 29 36 90 37 30 38 89 39 31 40 32 41 33 42 83 43 34 44 88 45
REMARK SMILES IDX 82 46 84 47 35 48 87 49 81 50 80 51 36 53 68 54 48 55 67 56
REMARK SMILES IDX 49 57 52 58 66 59 85 60 50 61 51 62 65 64 86 65 53 66 37 67
REMARK SMILES IDX 38 68 46 69 39 70 41 71 47 72 40 73 42 74 43 75 44 76 45 77
REMARK SMILES IDX 69 78 70 79 78 80 71 81 73 82 79 83 72 84 74 85 75 86 76 87
REMARK SMILES IDX 77 88 54 89 55 90 63 91 56 92 58 93 64 94 57 95 59 96 60 97
REMARK SMILES IDX 61 98 62 99
REMARK H PARENT 21 4 9 17 25 33 84 52 52 63
REMARK Flexibility Score: inf
ROOT
ATOM      1  C   UNL     1      -5.823   8.584  -2.381  1.00  0.00     0.261 C 
ATOM      2  O   UNL     1      -6.641   9.489  -2.159  1.00  0.00    -0.268 OA
ATOM      3  N   UNL     1      -4.837   9.005  -3.233  1.00  0.00    -0.351 N 
ATOM      4  H   UNL     1      -4.925   9.960  -3.454  1.00  0.00     0.163 HD
ENDROOT
BRANCH   1   5
ATOM      5  C   UNL     1      -5.963   7.246  -1.767  1.00  0.00     0.099 A 
ATOM      6  C   UNL     1      -6.032   5.036  -0.957  1.00  0.00     0.145 A 
ATOM      7  C   UNL     1      -7.109   5.545  -0.293  1.00  0.00     0.113 A 
ATOM      8  C   UNL     1      -5.364   5.978  -1.827  1.00  0.00     0.015 A 
ATOM      9  S   UNL     1      -7.303   7.189  -0.626  1.00  0.00    -0.134 S 
ATOM     10  C   UNL     1      -4.251   5.472  -2.672  1.00  0.00     0.050 C 
BRANCH   6  11
ATOM     11  O   UNL     1      -5.730   3.719  -0.872  1.00  0.00    -0.424 OA
BRANCH  11  12
ATOM     12  C   UNL     1      -4.463   3.419  -0.461  1.00  0.00     0.329 C 
ATOM     13  O   UNL     1      -3.783   4.093   0.308  1.00  0.00    -0.250 OA
BRANCH  12  14
ATOM     14  C   UNL     1      -3.983   2.087  -1.039  1.00  0.00     0.177 C 
ATOM     15  C   UNL     1      -4.623   1.715  -2.368  1.00  0.00     0.038 C 
BRANCH  14  16
ATOM     16  N   UNL     1      -4.214   1.118   0.029  1.00  0.00    -0.197 NA
ATOM     17  H   UNL     1      -3.930   1.589   0.887  1.00  0.00     0.142 HD
BRANCH  16  18
ATOM     18  S   UNL     1      -3.543  -0.388   0.112  1.00  0.00     0.241 S 
ATOM     19  O   UNL     1      -3.844  -1.062  -1.145  1.00  0.00    -0.207 OA
ATOM     20  O   UNL     1      -3.970  -0.926   1.369  1.00  0.00    -0.207 OA
BRANCH  18  21
ATOM     21  C   UNL     1      -1.783  -0.196   0.191  1.00  0.00     0.082 A 
ATOM     22  C   UNL     1       2.509   0.013   0.005  1.00  0.00     0.044 C 
ATOM     23  C   UNL     1       1.012  -0.048   0.088  1.00  0.00    -0.051 A 
ATOM     24  C   UNL     1       0.364  -1.280  -0.059  1.00  0.00     0.005 A 
ATOM     25  C   UNL     1       0.248   1.103   0.328  1.00  0.00     0.005 A 
ATOM     26  C   UNL     1      -1.026  -1.353  -0.021  1.00  0.00     0.022 A 
ATOM     27  C   UNL     1      -1.148   1.030   0.401  1.00  0.00     0.022 A 
ENDBRANCH  18  21
ENDBRANCH  16  18
ENDBRANCH  14  16
ENDBRANCH  12  14
ENDBRANCH  11  12
ENDBRANCH   6  11
ENDBRANCH   1   5
BRANCH   3  28
ATOM     28  C   UNL     1      -3.702   8.401  -3.889  1.00  0.00     0.118 C 
BRANCH  28  29
ATOM     29  C   UNL     1      -4.160   7.440  -4.975  1.00  0.00     0.042 C 
BRANCH  29  30
ATOM     30  C   UNL     1      -3.642   7.776  -6.347  1.00  0.00     0.118 C 
BRANCH  30  31
ATOM     31  N   UNL     1      -2.476   6.980  -6.725  1.00  0.00    -0.352 N 
ATOM     32  C   UNL     1      -1.905   6.826  -7.981  1.00  0.00     0.251 C 
ATOM     33  H   UNL     1      -2.038   6.488  -5.993  1.00  0.00     0.163 HD
ATOM     34  O   UNL     1      -1.011   6.006  -8.148  1.00  0.00    -0.269 OA
BRANCH  32  35
ATOM     35  C   UNL     1      -2.296   7.783  -9.047  1.00  0.00     0.039 A 
ATOM     36  C   UNL     1      -1.286   8.672  -9.417  1.00  0.00     0.014 A 
ATOM     37  C   UNL     1      -3.633   8.147  -9.155  1.00  0.00     0.014 A 
ATOM     38  C   UNL     1      -1.586  10.022  -9.488  1.00  0.00     0.010 A 
ATOM     39  C   UNL     1      -3.917   9.492  -9.088  1.00  0.00     0.010 A 
ATOM     40  C   UNL     1      -2.870  10.418  -9.145  1.00  0.00    -0.014 A 
BRANCH  40  41
ATOM     41  C   UNL     1      -3.278  11.794  -8.980  1.00  0.00     0.031 A 
ATOM     42  C   UNL     1      -3.714  12.479 -10.209  1.00  0.00     0.074 A 
ATOM     43  C   UNL     1      -3.440  12.321  -7.743  1.00  0.00     0.049 A 
ATOM     44  N   UNL     1      -3.922  13.742 -10.294  1.00  0.00    -0.248 NA
ATOM     45  C   UNL     1      -3.904  11.772 -11.479  1.00  0.00     0.031 C 
ATOM     46  C   UNL     1      -4.221  13.502  -7.391  1.00  0.00     0.029 A 
ATOM     47  N   UNL     1      -2.814  11.988  -6.533  1.00  0.00    -0.354 N 
ATOM     48  C   UNL     1      -4.612  13.939 -11.468  1.00  0.00     0.074 A 
ATOM     49  C   UNL     1      -4.390  12.752 -12.244  1.00  0.00     0.031 C 
ATOM     50  C   UNL     1      -3.816  13.955  -6.193  1.00  0.00     0.029 A 
ATOM     51  C   UNL     1      -2.614  13.215  -5.861  1.00  0.00     0.049 A 
ATOM     52  H   UNL     1      -2.566  11.089  -6.218  1.00  0.00     0.167 HD
ATOM     53  C   UNL     1      -5.459  15.000 -11.533  1.00  0.00     0.034 A 
ATOM     54  C   UNL     1      -1.380  13.787  -5.665  1.00  0.00     0.034 A 
ATOM     55  C   UNL     1      -5.189  15.932 -10.417  1.00  0.00     0.049 A 
ATOM     56  C   UNL     1      -1.225  15.145  -6.361  1.00  0.00     0.074 A 
ATOM     57  C   UNL     1      -5.837  16.250  -9.236  1.00  0.00     0.029 A 
ATOM     58  N   UNL     1      -3.898  16.439 -10.280  1.00  0.00    -0.354 N 
ATOM     59  N   UNL     1      -2.164  15.752  -7.039  1.00  0.00    -0.248 NA
ATOM     60  C   UNL     1       0.049  15.861  -6.438  1.00  0.00     0.031 C 
ATOM     61  C   UNL     1      -4.887  16.875  -8.362  1.00  0.00     0.029 A 
ATOM     62  C   UNL     1      -3.679  16.994  -9.027  1.00  0.00     0.049 A 
ATOM     63  H   UNL     1      -3.218  16.406 -10.992  1.00  0.00     0.167 HD
ATOM     64  C   UNL     1      -1.627  16.787  -7.766  1.00  0.00     0.074 A 
ATOM     65  C   UNL     1      -0.234  16.814  -7.340  1.00  0.00     0.031 C 
ATOM     66  C   UNL     1      -2.338  17.498  -8.705  1.00  0.00     0.034 A 
BRANCH  53  67
ATOM     67  C   UNL     1      -6.662  15.097 -12.466  1.00  0.00     0.023 A 
ATOM     68  C   UNL     1      -7.461  16.255 -12.356  1.00  0.00     0.012 A 
ATOM     69  C   UNL     1      -7.146  14.105 -13.367  1.00  0.00     0.148 A 
ATOM     70  C   UNL     1      -8.658  16.416 -13.068  1.00  0.00     0.002 A 
ATOM     71  C   UNL     1      -8.309  14.290 -14.123  1.00  0.00     0.091 A 
ATOM     72  F   UNL     1      -6.552  12.915 -13.452  1.00  0.00    -0.205 F 
ATOM     73  C   UNL     1      -9.078  15.441 -13.962  1.00  0.00     0.022 A 
BRANCH  71  74
ATOM     74  S   UNL     1      -8.891  13.075 -15.328  1.00  0.00     0.127 S 
ATOM     75  O   UNL     1     -10.123  12.591 -14.705  1.00  0.00    -0.237 OA
ATOM     76  O   UNL     1      -9.096  13.893 -16.523  1.00  0.00    -0.237 OA
ATOM     77  O   UNL     1      -7.833  12.079 -15.456  1.00  0.00    -0.744 OA
ENDBRANCH  71  74
ENDBRANCH  53  67
BRANCH  54  78
ATOM     78  C   UNL     1      -0.287  12.769  -5.527  1.00  0.00     0.023 A 
ATOM     79  C   UNL     1      -0.458  11.799  -4.511  1.00  0.00     0.012 A 
ATOM     80  C   UNL     1       0.559  12.474  -6.606  1.00  0.00     0.148 A 
ATOM     81  C   UNL     1      -0.051  10.481  -4.725  1.00  0.00     0.002 A 
ATOM     82  C   UNL     1       0.998  11.168  -6.790  1.00  0.00     0.091 A 
ATOM     83  F   UNL     1       0.874  13.439  -7.478  1.00  0.00    -0.205 F 
ATOM     84  C   UNL     1       0.619  10.153  -5.900  1.00  0.00     0.022 A 
BRANCH  82  85
ATOM     85  S   UNL     1       1.975  10.747  -8.236  1.00  0.00     0.127 S 
ATOM     86  O   UNL     1       3.321  11.087  -7.789  1.00  0.00    -0.237 OA
ATOM     87  O   UNL     1       1.723   9.316  -8.388  1.00  0.00    -0.237 OA
ATOM     88  O   UNL     1       1.417  11.570  -9.299  1.00  0.00    -0.744 OA
ENDBRANCH  82  85
ENDBRANCH  54  78
BRANCH  66  89
ATOM     89  C   UNL     1      -1.786  18.713  -9.456  1.00  0.00     0.023 A 
ATOM     90  C   UNL     1      -0.712  19.471  -8.948  1.00  0.00     0.012 A 
ATOM     91  C   UNL     1      -2.378  19.214 -10.648  1.00  0.00     0.148 A 
ATOM     92  C   UNL     1      -0.145  20.541  -9.653  1.00  0.00     0.002 A 
ATOM     93  C   UNL     1      -1.846  20.308 -11.327  1.00  0.00     0.091 A 
ATOM     94  F   UNL     1      -3.502  18.669 -11.120  1.00  0.00    -0.205 F 
ATOM     95  C   UNL     1      -0.701  20.948 -10.854  1.00  0.00     0.022 A 
BRANCH  93  96
ATOM     96  S   UNL     1      -2.619  21.003 -12.796  1.00  0.00     0.127 S 
ATOM     97  O   UNL     1      -3.024  22.324 -12.313  1.00  0.00    -0.237 OA
ATOM     98  O   UNL     1      -1.505  21.016 -13.744  1.00  0.00    -0.237 OA
ATOM     99  O   UNL     1      -3.714  20.113 -13.149  1.00  0.00    -0.744 OA
ENDBRANCH  93  96
ENDBRANCH  66  89
ENDBRANCH  40  41
ENDBRANCH  32  35
ENDBRANCH  30  31
ENDBRANCH  29  30
ENDBRANCH  28  29
ENDBRANCH   3  28
TORSDOF 19
