REMARK SMILES Cc1ccc(NC(=O)C[C@@H]2C[NH2+]CCO2)c(C(=O)NCCCNC(=O)c2ccc(-c3c4nc(c(-c5cccc(S(=O)(=O)[O-])c5F)c5ccc([nH]5)c(-c5cccc(S(=O)(=O)[O-])c5F)c5nc(c(-c6cccc(S(=O)(=O)[O-])c6F)c6ccc3[nH]6)C=C5)C=C4)cc2)c1
REMARK SMILES IDX 21 1 20 2 19 3 17 4 18 5 16 7 1 8 2 9 3 10 89 11 4 12 5 13
REMARK SMILES IDX 6 14 7 15 8 17 9 18 10 19 11 20 15 21 12 22 14 23 13 24
REMARK SMILES IDX 22 27 23 28 24 29 25 31 26 32 27 33 88 34 28 35 87 36 29 37
REMARK SMILES IDX 30 38 31 39 81 40 32 41 86 42 80 43 82 44 33 45 85 46 79 47
REMARK SMILES IDX 78 48 34 50 66 51 46 52 65 53 47 54 50 55 64 56 83 57 48 58
REMARK SMILES IDX 49 59 63 61 84 62 51 63 35 64 36 65 44 66 37 67 39 68 45 69
REMARK SMILES IDX 38 70 40 71 41 72 42 73 43 74 67 75 68 76 76 77 69 78 71 79
REMARK SMILES IDX 77 80 70 81 72 82 73 83 74 84 75 85 52 86 53 87 61 88 54 89
REMARK SMILES IDX 56 90 62 91 55 92 57 93 58 94 59 95 60 96
REMARK H PARENT 19 6 6 16 12 25 12 26 23 30 82 49 50 60
REMARK Flexibility Score: inf
ROOT
ATOM      1  C   UNL     1       1.212   3.911  -0.443  1.00  0.00     0.042 C 
ENDROOT
BRANCH   1   2
ATOM      2  C   UNL     1       0.226   3.748   0.711  1.00  0.00     0.118 C 
BRANCH   2   3
ATOM      3  N   UNL     1      -1.095   3.378   0.223  1.00  0.00    -0.352 N 
ATOM      4  C   UNL     1      -1.681   2.148   0.012  1.00  0.00     0.253 C 
ATOM      5  O   UNL     1      -2.867   2.133  -0.320  1.00  0.00    -0.269 OA
ATOM      6  H   UNL     1      -1.674   4.144   0.003  1.00  0.00     0.163 HD
BRANCH   4   7
ATOM      7  C   UNL     1      -0.965   0.854   0.261  1.00  0.00     0.063 A 
ATOM      8  C   UNL     1       2.603  -0.485   0.084  1.00  0.00     0.044 C 
ATOM      9  C   UNL     1       1.136  -0.413   0.386  1.00  0.00    -0.050 A 
ATOM     10  C   UNL     1       0.451  -1.475   0.958  1.00  0.00     0.005 A 
ATOM     11  C   UNL     1       0.412   0.728   0.036  1.00  0.00     0.019 A 
ATOM     12  C   UNL     1      -0.942  -1.419   1.081  1.00  0.00     0.027 A 
ATOM     13  C   UNL     1      -1.671  -0.304   0.641  1.00  0.00     0.054 A 
BRANCH  13  14
ATOM     14  N   UNL     1      -3.077  -0.343   0.482  1.00  0.00    -0.325 N 
ATOM     15  C   UNL     1      -3.907  -1.340   0.048  1.00  0.00     0.227 C 
ATOM     16  H   UNL     1      -3.537   0.493   0.725  1.00  0.00     0.169 HD
ATOM     17  O   UNL     1      -5.117  -1.102  -0.054  1.00  0.00    -0.275 OA
BRANCH  15  18
ATOM     18  C   UNL     1      -3.410  -2.724  -0.317  1.00  0.00     0.138 C 
BRANCH  18  19
ATOM     19  C   UNL     1      -2.579  -2.853  -1.607  1.00  0.00     0.182 C 
ATOM     20  C   UNL     1      -1.709  -4.135  -1.504  1.00  0.00     0.293 C 
ATOM     21  O   UNL     1      -1.756  -1.706  -1.829  1.00  0.00    -0.366 OA
ATOM     22  N   UNL     1      -0.769  -4.315  -2.627  1.00  0.00    -0.342 N 
ATOM     23  C   UNL     1      -0.872  -1.855  -2.941  1.00  0.00     0.222 C 
ATOM     24  C   UNL     1       0.029  -3.080  -2.757  1.00  0.00     0.289 C 
ATOM     25  H   UNL     1      -1.287  -4.485  -3.489  1.00  0.00     0.346 HD
ATOM     26  H   UNL     1      -0.159  -5.114  -2.454  1.00  0.00     0.346 HD
ENDBRANCH  18  19
ENDBRANCH  15  18
ENDBRANCH  13  14
ENDBRANCH   4   7
ENDBRANCH   2   3
ENDBRANCH   1   2
BRANCH   1  27
ATOM     27  C   UNL     1       1.246   5.305  -1.028  1.00  0.00     0.118 C 
BRANCH  27  28
ATOM     28  N   UNL     1       2.433   6.055  -0.656  1.00  0.00    -0.352 N 
ATOM     29  C   UNL     1       2.846   7.295  -1.105  1.00  0.00     0.251 C 
ATOM     30  H   UNL     1       3.022   5.622   0.003  1.00  0.00     0.163 HD
ATOM     31  O   UNL     1       3.969   7.693  -0.801  1.00  0.00    -0.269 OA
BRANCH  29  32
ATOM     32  C   UNL     1       1.874   8.175  -1.799  1.00  0.00     0.039 A 
ATOM     33  C   UNL     1       1.718   9.471  -1.294  1.00  0.00     0.014 A 
ATOM     34  C   UNL     1       0.944   7.655  -2.694  1.00  0.00     0.014 A 
ATOM     35  C   UNL     1       0.497  10.119  -1.448  1.00  0.00     0.010 A 
ATOM     36  C   UNL     1      -0.298   8.242  -2.761  1.00  0.00     0.010 A 
ATOM     37  C   UNL     1      -0.539   9.430  -2.065  1.00  0.00    -0.014 A 
BRANCH  37  38
ATOM     38  C   UNL     1      -1.935   9.828  -2.024  1.00  0.00     0.031 A 
ATOM     39  C   UNL     1      -2.495  10.616  -3.132  1.00  0.00     0.074 A 
ATOM     40  C   UNL     1      -2.724   9.272  -1.079  1.00  0.00     0.049 A 
ATOM     41  N   UNL     1      -3.658  11.167  -3.124  1.00  0.00    -0.248 NA
ATOM     42  C   UNL     1      -1.737  10.870  -4.349  1.00  0.00     0.031 C 
ATOM     43  C   UNL     1      -4.177   9.166  -1.079  1.00  0.00     0.029 A 
ATOM     44  N   UNL     1      -2.355   8.873   0.212  1.00  0.00    -0.354 N 
ATOM     45  C   UNL     1      -3.920  11.594  -4.409  1.00  0.00     0.074 A 
ATOM     46  C   UNL     1      -2.659  11.479  -5.099  1.00  0.00     0.031 C 
ATOM     47  C   UNL     1      -4.596   9.015   0.188  1.00  0.00     0.029 A 
ATOM     48  C   UNL     1      -3.436   9.239   1.035  1.00  0.00     0.049 A 
ATOM     49  H   UNL     1      -1.519   8.432   0.485  1.00  0.00     0.167 HD
ATOM     50  C   UNL     1      -5.214  11.847  -4.759  1.00  0.00     0.034 A 
ATOM     51  C   UNL     1      -3.348  10.198   2.008  1.00  0.00     0.034 A 
ATOM     52  C   UNL     1      -6.082  11.807  -3.570  1.00  0.00     0.049 A 
ATOM     53  C   UNL     1      -4.356  11.325   1.832  1.00  0.00     0.074 A 
ATOM     54  C   UNL     1      -6.909  10.835  -3.029  1.00  0.00     0.029 A 
ATOM     55  N   UNL     1      -5.931  12.781  -2.590  1.00  0.00    -0.354 N 
ATOM     56  N   UNL     1      -5.062  11.517   0.752  1.00  0.00    -0.248 NA
ATOM     57  C   UNL     1      -4.627  12.337   2.850  1.00  0.00     0.031 C 
ATOM     58  C   UNL     1      -7.162  11.182  -1.672  1.00  0.00     0.029 A 
ATOM     59  C   UNL     1      -6.526  12.382  -1.403  1.00  0.00     0.049 A 
ATOM     60  H   UNL     1      -5.466  13.639  -2.721  1.00  0.00     0.167 HD
ATOM     61  C   UNL     1      -5.764  12.689   0.851  1.00  0.00     0.074 A 
ATOM     62  C   UNL     1      -5.519  13.121   2.218  1.00  0.00     0.031 C 
ATOM     63  C   UNL     1      -6.429  13.230  -0.217  1.00  0.00     0.034 A 
BRANCH  50  64
ATOM     64  C   UNL     1      -5.767  11.844  -6.181  1.00  0.00     0.023 A 
ATOM     65  C   UNL     1      -7.167  11.699  -6.327  1.00  0.00     0.012 A 
ATOM     66  C   UNL     1      -5.033  11.877  -7.391  1.00  0.00     0.148 A 
ATOM     67  C   UNL     1      -7.785  11.505  -7.570  1.00  0.00     0.002 A 
ATOM     68  C   UNL     1      -5.638  11.636  -8.630  1.00  0.00     0.091 A 
ATOM     69  F   UNL     1      -3.746  12.214  -7.384  1.00  0.00    -0.205 F 
ATOM     70  C   UNL     1      -7.016  11.442  -8.721  1.00  0.00     0.022 A 
BRANCH  68  71
ATOM     71  S   UNL     1      -4.690  11.495 -10.159  1.00  0.00     0.127 S 
ATOM     72  O   UNL     1      -5.124  10.194 -10.671  1.00  0.00    -0.237 OA
ATOM     73  O   UNL     1      -5.167  12.641 -10.930  1.00  0.00    -0.237 OA
ATOM     74  O   UNL     1      -3.284  11.544  -9.778  1.00  0.00    -0.744 OA
ENDBRANCH  68  71
ENDBRANCH  50  64
BRANCH  51  75
ATOM     75  C   UNL     1      -1.970  10.361   2.569  1.00  0.00     0.023 A 
ATOM     76  C   UNL     1      -1.386   9.223   3.177  1.00  0.00     0.012 A 
ATOM     77  C   UNL     1      -1.132  11.416   2.167  1.00  0.00     0.148 A 
ATOM     78  C   UNL     1       0.001   9.067   3.226  1.00  0.00     0.002 A 
ATOM     79  C   UNL     1       0.253  11.259   2.236  1.00  0.00     0.091 A 
ATOM     80  F   UNL     1      -1.688  12.524   1.661  1.00  0.00    -0.205 F 
ATOM     81  C   UNL     1       0.819  10.069   2.717  1.00  0.00     0.022 A 
BRANCH  79  82
ATOM     82  S   UNL     1       1.367  12.520   1.596  1.00  0.00     0.127 S 
ATOM     83  O   UNL     1       1.603  13.332   2.785  1.00  0.00    -0.237 OA
ATOM     84  O   UNL     1       2.517  11.732   1.150  1.00  0.00    -0.237 OA
ATOM     85  O   UNL     1       0.624  13.149   0.514  1.00  0.00    -0.744 OA
ENDBRANCH  79  82
ENDBRANCH  51  75
BRANCH  63  86
ATOM     86  C   UNL     1      -7.024  14.627  -0.273  1.00  0.00     0.023 A 
ATOM     87  C   UNL     1      -6.584  15.669   0.566  1.00  0.00     0.012 A 
ATOM     88  C   UNL     1      -7.942  14.982  -1.298  1.00  0.00     0.148 A 
ATOM     89  C   UNL     1      -7.064  16.978   0.436  1.00  0.00     0.002 A 
ATOM     90  C   UNL     1      -8.325  16.307  -1.496  1.00  0.00     0.091 A 
ATOM     91  F   UNL     1      -8.467  14.031  -2.085  1.00  0.00    -0.205 F 
ATOM     92  C   UNL     1      -7.915  17.304  -0.611  1.00  0.00     0.022 A 
BRANCH  90  93
ATOM     93  S   UNL     1      -9.211  16.796  -2.984  1.00  0.00     0.127 S 
ATOM     94  O   UNL     1     -10.605  16.696  -2.558  1.00  0.00    -0.237 OA
ATOM     95  O   UNL     1      -8.739  18.166  -3.199  1.00  0.00    -0.237 OA
ATOM     96  O   UNL     1      -8.778  15.852  -4.005  1.00  0.00    -0.744 OA
ENDBRANCH  90  93
ENDBRANCH  63  86
ENDBRANCH  37  38
ENDBRANCH  29  32
ENDBRANCH  27  28
ENDBRANCH   1  27
TORSDOF 16
