REMARK SMILES CC(C)(C)OC(=O)N1[C@@H](C(=O)NCCCNC(=O)c2ccc(-c3c4nc(c(-c5cccc(S(=O)(=O)[O-])c5F)c5ccc([nH]5)c(-c5cccc(S(=O)(=O)[O-])c5F)c5nc(c(-c6cccc(S(=O)(=O)[O-])c6F)c6ccc3[nH]6)C=C5)C=C4)cc2)C[C@H]2CCCC[C@@H]21
REMARK SMILES IDX 14 1 13 2 12 3 10 4 11 5 9 7 8 8 88 9 82 10 83 11 87 12
REMARK SMILES IDX 84 13 86 14 85 15 6 16 7 17 5 18 2 19 1 20 3 21 4 22 15 23
REMARK SMILES IDX 16 24 17 25 18 27 19 28 20 29 81 30 21 31 80 32 22 33 23 34
REMARK SMILES IDX 24 35 74 36 25 37 79 38 73 39 75 40 26 41 78 42 72 43 71 44
REMARK SMILES IDX 27 46 59 47 39 48 58 49 40 50 43 51 57 52 76 53 41 54 42 55
REMARK SMILES IDX 56 57 77 58 44 59 28 60 29 61 37 62 30 63 32 64 38 65 31 66
REMARK SMILES IDX 33 67 34 68 35 69 36 70 60 71 61 72 69 73 62 74 64 75 70 76
REMARK SMILES IDX 63 77 65 78 66 79 67 80 68 81 45 82 46 83 54 84 47 85 49 86
REMARK SMILES IDX 55 87 48 88 50 89 51 90 52 91 53 92
REMARK H PARENT 12 6 16 26 75 45 43 56
REMARK Flexibility Score: inf
ROOT
ATOM      1  C   UNL     1       6.499   2.224   4.045  1.00  0.00     0.042 C 
ENDROOT
BRANCH   1   2
ATOM      2  C   UNL     1       5.383   2.909   4.814  1.00  0.00     0.117 C 
BRANCH   2   3
ATOM      3  N   UNL     1       4.666   3.873   3.998  1.00  0.00    -0.354 N 
ATOM      4  C   UNL     1       3.338   3.917   3.671  1.00  0.00     0.242 C 
ATOM      5  O   UNL     1       2.965   4.842   2.946  1.00  0.00    -0.273 OA
ATOM      6  H   UNL     1       5.215   4.602   3.628  1.00  0.00     0.163 HD
BRANCH   4   7
ATOM      7  C   UNL     1       2.379   2.851   4.254  1.00  0.00     0.178 C 
ATOM      8  N   UNL     1       0.988   3.128   3.855  1.00  0.00    -0.293 N 
ATOM      9  C   UNL     1       0.266   3.759   4.935  1.00  0.00     0.092 C 
ATOM     10  C   UNL     1       2.370   3.013   5.794  1.00  0.00     0.041 C 
ATOM     11  C   UNL     1       0.898   3.075   6.146  1.00  0.00     0.014 C 
ATOM     12  C   UNL     1      -1.246   3.566   5.035  1.00  0.00     0.025 C 
ATOM     13  C   UNL     1       0.520   3.797   7.424  1.00  0.00     0.006 C 
ATOM     14  C   UNL     1      -1.770   4.164   6.349  1.00  0.00     0.002 C 
ATOM     15  C   UNL     1      -0.998   3.709   7.596  1.00  0.00     0.000 C 
BRANCH   8  16
ATOM     16  C   UNL     1       0.486   2.981   2.588  1.00  0.00     0.411 C 
ATOM     17  O   UNL     1      -0.488   3.604   2.175  1.00  0.00    -0.224 OA
BRANCH  16  18
ATOM     18  O   UNL     1       1.111   1.989   1.903  1.00  0.00    -0.444 OA
BRANCH  18  19
ATOM     19  C   UNL     1       0.602   1.553   0.610  1.00  0.00     0.106 C 
ATOM     20  C   UNL     1       1.260   0.188   0.352  1.00  0.00     0.056 C 
ATOM     21  C   UNL     1       1.045   2.541  -0.470  1.00  0.00     0.056 C 
ATOM     22  C   UNL     1      -0.922   1.334   0.581  1.00  0.00     0.056 C 
ENDBRANCH  18  19
ENDBRANCH  16  18
ENDBRANCH   8  16
ENDBRANCH   4   7
ENDBRANCH   2   3
ENDBRANCH   1   2
BRANCH   1  23
ATOM     23  C   UNL     1       7.612   3.160   3.601  1.00  0.00     0.118 C 
BRANCH  23  24
ATOM     24  N   UNL     1       8.372   3.714   4.715  1.00  0.00    -0.352 N 
ATOM     25  C   UNL     1       9.714   3.608   4.998  1.00  0.00     0.251 C 
ATOM     26  H   UNL     1       7.848   4.241   5.361  1.00  0.00     0.163 HD
ATOM     27  O   UNL     1      10.145   4.015   6.074  1.00  0.00    -0.269 OA
BRANCH  25  28
ATOM     28  C   UNL     1      10.629   2.977   4.021  1.00  0.00     0.039 A 
ATOM     29  C   UNL     1      11.580   2.059   4.474  1.00  0.00     0.014 A 
ATOM     30  C   UNL     1      10.536   3.272   2.659  1.00  0.00     0.014 A 
ATOM     31  C   UNL     1      12.377   1.376   3.551  1.00  0.00     0.010 A 
ATOM     32  C   UNL     1      11.260   2.523   1.738  1.00  0.00     0.010 A 
ATOM     33  C   UNL     1      12.192   1.569   2.172  1.00  0.00    -0.014 A 
BRANCH  33  34
ATOM     34  C   UNL     1      12.949   0.781   1.165  1.00  0.00     0.031 A 
ATOM     35  C   UNL     1      13.840   1.482   0.173  1.00  0.00     0.074 A 
ATOM     36  C   UNL     1      12.763  -0.552   1.079  1.00  0.00     0.049 A 
ATOM     37  N   UNL     1      14.506   0.982  -0.835  1.00  0.00    -0.248 NA
ATOM     38  C   UNL     1      13.978   2.942   0.316  1.00  0.00     0.031 C 
ATOM     39  C   UNL     1      11.876  -1.341   1.936  1.00  0.00     0.029 A 
ATOM     40  N   UNL     1      13.289  -1.476   0.210  1.00  0.00    -0.354 N 
ATOM     41  C   UNL     1      15.113   2.063  -1.463  1.00  0.00     0.074 A 
ATOM     42  C   UNL     1      14.703   3.251  -0.749  1.00  0.00     0.031 C 
ATOM     43  C   UNL     1      11.924  -2.628   1.556  1.00  0.00     0.029 A 
ATOM     44  C   UNL     1      12.812  -2.752   0.405  1.00  0.00     0.049 A 
ATOM     45  H   UNL     1      13.946  -1.248  -0.486  1.00  0.00     0.167 HD
ATOM     46  C   UNL     1      15.961   2.066  -2.519  1.00  0.00     0.034 A 
ATOM     47  C   UNL     1      13.050  -3.891  -0.276  1.00  0.00     0.034 A 
ATOM     48  C   UNL     1      16.395   0.880  -3.206  1.00  0.00     0.049 A 
ATOM     49  C   UNL     1      14.001  -3.860  -1.443  1.00  0.00     0.074 A 
ATOM     50  C   UNL     1      17.305   0.771  -4.242  1.00  0.00     0.029 A 
ATOM     51  N   UNL     1      15.945  -0.402  -2.933  1.00  0.00    -0.354 N 
ATOM     52  N   UNL     1      14.675  -2.847  -1.932  1.00  0.00    -0.248 NA
ATOM     53  C   UNL     1      14.252  -5.135  -2.131  1.00  0.00     0.031 C 
ATOM     54  C   UNL     1      17.384  -0.574  -4.615  1.00  0.00     0.029 A 
ATOM     55  C   UNL     1      16.551  -1.308  -3.786  1.00  0.00     0.049 A 
ATOM     56  H   UNL     1      15.290  -0.634  -2.236  1.00  0.00     0.167 HD
ATOM     57  C   UNL     1      15.461  -3.370  -2.953  1.00  0.00     0.074 A 
ATOM     58  C   UNL     1      15.192  -4.792  -3.001  1.00  0.00     0.031 C 
ATOM     59  C   UNL     1      16.320  -2.729  -3.783  1.00  0.00     0.034 A 
BRANCH  46  60
ATOM     60  C   UNL     1      16.520   3.393  -2.965  1.00  0.00     0.023 A 
ATOM     61  C   UNL     1      17.451   4.066  -2.147  1.00  0.00     0.012 A 
ATOM     62  C   UNL     1      16.173   3.946  -4.214  1.00  0.00     0.148 A 
ATOM     63  C   UNL     1      17.998   5.285  -2.545  1.00  0.00     0.002 A 
ATOM     64  C   UNL     1      16.760   5.136  -4.626  1.00  0.00     0.091 A 
ATOM     65  F   UNL     1      15.273   3.301  -4.970  1.00  0.00    -0.205 F 
ATOM     66  C   UNL     1      17.662   5.813  -3.788  1.00  0.00     0.022 A 
BRANCH  64  67
ATOM     67  S   UNL     1      16.458   5.860  -6.242  1.00  0.00     0.127 S 
ATOM     68  O   UNL     1      15.706   7.063  -5.890  1.00  0.00    -0.237 OA
ATOM     69  O   UNL     1      17.817   6.109  -6.724  1.00  0.00    -0.237 OA
ATOM     70  O   UNL     1      15.717   4.861  -6.999  1.00  0.00    -0.744 OA
ENDBRANCH  64  67
ENDBRANCH  46  60
BRANCH  47  71
ATOM     71  C   UNL     1      12.421  -5.173   0.157  1.00  0.00     0.023 A 
ATOM     72  C   UNL     1      13.232  -6.192   0.694  1.00  0.00     0.012 A 
ATOM     73  C   UNL     1      11.034  -5.388   0.043  1.00  0.00     0.148 A 
ATOM     74  C   UNL     1      12.680  -7.418   1.069  1.00  0.00     0.002 A 
ATOM     75  C   UNL     1      10.483  -6.589   0.473  1.00  0.00     0.091 A 
ATOM     76  F   UNL     1      10.280  -4.410  -0.478  1.00  0.00    -0.205 F 
ATOM     77  C   UNL     1      11.306  -7.613   0.967  1.00  0.00     0.022 A 
BRANCH  75  78
ATOM     78  S   UNL     1       8.710  -6.881   0.500  1.00  0.00     0.127 S 
ATOM     79  O   UNL     1       8.554  -7.871  -0.562  1.00  0.00    -0.237 OA
ATOM     80  O   UNL     1       8.510  -7.393   1.856  1.00  0.00    -0.237 OA
ATOM     81  O   UNL     1       8.095  -5.584   0.253  1.00  0.00    -0.744 OA
ENDBRANCH  75  78
ENDBRANCH  47  71
BRANCH  59  82
ATOM     82  C   UNL     1      17.082  -3.559  -4.782  1.00  0.00     0.023 A 
ATOM     83  C   UNL     1      16.420  -4.110  -5.897  1.00  0.00     0.012 A 
ATOM     84  C   UNL     1      18.477  -3.723  -4.656  1.00  0.00     0.148 A 
ATOM     85  C   UNL     1      17.128  -4.838  -6.853  1.00  0.00     0.002 A 
ATOM     86  C   UNL     1      19.183  -4.403  -5.639  1.00  0.00     0.091 A 
ATOM     87  F   UNL     1      19.085  -3.205  -3.579  1.00  0.00    -0.205 F 
ATOM     88  C   UNL     1      18.509  -4.973  -6.731  1.00  0.00     0.022 A 
BRANCH  86  89
ATOM     89  S   UNL     1      20.974  -4.543  -5.620  1.00  0.00     0.127 S 
ATOM     90  O   UNL     1      21.159  -5.968  -5.351  1.00  0.00    -0.237 OA
ATOM     91  O   UNL     1      21.330  -4.126  -6.977  1.00  0.00    -0.237 OA
ATOM     92  O   UNL     1      21.437  -3.646  -4.570  1.00  0.00    -0.744 OA
ENDBRANCH  86  89
ENDBRANCH  59  82
ENDBRANCH  33  34
ENDBRANCH  25  28
ENDBRANCH  23  24
ENDBRANCH   1  23
TORSDOF 16
