REMARK SMILES Cc1cscc1-c1ncc(C(=O)NCCCNC(=O)c2ccc(-c3c4nc(c(-c5cccc(S(=O)(=O)[O-])c5F)c5ccc([nH]5)c(-c5cccc(S(=O)(=O)[O-])c5F)c5nc(c(-c6cccc(S(=O)(=O)[O-])c6F)c6ccc3[nH]6)C=C5)C=C4)cc2)c(=O)[nH]1
REMARK SMILES IDX 16 1 15 2 14 3 13 4 11 5 12 6 10 8 7 9 8 10 85 11 9 12 83 13
REMARK SMILES IDX 84 15 6 16 1 17 2 18 3 19 4 20 5 21 17 22 18 23 19 25 20 26
REMARK SMILES IDX 21 27 82 28 22 29 81 30 23 31 24 32 25 33 75 34 26 35 80 36
REMARK SMILES IDX 74 37 76 38 27 39 79 40 73 41 72 42 28 44 60 45 40 46 59 47
REMARK SMILES IDX 41 48 44 49 58 50 77 51 42 52 43 53 57 55 78 56 45 57 29 58
REMARK SMILES IDX 30 59 38 60 31 61 33 62 39 63 32 64 34 65 35 66 36 67 37 68
REMARK SMILES IDX 61 69 62 70 70 71 63 72 65 73 71 74 64 75 66 76 67 77 68 78
REMARK SMILES IDX 69 79 46 80 47 81 55 82 48 83 50 84 56 85 49 86 51 87 52 88
REMARK SMILES IDX 53 89 54 90
REMARK H PARENT 13 7 85 14 17 24 76 43 44 54
REMARK Flexibility Score: inf
ROOT
ATOM      1  C   UNL     1       3.609   8.543   3.432  1.00  0.00     0.118 C 
ENDROOT
BRANCH   1   2
ATOM      2  C   UNL     1       2.743   7.338   3.077  1.00  0.00     0.042 C 
BRANCH   2   3
ATOM      3  C   UNL     1       2.179   7.375   1.656  1.00  0.00     0.118 C 
BRANCH   3   4
ATOM      4  N   UNL     1       3.194   7.056   0.667  1.00  0.00    -0.352 N 
ATOM      5  C   UNL     1       3.467   5.923  -0.032  1.00  0.00     0.258 C 
ATOM      6  O   UNL     1       4.389   5.998  -0.851  1.00  0.00    -0.269 OA
ATOM      7  H   UNL     1       3.800   7.804   0.464  1.00  0.00     0.163 HD
BRANCH   5   8
ATOM      8  C   UNL     1       2.678   4.670   0.087  1.00  0.00     0.123 A 
ATOM      9  C   UNL     1       1.300   2.305  -0.098  1.00  0.00     0.141 A 
ATOM     10  N   UNL     1       1.997   2.672  -1.119  1.00  0.00    -0.237 NA
ATOM     11  N   UNL     1       1.221   3.013   1.061  1.00  0.00    -0.306 N 
ATOM     12  C   UNL     1       2.657   3.874  -1.000  1.00  0.00     0.133 A 
ATOM     13  C   UNL     1       1.967   4.134   1.265  1.00  0.00     0.264 A 
ATOM     14  H   UNL     1       0.610   2.707   1.770  1.00  0.00     0.171 HD
ATOM     15  O   UNL     1       2.040   4.605   2.396  1.00  0.00    -0.269 OA
BRANCH   9  16
ATOM     16  C   UNL     1       0.571   1.055  -0.127  1.00  0.00     0.031 A 
ATOM     17  C   UNL     1       2.632  -0.523  -0.126  1.00  0.00     0.046 C 
ATOM     18  C   UNL     1       1.161  -0.261  -0.140  1.00  0.00    -0.029 A 
ATOM     19  C   UNL     1       0.188  -1.242  -0.141  1.00  0.00     0.069 A 
ATOM     20  S   UNL     1      -1.397  -0.606  -0.132  1.00  0.00    -0.151 S 
ATOM     21  C   UNL     1      -0.810   0.997  -0.116  1.00  0.00     0.077 A 
ENDBRANCH   9  16
ENDBRANCH   5   8
ENDBRANCH   3   4
ENDBRANCH   2   3
ENDBRANCH   1   2
BRANCH   1  22
ATOM     22  N   UNL     1       2.829   9.767   3.549  1.00  0.00    -0.352 N 
ATOM     23  C   UNL     1       2.694  10.630   4.608  1.00  0.00     0.251 C 
ATOM     24  H   UNL     1       2.319  10.014   2.744  1.00  0.00     0.163 HD
ATOM     25  O   UNL     1       1.817  11.491   4.569  1.00  0.00    -0.269 OA
BRANCH  23  26
ATOM     26  C   UNL     1       3.582  10.535   5.790  1.00  0.00     0.039 A 
ATOM     27  C   UNL     1       3.034  10.743   7.060  1.00  0.00     0.014 A 
ATOM     28  C   UNL     1       4.953  10.301   5.656  1.00  0.00     0.014 A 
ATOM     29  C   UNL     1       3.849  10.673   8.194  1.00  0.00     0.010 A 
ATOM     30  C   UNL     1       5.752  10.166   6.790  1.00  0.00     0.010 A 
ATOM     31  C   UNL     1       5.212  10.362   8.070  1.00  0.00    -0.014 A 
BRANCH  31  32
ATOM     32  C   UNL     1       6.087  10.232   9.265  1.00  0.00     0.031 A 
ATOM     33  C   UNL     1       7.239  11.178   9.472  1.00  0.00     0.074 A 
ATOM     34  C   UNL     1       5.903   9.200  10.112  1.00  0.00     0.049 A 
ATOM     35  N   UNL     1       8.147  11.179  10.414  1.00  0.00    -0.248 NA
ATOM     36  C   UNL     1       7.412  12.249   8.475  1.00  0.00     0.031 C 
ATOM     37  C   UNL     1       4.878   8.164   9.971  1.00  0.00     0.029 A 
ATOM     38  N   UNL     1       6.594   8.831  11.240  1.00  0.00    -0.354 N 
ATOM     39  C   UNL     1       9.022  12.212  10.100  1.00  0.00     0.074 A 
ATOM     40  C   UNL     1       8.548  12.807   8.869  1.00  0.00     0.031 C 
ATOM     41  C   UNL     1       5.013   7.272  10.966  1.00  0.00     0.029 A 
ATOM     42  C   UNL     1       6.146   7.659  11.803  1.00  0.00     0.049 A 
ATOM     43  H   UNL     1       7.340   9.356  11.610  1.00  0.00     0.167 HD
ATOM     44  C   UNL     1      10.106  12.645  10.788  1.00  0.00     0.034 A 
ATOM     45  C   UNL     1       6.599   6.967  12.867  1.00  0.00     0.034 A 
ATOM     46  C   UNL     1      10.536  12.092  12.044  1.00  0.00     0.049 A 
ATOM     47  C   UNL     1       7.757   7.516  13.656  1.00  0.00     0.074 A 
ATOM     48  C   UNL     1      11.549  12.535  12.877  1.00  0.00     0.029 A 
ATOM     49  N   UNL     1       9.981  10.975  12.649  1.00  0.00    -0.354 N 
ATOM     50  N   UNL     1       8.457   8.604  13.444  1.00  0.00    -0.248 NA
ATOM     51  C   UNL     1       8.162   6.766  14.854  1.00  0.00     0.031 C 
ATOM     52  C   UNL     1      11.617  11.675  13.978  1.00  0.00     0.029 A 
ATOM     53  C   UNL     1      10.635  10.707  13.839  1.00  0.00     0.049 A 
ATOM     54  H   UNL     1       9.233  10.449  12.285  1.00  0.00     0.167 HD
ATOM     55  C   UNL     1       9.362   8.686  14.496  1.00  0.00     0.074 A 
ATOM     56  C   UNL     1       9.105   7.551  15.358  1.00  0.00     0.031 C 
ATOM     57  C   UNL     1      10.331   9.608  14.718  1.00  0.00     0.034 A 
BRANCH  44  58
ATOM     58  C   UNL     1      10.873  13.815  10.231  1.00  0.00     0.023 A 
ATOM     59  C   UNL     1      10.314  15.107  10.300  1.00  0.00     0.012 A 
ATOM     60  C   UNL     1      12.172  13.651   9.709  1.00  0.00     0.148 A 
ATOM     61  C   UNL     1      11.021  16.214   9.832  1.00  0.00     0.002 A 
ATOM     62  C   UNL     1      12.887  14.765   9.282  1.00  0.00     0.091 A 
ATOM     63  F   UNL     1      12.679  12.413   9.632  1.00  0.00    -0.205 F 
ATOM     64  C   UNL     1      12.310  16.044   9.334  1.00  0.00     0.022 A 
BRANCH  62  65
ATOM     65  S   UNL     1      14.582  14.661   8.695  1.00  0.00     0.127 S 
ATOM     66  O   UNL     1      14.412  14.893   7.261  1.00  0.00    -0.237 OA
ATOM     67  O   UNL     1      15.227  15.759   9.417  1.00  0.00    -0.237 OA
ATOM     68  O   UNL     1      15.053  13.334   9.064  1.00  0.00    -0.744 OA
ENDBRANCH  62  65
ENDBRANCH  44  58
BRANCH  45  69
ATOM     69  C   UNL     1       5.906   5.717  13.289  1.00  0.00     0.023 A 
ATOM     70  C   UNL     1       5.139   5.719  14.470  1.00  0.00     0.012 A 
ATOM     71  C   UNL     1       5.971   4.543  12.514  1.00  0.00     0.148 A 
ATOM     72  C   UNL     1       4.473   4.566  14.888  1.00  0.00     0.002 A 
ATOM     73  C   UNL     1       5.261   3.414  12.908  1.00  0.00     0.091 A 
ATOM     74  F   UNL     1       6.718   4.555  11.401  1.00  0.00    -0.205 F 
ATOM     75  C   UNL     1       4.525   3.418  14.103  1.00  0.00     0.022 A 
BRANCH  73  76
ATOM     76  S   UNL     1       5.165   1.940  11.885  1.00  0.00     0.127 S 
ATOM     77  O   UNL     1       6.068   1.030  12.584  1.00  0.00    -0.237 OA
ATOM     78  O   UNL     1       3.746   1.592  11.980  1.00  0.00    -0.237 OA
ATOM     79  O   UNL     1       5.586   2.362  10.556  1.00  0.00    -0.744 OA
ENDBRANCH  73  76
ENDBRANCH  45  69
BRANCH  57  80
ATOM     80  C   UNL     1      11.175   9.453  15.955  1.00  0.00     0.023 A 
ATOM     81  C   UNL     1      12.156   8.443  16.007  1.00  0.00     0.012 A 
ATOM     82  C   UNL     1      11.052  10.354  17.030  1.00  0.00     0.148 A 
ATOM     83  C   UNL     1      12.983   8.316  17.121  1.00  0.00     0.002 A 
ATOM     84  C   UNL     1      11.910  10.249  18.119  1.00  0.00     0.091 A 
ATOM     85  F   UNL     1      10.098  11.295  16.972  1.00  0.00    -0.205 F 
ATOM     86  C   UNL     1      12.869   9.225  18.170  1.00  0.00     0.022 A 
BRANCH  84  87
ATOM     87  S   UNL     1      11.895  11.435  19.468  1.00  0.00     0.127 S 
ATOM     88  O   UNL     1      11.227  10.677  20.524  1.00  0.00    -0.237 OA
ATOM     89  O   UNL     1      13.322  11.669  19.696  1.00  0.00    -0.237 OA
ATOM     90  O   UNL     1      11.169  12.596  18.971  1.00  0.00    -0.744 OA
ENDBRANCH  84  87
ENDBRANCH  57  80
ENDBRANCH  31  32
ENDBRANCH  23  26
ENDBRANCH   1  22
TORSDOF 14
