REMARK SMILES C[C@]12CC[C@@H]3[C@@H](CCC4=C/C(=N\OCC(=O)N5CCC[C@@H]5C(=O)NCCCNC(=O)c5ccc(-c6c7nc(c(-c8cccc(S(=O)(=O)[O-])c8F)c8ccc([nH]8)c(-c8cccc(S(=O)(=O)[O-])c8F)c8nc(c(-c9cccc(S(=O)(=O)[O-])c9F)c9ccc6[nH]9)C=C8)C=C7)cc5)CC[C@@]43C)[C@@H]1CC[C@@H]2O
REMARK SMILES IDX 25 1 24 2 22 3 23 4 21 6 17 7 18 8 19 9 20 10 15 11 16 12
REMARK SMILES IDX 14 13 13 14 12 15 1 16 2 17 3 18 98 19 101 20 4 21 6 22
REMARK SMILES IDX 99 23 100 24 5 25 7 26 96 27 8 28 9 29 95 30 97 31 10 32
REMARK SMILES IDX 94 33 11 34 102 35 26 37 27 38 28 39 29 40 30 42 31 43 32 44
REMARK SMILES IDX 93 45 33 46 92 47 34 48 35 49 36 50 86 51 37 52 91 53 85 54
REMARK SMILES IDX 87 55 38 56 90 57 84 58 83 59 39 61 71 62 51 63 70 64 52 65
REMARK SMILES IDX 55 66 69 67 88 68 53 69 54 70 68 72 89 73 56 74 40 75 41 76
REMARK SMILES IDX 49 77 42 78 44 79 50 80 43 81 45 82 46 83 47 84 48 85 72 86
REMARK SMILES IDX 73 87 81 88 74 89 76 90 82 91 75 92 77 93 78 94 79 95 80 96
REMARK SMILES IDX 57 97 58 98 66 99 59 100 61 101 67 102 60 103 62 104 63 105
REMARK SMILES IDX 64 106 65 107
REMARK H PARENT 24 5 102 36 28 41 87 60 55 71
REMARK Flexibility Score: inf
ROOT
ATOM      1  C   UNL     1      -0.599  10.550  -2.321  1.00  0.00     0.117 C 
ENDROOT
BRANCH   1   2
ATOM      2  N   UNL     1       0.490   9.715  -1.847  1.00  0.00    -0.354 N 
ATOM      3  C   UNL     1       1.192   9.740  -0.684  1.00  0.00     0.242 C 
ATOM      4  O   UNL     1       2.058   8.868  -0.533  1.00  0.00    -0.273 OA
ATOM      5  H   UNL     1       0.766   9.010  -2.475  1.00  0.00     0.163 HD
BRANCH   3   6
ATOM      6  C   UNL     1       1.107  10.880   0.340  1.00  0.00     0.174 C 
ATOM      7  N   UNL     1      -0.069  11.744   0.392  1.00  0.00    -0.328 N 
ATOM      8  C   UNL     1       0.269  13.105  -0.013  1.00  0.00     0.120 C 
ATOM      9  C   UNL     1       1.606  12.983  -0.723  1.00  0.00     0.024 C 
ATOM     10  C   UNL     1       2.271  11.838   0.026  1.00  0.00     0.037 C 
BRANCH   7  11
ATOM     11  C   UNL     1      -1.329  11.450   0.856  1.00  0.00     0.264 C 
ATOM     12  O   UNL     1      -2.207  12.324   0.844  1.00  0.00    -0.271 OA
BRANCH  11  13
ATOM     13  C   UNL     1      -1.695  10.061   1.427  1.00  0.00     0.363 C 
BRANCH  13  14
ATOM     14  O   UNL     1      -0.831   8.941   1.393  1.00  0.00    -0.385 OA
BRANCH  14  15
ATOM     15  N   UNL     1      -1.183   8.153   0.294  1.00  0.00    -0.091 NA
ATOM     16  C   UNL     1       0.721  -0.273  -0.833  1.00  0.00     0.014 C 
ATOM     17  C   UNL     1       0.136   1.067  -0.273  1.00  0.00    -0.003 C 
ATOM     18  C   UNL     1      -0.018   1.921  -1.519  1.00  0.00     0.010 C 
ATOM     19  C   UNL     1       0.952   1.685   0.897  1.00  0.00     0.001 C 
ATOM     20  C   UNL     1      -1.136   0.896   0.587  1.00  0.00     0.120 C 
ATOM     21  C   UNL     1       1.311   2.576  -1.899  1.00  0.00     0.005 C 
ATOM     22  C   UNL     1       2.200   2.473   0.504  1.00  0.00    -0.003 C 
ATOM     23  C   UNL     1       0.855   0.521   1.931  1.00  0.00     0.007 C 
ATOM     24  C   UNL     1      -0.611  -0.017   1.703  1.00  0.00     0.032 C 
ATOM     25  C   UNL     1       1.935   3.377  -0.745  1.00  0.00     0.002 C 
ATOM     26  C   UNL     1       2.766   3.383   1.612  1.00  0.00     0.008 C 
ATOM     27  C   UNL     1       1.232   4.800  -0.553  1.00  0.00    -0.008 C 
ATOM     28  C   UNL     1       1.903   4.602   1.984  1.00  0.00     0.032 C 
ATOM     29  C   UNL     1       1.181   5.339   0.876  1.00  0.00    -0.062 C 
ATOM     30  C   UNL     1      -0.244   4.866  -1.039  1.00  0.00     0.018 C 
ATOM     31  C   UNL     1       2.068   5.757  -1.449  1.00  0.00     0.016 C 
ATOM     32  C   UNL     1       0.398   6.402   1.197  1.00  0.00     0.027 C 
ATOM     33  C   UNL     1      -0.867   6.245  -1.042  1.00  0.00     0.061 C 
ATOM     34  C   UNL     1      -0.551   7.025   0.212  1.00  0.00     0.080 C 
BRANCH  20  35
ATOM     35  O   UNL     1      -2.299   0.505  -0.086  1.00  0.00    -0.393 OA
ATOM     36  H   UNL     1      -2.150  -0.349  -0.520  1.00  0.00     0.210 HD
ENDBRANCH  20  35
ENDBRANCH  14  15
ENDBRANCH  13  14
ENDBRANCH  11  13
ENDBRANCH   7  11
ENDBRANCH   3   6
ENDBRANCH   1   2
BRANCH   1  37
ATOM     37  C   UNL     1      -0.543  10.743  -3.825  1.00  0.00     0.042 C 
BRANCH  37  38
ATOM     38  C   UNL     1      -0.882   9.483  -4.600  1.00  0.00     0.118 C 
BRANCH  38  39
ATOM     39  N   UNL     1      -2.291   9.120  -4.495  1.00  0.00    -0.352 N 
ATOM     40  C   UNL     1      -3.274   9.146  -5.453  1.00  0.00     0.251 C 
ATOM     41  H   UNL     1      -2.580   8.812  -3.606  1.00  0.00     0.163 HD
ATOM     42  O   UNL     1      -4.454   8.977  -5.128  1.00  0.00    -0.269 OA
BRANCH  40  43
ATOM     43  C   UNL     1      -2.925   9.399  -6.865  1.00  0.00     0.039 A 
ATOM     44  C   UNL     1      -3.712  10.268  -7.624  1.00  0.00     0.014 A 
ATOM     45  C   UNL     1      -1.798   8.802  -7.433  1.00  0.00     0.014 A 
ATOM     46  C   UNL     1      -3.319  10.597  -8.923  1.00  0.00     0.010 A 
ATOM     47  C   UNL     1      -1.340   9.230  -8.671  1.00  0.00     0.010 A 
ATOM     48  C   UNL     1      -2.103  10.118  -9.440  1.00  0.00    -0.014 A 
BRANCH  48  49
ATOM     49  C   UNL     1      -1.611  10.525 -10.781  1.00  0.00     0.031 A 
ATOM     50  C   UNL     1      -1.340   9.485 -11.836  1.00  0.00     0.074 A 
ATOM     51  C   UNL     1      -1.320  11.819 -11.021  1.00  0.00     0.049 A 
ATOM     52  N   UNL     1      -0.869   9.640 -13.046  1.00  0.00    -0.248 NA
ATOM     53  C   UNL     1      -1.595   8.081 -11.472  1.00  0.00     0.031 C 
ATOM     54  C   UNL     1      -1.452  12.911 -10.054  1.00  0.00     0.029 A 
ATOM     55  N   UNL     1      -0.833  12.433 -12.148  1.00  0.00    -0.354 N 
ATOM     56  C   UNL     1      -0.729   8.359 -13.566  1.00  0.00     0.074 A 
ATOM     57  C   UNL     1      -1.117   7.436 -12.524  1.00  0.00     0.031 C 
ATOM     58  C   UNL     1      -1.085  14.063 -10.637  1.00  0.00     0.029 A 
ATOM     59  C   UNL     1      -0.655  13.789 -12.004  1.00  0.00     0.049 A 
ATOM     60  H   UNL     1      -0.630  11.949 -12.981  1.00  0.00     0.167 HD
ATOM     61  C   UNL     1      -0.346   7.981 -14.809  1.00  0.00     0.034 A 
ATOM     62  C   UNL     1      -0.197  14.709 -12.875  1.00  0.00     0.034 A 
ATOM     63  C   UNL     1      -0.002   8.905 -15.855  1.00  0.00     0.049 A 
ATOM     64  C   UNL     1       0.187  14.273 -14.262  1.00  0.00     0.074 A 
ATOM     65  C   UNL     1       0.299   8.636 -17.177  1.00  0.00     0.029 A 
ATOM     66  N   UNL     1       0.103  10.278 -15.692  1.00  0.00    -0.354 N 
ATOM     67  N   UNL     1       0.153  13.073 -14.789  1.00  0.00    -0.248 NA
ATOM     68  C   UNL     1       0.641  15.323 -15.185  1.00  0.00     0.031 C 
ATOM     69  C   UNL     1       0.626   9.843 -17.805  1.00  0.00     0.029 A 
ATOM     70  C   UNL     1       0.486  10.870 -16.884  1.00  0.00     0.049 A 
ATOM     71  H   UNL     1      -0.070  10.762 -14.852  1.00  0.00     0.167 HD
ATOM     72  C   UNL     1       0.545  13.227 -16.114  1.00  0.00     0.074 A 
ATOM     73  C   UNL     1       0.794  14.641 -16.312  1.00  0.00     0.031 C 
ATOM     74  C   UNL     1       0.695  12.283 -17.077  1.00  0.00     0.034 A 
BRANCH  61  75
ATOM     75  C   UNL     1      -0.316   6.503 -15.107  1.00  0.00     0.023 A 
ATOM     76  C   UNL     1      -1.520   5.769 -15.154  1.00  0.00     0.012 A 
ATOM     77  C   UNL     1       0.902   5.841 -15.358  1.00  0.00     0.148 A 
ATOM     78  C   UNL     1      -1.509   4.394 -15.388  1.00  0.00     0.002 A 
ATOM     79  C   UNL     1       0.900   4.480 -15.645  1.00  0.00     0.091 A 
ATOM     80  F   UNL     1       2.040   6.545 -15.289  1.00  0.00    -0.205 F 
ATOM     81  C   UNL     1      -0.301   3.753 -15.642  1.00  0.00     0.022 A 
BRANCH  79  82
ATOM     82  S   UNL     1       2.396   3.581 -16.070  1.00  0.00     0.127 S 
ATOM     83  O   UNL     1       2.616   2.787 -14.862  1.00  0.00    -0.237 OA
ATOM     84  O   UNL     1       1.969   2.809 -17.237  1.00  0.00    -0.237 OA
ATOM     85  O   UNL     1       3.405   4.593 -16.349  1.00  0.00    -0.744 OA
ENDBRANCH  79  82
ENDBRANCH  61  75
BRANCH  62  86
ATOM     86  C   UNL     1      -0.159  16.146 -12.482  1.00  0.00     0.023 A 
ATOM     87  C   UNL     1      -1.081  17.042 -13.060  1.00  0.00     0.012 A 
ATOM     88  C   UNL     1       0.744  16.620 -11.511  1.00  0.00     0.148 A 
ATOM     89  C   UNL     1      -1.087  18.389 -12.697  1.00  0.00     0.002 A 
ATOM     90  C   UNL     1       0.696  17.952 -11.114  1.00  0.00     0.091 A 
ATOM     91  F   UNL     1       1.613  15.752 -10.976  1.00  0.00    -0.205 F 
ATOM     92  C   UNL     1      -0.207  18.841 -11.717  1.00  0.00     0.022 A 
BRANCH  90  93
ATOM     93  S   UNL     1       1.700  18.599  -9.773  1.00  0.00     0.127 S 
ATOM     94  O   UNL     1       2.551  19.559 -10.472  1.00  0.00    -0.237 OA
ATOM     95  O   UNL     1       0.686  19.194  -8.901  1.00  0.00    -0.237 OA
ATOM     96  O   UNL     1       2.389  17.450  -9.202  1.00  0.00    -0.744 OA
ENDBRANCH  90  93
ENDBRANCH  62  86
BRANCH  74  97
ATOM     97  C   UNL     1       1.118  12.746 -18.447  1.00  0.00     0.023 A 
ATOM     98  C   UNL     1       2.431  13.208 -18.662  1.00  0.00     0.012 A 
ATOM     99  C   UNL     1       0.229  12.658 -19.537  1.00  0.00     0.148 A 
ATOM    100  C   UNL     1       2.842  13.612 -19.932  1.00  0.00     0.002 A 
ATOM    101  C   UNL     1       0.661  13.010 -20.810  1.00  0.00     0.091 A 
ATOM    102  F   UNL     1      -1.022  12.232 -19.310  1.00  0.00    -0.205 F 
ATOM    103  C   UNL     1       1.962  13.502 -21.007  1.00  0.00     0.022 A 
BRANCH 101 104
ATOM    104  S   UNL     1      -0.367  12.806 -22.268  1.00  0.00     0.127 S 
ATOM    105  O   UNL     1      -0.678  14.193 -22.610  1.00  0.00    -0.237 OA
ATOM    106  O   UNL     1       0.544  12.138 -23.198  1.00  0.00    -0.237 OA
ATOM    107  O   UNL     1      -1.504  11.997 -21.849  1.00  0.00    -0.744 OA
ENDBRANCH 101 104
ENDBRANCH  74  97
ENDBRANCH  48  49
ENDBRANCH  40  43
ENDBRANCH  38  39
ENDBRANCH  37  38
ENDBRANCH   1  37
TORSDOF 18
