REMARK SMILES CCCCC(=O)Nc1ccc(C(=O)N2CCC[C@H](C(=O)NCCCNC(=O)c3ccc(-c4c5nc(c(-c6cccc(S(=O)(=O)[O-])c6F)c6ccc([nH]6)c(-c6cccc(S(=O)(=O)[O-])c6F)c6nc(c(-c7cccc(S(=O)(=O)[O-])c7F)c7ccc4[nH]7)C=C6)C=C5)cc3)C2)cc1
REMARK SMILES IDX 19 1 20 2 21 3 18 5 14 6 15 7 91 8 16 9 17 10 12 11 13 12
REMARK SMILES IDX 11 13 8 14 9 15 93 16 10 17 92 18 7 19 5 20 6 21 4 23 3 24
REMARK SMILES IDX 2 25 1 26 22 27 23 28 24 29 25 30 26 31 27 33 28 34 29 35
REMARK SMILES IDX 90 36 30 37 89 38 31 39 32 40 33 41 83 42 34 43 88 44 82 45
REMARK SMILES IDX 84 46 35 47 87 48 81 49 80 50 36 52 68 53 48 54 67 55 49 56
REMARK SMILES IDX 52 57 66 58 85 59 50 60 51 61 65 63 86 64 53 65 37 66 38 67
REMARK SMILES IDX 46 68 39 69 41 70 47 71 40 72 42 73 43 74 44 75 45 76 69 77
REMARK SMILES IDX 70 78 78 79 71 80 73 81 79 82 72 83 74 84 75 85 76 86 77 87
REMARK SMILES IDX 54 88 55 89 63 90 56 91 58 92 64 93 57 94 59 95 60 96 61 97
REMARK SMILES IDX 62 98
REMARK H PARENT 21 4 7 22 25 32 84 51 52 62
REMARK Flexibility Score: inf
ROOT
ATOM      1  C   UNL     1       1.675   6.133   2.932  1.00  0.00     0.224 C 
ATOM      2  O   UNL     1       1.345   7.286   2.632  1.00  0.00    -0.275 OA
ATOM      3  N   UNL     1       1.238   5.662   4.128  1.00  0.00    -0.356 N 
ATOM      4  H   UNL     1       0.859   6.338   4.736  1.00  0.00     0.163 HD
ENDROOT
BRANCH   1   5
ATOM      5  C   UNL     1       2.545   5.322   1.964  1.00  0.00     0.098 C 
ATOM      6  N   UNL     1       2.186   2.821   1.887  1.00  0.00    -0.338 N 
ATOM      7  C   UNL     1       3.600   2.576   2.166  1.00  0.00     0.120 C 
ATOM      8  C   UNL     1       1.847   4.123   1.310  1.00  0.00     0.133 C 
ATOM      9  C   UNL     1       4.245   3.673   3.000  1.00  0.00     0.022 C 
ATOM     10  C   UNL     1       3.975   5.069   2.453  1.00  0.00     0.017 C 
BRANCH   6  11
ATOM     11  C   UNL     1       1.250   1.886   2.346  1.00  0.00     0.253 C 
ATOM     12  O   UNL     1       1.442   1.257   3.388  1.00  0.00    -0.269 OA
BRANCH  11  13
ATOM     13  C   UNL     1       0.077   1.488   1.504  1.00  0.00     0.040 A 
ATOM     14  C   UNL     1      -1.448  -0.023  -0.277  1.00  0.00     0.041 A 
ATOM     15  C   UNL     1      -1.518  -0.315   1.079  1.00  0.00     0.027 A 
ATOM     16  C   UNL     1      -0.824   1.142  -0.707  1.00  0.00     0.027 A 
ATOM     17  C   UNL     1      -0.732   0.432   1.967  1.00  0.00     0.016 A 
ATOM     18  C   UNL     1      -0.065   1.899   0.180  1.00  0.00     0.016 A 
BRANCH  14  19
ATOM     19  N   UNL     1      -1.952  -0.912  -1.227  1.00  0.00    -0.326 N 
ATOM     20  C   UNL     1      -1.276  -1.338  -2.351  1.00  0.00     0.224 C 
ATOM     21  O   UNL     1      -1.899  -1.689  -3.354  1.00  0.00    -0.275 OA
ATOM     22  H   UNL     1      -2.861  -1.263  -1.084  1.00  0.00     0.169 HD
BRANCH  20  23
ATOM     23  C   UNL     1       0.235  -1.577  -2.227  1.00  0.00     0.100 C 
BRANCH  23  24
ATOM     24  C   UNL     1       1.188  -0.572  -2.876  1.00  0.00     0.010 C 
BRANCH  24  25
ATOM     25  C   UNL     1       2.078   0.296  -1.966  1.00  0.00    -0.003 C 
ATOM     26  C   UNL     1       2.528  -0.314  -0.646  1.00  0.00     0.004 C 
ENDBRANCH  24  25
ENDBRANCH  23  24
ENDBRANCH  20  23
ENDBRANCH  14  19
ENDBRANCH  11  13
ENDBRANCH   6  11
ENDBRANCH   1   5
BRANCH   3  27
ATOM     27  C   UNL     1       1.249   4.313   4.635  1.00  0.00     0.117 C 
BRANCH  27  28
ATOM     28  C   UNL     1       2.022   4.125   5.923  1.00  0.00     0.042 C 
BRANCH  28  29
ATOM     29  C   UNL     1       1.122   3.980   7.131  1.00  0.00     0.118 C 
BRANCH  29  30
ATOM     30  N   UNL     1       0.277   2.788   7.082  1.00  0.00    -0.352 N 
ATOM     31  C   UNL     1       0.059   1.813   8.026  1.00  0.00     0.251 C 
ATOM     32  H   UNL     1      -0.214   2.663   6.237  1.00  0.00     0.163 HD
ATOM     33  O   UNL     1      -0.652   0.848   7.754  1.00  0.00    -0.269 OA
BRANCH  31  34
ATOM     34  C   UNL     1       0.714   1.902   9.348  1.00  0.00     0.039 A 
ATOM     35  C   UNL     1       1.250   0.745   9.918  1.00  0.00     0.014 A 
ATOM     36  C   UNL     1       0.842   3.127  10.002  1.00  0.00     0.014 A 
ATOM     37  C   UNL     1       1.983   0.835  11.104  1.00  0.00     0.010 A 
ATOM     38  C   UNL     1       1.680   3.234  11.101  1.00  0.00     0.010 A 
ATOM     39  C   UNL     1       2.241   2.088  11.680  1.00  0.00    -0.014 A 
BRANCH  39  40
ATOM     40  C   UNL     1       3.068   2.237  12.904  1.00  0.00     0.031 A 
ATOM     41  C   UNL     1       2.476   2.892  14.125  1.00  0.00     0.074 A 
ATOM     42  C   UNL     1       4.369   1.885  12.884  1.00  0.00     0.049 A 
ATOM     43  N   UNL     1       3.054   3.210  15.253  1.00  0.00    -0.248 NA
ATOM     44  C   UNL     1       1.057   3.285  14.052  1.00  0.00     0.031 C 
ATOM     45  C   UNL     1       5.082   1.330  11.730  1.00  0.00     0.029 A 
ATOM     46  N   UNL     1       5.331   1.964  13.858  1.00  0.00    -0.354 N 
ATOM     47  C   UNL     1       2.091   3.885  15.994  1.00  0.00     0.074 A 
ATOM     48  C   UNL     1       0.908   3.977  15.170  1.00  0.00     0.031 C 
ATOM     49  C   UNL     1       6.360   1.101  12.070  1.00  0.00     0.029 A 
ATOM     50  C   UNL     1       6.567   1.519  13.452  1.00  0.00     0.049 A 
ATOM     51  H   UNL     1       5.153   2.308  14.764  1.00  0.00     0.167 HD
ATOM     52  C   UNL     1       2.165   4.347  17.264  1.00  0.00     0.034 A 
ATOM     53  C   UNL     1       7.734   1.452  14.123  1.00  0.00     0.034 A 
ATOM     54  C   UNL     1       3.316   4.178  18.105  1.00  0.00     0.049 A 
ATOM     55  C   UNL     1       7.769   1.895  15.561  1.00  0.00     0.074 A 
ATOM     56  C   UNL     1       3.466   4.512  19.439  1.00  0.00     0.029 A 
ATOM     57  N   UNL     1       4.516   3.617  17.694  1.00  0.00    -0.354 N 
ATOM     58  N   UNL     1       6.801   2.388  16.296  1.00  0.00    -0.248 NA
ATOM     59  C   UNL     1       9.044   1.739  16.274  1.00  0.00     0.031 C 
ATOM     60  C   UNL     1       4.761   4.160  19.832  1.00  0.00     0.029 A 
ATOM     61  C   UNL     1       5.412   3.592  18.747  1.00  0.00     0.049 A 
ATOM     62  H   UNL     1       4.702   3.285  16.786  1.00  0.00     0.167 HD
ATOM     63  C   UNL     1       7.338   2.566  17.565  1.00  0.00     0.074 A 
ATOM     64  C   UNL     1       8.712   2.109  17.503  1.00  0.00     0.031 C 
ATOM     65  C   UNL     1       6.755   3.077  18.678  1.00  0.00     0.034 A 
BRANCH  52  66
ATOM     66  C   UNL     1       0.938   5.009  17.837  1.00  0.00     0.023 A 
ATOM     67  C   UNL     1      -0.203   4.230  18.120  1.00  0.00     0.012 A 
ATOM     68  C   UNL     1       0.919   6.388  18.122  1.00  0.00     0.148 A 
ATOM     69  C   UNL     1      -1.358   4.817  18.633  1.00  0.00     0.002 A 
ATOM     70  C   UNL     1      -0.220   6.958  18.679  1.00  0.00     0.091 A 
ATOM     71  F   UNL     1       2.003   7.119  17.825  1.00  0.00    -0.205 F 
ATOM     72  C   UNL     1      -1.363   6.178  18.922  1.00  0.00     0.022 A 
BRANCH  70  73
ATOM     73  S   UNL     1      -0.299   8.687  19.161  1.00  0.00     0.127 S 
ATOM     74  O   UNL     1      -1.163   9.245  18.121  1.00  0.00    -0.237 OA
ATOM     75  O   UNL     1      -0.914   8.610  20.487  1.00  0.00    -0.237 OA
ATOM     76  O   UNL     1       1.076   9.166  19.159  1.00  0.00    -0.744 OA
ENDBRANCH  70  73
ENDBRANCH  52  66
BRANCH  53  77
ATOM     77  C   UNL     1       8.934   0.853  13.472  1.00  0.00     0.023 A 
ATOM     78  C   UNL     1       9.384  -0.413  13.898  1.00  0.00     0.012 A 
ATOM     79  C   UNL     1       9.606   1.500  12.417  1.00  0.00     0.148 A 
ATOM     80  C   UNL     1      10.498  -1.010  13.308  1.00  0.00     0.002 A 
ATOM     81  C   UNL     1      10.684   0.876  11.798  1.00  0.00     0.091 A 
ATOM     82  F   UNL     1       9.170   2.707  12.031  1.00  0.00    -0.205 F 
ATOM     83  C   UNL     1      11.142  -0.371  12.252  1.00  0.00     0.022 A 
BRANCH  81  84
ATOM     84  S   UNL     1      11.494   1.563  10.348  1.00  0.00     0.127 S 
ATOM     85  O   UNL     1      12.777   1.992  10.897  1.00  0.00    -0.237 OA
ATOM     86  O   UNL     1      11.560   0.404   9.458  1.00  0.00    -0.237 OA
ATOM     87  O   UNL     1      10.617   2.628   9.879  1.00  0.00    -0.744 OA
ENDBRANCH  81  84
ENDBRANCH  53  77
BRANCH  65  88
ATOM     88  C   UNL     1       7.584   3.140  19.932  1.00  0.00     0.023 A 
ATOM     89  C   UNL     1       8.602   4.106  20.048  1.00  0.00     0.012 A 
ATOM     90  C   UNL     1       7.296   2.300  21.026  1.00  0.00     0.148 A 
ATOM     91  C   UNL     1       9.342   4.215  21.224  1.00  0.00     0.002 A 
ATOM     92  C   UNL     1       8.005   2.447  22.211  1.00  0.00     0.091 A 
ATOM     93  F   UNL     1       6.335   1.375  20.887  1.00  0.00    -0.205 F 
ATOM     94  C   UNL     1       9.036   3.396  22.308  1.00  0.00     0.022 A 
BRANCH  92  95
ATOM     95  S   UNL     1       7.612   1.503  23.688  1.00  0.00     0.127 S 
ATOM     96  O   UNL     1       8.712   0.542  23.729  1.00  0.00    -0.237 OA
ATOM     97  O   UNL     1       7.656   2.526  24.733  1.00  0.00    -0.237 OA
ATOM     98  O   UNL     1       6.290   0.935  23.458  1.00  0.00    -0.744 OA
ENDBRANCH  92  95
ENDBRANCH  65  88
ENDBRANCH  39  40
ENDBRANCH  31  34
ENDBRANCH  29  30
ENDBRANCH  28  29
ENDBRANCH  27  28
ENDBRANCH   3  27
TORSDOF 19
