REMARK SMILES CCC(=O)Nc1cc(NC(=O)/C=C/C(=O)NCCCNC(=O)c2ccc(-c3c4nc(c(-c5cccc(S(=O)(=O)[O-])c5F)c5ccc([nH]5)c(-c5cccc(S(=O)(=O)[O-])c5F)c5nc(c(-c6cccc(S(=O)(=O)[O-])c6F)c6ccc3[nH]6)C=C5)C=C4)cc2)ccc1C
REMARK SMILES IDX 17 1 16 2 14 3 15 4 13 6 12 7 10 8 9 9 11 11 8 12 6 13 7 14
REMARK SMILES IDX 88 15 87 16 89 17 86 18 5 19 3 20 4 21 2 23 1 24 18 25 19 26
REMARK SMILES IDX 20 27 21 28 22 30 23 31 24 32 85 33 25 34 84 35 26 36 27 37
REMARK SMILES IDX 28 38 78 39 29 40 83 41 77 42 79 43 30 44 82 45 76 46 75 47
REMARK SMILES IDX 31 49 63 50 43 51 62 52 44 53 47 54 61 55 80 56 45 57 46 58
REMARK SMILES IDX 60 60 81 61 48 62 32 63 33 64 41 65 34 66 36 67 42 68 35 69
REMARK SMILES IDX 37 70 38 71 39 72 40 73 64 74 65 75 73 76 66 77 68 78 74 79
REMARK SMILES IDX 67 80 69 81 70 82 71 83 72 84 49 85 50 86 58 87 51 88 53 89
REMARK SMILES IDX 59 90 52 91 54 92 55 93 56 94 57 95
REMARK H PARENT 16 5 9 10 5 22 20 29 79 48 47 59
REMARK Flexibility Score: inf
ROOT
ATOM      1  C   UNL     1       5.217   2.646   6.694  1.00  0.00     0.118 C 
ENDROOT
BRANCH   1   2
ATOM      2  N   UNL     1       4.275   2.924   5.618  1.00  0.00    -0.352 N 
ATOM      3  C   UNL     1       4.354   2.612   4.297  1.00  0.00     0.244 C 
ATOM      4  O   UNL     1       3.488   2.961   3.499  1.00  0.00    -0.270 OA
ATOM      5  H   UNL     1       3.462   3.409   5.886  1.00  0.00     0.163 HD
BRANCH   3   6
ATOM      6  C   UNL     1       5.502   1.832   3.792  1.00  0.00     0.077 C 
ATOM      7  C   UNL     1       5.738   0.606   4.279  1.00  0.00     0.077 C 
BRANCH   7   8
ATOM      8  C   UNL     1       6.645  -0.317   3.583  1.00  0.00     0.248 C 
ATOM      9  N   UNL     1       6.269  -0.882   2.394  1.00  0.00    -0.322 N 
ATOM     10  H   UNL     1       6.913  -1.537   2.040  1.00  0.00     0.170 HD
ATOM     11  O   UNL     1       7.732  -0.589   4.088  1.00  0.00    -0.270 OA
BRANCH   9  12
ATOM     12  C   UNL     1       5.128  -0.699   1.584  1.00  0.00     0.043 A 
ATOM     13  C   UNL     1       3.001   0.378   1.091  1.00  0.00     0.046 A 
ATOM     14  C   UNL     1       3.946  -0.092   2.005  1.00  0.00     0.052 A 
ATOM     15  C   UNL     1       3.203   0.169  -0.278  1.00  0.00    -0.027 A 
ATOM     16  C   UNL     1       4.288  -0.628  -0.681  1.00  0.00     0.008 A 
ATOM     17  C   UNL     1       2.438   0.894  -1.349  1.00  0.00     0.046 C 
ATOM     18  C   UNL     1       5.244  -1.057   0.242  1.00  0.00     0.026 A 
BRANCH  13  19
ATOM     19  N   UNL     1       2.041   1.269   1.588  1.00  0.00    -0.326 N 
ATOM     20  C   UNL     1       0.681   1.150   1.608  1.00  0.00     0.224 C 
ATOM     21  O   UNL     1      -0.019   2.135   1.849  1.00  0.00    -0.275 OA
ATOM     22  H   UNL     1       2.398   2.100   1.977  1.00  0.00     0.169 HD
BRANCH  20  23
ATOM     23  C   UNL     1       0.048  -0.223   1.482  1.00  0.00     0.097 C 
ATOM     24  C   UNL     1      -0.072  -0.763   0.076  1.00  0.00     0.014 C 
ENDBRANCH  20  23
ENDBRANCH  13  19
ENDBRANCH   9  12
ENDBRANCH   7   8
ENDBRANCH   3   6
ENDBRANCH   1   2
BRANCH   1  25
ATOM     25  C   UNL     1       6.571   3.317   6.489  1.00  0.00     0.042 C 
BRANCH  25  26
ATOM     26  C   UNL     1       6.509   4.797   6.817  1.00  0.00     0.118 C 
BRANCH  26  27
ATOM     27  N   UNL     1       7.134   5.121   8.087  1.00  0.00    -0.352 N 
ATOM     28  C   UNL     1       7.173   6.324   8.761  1.00  0.00     0.251 C 
ATOM     29  H   UNL     1       7.596   4.374   8.531  1.00  0.00     0.163 HD
ATOM     30  O   UNL     1       7.967   6.449   9.692  1.00  0.00    -0.269 OA
BRANCH  28  31
ATOM     31  C   UNL     1       6.197   7.389   8.435  1.00  0.00     0.039 A 
ATOM     32  C   UNL     1       5.543   8.021   9.501  1.00  0.00     0.014 A 
ATOM     33  C   UNL     1       5.790   7.631   7.125  1.00  0.00     0.014 A 
ATOM     34  C   UNL     1       4.353   8.706   9.273  1.00  0.00     0.010 A 
ATOM     35  C   UNL     1       4.574   8.239   6.902  1.00  0.00     0.010 A 
ATOM     36  C   UNL     1       3.830   8.719   7.984  1.00  0.00    -0.014 A 
BRANCH  36  37
ATOM     37  C   UNL     1       2.497   9.187   7.649  1.00  0.00     0.031 A 
ATOM     38  C   UNL     1       2.258  10.613   7.387  1.00  0.00     0.074 A 
ATOM     39  C   UNL     1       1.533   8.267   7.440  1.00  0.00     0.049 A 
ATOM     40  N   UNL     1       1.106  11.184   7.467  1.00  0.00    -0.248 NA
ATOM     41  C   UNL     1       3.343  11.517   7.036  1.00  0.00     0.031 C 
ATOM     42  C   UNL     1       0.263   8.449   6.753  1.00  0.00     0.029 A 
ATOM     43  N   UNL     1       1.443   6.993   8.009  1.00  0.00    -0.354 N 
ATOM     44  C   UNL     1       1.238  12.443   6.918  1.00  0.00     0.074 A 
ATOM     45  C   UNL     1       2.662  12.631   6.753  1.00  0.00     0.031 C 
ATOM     46  C   UNL     1      -0.576   7.476   7.141  1.00  0.00     0.029 A 
ATOM     47  C   UNL     1       0.075   6.757   8.226  1.00  0.00     0.049 A 
ATOM     48  H   UNL     1       2.188   6.384   8.215  1.00  0.00     0.167 HD
ATOM     49  C   UNL     1       0.121  13.110   6.508  1.00  0.00     0.034 A 
ATOM     50  C   UNL     1      -0.462   6.518   9.458  1.00  0.00     0.034 A 
ATOM     51  C   UNL     1      -1.091  12.331   6.805  1.00  0.00     0.049 A 
ATOM     52  C   UNL     1      -1.535   7.521   9.838  1.00  0.00     0.074 A 
ATOM     53  C   UNL     1      -1.844  11.457   6.036  1.00  0.00     0.029 A 
ATOM     54  N   UNL     1      -1.502  12.149   8.120  1.00  0.00    -0.354 N 
ATOM     55  N   UNL     1      -1.798   8.604   9.161  1.00  0.00    -0.248 NA
ATOM     56  C   UNL     1      -2.364   7.405  11.035  1.00  0.00     0.031 C 
ATOM     57  C   UNL     1      -2.648  10.682   6.911  1.00  0.00     0.029 A 
ATOM     58  C   UNL     1      -2.410  11.103   8.209  1.00  0.00     0.049 A 
ATOM     59  H   UNL     1      -1.192  12.689   8.883  1.00  0.00     0.167 HD
ATOM     60  C   UNL     1      -2.672   9.389   9.864  1.00  0.00     0.074 A 
ATOM     61  C   UNL     1      -3.067   8.550  10.984  1.00  0.00     0.031 C 
ATOM     62  C   UNL     1      -2.935  10.684   9.505  1.00  0.00     0.034 A 
BRANCH  49  63
ATOM     63  C   UNL     1       0.130  14.269   5.518  1.00  0.00     0.023 A 
ATOM     64  C   UNL     1      -1.042  14.476   4.753  1.00  0.00     0.012 A 
ATOM     65  C   UNL     1       1.215  15.122   5.217  1.00  0.00     0.148 A 
ATOM     66  C   UNL     1      -1.094  15.370   3.678  1.00  0.00     0.002 A 
ATOM     67  C   UNL     1       1.194  15.958   4.094  1.00  0.00     0.091 A 
ATOM     68  F   UNL     1       2.243  15.215   6.067  1.00  0.00    -0.205 F 
ATOM     69  C   UNL     1       0.040  16.078   3.317  1.00  0.00     0.022 A 
BRANCH  67  70
ATOM     70  S   UNL     1       2.658  16.838   3.519  1.00  0.00     0.127 S 
ATOM     71  O   UNL     1       2.685  16.500   2.094  1.00  0.00    -0.237 OA
ATOM     72  O   UNL     1       2.322  18.231   3.805  1.00  0.00    -0.237 OA
ATOM     73  O   UNL     1       3.778  16.290   4.276  1.00  0.00    -0.744 OA
ENDBRANCH  67  70
ENDBRANCH  49  63
BRANCH  50  74
ATOM     74  C   UNL     1       0.495   5.883  10.414  1.00  0.00     0.023 A 
ATOM     75  C   UNL     1       0.996   4.604  10.065  1.00  0.00     0.012 A 
ATOM     76  C   UNL     1       1.191   6.646  11.367  1.00  0.00     0.148 A 
ATOM     77  C   UNL     1       2.236   4.168  10.534  1.00  0.00     0.002 A 
ATOM     78  C   UNL     1       2.427   6.200  11.833  1.00  0.00     0.091 A 
ATOM     79  F   UNL     1       0.684   7.827  11.743  1.00  0.00    -0.205 F 
ATOM     80  C   UNL     1       2.969   4.984  11.387  1.00  0.00     0.022 A 
BRANCH  78  81
ATOM     81  S   UNL     1       3.432   7.228  12.913  1.00  0.00     0.127 S 
ATOM     82  O   UNL     1       2.973   6.803  14.231  1.00  0.00    -0.237 OA
ATOM     83  O   UNL     1       4.792   6.811  12.573  1.00  0.00    -0.237 OA
ATOM     84  O   UNL     1       3.113   8.592  12.519  1.00  0.00    -0.744 OA
ENDBRANCH  78  81
ENDBRANCH  50  74
BRANCH  62  85
ATOM     85  C   UNL     1      -3.700  11.682  10.352  1.00  0.00     0.023 A 
ATOM     86  C   UNL     1      -3.787  11.568  11.753  1.00  0.00     0.012 A 
ATOM     87  C   UNL     1      -4.236  12.863   9.775  1.00  0.00     0.148 A 
ATOM     88  C   UNL     1      -4.432  12.530  12.537  1.00  0.00     0.002 A 
ATOM     89  C   UNL     1      -4.776  13.870  10.571  1.00  0.00     0.091 A 
ATOM     90  F   UNL     1      -4.243  13.011   8.442  1.00  0.00    -0.205 F 
ATOM     91  C   UNL     1      -4.908  13.694  11.949  1.00  0.00     0.022 A 
BRANCH  89  92
ATOM     92  S   UNL     1      -5.168  15.482   9.875  1.00  0.00     0.127 S 
ATOM     93  O   UNL     1      -6.569  15.319   9.493  1.00  0.00    -0.237 OA
ATOM     94  O   UNL     1      -4.949  16.382  11.010  1.00  0.00    -0.237 OA
ATOM     95  O   UNL     1      -4.217  15.660   8.786  1.00  0.00    -0.744 OA
ENDBRANCH  89  92
ENDBRANCH  62  85
ENDBRANCH  36  37
ENDBRANCH  28  31
ENDBRANCH  26  27
ENDBRANCH  25  26
ENDBRANCH   1  25
TORSDOF 17
