REMARK SMILES Cc1cc(OCC(=O)N[C@@H](Cc2ccc(Cl)cc2)C(=O)NCCCNC(=O)c2ccc(-c3c4nc(c(-c5cccc(S(=O)(=O)[O-])c5F)c5ccc([nH]5)c(-c5cccc(S(=O)(=O)[O-])c5F)c5nc(c(-c6cccc(S(=O)(=O)[O-])c6F)c6ccc3[nH]6)C=C5)C=C4)cc2)c2c(C)c(C)c(=O)oc2c1
REMARK SMILES IDX 22 1 21 2 19 3 20 4 10 6 9 7 7 8 8 9 6 11 5 12 4 13 1 14
REMARK SMILES IDX 2 15 3 16 100 17 99 18 91 19 98 20 92 21 96 22 93 23 94 24
REMARK SMILES IDX 97 25 95 26 11 27 12 28 13 29 18 30 14 31 17 32 15 33 16 34
REMARK SMILES IDX 23 35 24 36 25 37 26 38 27 40 28 41 29 42 90 43 30 44 89 45
REMARK SMILES IDX 31 46 32 47 33 48 83 49 34 50 88 51 82 52 84 53 35 54 87 55
REMARK SMILES IDX 81 56 80 57 36 59 68 60 48 61 67 62 49 63 52 64 66 65 85 66
REMARK SMILES IDX 50 67 51 68 65 70 86 71 53 72 37 73 38 74 46 75 39 76 41 77
REMARK SMILES IDX 47 78 40 79 42 80 43 81 44 82 45 83 69 84 70 85 78 86 71 87
REMARK SMILES IDX 73 88 79 89 72 90 74 91 75 92 76 93 77 94 54 95 55 96 63 97
REMARK SMILES IDX 56 98 58 99 64 100 57 101 59 102 60 103 61 104 62 105
REMARK H PARENT 21 5 9 10 25 39 84 58 52 69
REMARK Flexibility Score: inf
ROOT
ATOM      1  C   UNL     1       4.954   4.852   4.939  1.00  0.00     0.117 C 
ENDROOT
BRANCH   1   2
ATOM      2  N   UNL     1       3.737   5.428   5.482  1.00  0.00    -0.354 N 
ATOM      3  C   UNL     1       2.570   4.817   5.827  1.00  0.00     0.242 C 
ATOM      4  O   UNL     1       1.872   5.383   6.677  1.00  0.00    -0.273 OA
ATOM      5  H   UNL     1       3.759   6.402   5.622  1.00  0.00     0.163 HD
BRANCH   3   6
ATOM      6  C   UNL     1       2.143   3.437   5.280  1.00  0.00     0.175 C 
BRANCH   6   7
ATOM      7  N   UNL     1       2.401   3.293   3.850  1.00  0.00    -0.341 N 
ATOM      8  C   UNL     1       1.592   3.674   2.821  1.00  0.00     0.258 C 
ATOM      9  O   UNL     1       2.088   3.819   1.703  1.00  0.00    -0.271 OA
ATOM     10  H   UNL     1       3.256   2.874   3.601  1.00  0.00     0.164 HD
BRANCH   8  11
ATOM     11  C   UNL     1       0.086   3.870   3.061  1.00  0.00     0.329 C 
BRANCH  11  12
ATOM     12  O   UNL     1      -0.634   2.785   3.645  1.00  0.00    -0.483 OA
BRANCH  12  13
ATOM     13  C   UNL     1      -0.418   1.519   3.163  1.00  0.00     0.131 A 
ATOM     14  C   UNL     1       0.816  -0.106  -0.072  1.00  0.00     0.044 C 
ATOM     15  C   UNL     1       0.272   0.058   1.315  1.00  0.00    -0.044 A 
ATOM     16  C   UNL     1      -0.018   1.325   1.823  1.00  0.00     0.050 A 
ATOM     17  C   UNL     1       0.113  -1.034   2.154  1.00  0.00     0.051 A 
ATOM     18  C   UNL     1      -0.346  -0.846   3.463  1.00  0.00     0.142 A 
ATOM     19  C   UNL     1      -0.619   0.412   4.024  1.00  0.00     0.063 A 
ATOM     20  O   UNL     1      -0.517  -2.045   4.175  1.00  0.00    -0.422 OA
ATOM     21  C   UNL     1      -1.067   0.427   5.450  1.00  0.00    -0.026 A 
ATOM     22  C   UNL     1      -1.036  -2.063   5.448  1.00  0.00     0.339 A 
ATOM     23  C   UNL     1      -1.310   1.709   6.208  1.00  0.00     0.046 C 
ATOM     24  C   UNL     1      -1.271  -0.748   6.094  1.00  0.00     0.038 A 
ATOM     25  O   UNL     1      -1.270  -3.121   6.024  1.00  0.00    -0.246 OA
ATOM     26  C   UNL     1      -1.758  -0.897   7.515  1.00  0.00     0.052 C 
ENDBRANCH  12  13
ENDBRANCH  11  12
ENDBRANCH   8  11
ENDBRANCH   6   7
BRANCH   6  27
ATOM     27  C   UNL     1       2.605   2.250   6.150  1.00  0.00     0.070 C 
BRANCH  27  28
ATOM     28  C   UNL     1       4.054   1.836   6.048  1.00  0.00    -0.045 A 
ATOM     29  C   UNL     1       5.010   2.352   6.935  1.00  0.00     0.005 A 
ATOM     30  C   UNL     1       4.470   0.949   5.043  1.00  0.00     0.005 A 
ATOM     31  C   UNL     1       6.367   2.057   6.766  1.00  0.00     0.021 A 
ATOM     32  C   UNL     1       5.823   0.635   4.891  1.00  0.00     0.021 A 
ATOM     33  C   UNL     1       6.768   1.206   5.740  1.00  0.00     0.041 A 
ATOM     34  Cl  UNL     1       8.438   0.871   5.510  1.00  0.00    -0.084 Cl
ENDBRANCH  27  28
ENDBRANCH   6  27
ENDBRANCH   3   6
ENDBRANCH   1   2
BRANCH   1  35
ATOM     35  C   UNL     1       5.754   5.798   4.067  1.00  0.00     0.042 C 
BRANCH  35  36
ATOM     36  C   UNL     1       6.496   6.839   4.894  1.00  0.00     0.118 C 
BRANCH  36  37
ATOM     37  N   UNL     1       7.527   6.258   5.762  1.00  0.00    -0.352 N 
ATOM     38  C   UNL     1       8.878   6.065   5.566  1.00  0.00     0.251 C 
ATOM     39  H   UNL     1       7.196   5.952   6.637  1.00  0.00     0.163 HD
ATOM     40  O   UNL     1       9.513   5.373   6.357  1.00  0.00    -0.269 OA
BRANCH  38  41
ATOM     41  C   UNL     1       9.538   6.660   4.387  1.00  0.00     0.039 A 
ATOM     42  C   UNL     1       9.209   7.954   4.003  1.00  0.00     0.014 A 
ATOM     43  C   UNL     1      10.432   5.909   3.620  1.00  0.00     0.014 A 
ATOM     44  C   UNL     1       9.519   8.378   2.723  1.00  0.00     0.010 A 
ATOM     45  C   UNL     1      10.872   6.408   2.388  1.00  0.00     0.010 A 
ATOM     46  C   UNL     1      10.347   7.609   1.888  1.00  0.00    -0.014 A 
BRANCH  46  47
ATOM     47  C   UNL     1      10.591   8.076   0.495  1.00  0.00     0.031 A 
ATOM     48  C   UNL     1      10.210   7.221  -0.688  1.00  0.00     0.074 A 
ATOM     49  C   UNL     1      11.052   9.327   0.293  1.00  0.00     0.049 A 
ATOM     50  N   UNL     1      10.340   7.484  -1.964  1.00  0.00    -0.248 NA
ATOM     51  C   UNL     1       9.611   5.904  -0.414  1.00  0.00     0.031 C 
ATOM     52  C   UNL     1      11.445  10.260   1.352  1.00  0.00     0.029 A 
ATOM     53  N   UNL     1      11.220  10.050  -0.860  1.00  0.00    -0.354 N 
ATOM     54  C   UNL     1       9.898   6.352  -2.638  1.00  0.00     0.074 A 
ATOM     55  C   UNL     1       9.491   5.395  -1.633  1.00  0.00     0.031 C 
ATOM     56  C   UNL     1      11.710  11.456   0.811  1.00  0.00     0.029 A 
ATOM     57  C   UNL     1      11.603  11.352  -0.639  1.00  0.00     0.049 A 
ATOM     58  H   UNL     1      11.080   9.674  -1.759  1.00  0.00     0.167 HD
ATOM     59  C   UNL     1       9.818   6.134  -3.971  1.00  0.00     0.034 A 
ATOM     60  C   UNL     1      11.856  12.355  -1.501  1.00  0.00     0.034 A 
ATOM     61  C   UNL     1      10.152   7.111  -4.972  1.00  0.00     0.049 A 
ATOM     62  C   UNL     1      11.748  12.096  -2.971  1.00  0.00     0.074 A 
ATOM     63  C   UNL     1      10.107   6.981  -6.349  1.00  0.00     0.029 A 
ATOM     64  N   UNL     1      10.566   8.406  -4.705  1.00  0.00    -0.354 N 
ATOM     65  N   UNL     1      11.346  11.009  -3.583  1.00  0.00    -0.248 NA
ATOM     66  C   UNL     1      12.138  13.190  -3.870  1.00  0.00     0.031 C 
ATOM     67  C   UNL     1      10.487   8.202  -6.915  1.00  0.00     0.029 A 
ATOM     68  C   UNL     1      10.768   9.091  -5.890  1.00  0.00     0.049 A 
ATOM     69  H   UNL     1      10.698   8.783  -3.805  1.00  0.00     0.167 HD
ATOM     70  C   UNL     1      11.444  11.281  -4.941  1.00  0.00     0.074 A 
ATOM     71  C   UNL     1      11.909  12.649  -5.061  1.00  0.00     0.031 C 
ATOM     72  C   UNL     1      11.200  10.461  -5.990  1.00  0.00     0.034 A 
BRANCH  59  73
ATOM     73  C   UNL     1       9.301   4.799  -4.436  1.00  0.00     0.023 A 
ATOM     74  C   UNL     1       7.913   4.560  -4.438  1.00  0.00     0.012 A 
ATOM     75  C   UNL     1      10.176   3.815  -4.939  1.00  0.00     0.148 A 
ATOM     76  C   UNL     1       7.402   3.355  -4.920  1.00  0.00     0.002 A 
ATOM     77  C   UNL     1       9.657   2.628  -5.444  1.00  0.00     0.091 A 
ATOM     78  F   UNL     1      11.494   4.058  -4.910  1.00  0.00    -0.205 F 
ATOM     79  C   UNL     1       8.272   2.395  -5.431  1.00  0.00     0.022 A 
BRANCH  77  80
ATOM     80  S   UNL     1      10.686   1.348  -6.173  1.00  0.00     0.127 S 
ATOM     81  O   UNL     1      10.563   0.275  -5.187  1.00  0.00    -0.237 OA
ATOM     82  O   UNL     1      10.004   1.090  -7.442  1.00  0.00    -0.237 OA
ATOM     83  O   UNL     1      12.016   1.926  -6.302  1.00  0.00    -0.744 OA
ENDBRANCH  77  80
ENDBRANCH  59  73
BRANCH  60  84
ATOM     84  C   UNL     1      12.209  13.696  -0.961  1.00  0.00     0.023 A 
ATOM     85  C   UNL     1      11.252  14.726  -0.995  1.00  0.00     0.012 A 
ATOM     86  C   UNL     1      13.434  13.909  -0.299  1.00  0.00     0.148 A 
ATOM     87  C   UNL     1      11.505  15.946  -0.367  1.00  0.00     0.002 A 
ATOM     88  C   UNL     1      13.657  15.106   0.369  1.00  0.00     0.091 A 
ATOM     89  F   UNL     1      14.329  12.911  -0.288  1.00  0.00    -0.205 F 
ATOM     90  C   UNL     1      12.698  16.130   0.328  1.00  0.00     0.022 A 
BRANCH  88  91
ATOM     91  S   UNL     1      15.095  15.377   1.411  1.00  0.00     0.127 S 
ATOM     92  O   UNL     1      15.746  16.497   0.736  1.00  0.00    -0.237 OA
ATOM     93  O   UNL     1      14.472  15.707   2.694  1.00  0.00    -0.237 OA
ATOM     94  O   UNL     1      15.836  14.124   1.401  1.00  0.00    -0.744 OA
ENDBRANCH  88  91
ENDBRANCH  60  84
BRANCH  72  95
ATOM     95  C   UNL     1      11.445  11.008  -7.367  1.00  0.00     0.023 A 
ATOM     96  C   UNL     1      12.764  11.053  -7.859  1.00  0.00     0.012 A 
ATOM     97  C   UNL     1      10.376  11.392  -8.197  1.00  0.00     0.148 A 
ATOM     98  C   UNL     1      13.017  11.486  -9.159  1.00  0.00     0.002 A 
ATOM     99  C   UNL     1      10.633  11.794  -9.501  1.00  0.00     0.091 A 
ATOM    100  F   UNL     1       9.133  11.355  -7.695  1.00  0.00    -0.205 F 
ATOM    101  C   UNL     1      11.952  11.846  -9.982  1.00  0.00     0.022 A 
BRANCH  99 102
ATOM    102  S   UNL     1       9.323  12.216 -10.656  1.00  0.00     0.127 S 
ATOM    103  O   UNL     1       9.478  13.665 -10.765  1.00  0.00    -0.237 OA
ATOM    104  O   UNL     1       9.711  11.468 -11.852  1.00  0.00    -0.237 OA
ATOM    105  O   UNL     1       8.083  11.765 -10.037  1.00  0.00    -0.744 OA
ENDBRANCH  99 102
ENDBRANCH  72  95
ENDBRANCH  46  47
ENDBRANCH  38  41
ENDBRANCH  36  37
ENDBRANCH  35  36
ENDBRANCH   1  35
TORSDOF 19
