REMARK SMILES O=C1[NH+]=C(Nc2ccc(C(=O)NCCCNC(=O)c3ccc(-c4c5nc(c(-c6cccc(S(=O)(=O)[O-])c6F)c6ccc([nH]6)c(-c6cccc(S(=O)(=O)[O-])c6F)c6nc(c(-c7cccc(S(=O)(=O)[O-])c7F)c7ccc4[nH]7)C=C6)C=C5)cc3)c(O)c2)S/C1=C\c1ccc[nH]1
REMARK SMILES IDX 14 1 13 2 12 3 10 4 11 5 9 7 6 8 7 9 84 10 8 11 82 12 5 13
REMARK SMILES IDX 1 14 2 15 3 16 86 17 4 18 85 20 87 21 88 23 89 24 92 25
REMARK SMILES IDX 90 26 91 27 83 29 15 31 16 32 17 33 18 35 19 36 20 37 81 38
REMARK SMILES IDX 21 39 80 40 22 41 23 42 24 43 74 44 25 45 79 46 73 47 75 48
REMARK SMILES IDX 26 49 78 50 72 51 71 52 27 54 59 55 39 56 58 57 40 58 43 59
REMARK SMILES IDX 57 60 76 61 41 62 42 63 56 65 77 66 44 67 28 68 29 69 37 70
REMARK SMILES IDX 30 71 32 72 38 73 31 74 33 75 34 76 35 77 36 78 60 79 61 80
REMARK SMILES IDX 69 81 62 82 64 83 70 84 63 85 65 86 66 87 67 88 68 89 45 90
REMARK SMILES IDX 46 91 54 92 47 93 49 94 55 95 48 96 50 97 51 98 52 99 53 100
REMARK H PARENT 12 6 3 19 5 22 92 28 83 30 16 34 75 53 43 64
REMARK Flexibility Score: inf
ROOT
ATOM      1  C   UNL     1      -1.072   8.568  -3.496  1.00  0.00     0.042 C 
ENDROOT
BRANCH   1   2
ATOM      2  C   UNL     1      -0.127   8.207  -2.364  1.00  0.00     0.118 C 
BRANCH   2   3
ATOM      3  N   UNL     1      -0.623   8.515  -1.028  1.00  0.00    -0.352 N 
ATOM      4  C   UNL     1      -0.528   7.814   0.149  1.00  0.00     0.255 C 
ATOM      5  O   UNL     1      -1.031   8.290   1.165  1.00  0.00    -0.269 OA
ATOM      6  H   UNL     1      -1.108   9.369  -0.958  1.00  0.00     0.163 HD
BRANCH   4   7
ATOM      7  C   UNL     1       0.118   6.482   0.219  1.00  0.00     0.081 A 
ATOM      8  C   UNL     1       1.045   3.816   0.277  1.00  0.00     0.129 A 
ATOM      9  C   UNL     1      -0.083   4.195   1.010  1.00  0.00     0.053 A 
ATOM     10  C   UNL     1       1.746   4.805  -0.423  1.00  0.00     0.098 A 
ATOM     11  C   UNL     1      -0.543   5.513   0.984  1.00  0.00     0.022 A 
ATOM     12  C   UNL     1       1.315   6.133  -0.410  1.00  0.00     0.132 A 
BRANCH   8  13
ATOM     13  N   UNL     1       1.450   2.482   0.154  1.00  0.00    -0.234 N 
ATOM     14  O   UNL     1      -2.290  -0.312   0.079  1.00  0.00    -0.240 OA
ATOM     15  C   UNL     1      -1.108   0.011   0.098  1.00  0.00     0.346 C 
ATOM     16  N   UNL     1      -0.642   1.302   0.167  1.00  0.00    -0.199 N 
ATOM     17  C   UNL     1       0.007  -0.978   0.078  1.00  0.00     0.111 C 
ATOM     18  C   UNL     1       0.646   1.382   0.155  1.00  0.00     0.322 C 
ATOM     19  H   UNL     1      -1.232   2.088   0.220  1.00  0.00     0.316 HD
ATOM     20  S   UNL     1       1.507  -0.140   0.101  1.00  0.00     0.006 SA
ATOM     21  C   UNL     1      -0.210  -2.299   0.043  1.00  0.00     0.050 C 
ATOM     22  H   UNL     1       2.416   2.321   0.057  1.00  0.00     0.313 HD
BRANCH  21  23
ATOM     23  C   UNL     1       0.841  -3.242   0.130  1.00  0.00     0.039 A 
ATOM     24  C   UNL     1       1.841  -3.467   1.056  1.00  0.00     0.027 A 
ATOM     25  N   UNL     1       0.985  -4.171  -0.870  1.00  0.00    -0.362 N 
ATOM     26  C   UNL     1       2.628  -4.543   0.586  1.00  0.00     0.020 A 
ATOM     27  C   UNL     1       2.082  -4.955  -0.609  1.00  0.00     0.083 A 
ATOM     28  H   UNL     1       0.394  -4.262  -1.652  1.00  0.00     0.166 HD
ENDBRANCH  21  23
ENDBRANCH   8  13
BRANCH  12  29
ATOM     29  O   UNL     1       2.152   7.026  -1.018  1.00  0.00    -0.507 OA
ATOM     30  H   UNL     1       1.926   7.935  -1.047  1.00  0.00     0.293 HD
ENDBRANCH  12  29
ENDBRANCH   4   7
ENDBRANCH   2   3
ENDBRANCH   1   2
BRANCH   1  31
ATOM     31  C   UNL     1      -1.502  10.026  -3.549  1.00  0.00     0.118 C 
BRANCH  31  32
ATOM     32  N   UNL     1      -0.404  10.967  -3.745  1.00  0.00    -0.352 N 
ATOM     33  C   UNL     1      -0.048  11.730  -4.835  1.00  0.00     0.251 C 
ATOM     34  H   UNL     1       0.184  11.075  -2.962  1.00  0.00     0.163 HD
ATOM     35  O   UNL     1       1.000  12.372  -4.802  1.00  0.00    -0.269 OA
BRANCH  33  36
ATOM     36  C   UNL     1      -0.889  11.752  -6.053  1.00  0.00     0.039 A 
ATOM     37  C   UNL     1      -0.275  11.723  -7.309  1.00  0.00     0.014 A 
ATOM     38  C   UNL     1      -2.279  11.787  -5.967  1.00  0.00     0.014 A 
ATOM     39  C   UNL     1      -1.059  11.622  -8.463  1.00  0.00     0.010 A 
ATOM     40  C   UNL     1      -3.049  11.552  -7.100  1.00  0.00     0.010 A 
ATOM     41  C   UNL     1      -2.452  11.477  -8.365  1.00  0.00    -0.014 A 
BRANCH  41  42
ATOM     42  C   UNL     1      -3.308  11.253  -9.562  1.00  0.00     0.031 A 
ATOM     43  C   UNL     1      -4.439  12.202  -9.870  1.00  0.00     0.074 A 
ATOM     44  C   UNL     1      -3.135  10.146 -10.313  1.00  0.00     0.049 A 
ATOM     45  N   UNL     1      -5.344  12.129 -10.811  1.00  0.00    -0.248 NA
ATOM     46  C   UNL     1      -4.596  13.368  -8.983  1.00  0.00     0.031 C 
ATOM     47  C   UNL     1      -2.131   9.107 -10.076  1.00  0.00     0.029 A 
ATOM     48  N   UNL     1      -3.817   9.697 -11.418  1.00  0.00    -0.354 N 
ATOM     49  C   UNL     1      -6.196  13.207 -10.604  1.00  0.00     0.074 A 
ATOM     50  C   UNL     1      -5.732  13.891  -9.418  1.00  0.00     0.031 C 
ATOM     51  C   UNL     1      -2.249   8.154 -11.015  1.00  0.00     0.029 A 
ATOM     52  C   UNL     1      -3.364   8.488 -11.895  1.00  0.00     0.049 A 
ATOM     53  H   UNL     1      -4.561  10.193 -11.830  1.00  0.00     0.167 HD
ATOM     54  C   UNL     1      -7.250  13.617 -11.349  1.00  0.00     0.034 A 
ATOM     55  C   UNL     1      -3.802   7.729 -12.918  1.00  0.00     0.034 A 
ATOM     56  C   UNL     1      -7.685  12.960 -12.550  1.00  0.00     0.049 A 
ATOM     57  C   UNL     1      -4.962   8.216 -13.744  1.00  0.00     0.074 A 
ATOM     58  C   UNL     1      -8.687  13.341 -13.425  1.00  0.00     0.029 A 
ATOM     59  N   UNL     1      -7.154  11.777 -13.041  1.00  0.00    -0.354 N 
ATOM     60  N   UNL     1      -5.659   9.319 -13.618  1.00  0.00    -0.248 NA
ATOM     61  C   UNL     1      -5.374   7.371 -14.874  1.00  0.00     0.031 C 
ATOM     62  C   UNL     1      -8.786  12.369 -14.425  1.00  0.00     0.029 A 
ATOM     63  C   UNL     1      -7.815  11.406 -14.199  1.00  0.00     0.049 A 
ATOM     64  H   UNL     1      -6.415  11.276 -12.628  1.00  0.00     0.167 HD
ATOM     65  C   UNL     1      -6.563   9.321 -14.675  1.00  0.00     0.074 A 
ATOM     66  C   UNL     1      -6.311   8.118 -15.441  1.00  0.00     0.031 C 
ATOM     67  C   UNL     1      -7.521  10.231 -14.979  1.00  0.00     0.034 A 
BRANCH  54  68
ATOM     68  C   UNL     1      -7.977  14.863 -10.908  1.00  0.00     0.023 A 
ATOM     69  C   UNL     1      -7.333  16.116 -10.989  1.00  0.00     0.012 A 
ATOM     70  C   UNL     1      -9.309  14.802 -10.455  1.00  0.00     0.148 A 
ATOM     71  C   UNL     1      -7.984  17.279 -10.582  1.00  0.00     0.002 A 
ATOM     72  C   UNL     1      -9.970  15.973 -10.102  1.00  0.00     0.091 A 
ATOM     73  F   UNL     1      -9.900  13.602 -10.367  1.00  0.00    -0.205 F 
ATOM     74  C   UNL     1      -9.305  17.209 -10.150  1.00  0.00     0.022 A 
BRANCH  72  75
ATOM     75  S   UNL     1     -11.698  16.002  -9.613  1.00  0.00     0.127 S 
ATOM     76  O   UNL     1     -11.597  16.349  -8.196  1.00  0.00    -0.237 OA
ATOM     77  O   UNL     1     -12.239  17.062 -10.463  1.00  0.00    -0.237 OA
ATOM     78  O   UNL     1     -12.218  14.671  -9.892  1.00  0.00    -0.744 OA
ENDBRANCH  72  75
ENDBRANCH  54  68
BRANCH  55  79
ATOM     79  C   UNL     1      -3.104   6.455 -13.260  1.00  0.00     0.023 A 
ATOM     80  C   UNL     1      -2.371   6.369 -14.461  1.00  0.00     0.012 A 
ATOM     81  C   UNL     1      -3.149   5.339 -12.404  1.00  0.00     0.148 A 
ATOM     82  C   UNL     1      -1.729   5.184 -14.821  1.00  0.00     0.002 A 
ATOM     83  C   UNL     1      -2.460   4.179 -12.740  1.00  0.00     0.091 A 
ATOM     84  F   UNL     1      -3.856   5.438 -11.269  1.00  0.00    -0.205 F 
ATOM     85  C   UNL     1      -1.766   4.093 -13.957  1.00  0.00     0.022 A 
BRANCH  83  86
ATOM     86  S   UNL     1      -2.344   2.768 -11.635  1.00  0.00     0.127 S 
ATOM     87  O   UNL     1      -3.108   1.756 -12.360  1.00  0.00    -0.237 OA
ATOM     88  O   UNL     1      -0.899   2.538 -11.594  1.00  0.00    -0.237 OA
ATOM     89  O   UNL     1      -2.919   3.208 -10.371  1.00  0.00    -0.744 OA
ENDBRANCH  83  86
ENDBRANCH  55  79
BRANCH  67  90
ATOM     90  C   UNL     1      -8.341   9.998 -16.221  1.00  0.00     0.023 A 
ATOM     91  C   UNL     1      -9.296   8.964 -16.256  1.00  0.00     0.012 A 
ATOM     92  C   UNL     1      -8.213  10.860 -17.329  1.00  0.00     0.148 A 
ATOM     93  C   UNL     1     -10.087   8.768 -17.388  1.00  0.00     0.002 A 
ATOM     94  C   UNL     1      -9.043  10.694 -18.431  1.00  0.00     0.091 A 
ATOM     95  F   UNL     1      -7.287  11.829 -17.282  1.00  0.00    -0.205 F 
ATOM     96  C   UNL     1      -9.969   9.640 -18.468  1.00  0.00     0.022 A 
BRANCH  94  97
ATOM     97  S   UNL     1      -9.034  11.828 -19.824  1.00  0.00     0.127 S 
ATOM     98  O   UNL     1      -8.469  10.993 -20.883  1.00  0.00    -0.237 OA
ATOM     99  O   UNL     1     -10.457  12.133 -19.980  1.00  0.00    -0.237 OA
ATOM    100  O   UNL     1      -8.212  12.960 -19.419  1.00  0.00    -0.744 OA
ENDBRANCH  94  97
ENDBRANCH  67  90
ENDBRANCH  41  42
ENDBRANCH  33  36
ENDBRANCH  31  32
ENDBRANCH   1  31
TORSDOF 16
