REMARK SMILES CCOC(=O)C1CCN(c2cc(NCC(=O)NCCCNC(=O)c3ccc(-c4c5nc(c(-c6cccc(S(=O)(=O)[O-])c6F)c6ccc([nH]6)c(-c6cccc(S(=O)(=O)[O-])c6F)c6nc(c(-c7cccc(S(=O)(=O)[O-])c7F)c7ccc4[nH]7)C=C6)C=C5)cc3)c3c4c(onc24)-c2ccccc2C3=O)CC1
REMARK SMILES IDX 15 1 16 2 17 3 14 5 13 6 12 8 10 9 11 10 92 11 88 12 91 13
REMARK SMILES IDX 87 14 89 15 90 16 99 17 93 18 98 19 100 20 94 21 97 22 95 23
REMARK SMILES IDX 96 24 9 25 6 26 7 27 102 28 8 29 101 30 4 31 5 32 3 33 2 34
REMARK SMILES IDX 1 35 18 36 19 37 20 38 21 39 22 40 23 42 24 43 25 44 86 45
REMARK SMILES IDX 26 46 85 47 27 48 28 49 29 50 79 51 30 52 84 53 78 54 80 55
REMARK SMILES IDX 31 56 83 57 77 58 76 59 32 61 64 62 44 63 63 64 45 65 48 66
REMARK SMILES IDX 62 67 81 68 46 69 47 70 61 72 82 73 49 74 33 75 34 76 42 77
REMARK SMILES IDX 35 78 37 79 43 80 36 81 38 82 39 83 40 84 41 85 65 86 66 87
REMARK SMILES IDX 74 88 67 89 69 90 75 91 68 92 70 93 71 94 72 95 73 96 50 97
REMARK SMILES IDX 51 98 59 99 52 100 54 101 60 102 53 103 55 104 56 105 57 106
REMARK SMILES IDX 58 107
REMARK H PARENT 17 4 13 7 21 41 80 60 48 71
REMARK Flexibility Score: inf
ROOT
ATOM      1  C   UNL     1       3.788  -6.202  -8.432  1.00  0.00     0.239 C 
ATOM      2  O   UNL     1       3.432  -6.661  -9.521  1.00  0.00    -0.273 OA
ATOM      3  N   UNL     1       4.396  -4.979  -8.417  1.00  0.00    -0.355 N 
ATOM      4  H   UNL     1       4.415  -4.507  -9.280  1.00  0.00     0.163 HD
ENDROOT
BRANCH   1   5
ATOM      5  C   UNL     1       3.487  -6.928  -7.119  1.00  0.00     0.213 C 
BRANCH   5   6
ATOM      6  N   UNL     1       4.697  -7.385  -6.457  1.00  0.00    -0.375 N 
ATOM      7  H   UNL     1       5.315  -7.920  -7.004  1.00  0.00     0.161 HD
BRANCH   6   8
ATOM      8  C   UNL     1       5.085  -7.156  -5.142  1.00  0.00     0.049 A 
ATOM      9  C   UNL     1       4.653  -5.930  -2.913  1.00  0.00     0.069 A 
ATOM     10  C   UNL     1       4.306  -6.311  -4.252  1.00  0.00     0.054 A 
ATOM     11  C   UNL     1       5.825  -6.590  -2.469  1.00  0.00     0.138 A 
ATOM     12  C   UNL     1       6.539  -7.407  -3.368  1.00  0.00     0.065 A 
ATOM     13  N   UNL     1       6.454  -6.649  -1.275  1.00  0.00    -0.077 NA
ATOM     14  C   UNL     1       6.296  -7.725  -4.682  1.00  0.00     0.059 A 
ATOM     15  C   UNL     1       7.606  -7.912  -2.712  1.00  0.00     0.176 A 
ATOM     16  O   UNL     1       7.584  -7.461  -1.438  1.00  0.00    -0.355 OA
ATOM     17  C   UNL     1       7.276  -8.591  -5.400  1.00  0.00     0.196 C 
ATOM     18  C   UNL     1       8.591  -8.813  -3.237  1.00  0.00     0.032 A 
ATOM     19  C   UNL     1       8.449  -9.139  -4.608  1.00  0.00     0.034 A 
ATOM     20  O   UNL     1       7.117  -8.862  -6.579  1.00  0.00    -0.288 OA
ATOM     21  C   UNL     1       9.618  -9.371  -2.481  1.00  0.00     0.013 A 
ATOM     22  C   UNL     1       9.368  -9.994  -5.217  1.00  0.00     0.013 A 
ATOM     23  C   UNL     1      10.521 -10.242  -3.093  1.00  0.00     0.001 A 
ATOM     24  C   UNL     1      10.403 -10.544  -4.455  1.00  0.00     0.001 A 
BRANCH   9  25
ATOM     25  N   UNL     1       3.966  -4.960  -2.220  1.00  0.00    -0.370 N 
ATOM     26  C   UNL     1       2.989  -3.553   0.068  1.00  0.00     0.103 C 
ATOM     27  C   UNL     1       4.487  -3.599  -0.252  1.00  0.00     0.037 C 
ATOM     28  C   UNL     1       2.296  -4.815  -0.471  1.00  0.00     0.037 C 
ATOM     29  C   UNL     1       4.741  -3.810  -1.739  1.00  0.00     0.117 C 
ATOM     30  C   UNL     1       2.545  -5.015  -1.969  1.00  0.00     0.117 C 
BRANCH  26  31
ATOM     31  C   UNL     1       2.349  -2.286  -0.482  1.00  0.00     0.309 C 
ATOM     32  O   UNL     1       2.916  -1.410  -1.109  1.00  0.00    -0.252 OA
BRANCH  31  33
ATOM     33  O   UNL     1       1.017  -2.250  -0.164  1.00  0.00    -0.466 OA
BRANCH  33  34
ATOM     34  C   UNL     1       0.314  -1.112  -0.682  1.00  0.00     0.229 C 
ATOM     35  C   UNL     1       0.535   0.110   0.191  1.00  0.00     0.049 C 
ENDBRANCH  33  34
ENDBRANCH  31  33
ENDBRANCH  26  31
ENDBRANCH   9  25
ENDBRANCH   6   8
ENDBRANCH   5   6
ENDBRANCH   1   5
BRANCH   3  36
ATOM     36  C   UNL     1       5.022  -4.272  -7.306  1.00  0.00     0.117 C 
BRANCH  36  37
ATOM     37  C   UNL     1       6.532  -4.491  -7.280  1.00  0.00     0.042 C 
BRANCH  37  38
ATOM     38  C   UNL     1       7.215  -3.912  -8.515  1.00  0.00     0.118 C 
BRANCH  38  39
ATOM     39  N   UNL     1       7.454  -2.480  -8.423  1.00  0.00    -0.352 N 
ATOM     40  C   UNL     1       8.542  -1.810  -7.916  1.00  0.00     0.251 C 
ATOM     41  H   UNL     1       6.733  -1.909  -8.775  1.00  0.00     0.163 HD
ATOM     42  O   UNL     1       8.528  -0.586  -7.843  1.00  0.00    -0.269 OA
BRANCH  40  43
ATOM     43  C   UNL     1       9.712  -2.580  -7.451  1.00  0.00     0.039 A 
ATOM     44  C   UNL     1      10.338  -3.495  -8.306  1.00  0.00     0.014 A 
ATOM     45  C   UNL     1      10.178  -2.390  -6.151  1.00  0.00     0.014 A 
ATOM     46  C   UNL     1      11.355  -4.312  -7.827  1.00  0.00     0.010 A 
ATOM     47  C   UNL     1      11.230  -3.177  -5.687  1.00  0.00     0.010 A 
ATOM     48  C   UNL     1      11.807  -4.157  -6.516  1.00  0.00    -0.014 A 
BRANCH  48  49
ATOM     49  C   UNL     1      12.976  -4.963  -6.108  1.00  0.00     0.031 A 
ATOM     50  C   UNL     1      14.168  -4.117  -5.822  1.00  0.00     0.074 A 
ATOM     51  C   UNL     1      12.856  -6.062  -5.329  1.00  0.00     0.049 A 
ATOM     52  N   UNL     1      14.253  -3.496  -4.688  1.00  0.00    -0.248 NA
ATOM     53  C   UNL     1      15.143  -3.672  -6.811  1.00  0.00     0.031 C 
ATOM     54  C   UNL     1      11.734  -6.263  -4.403  1.00  0.00     0.029 A 
ATOM     55  N   UNL     1      13.783  -7.022  -4.962  1.00  0.00    -0.354 N 
ATOM     56  C   UNL     1      15.217  -2.520  -4.814  1.00  0.00     0.074 A 
ATOM     57  C   UNL     1      15.777  -2.695  -6.137  1.00  0.00     0.031 C 
ATOM     58  C   UNL     1      12.124  -7.126  -3.448  1.00  0.00     0.029 A 
ATOM     59  C   UNL     1      13.428  -7.676  -3.790  1.00  0.00     0.049 A 
ATOM     60  H   UNL     1      14.601  -7.218  -5.473  1.00  0.00     0.167 HD
ATOM     61  C   UNL     1      15.472  -1.642  -3.805  1.00  0.00     0.034 A 
ATOM     62  C   UNL     1      14.251  -8.350  -2.943  1.00  0.00     0.034 A 
ATOM     63  C   UNL     1      14.696  -1.767  -2.585  1.00  0.00     0.049 A 
ATOM     64  C   UNL     1      14.616  -7.279  -1.949  1.00  0.00     0.074 A 
ATOM     65  C   UNL     1      14.209  -0.950  -1.583  1.00  0.00     0.029 A 
ATOM     66  N   UNL     1      14.255  -3.020  -2.251  1.00  0.00    -0.354 N 
ATOM     67  N   UNL     1      13.840  -6.788  -1.015  1.00  0.00    -0.248 NA
ATOM     68  C   UNL     1      15.825  -6.484  -2.223  1.00  0.00     0.031 C 
ATOM     69  C   UNL     1      13.619  -1.794  -0.580  1.00  0.00     0.029 A 
ATOM     70  C   UNL     1      13.815  -3.110  -0.961  1.00  0.00     0.049 A 
ATOM     71  H   UNL     1      14.254  -3.779  -2.878  1.00  0.00     0.167 HD
ATOM     72  C   UNL     1      14.289  -5.482  -0.854  1.00  0.00     0.074 A 
ATOM     73  C   UNL     1      15.591  -5.406  -1.484  1.00  0.00     0.031 C 
ATOM     74  C   UNL     1      13.498  -4.434  -0.483  1.00  0.00     0.034 A 
BRANCH  61  75
ATOM     75  C   UNL     1      16.695  -0.800  -3.810  1.00  0.00     0.023 A 
ATOM     76  C   UNL     1      17.843  -1.404  -3.254  1.00  0.00     0.012 A 
ATOM     77  C   UNL     1      16.738   0.552  -4.184  1.00  0.00     0.148 A 
ATOM     78  C   UNL     1      19.012  -0.678  -3.055  1.00  0.00     0.002 A 
ATOM     79  C   UNL     1      17.914   1.276  -3.981  1.00  0.00     0.091 A 
ATOM     80  F   UNL     1      15.635   1.112  -4.701  1.00  0.00    -0.205 F 
ATOM     81  C   UNL     1      19.046   0.663  -3.413  1.00  0.00     0.022 A 
BRANCH  79  82
ATOM     82  S   UNL     1      18.089   3.019  -4.385  1.00  0.00     0.127 S 
ATOM     83  O   UNL     1      18.327   3.615  -3.071  1.00  0.00    -0.237 OA
ATOM     84  O   UNL     1      19.256   3.008  -5.269  1.00  0.00    -0.237 OA
ATOM     85  O   UNL     1      16.843   3.410  -5.030  1.00  0.00    -0.744 OA
ENDBRANCH  79  82
ENDBRANCH  61  75
BRANCH  62  86
ATOM     86  C   UNL     1      15.216  -9.344  -3.514  1.00  0.00     0.023 A 
ATOM     87  C   UNL     1      14.743 -10.197  -4.543  1.00  0.00     0.012 A 
ATOM     88  C   UNL     1      16.530  -9.555  -3.057  1.00  0.00     0.148 A 
ATOM     89  C   UNL     1      15.566 -11.145  -5.157  1.00  0.00     0.002 A 
ATOM     90  C   UNL     1      17.368 -10.459  -3.710  1.00  0.00     0.091 A 
ATOM     91  F   UNL     1      16.959  -8.881  -1.984  1.00  0.00    -0.205 F 
ATOM     92  C   UNL     1      16.890 -11.256  -4.759  1.00  0.00     0.022 A 
BRANCH  90  93
ATOM     93  S   UNL     1      19.112 -10.623  -3.304  1.00  0.00     0.127 S 
ATOM     94  O   UNL     1      19.271 -12.074  -3.211  1.00  0.00    -0.237 OA
ATOM     95  O   UNL     1      19.735 -10.008  -4.474  1.00  0.00    -0.237 OA
ATOM     96  O   UNL     1      19.293  -9.906  -2.050  1.00  0.00    -0.744 OA
ENDBRANCH  90  93
ENDBRANCH  62  86
BRANCH  74  97
ATOM     97  C   UNL     1      12.268  -4.715   0.305  1.00  0.00     0.023 A 
ATOM     98  C   UNL     1      12.411  -5.425   1.514  1.00  0.00     0.012 A 
ATOM     99  C   UNL     1      11.006  -4.201  -0.041  1.00  0.00     0.148 A 
ATOM    100  C   UNL     1      11.329  -5.614   2.369  1.00  0.00     0.002 A 
ATOM    101  C   UNL     1       9.935  -4.366   0.834  1.00  0.00     0.091 A 
ATOM    102  F   UNL     1      10.865  -3.535  -1.198  1.00  0.00    -0.205 F 
ATOM    103  C   UNL     1      10.091  -5.079   2.033  1.00  0.00     0.022 A 
BRANCH 101 104
ATOM    104  S   UNL     1       8.337  -3.625   0.492  1.00  0.00     0.127 S 
ATOM    105  O   UNL     1       7.415  -4.475   1.248  1.00  0.00    -0.237 OA
ATOM    106  O   UNL     1       8.494  -2.284   1.049  1.00  0.00    -0.237 OA
ATOM    107  O   UNL     1       8.187  -3.701  -0.956  1.00  0.00    -0.744 OA
ENDBRANCH 101 104
ENDBRANCH  74  97
ENDBRANCH  48  49
ENDBRANCH  40  43
ENDBRANCH  38  39
ENDBRANCH  37  38
ENDBRANCH  36  37
ENDBRANCH   3  36
TORSDOF 19
