REMARK SMILES C[C@@H](c1ccccn1)S(=O)(=O)N1CC[NH2+]C[C@@H]1C(=O)NCCCNC(=O)c1ccc(-c2c3nc(c(-c4cccc(S(=O)(=O)[O-])c4F)c4ccc([nH]4)c(-c4cccc(S(=O)(=O)[O-])c4F)c4nc(c(-c5cccc(S(=O)(=O)[O-])c5F)c5ccc2[nH]5)C=C4)C=C3)cc1
REMARK SMILES IDX 22 1 21 2 20 3 18 4 19 5 17 7 12 8 13 9 14 10 16 11 15 12
REMARK SMILES IDX 9 15 10 16 11 17 2 18 1 19 3 20 4 21 8 22 5 23 7 24 6 25
REMARK SMILES IDX 23 26 24 27 25 28 26 30 27 31 28 32 89 33 29 34 88 35 30 36
REMARK SMILES IDX 31 37 32 38 82 39 33 40 87 41 81 42 83 43 34 44 86 45 80 46
REMARK SMILES IDX 79 47 35 49 67 50 47 51 66 52 48 53 51 54 65 55 84 56 49 57
REMARK SMILES IDX 50 58 64 60 85 61 52 62 36 63 37 64 45 65 38 66 40 67 46 68
REMARK SMILES IDX 39 69 41 70 42 71 43 72 44 73 68 74 69 75 77 76 70 77 72 78
REMARK SMILES IDX 78 79 71 80 73 81 74 82 75 83 76 84 53 85 54 86 62 87 55 88
REMARK SMILES IDX 57 89 63 90 56 91 58 92 59 93 60 94 61 95
REMARK H PARENT 20 6 15 13 15 14 24 29 83 48 51 59
REMARK Flexibility Score: inf
ROOT
ATOM      1  C   UNL     1      -5.323   3.333  -0.549  1.00  0.00     0.042 C 
ENDROOT
BRANCH   1   2
ATOM      2  C   UNL     1      -5.021   2.283   0.506  1.00  0.00     0.117 C 
BRANCH   2   3
ATOM      3  N   UNL     1      -5.204   0.938  -0.022  1.00  0.00    -0.354 N 
ATOM      4  C   UNL     1      -4.223   0.030  -0.351  1.00  0.00     0.244 C 
ATOM      5  O   UNL     1      -4.560  -1.064  -0.803  1.00  0.00    -0.273 OA
ATOM      6  H   UNL     1      -6.134   0.644  -0.158  1.00  0.00     0.163 HD
BRANCH   4   7
ATOM      7  C   UNL     1      -2.795   0.411   0.002  1.00  0.00     0.216 C 
ATOM      8  N   UNL     1      -1.656  -0.139  -0.756  1.00  0.00    -0.177 NA
ATOM      9  C   UNL     1      -1.503  -1.593  -0.654  1.00  0.00     0.164 C 
ATOM     10  C   UNL     1      -1.440  -1.990   0.852  1.00  0.00     0.277 C 
ATOM     11  C   UNL     1      -2.560   0.067   1.486  1.00  0.00     0.291 C 
ATOM     12  N   UNL     1      -2.475  -1.395   1.730  1.00  0.00    -0.343 N 
ATOM     13  H   UNL     1      -2.227  -1.562   2.706  1.00  0.00     0.346 HD
ATOM     14  H   UNL     1      -3.377  -1.825   1.527  1.00  0.00     0.346 HD
BRANCH   8  15
ATOM     15  S   UNL     1      -0.639   0.965  -1.458  1.00  0.00     0.223 S 
ATOM     16  O   UNL     1      -0.702   2.143  -0.604  1.00  0.00    -0.211 OA
ATOM     17  O   UNL     1      -1.064   1.097  -2.835  1.00  0.00    -0.211 OA
BRANCH  15  18
ATOM     18  C   UNL     1       1.089   0.452  -1.351  1.00  0.00     0.170 C 
ATOM     19  C   UNL     1       1.475  -0.306  -0.094  1.00  0.00     0.033 C 
BRANCH  18  20
ATOM     20  C   UNL     1       1.469  -0.168  -2.666  1.00  0.00     0.060 A 
ATOM     21  C   UNL     1       1.870   0.666  -3.715  1.00  0.00     0.025 A 
ATOM     22  N   UNL     1       1.338  -1.509  -2.814  1.00  0.00    -0.260 NA
ATOM     23  C   UNL     1       2.092   0.118  -4.970  1.00  0.00     0.004 A 
ATOM     24  C   UNL     1       1.547  -2.010  -4.054  1.00  0.00     0.111 A 
ATOM     25  C   UNL     1       1.915  -1.246  -5.149  1.00  0.00     0.020 A 
ENDBRANCH  18  20
ENDBRANCH  15  18
ENDBRANCH   8  15
ENDBRANCH   4   7
ENDBRANCH   2   3
ENDBRANCH   1   2
BRANCH   1  26
ATOM     26  C   UNL     1      -6.812   3.424  -0.848  1.00  0.00     0.118 C 
BRANCH  26  27
ATOM     27  N   UNL     1      -7.592   3.645   0.370  1.00  0.00    -0.352 N 
ATOM     28  C   UNL     1      -8.307   4.748   0.762  1.00  0.00     0.251 C 
ATOM     29  H   UNL     1      -7.606   2.890   1.002  1.00  0.00     0.163 HD
ATOM     30  O   UNL     1      -8.630   4.888   1.934  1.00  0.00    -0.269 OA
BRANCH  28  31
ATOM     31  C   UNL     1      -8.687   5.744  -0.253  1.00  0.00     0.039 A 
ATOM     32  C   UNL     1      -8.588   7.103   0.043  1.00  0.00     0.014 A 
ATOM     33  C   UNL     1      -9.130   5.315  -1.507  1.00  0.00     0.014 A 
ATOM     34  C   UNL     1      -8.867   8.038  -0.953  1.00  0.00     0.010 A 
ATOM     35  C   UNL     1      -9.311   6.240  -2.521  1.00  0.00     0.010 A 
ATOM     36  C   UNL     1      -9.187   7.610  -2.252  1.00  0.00    -0.014 A 
BRANCH  36  37
ATOM     37  C   UNL     1      -9.373   8.570  -3.363  1.00  0.00     0.031 A 
ATOM     38  C   UNL     1     -10.691   8.638  -4.083  1.00  0.00     0.074 A 
ATOM     39  C   UNL     1      -8.317   9.289  -3.793  1.00  0.00     0.049 A 
ATOM     40  N   UNL     1     -11.019   9.345  -5.131  1.00  0.00    -0.248 NA
ATOM     41  C   UNL     1     -11.776   7.776  -3.580  1.00  0.00     0.031 C 
ATOM     42  C   UNL     1      -6.969   9.241  -3.219  1.00  0.00     0.029 A 
ATOM     43  N   UNL     1      -8.202  10.176  -4.832  1.00  0.00    -0.354 N 
ATOM     44  C   UNL     1     -12.323   8.982  -5.441  1.00  0.00     0.074 A 
ATOM     45  C   UNL     1     -12.723   7.973  -4.486  1.00  0.00     0.031 C 
ATOM     46  C   UNL     1      -6.167  10.068  -3.907  1.00  0.00     0.029 A 
ATOM     47  C   UNL     1      -6.928  10.670  -4.996  1.00  0.00     0.049 A 
ATOM     48  H   UNL     1      -8.959  10.434  -5.407  1.00  0.00     0.167 HD
ATOM     49  C   UNL     1     -13.120   9.461  -6.422  1.00  0.00     0.034 A 
ATOM     50  C   UNL     1      -6.429  11.502  -5.930  1.00  0.00     0.034 A 
ATOM     51  C   UNL     1     -12.727  10.498  -7.336  1.00  0.00     0.049 A 
ATOM     52  C   UNL     1      -7.351  12.032  -6.995  1.00  0.00     0.074 A 
ATOM     53  C   UNL     1     -13.500  11.141  -8.286  1.00  0.00     0.029 A 
ATOM     54  N   UNL     1     -11.450  11.028  -7.429  1.00  0.00    -0.354 N 
ATOM     55  N   UNL     1      -8.634  11.820  -7.156  1.00  0.00    -0.248 NA
ATOM     56  C   UNL     1      -6.761  12.937  -7.992  1.00  0.00     0.031 C 
ATOM     57  C   UNL     1     -12.678  12.028  -8.986  1.00  0.00     0.029 A 
ATOM     58  C   UNL     1     -11.403  11.966  -8.444  1.00  0.00     0.049 A 
ATOM     59  H   UNL     1     -10.690  10.774  -6.858  1.00  0.00     0.167 HD
ATOM     60  C   UNL     1      -9.012  12.589  -8.250  1.00  0.00     0.074 A 
ATOM     61  C   UNL     1      -7.827  13.292  -8.697  1.00  0.00     0.031 C 
ATOM     62  C   UNL     1     -10.226  12.693  -8.844  1.00  0.00     0.034 A 
BRANCH  49  63
ATOM     63  C   UNL     1     -14.512   8.901  -6.544  1.00  0.00     0.023 A 
ATOM     64  C   UNL     1     -15.486   9.224  -5.579  1.00  0.00     0.012 A 
ATOM     65  C   UNL     1     -14.875   8.126  -7.663  1.00  0.00     0.148 A 
ATOM     66  C   UNL     1     -16.796   8.764  -5.712  1.00  0.00     0.002 A 
ATOM     67  C   UNL     1     -16.192   7.711  -7.813  1.00  0.00     0.091 A 
ATOM     68  F   UNL     1     -13.927   7.812  -8.557  1.00  0.00    -0.205 F 
ATOM     69  C   UNL     1     -17.151   8.020  -6.834  1.00  0.00     0.022 A 
BRANCH  67  70
ATOM     70  S   UNL     1     -16.770   6.820  -9.262  1.00  0.00     0.127 S 
ATOM     71  O   UNL     1     -17.095   5.513  -8.693  1.00  0.00    -0.237 OA
ATOM     72  O   UNL     1     -17.929   7.615  -9.666  1.00  0.00    -0.237 OA
ATOM     73  O   UNL     1     -15.663   6.827 -10.208  1.00  0.00    -0.744 OA
ENDBRANCH  67  70
ENDBRANCH  49  63
BRANCH  50  74
ATOM     74  C   UNL     1      -5.000  11.923  -5.880  1.00  0.00     0.023 A 
ATOM     75  C   UNL     1      -4.689  13.266  -5.590  1.00  0.00     0.012 A 
ATOM     76  C   UNL     1      -3.952  11.012  -6.115  1.00  0.00     0.148 A 
ATOM     77  C   UNL     1      -3.364  13.703  -5.577  1.00  0.00     0.002 A 
ATOM     78  C   UNL     1      -2.632  11.442  -6.045  1.00  0.00     0.091 A 
ATOM     79  F   UNL     1      -4.268   9.740  -6.398  1.00  0.00    -0.205 F 
ATOM     80  C   UNL     1      -2.336  12.791  -5.796  1.00  0.00     0.022 A 
BRANCH  78  81
ATOM     81  S   UNL     1      -1.242  10.314  -6.190  1.00  0.00     0.127 S 
ATOM     82  O   UNL     1      -0.688  10.688  -7.488  1.00  0.00    -0.237 OA
ATOM     83  O   UNL     1      -0.423  10.694  -5.037  1.00  0.00    -0.237 OA
ATOM     84  O   UNL     1      -1.812   8.976  -6.106  1.00  0.00    -0.744 OA
ENDBRANCH  78  81
ENDBRANCH  50  74
BRANCH  62  85
ATOM     85  C   UNL     1     -10.352  13.620 -10.023  1.00  0.00     0.023 A 
ATOM     86  C   UNL     1      -9.779  13.263 -11.259  1.00  0.00     0.012 A 
ATOM     87  C   UNL     1     -11.117  14.800  -9.928  1.00  0.00     0.148 A 
ATOM     88  C   UNL     1      -9.941  14.080 -12.377  1.00  0.00     0.002 A 
ATOM     89  C   UNL     1     -11.319  15.582 -11.058  1.00  0.00     0.091 A 
ATOM     90  F   UNL     1     -11.643  15.127  -8.739  1.00  0.00    -0.205 F 
ATOM     91  C   UNL     1     -10.721  15.231 -12.280  1.00  0.00     0.022 A 
BRANCH  89  92
ATOM     92  S   UNL     1     -12.387  17.025 -11.057  1.00  0.00     0.127 S 
ATOM     93  O   UNL     1     -11.427  18.107 -11.270  1.00  0.00    -0.237 OA
ATOM     94  O   UNL     1     -13.267  16.757 -12.195  1.00  0.00    -0.237 OA
ATOM     95  O   UNL     1     -13.055  17.035  -9.763  1.00  0.00    -0.744 OA
ENDBRANCH  89  92
ENDBRANCH  62  85
ENDBRANCH  36  37
ENDBRANCH  28  31
ENDBRANCH  26  27
ENDBRANCH   1  26
TORSDOF 16
