REMARK SMILES N#CCOc1ccc2[nH]cc([C@H](C(=O)NCCCNC(=O)c3ccc(-c4c5nc(c(-c6cccc(S(=O)(=O)[O-])c6F)c6ccc([nH]6)c(-c6cccc(S(=O)(=O)[O-])c6F)c6nc(c(-c7cccc(S(=O)(=O)[O-])c7F)c7ccc4[nH]7)C=C6)C=C5)cc3)[NH+]3CC[NH+]([C@@H]4CCS(=O)(=O)C4)CC3)c2c1
REMARK SMILES IDX 16 1 15 2 13 3 14 4 12 6 11 7 5 8 6 9 99 10 7 11 98 12 8 13
REMARK SMILES IDX 9 14 10 15 4 17 3 18 2 19 1 20 85 21 86 22 97 23 87 25 96 26
REMARK SMILES IDX 88 27 89 29 90 30 95 31 91 32 92 33 93 34 94 35 17 36 18 37
REMARK SMILES IDX 19 38 20 39 21 41 22 42 23 43 84 44 24 45 83 46 25 47 26 48
REMARK SMILES IDX 27 49 77 50 28 51 82 52 76 53 78 54 29 55 81 56 75 57 74 58
REMARK SMILES IDX 30 60 62 61 42 62 61 63 43 64 46 65 60 66 79 67 44 68 45 69
REMARK SMILES IDX 59 71 80 72 47 73 31 74 32 75 40 76 33 77 35 78 41 79 34 80
REMARK SMILES IDX 36 81 37 82 38 83 39 84 63 85 64 86 72 87 65 88 67 89 73 90
REMARK SMILES IDX 66 91 68 92 69 93 70 94 71 95 48 96 49 97 57 98 50 99 52 100
REMARK SMILES IDX 58 101 51 102 53 103 54 104 55 105 56 106
REMARK H PARENT 15 5 9 16 85 24 88 28 19 40 78 59 46 70
REMARK Flexibility Score: inf
ROOT
ATOM      1  C   UNL     1       6.028   3.088   1.541  1.00  0.00     0.118 C 
ENDROOT
BRANCH   1   2
ATOM      2  N   UNL     1       5.042   3.462   2.527  1.00  0.00    -0.351 N 
ATOM      3  C   UNL     1       5.177   3.676   3.860  1.00  0.00     0.283 C 
ATOM      4  O   UNL     1       4.126   3.943   4.448  1.00  0.00    -0.268 OA
ATOM      5  H   UNL     1       4.129   3.580   2.177  1.00  0.00     0.163 HD
BRANCH   3   6
ATOM      6  C   UNL     1       6.585   3.717   4.492  1.00  0.00     0.308 C 
BRANCH   6   7
ATOM      7  C   UNL     1       7.294   5.013   4.163  1.00  0.00     0.045 A 
ATOM      8  C   UNL     1       4.995   7.848   3.046  1.00  0.00     0.121 A 
ATOM      9  C   UNL     1       5.967   8.842   3.179  1.00  0.00     0.048 A 
ATOM     10  C   UNL     1       5.347   6.564   3.370  1.00  0.00     0.057 A 
ATOM     11  C   UNL     1       7.323   8.542   3.413  1.00  0.00     0.030 A 
ATOM     12  C   UNL     1       6.670   6.218   3.705  1.00  0.00     0.013 A 
ATOM     13  C   UNL     1       7.645   7.209   3.666  1.00  0.00     0.046 A 
ATOM     14  N   UNL     1       8.847   6.607   3.953  1.00  0.00    -0.361 N 
ATOM     15  C   UNL     1       8.647   5.289   4.272  1.00  0.00     0.094 A 
ATOM     16  H   UNL     1       9.723   7.056   3.932  1.00  0.00     0.166 HD
BRANCH   8  17
ATOM     17  O   UNL     1       3.657   7.995   2.720  1.00  0.00    -0.479 OA
BRANCH  17  18
ATOM     18  C   UNL     1       3.414   8.389   1.333  1.00  0.00     0.349 C 
BRANCH  18  19
ATOM     19  C   UNL     1       4.117   9.734   1.251  1.00  0.00     0.104 C 
ATOM     20  N   UNL     1       4.700  10.850   1.183  1.00  0.00    -0.195 NA
ENDBRANCH  18  19
ENDBRANCH  17  18
ENDBRANCH   8  17
ENDBRANCH   6   7
BRANCH   6  21
ATOM     21  N   UNL     1       6.585   3.472   5.952  1.00  0.00    -0.312 N 
ATOM     22  C   UNL     1       6.099   4.552   6.825  1.00  0.00     0.325 C 
ATOM     23  C   UNL     1       6.005   2.162   6.277  1.00  0.00     0.325 C 
ATOM     24  H   UNL     1       7.578   3.462   6.187  1.00  0.00     0.349 HD
ATOM     25  C   UNL     1       4.670   4.457   7.413  1.00  0.00     0.324 C 
ATOM     26  C   UNL     1       4.534   2.143   6.733  1.00  0.00     0.324 C 
ATOM     27  N   UNL     1       4.200   3.113   7.772  1.00  0.00    -0.322 N 
ATOM     28  H   UNL     1       3.181   3.130   7.765  1.00  0.00     0.348 HD
BRANCH  27  29
ATOM     29  C   UNL     1       4.323   2.731   9.176  1.00  0.00     0.200 C 
ATOM     30  C   UNL     1       5.715   2.670   9.827  1.00  0.00     0.082 C 
ATOM     31  C   UNL     1       3.607   1.417   9.522  1.00  0.00     0.201 C 
ATOM     32  C   UNL     1       6.265   1.255   9.777  1.00  0.00     0.143 C 
ATOM     33  S   UNL     1       4.867   0.166   9.677  1.00  0.00     0.156 S 
ATOM     34  O   UNL     1       4.970  -0.589   8.448  1.00  0.00    -0.229 OA
ATOM     35  O   UNL     1       4.706  -0.489  10.961  1.00  0.00    -0.229 OA
ENDBRANCH  27  29
ENDBRANCH   6  21
ENDBRANCH   3   6
ENDBRANCH   1   2
BRANCH   1  36
ATOM     36  C   UNL     1       5.682   1.717   0.988  1.00  0.00     0.042 C 
BRANCH  36  37
ATOM     37  C   UNL     1       4.223   1.602   0.557  1.00  0.00     0.118 C 
BRANCH  37  38
ATOM     38  N   UNL     1       3.822   2.667  -0.361  1.00  0.00    -0.352 N 
ATOM     39  C   UNL     1       3.327   2.562  -1.635  1.00  0.00     0.251 C 
ATOM     40  H   UNL     1       3.921   3.584  -0.017  1.00  0.00     0.163 HD
ATOM     41  O   UNL     1       3.218   3.556  -2.345  1.00  0.00    -0.269 OA
BRANCH  39  42
ATOM     42  C   UNL     1       2.956   1.227  -2.133  1.00  0.00     0.039 A 
ATOM     43  C   UNL     1       3.471   0.789  -3.352  1.00  0.00     0.014 A 
ATOM     44  C   UNL     1       2.168   0.388  -1.341  1.00  0.00     0.014 A 
ATOM     45  C   UNL     1       3.248  -0.529  -3.747  1.00  0.00     0.010 A 
ATOM     46  C   UNL     1       2.032  -0.948  -1.690  1.00  0.00     0.010 A 
ATOM     47  C   UNL     1       2.563  -1.418  -2.900  1.00  0.00    -0.014 A 
BRANCH  47  48
ATOM     48  C   UNL     1       2.401  -2.848  -3.256  1.00  0.00     0.031 A 
ATOM     49  C   UNL     1       1.025  -3.430  -3.425  1.00  0.00     0.074 A 
ATOM     50  C   UNL     1       3.490  -3.639  -3.343  1.00  0.00     0.049 A 
ATOM     51  N   UNL     1       0.680  -4.663  -3.690  1.00  0.00    -0.248 NA
ATOM     52  C   UNL     1      -0.116  -2.516  -3.243  1.00  0.00     0.031 C 
ATOM     53  C   UNL     1       4.871  -3.207  -3.115  1.00  0.00     0.029 A 
ATOM     54  N   UNL     1       3.604  -4.977  -3.622  1.00  0.00    -0.354 N 
ATOM     55  C   UNL     1      -0.709  -4.679  -3.674  1.00  0.00     0.074 A 
ATOM     56  C   UNL     1      -1.145  -3.345  -3.331  1.00  0.00     0.031 C 
ATOM     57  C   UNL     1       5.693  -4.255  -3.277  1.00  0.00     0.029 A 
ATOM     58  C   UNL     1       4.898  -5.441  -3.582  1.00  0.00     0.049 A 
ATOM     59  H   UNL     1       2.832  -5.551  -3.832  1.00  0.00     0.167 HD
ATOM     60  C   UNL     1      -1.547  -5.705  -3.950  1.00  0.00     0.034 A 
ATOM     61  C   UNL     1       5.388  -6.683  -3.759  1.00  0.00     0.034 A 
ATOM     62  C   UNL     1      -1.107  -7.022  -4.321  1.00  0.00     0.049 A 
ATOM     63  C   UNL     1       4.435  -7.800  -4.089  1.00  0.00     0.074 A 
ATOM     64  C   UNL     1      -1.873  -8.107  -4.706  1.00  0.00     0.029 A 
ATOM     65  N   UNL     1       0.216  -7.438  -4.340  1.00  0.00    -0.354 N 
ATOM     66  N   UNL     1       3.133  -7.759  -4.229  1.00  0.00    -0.248 NA
ATOM     67  C   UNL     1       5.023  -9.127  -4.318  1.00  0.00     0.031 C 
ATOM     68  C   UNL     1      -1.016  -9.191  -4.921  1.00  0.00     0.029 A 
ATOM     69  C   UNL     1       0.287  -8.769  -4.713  1.00  0.00     0.049 A 
ATOM     70  H   UNL     1       0.990  -6.870  -4.120  1.00  0.00     0.167 HD
ATOM     71  C   UNL     1       2.749  -9.043  -4.599  1.00  0.00     0.074 A 
ATOM     72  C   UNL     1       3.961  -9.832  -4.682  1.00  0.00     0.031 C 
ATOM     73  C   UNL     1       1.505  -9.529  -4.836  1.00  0.00     0.034 A 
BRANCH  60  74
ATOM     74  C   UNL     1      -3.028  -5.432  -3.900  1.00  0.00     0.023 A 
ATOM     75  C   UNL     1      -3.621  -4.608  -4.879  1.00  0.00     0.012 A 
ATOM     76  C   UNL     1      -3.841  -6.033  -2.919  1.00  0.00     0.148 A 
ATOM     77  C   UNL     1      -4.992  -4.355  -4.860  1.00  0.00     0.002 A 
ATOM     78  C   UNL     1      -5.213  -5.817  -2.938  1.00  0.00     0.091 A 
ATOM     79  F   UNL     1      -3.257  -6.796  -1.984  1.00  0.00    -0.205 F 
ATOM     80  C   UNL     1      -5.788  -4.968  -3.898  1.00  0.00     0.022 A 
BRANCH  78  81
ATOM     81  S   UNL     1      -6.338  -6.625  -1.794  1.00  0.00     0.127 S 
ATOM     82  O   UNL     1      -6.790  -5.498  -0.980  1.00  0.00    -0.237 OA
ATOM     83  O   UNL     1      -7.352  -7.170  -2.698  1.00  0.00    -0.237 OA
ATOM     84  O   UNL     1      -5.548  -7.626  -1.091  1.00  0.00    -0.744 OA
ENDBRANCH  78  81
ENDBRANCH  60  74
BRANCH  61  85
ATOM     85  C   UNL     1       6.856  -6.926  -3.682  1.00  0.00     0.023 A 
ATOM     86  C   UNL     1       7.567  -7.262  -4.850  1.00  0.00     0.012 A 
ATOM     87  C   UNL     1       7.554  -6.806  -2.465  1.00  0.00     0.148 A 
ATOM     88  C   UNL     1       8.939  -7.513  -4.802  1.00  0.00     0.002 A 
ATOM     89  C   UNL     1       8.930  -6.999  -2.434  1.00  0.00     0.091 A 
ATOM     90  F   UNL     1       6.859  -6.492  -1.363  1.00  0.00    -0.205 F 
ATOM     91  C   UNL     1       9.622  -7.372  -3.597  1.00  0.00     0.022 A 
BRANCH  89  92
ATOM     92  S   UNL     1       9.912  -6.709  -0.958  1.00  0.00     0.127 S 
ATOM     93  O   UNL     1      10.343  -8.061  -0.614  1.00  0.00    -0.237 OA
ATOM     94  O   UNL     1      10.969  -5.835  -1.468  1.00  0.00    -0.237 OA
ATOM     95  O   UNL     1       9.013  -6.070  -0.006  1.00  0.00    -0.744 OA
ENDBRANCH  89  92
ENDBRANCH  61  85
BRANCH  73  96
ATOM     96  C   UNL     1       1.386 -10.972  -5.250  1.00  0.00     0.023 A 
ATOM     97  C   UNL     1       1.627 -11.998  -4.315  1.00  0.00     0.012 A 
ATOM     98  C   UNL     1       0.964 -11.309  -6.552  1.00  0.00     0.148 A 
ATOM     99  C   UNL     1       1.486 -13.336  -4.679  1.00  0.00     0.002 A 
ATOM    100  C   UNL     1       0.773 -12.642  -6.891  1.00  0.00     0.091 A 
ATOM    101  F   UNL     1       0.755 -10.319  -7.432  1.00  0.00    -0.205 F 
ATOM    102  C   UNL     1       1.048 -13.657  -5.962  1.00  0.00     0.022 A 
BRANCH 100 103
ATOM    103  S   UNL     1       0.116 -13.146  -8.485  1.00  0.00     0.127 S 
ATOM    104  O   UNL     1       1.284 -13.771  -9.104  1.00  0.00    -0.237 OA
ATOM    105  O   UNL     1      -0.944 -14.079  -8.100  1.00  0.00    -0.237 OA
ATOM    106  O   UNL     1      -0.355 -11.928  -9.131  1.00  0.00    -0.744 OA
ENDBRANCH 100 103
ENDBRANCH  73  96
ENDBRANCH  47  48
ENDBRANCH  39  42
ENDBRANCH  37  38
ENDBRANCH  36  37
ENDBRANCH   1  36
TORSDOF 19
