REMARK SMILES O=C(Cc1csc(Sc2ncnc3c2CCCC3)n1)NCCCNC(=O)c1ccc(-c2c3nc(c(-c4cccc(S(=O)(=O)[O-])c4F)c4ccc([nH]4)c(-c4cccc(S(=O)(=O)[O-])c4F)c4nc(c(-c5cccc(S(=O)(=O)[O-])c5F)c5ccc2[nH]5)C=C4)C=C3)cc1
REMARK SMILES IDX 22 1 21 2 20 3 1 4 2 5 3 7 4 8 5 9 19 10 6 11 7 12 8 13 9 14
REMARK SMILES IDX 10 15 14 16 11 17 13 18 15 19 12 20 18 21 16 22 17 23 23 24
REMARK SMILES IDX 24 25 25 26 26 28 27 29 28 30 89 31 29 32 88 33 30 34 31 35
REMARK SMILES IDX 32 36 82 37 33 38 87 39 81 40 83 41 34 42 86 43 80 44 79 45
REMARK SMILES IDX 35 47 67 48 47 49 66 50 48 51 51 52 65 53 84 54 49 55 50 56
REMARK SMILES IDX 64 58 85 59 52 60 36 61 37 62 45 63 38 64 40 65 46 66 39 67
REMARK SMILES IDX 41 68 42 69 43 70 44 71 68 72 69 73 77 74 70 75 72 76 78 77
REMARK SMILES IDX 71 78 73 79 74 80 75 81 76 82 53 83 54 84 62 85 55 86 57 87
REMARK SMILES IDX 63 88 56 89 58 90 59 91 60 92 61 93
REMARK H PARENT 20 6 24 27 83 46 51 57
REMARK Flexibility Score: inf
ROOT
ATOM      1  C   UNL     1       2.421  -0.858  -3.412  1.00  0.00     0.042 C 
ENDROOT
BRANCH   1   2
ATOM      2  C   UNL     1       2.141  -1.332  -1.992  1.00  0.00     0.117 C 
BRANCH   2   3
ATOM      3  N   UNL     1       2.857  -0.561  -0.992  1.00  0.00    -0.356 N 
ATOM      4  O   UNL     1       1.000   0.141   0.166  1.00  0.00    -0.275 OA
ATOM      5  C   UNL     1       2.221   0.096   0.042  1.00  0.00     0.226 C 
ATOM      6  H   UNL     1       3.838  -0.504  -1.055  1.00  0.00     0.163 HD
BRANCH   5   7
ATOM      7  C   UNL     1       3.164   0.723   1.056  1.00  0.00     0.157 C 
BRANCH   7   8
ATOM      8  C   UNL     1       3.870  -0.301   1.895  1.00  0.00     0.062 A 
ATOM      9  C   UNL     1       3.558  -1.644   2.018  1.00  0.00     0.092 A 
ATOM     10  N   UNL     1       4.963   0.103   2.663  1.00  0.00    -0.234 NA
ATOM     11  S   UNL     1       4.623  -2.406   3.112  1.00  0.00    -0.116 S 
ATOM     12  C   UNL     1       5.410  -0.899   3.388  1.00  0.00     0.156 A 
BRANCH  12  13
ATOM     13  S   UNL     1       6.711  -0.819   4.553  1.00  0.00    -0.039 SA
BRANCH  13  14
ATOM     14  C   UNL     1       7.194   0.897   4.483  1.00  0.00     0.110 A 
ATOM     15  N   UNL     1       6.309   1.774   5.002  1.00  0.00    -0.229 NA
ATOM     16  C   UNL     1       8.488   1.259   4.106  1.00  0.00     0.006 A 
ATOM     17  C   UNL     1       6.725   3.038   5.107  1.00  0.00     0.223 A 
ATOM     18  C   UNL     1       8.825   2.591   4.325  1.00  0.00     0.048 A 
ATOM     19  C   UNL     1       9.502   0.269   3.597  1.00  0.00     0.040 C 
ATOM     20  N   UNL     1       7.947   3.494   4.808  1.00  0.00    -0.241 NA
ATOM     21  C   UNL     1      10.204   3.121   4.020  1.00  0.00     0.056 C 
ATOM     22  C   UNL     1      10.752   0.914   2.999  1.00  0.00     0.005 C 
ATOM     23  C   UNL     1      11.259   2.026   3.905  1.00  0.00     0.007 C 
ENDBRANCH  13  14
ENDBRANCH  12  13
ENDBRANCH   7   8
ENDBRANCH   5   7
ENDBRANCH   2   3
ENDBRANCH   1   2
BRANCH   1  24
ATOM     24  C   UNL     1       3.885  -0.927  -3.833  1.00  0.00     0.118 C 
BRANCH  24  25
ATOM     25  N   UNL     1       4.419  -2.283  -3.839  1.00  0.00    -0.352 N 
ATOM     26  C   UNL     1       5.068  -2.967  -4.837  1.00  0.00     0.251 C 
ATOM     27  H   UNL     1       4.296  -2.784  -3.001  1.00  0.00     0.163 HD
ATOM     28  O   UNL     1       5.319  -4.163  -4.679  1.00  0.00    -0.269 OA
BRANCH  26  29
ATOM     29  C   UNL     1       5.451  -2.295  -6.098  1.00  0.00     0.039 A 
ATOM     30  C   UNL     1       5.264  -2.973  -7.308  1.00  0.00     0.014 A 
ATOM     31  C   UNL     1       6.023  -1.020  -6.098  1.00  0.00     0.014 A 
ATOM     32  C   UNL     1       5.598  -2.354  -8.516  1.00  0.00     0.010 A 
ATOM     33  C   UNL     1       6.292  -0.378  -7.305  1.00  0.00     0.010 A 
ATOM     34  C   UNL     1       6.093  -1.041  -8.526  1.00  0.00    -0.014 A 
BRANCH  34  35
ATOM     35  C   UNL     1       6.432  -0.344  -9.793  1.00  0.00     0.031 A 
ATOM     36  C   UNL     1       7.857   0.053 -10.072  1.00  0.00     0.074 A 
ATOM     37  C   UNL     1       5.455   0.006 -10.652  1.00  0.00     0.049 A 
ATOM     38  N   UNL     1       8.339   0.767 -11.055  1.00  0.00    -0.248 NA
ATOM     39  C   UNL     1       8.872  -0.398  -9.104  1.00  0.00     0.031 C 
ATOM     40  C   UNL     1       4.032  -0.288 -10.479  1.00  0.00     0.029 A 
ATOM     41  N   UNL     1       5.509   0.711 -11.829  1.00  0.00    -0.354 N 
ATOM     42  C   UNL     1       9.703   0.878 -10.812  1.00  0.00     0.074 A 
ATOM     43  C   UNL     1       9.967   0.186  -9.569  1.00  0.00     0.031 C 
ATOM     44  C   UNL     1       3.348   0.231 -11.512  1.00  0.00     0.029 A 
ATOM     45  C   UNL     1       4.276   0.929 -12.398  1.00  0.00     0.049 A 
ATOM     46  H   UNL     1       6.351   1.030 -12.229  1.00  0.00     0.167 HD
ATOM     47  C   UNL     1      10.654   1.476 -11.568  1.00  0.00     0.034 A 
ATOM     48  C   UNL     1       3.929   1.623 -13.500  1.00  0.00     0.034 A 
ATOM     49  C   UNL     1      10.394   2.133 -12.821  1.00  0.00     0.049 A 
ATOM     50  C   UNL     1       5.006   2.283 -14.320  1.00  0.00     0.074 A 
ATOM     51  C   UNL     1      11.299   2.725 -13.684  1.00  0.00     0.029 A 
ATOM     52  N   UNL     1       9.139   2.287 -13.392  1.00  0.00    -0.354 N 
ATOM     53  N   UNL     1       6.303   2.285 -14.133  1.00  0.00    -0.248 NA
ATOM     54  C   UNL     1       4.573   3.010 -15.522  1.00  0.00     0.031 C 
ATOM     55  C   UNL     1      10.589   3.258 -14.766  1.00  0.00     0.029 A 
ATOM     56  C   UNL     1       9.245   2.971 -14.592  1.00  0.00     0.049 A 
ATOM     57  H   UNL     1       8.297   1.959 -13.002  1.00  0.00     0.167 HD
ATOM     58  C   UNL     1       6.844   2.988 -15.204  1.00  0.00     0.074 A 
ATOM     59  C   UNL     1       5.734   3.367 -16.054  1.00  0.00     0.031 C 
ATOM     60  C   UNL     1       8.139   3.310 -15.452  1.00  0.00     0.034 A 
BRANCH  47  61
ATOM     61  C   UNL     1      12.082   1.398 -11.091  1.00  0.00     0.023 A 
ATOM     62  C   UNL     1      12.765   0.165 -11.146  1.00  0.00     0.012 A 
ATOM     63  C   UNL     1      12.773   2.550 -10.667  1.00  0.00     0.148 A 
ATOM     64  C   UNL     1      14.101   0.073 -10.762  1.00  0.00     0.002 A 
ATOM     65  C   UNL     1      14.120   2.461 -10.332  1.00  0.00     0.091 A 
ATOM     66  F   UNL     1      12.103   3.710 -10.602  1.00  0.00    -0.205 F 
ATOM     67  C   UNL     1      14.781   1.222 -10.367  1.00  0.00     0.022 A 
BRANCH  65  68
ATOM     68  S   UNL     1      15.111   3.893  -9.892  1.00  0.00     0.127 S 
ATOM     69  O   UNL     1      15.402   3.628  -8.483  1.00  0.00    -0.237 OA
ATOM     70  O   UNL     1      16.260   3.756 -10.788  1.00  0.00    -0.237 OA
ATOM     71  O   UNL     1      14.274   5.056 -10.145  1.00  0.00    -0.744 OA
ENDBRANCH  65  68
ENDBRANCH  47  61
BRANCH  48  72
ATOM     72  C   UNL     1       2.501   1.672 -13.928  1.00  0.00     0.023 A 
ATOM     73  C   UNL     1       2.111   0.993 -15.098  1.00  0.00     0.012 A 
ATOM     74  C   UNL     1       1.523   2.345 -13.168  1.00  0.00     0.148 A 
ATOM     75  C   UNL     1       0.780   1.002 -15.518  1.00  0.00     0.002 A 
ATOM     76  C   UNL     1       0.190   2.299 -13.559  1.00  0.00     0.091 A 
ATOM     77  F   UNL     1       1.915   2.997 -12.064  1.00  0.00    -0.205 F 
ATOM     78  C   UNL     1      -0.181   1.643 -14.743  1.00  0.00     0.022 A 
BRANCH  76  79
ATOM     79  S   UNL     1      -1.137   2.974 -12.553  1.00  0.00     0.127 S 
ATOM     80  O   UNL     1      -1.624   4.066 -13.394  1.00  0.00    -0.237 OA
ATOM     81  O   UNL     1      -2.042   1.828 -12.447  1.00  0.00    -0.237 OA
ATOM     82  O   UNL     1      -0.520   3.372 -11.298  1.00  0.00    -0.744 OA
ENDBRANCH  76  79
ENDBRANCH  48  72
BRANCH  60  83
ATOM     83  C   UNL     1       8.437   4.105 -16.699  1.00  0.00     0.023 A 
ATOM     84  C   UNL     1       8.040   5.456 -16.776  1.00  0.00     0.012 A 
ATOM     85  C   UNL     1       9.169   3.542 -17.763  1.00  0.00     0.148 A 
ATOM     86  C   UNL     1       8.331   6.219 -17.906  1.00  0.00     0.002 A 
ATOM     87  C   UNL     1       9.504   4.325 -18.863  1.00  0.00     0.091 A 
ATOM     88  F   UNL     1       9.526   2.251 -17.683  1.00  0.00    -0.205 F 
ATOM     89  C   UNL     1       9.072   5.658 -18.943  1.00  0.00     0.022 A 
BRANCH  87  90
ATOM     90  S   UNL     1      10.546   3.719 -20.195  1.00  0.00     0.127 S 
ATOM     91  O   UNL     1       9.574   3.527 -21.270  1.00  0.00    -0.237 OA
ATOM     92  O   UNL     1      11.469   4.836 -20.401  1.00  0.00    -0.237 OA
ATOM     93  O   UNL     1      11.173   2.504 -19.692  1.00  0.00    -0.744 OA
ENDBRANCH  87  90
ENDBRANCH  60  83
ENDBRANCH  34  35
ENDBRANCH  26  29
ENDBRANCH  24  25
ENDBRANCH   1  24
TORSDOF 16
