REMARK SMILES C#CC[N@H+](CC(=O)NCCCNC(=O)c1ccc(-c2c3nc(c(-c4cccc(S(=O)(=O)[O-])c4F)c4ccc([nH]4)c(-c4cccc(S(=O)(=O)[O-])c4F)c4nc(c(-c5cccc(S(=O)(=O)[O-])c5F)c5ccc2[nH]5)C=C4)C=C3)cc1)[C@H](C)[C@@H](C)O
REMARK SMILES IDX 9 1 8 2 6 3 7 4 5 6 4 7 3 9 2 10 1 11 78 12 79 13 80 14
REMARK SMILES IDX 81 15 82 16 10 18 11 19 12 20 13 21 14 23 15 24 16 25 77 26
REMARK SMILES IDX 17 27 76 28 18 29 19 30 20 31 70 32 21 33 75 34 69 35 71 36
REMARK SMILES IDX 22 37 74 38 68 39 67 40 23 42 55 43 35 44 54 45 36 46 39 47
REMARK SMILES IDX 53 48 72 49 37 50 38 51 52 53 73 54 40 55 24 56 25 57 33 58
REMARK SMILES IDX 26 59 28 60 34 61 27 62 29 63 30 64 31 65 32 66 56 67 57 68
REMARK SMILES IDX 65 69 58 70 60 71 66 72 59 73 61 74 62 75 63 76 64 77 41 78
REMARK SMILES IDX 42 79 50 80 43 81 45 82 51 83 44 84 46 85 47 86 48 87 49 88
REMARK H PARENT 8 5 4 8 82 17 12 22 71 41 39 52
REMARK Flexibility Score: inf
ROOT
ATOM      1  C   UNL     1      -3.761  -1.347  -3.116  1.00  0.00     0.118 C 
ENDROOT
BRANCH   1   2
ATOM      2  N   UNL     1      -4.139  -2.703  -2.726  1.00  0.00    -0.351 N 
ATOM      3  C   UNL     1      -4.084  -3.360  -1.521  1.00  0.00     0.275 C 
ATOM      4  O   UNL     1      -4.478  -4.528  -1.493  1.00  0.00    -0.269 OA
ATOM      5  H   UNL     1      -4.500  -3.247  -3.464  1.00  0.00     0.163 HD
BRANCH   3   6
ATOM      6  C   UNL     1      -3.604  -2.640  -0.246  1.00  0.00     0.364 C 
BRANCH   6   7
ATOM      7  N   UNL     1      -2.134  -2.768   0.061  1.00  0.00    -0.313 N 
ATOM      8  H   UNL     1      -1.849  -3.734   0.222  1.00  0.00     0.349 HD
BRANCH   7   9
ATOM      9  C   UNL     1      -1.376  -2.320  -1.113  1.00  0.00     0.354 C 
BRANCH   9  10
ATOM     10  C   UNL     1       0.080  -2.470  -1.183  1.00  0.00    -0.047 C 
ATOM     11  C   UNL     1       1.264  -2.501  -1.376  1.00  0.00     0.010 C 
ENDBRANCH   9  10
ENDBRANCH   7   9
BRANCH   7  12
ATOM     12  C   UNL     1      -1.821  -2.070   1.363  1.00  0.00     0.210 C 
ATOM     13  C   UNL     1      -2.393  -0.647   1.480  1.00  0.00     0.078 C 
BRANCH  12  14
ATOM     14  C   UNL     1      -0.311  -2.128   1.757  1.00  0.00     0.169 C 
ATOM     15  C   UNL     1       0.056  -1.545   3.114  1.00  0.00     0.045 C 
BRANCH  14  16
ATOM     16  O   UNL     1       0.102  -3.498   1.775  1.00  0.00    -0.387 OA
ATOM     17  H   UNL     1      -0.388  -3.974   2.464  1.00  0.00     0.211 HD
ENDBRANCH  14  16
ENDBRANCH  12  14
ENDBRANCH   7  12
ENDBRANCH   6   7
ENDBRANCH   3   6
ENDBRANCH   1   2
BRANCH   1  18
ATOM     18  C   UNL     1      -2.505  -1.296  -3.994  1.00  0.00     0.042 C 
BRANCH  18  19
ATOM     19  C   UNL     1      -2.680  -1.901  -5.377  1.00  0.00     0.118 C 
BRANCH  19  20
ATOM     20  N   UNL     1      -3.253  -0.938  -6.298  1.00  0.00    -0.352 N 
ATOM     21  C   UNL     1      -2.647  -0.261  -7.330  1.00  0.00     0.251 C 
ATOM     22  H   UNL     1      -4.209  -0.743  -6.166  1.00  0.00     0.163 HD
ATOM     23  O   UNL     1      -3.200   0.735  -7.791  1.00  0.00    -0.269 OA
BRANCH  21  24
ATOM     24  C   UNL     1      -1.344  -0.711  -7.879  1.00  0.00     0.039 A 
ATOM     25  C   UNL     1      -0.423   0.253  -8.302  1.00  0.00     0.014 A 
ATOM     26  C   UNL     1      -1.039  -2.067  -8.032  1.00  0.00     0.014 A 
ATOM     27  C   UNL     1       0.807  -0.143  -8.838  1.00  0.00     0.010 A 
ATOM     28  C   UNL     1       0.223  -2.458  -8.477  1.00  0.00     0.010 A 
ATOM     29  C   UNL     1       1.154  -1.502  -8.907  1.00  0.00    -0.014 A 
BRANCH  29  30
ATOM     30  C   UNL     1       2.477  -1.934  -9.437  1.00  0.00     0.031 A 
ATOM     31  C   UNL     1       2.560  -2.819 -10.655  1.00  0.00     0.074 A 
ATOM     32  C   UNL     1       3.604  -1.581  -8.786  1.00  0.00     0.049 A 
ATOM     33  N   UNL     1       3.618  -3.323 -11.236  1.00  0.00    -0.248 NA
ATOM     34  C   UNL     1       1.290  -3.209 -11.294  1.00  0.00     0.031 C 
ATOM     35  C   UNL     1       3.658  -0.791  -7.554  1.00  0.00     0.029 A 
ATOM     36  N   UNL     1       4.922  -1.863  -9.053  1.00  0.00    -0.354 N 
ATOM     37  C   UNL     1       3.145  -4.117 -12.274  1.00  0.00     0.074 A 
ATOM     38  C   UNL     1       1.702  -4.049 -12.233  1.00  0.00     0.031 C 
ATOM     39  C   UNL     1       4.938  -0.651  -7.174  1.00  0.00     0.029 A 
ATOM     40  C   UNL     1       5.795  -1.373  -8.108  1.00  0.00     0.049 A 
ATOM     41  H   UNL     1       5.215  -2.368  -9.846  1.00  0.00     0.167 HD
ATOM     42  C   UNL     1       3.847  -4.823 -13.191  1.00  0.00     0.034 A 
ATOM     43  C   UNL     1       7.131  -1.510  -7.991  1.00  0.00     0.034 A 
ATOM     44  C   UNL     1       5.283  -4.856 -13.258  1.00  0.00     0.049 A 
ATOM     45  C   UNL     1       7.884  -2.276  -9.045  1.00  0.00     0.074 A 
ATOM     46  C   UNL     1       6.083  -5.460 -14.213  1.00  0.00     0.029 A 
ATOM     47  N   UNL     1       6.133  -4.283 -12.327  1.00  0.00    -0.354 N 
ATOM     48  N   UNL     1       7.424  -2.877 -10.115  1.00  0.00    -0.248 NA
ATOM     49  C   UNL     1       9.345  -2.353  -8.896  1.00  0.00     0.031 C 
ATOM     50  C   UNL     1       7.417  -5.293 -13.833  1.00  0.00     0.029 A 
ATOM     51  C   UNL     1       7.449  -4.539 -12.672  1.00  0.00     0.049 A 
ATOM     52  H   UNL     1       5.845  -3.770 -11.538  1.00  0.00     0.167 HD
ATOM     53  C   UNL     1       8.539  -3.369 -10.784  1.00  0.00     0.074 A 
ATOM     54  C   UNL     1       9.698  -2.973 -10.013  1.00  0.00     0.031 C 
ATOM     55  C   UNL     1       8.598  -4.096 -11.926  1.00  0.00     0.034 A 
BRANCH  42  56
ATOM     56  C   UNL     1       3.084  -5.603 -14.231  1.00  0.00     0.023 A 
ATOM     57  C   UNL     1       2.414  -4.923 -15.268  1.00  0.00     0.012 A 
ATOM     58  C   UNL     1       3.125  -7.011 -14.240  1.00  0.00     0.148 A 
ATOM     59  C   UNL     1       1.780  -5.633 -16.287  1.00  0.00     0.002 A 
ATOM     60  C   UNL     1       2.533  -7.710 -15.284  1.00  0.00     0.091 A 
ATOM     61  F   UNL     1       3.754  -7.638 -13.235  1.00  0.00    -0.205 F 
ATOM     62  C   UNL     1       1.851  -7.024 -16.302  1.00  0.00     0.022 A 
BRANCH  60  63
ATOM     63  S   UNL     1       2.643  -9.496 -15.444  1.00  0.00     0.127 S 
ATOM     64  O   UNL     1       1.243  -9.892 -15.288  1.00  0.00    -0.237 OA
ATOM     65  O   UNL     1       3.172  -9.648 -16.799  1.00  0.00    -0.237 OA
ATOM     66  O   UNL     1       3.534  -9.944 -14.384  1.00  0.00    -0.744 OA
ENDBRANCH  60  63
ENDBRANCH  42  56
BRANCH  43  67
ATOM     67  C   UNL     1       7.854  -0.895  -6.840  1.00  0.00     0.023 A 
ATOM     68  C   UNL     1       8.765   0.155  -7.062  1.00  0.00     0.012 A 
ATOM     69  C   UNL     1       7.652  -1.361  -5.526  1.00  0.00     0.148 A 
ATOM     70  C   UNL     1       9.501   0.695  -6.005  1.00  0.00     0.002 A 
ATOM     71  C   UNL     1       8.339  -0.776  -4.470  1.00  0.00     0.091 A 
ATOM     72  F   UNL     1       6.790  -2.369  -5.334  1.00  0.00    -0.205 F 
ATOM     73  C   UNL     1       9.282   0.235  -4.709  1.00  0.00     0.022 A 
BRANCH  71  74
ATOM     74  S   UNL     1       8.013  -1.211  -2.759  1.00  0.00     0.127 S 
ATOM     75  O   UNL     1       9.219  -1.955  -2.405  1.00  0.00    -0.237 OA
ATOM     76  O   UNL     1       7.893   0.106  -2.131  1.00  0.00    -0.237 OA
ATOM     77  O   UNL     1       6.774  -1.977  -2.779  1.00  0.00    -0.744 OA
ENDBRANCH  71  74
ENDBRANCH  43  67
BRANCH  55  78
ATOM     78  C   UNL     1       9.959  -4.469 -12.453  1.00  0.00     0.023 A 
ATOM     79  C   UNL     1      10.741  -5.428 -11.780  1.00  0.00     0.012 A 
ATOM     80  C   UNL     1      10.429  -3.916 -13.660  1.00  0.00     0.148 A 
ATOM     81  C   UNL     1      11.988  -5.801 -12.281  1.00  0.00     0.002 A 
ATOM     82  C   UNL     1      11.646  -4.334 -14.183  1.00  0.00     0.091 A 
ATOM     83  F   UNL     1       9.676  -2.994 -14.277  1.00  0.00    -0.205 F 
ATOM     84  C   UNL     1      12.434  -5.265 -13.486  1.00  0.00     0.022 A 
BRANCH  82  85
ATOM     85  S   UNL     1      12.255  -3.776 -15.777  1.00  0.00     0.127 S 
ATOM     86  O   UNL     1      13.397  -2.950 -15.387  1.00  0.00    -0.237 OA
ATOM     87  O   UNL     1      12.607  -5.036 -16.431  1.00  0.00    -0.237 OA
ATOM     88  O   UNL     1      11.152  -3.056 -16.401  1.00  0.00    -0.744 OA
ENDBRANCH  82  85
ENDBRANCH  55  78
ENDBRANCH  29  30
ENDBRANCH  21  24
ENDBRANCH  19  20
ENDBRANCH  18  19
ENDBRANCH   1  18
TORSDOF 19
