REMARK SMILES O=C(NCCCNC(=O)C1(c2ccccc2)CCN(S(=O)(=O)c2cccs2)CC1)c1ccc(-c2c3nc(c(-c4cccc(S(=O)(=O)[O-])c4F)c4ccc([nH]4)c(-c4cccc(S(=O)(=O)[O-])c4F)c4nc(c(-c5cccc(S(=O)(=O)[O-])c5F)c5ccc2[nH]5)C=C4)C=C3)cc1
REMARK SMILES IDX 4 1 3 2 1 3 2 4 30 6 31 7 92 8 32 9 91 10 33 11 34 12 35 13
REMARK SMILES IDX 85 14 36 15 90 16 84 17 86 18 37 19 89 20 83 21 82 22 38 24
REMARK SMILES IDX 70 25 50 26 69 27 51 28 54 29 68 30 87 31 52 32 53 33 67 35
REMARK SMILES IDX 88 36 55 37 39 38 40 39 48 40 41 41 43 42 49 43 42 44 44 45
REMARK SMILES IDX 45 46 46 47 47 48 71 49 72 50 80 51 73 52 75 53 81 54 74 55
REMARK SMILES IDX 76 56 77 57 78 58 79 59 56 60 57 61 65 62 58 63 60 64 66 65
REMARK SMILES IDX 59 66 61 67 62 68 63 69 64 70 5 71 6 72 7 73 8 74 9 76 10 77
REMARK SMILES IDX 17 78 29 79 18 80 28 81 19 82 11 83 12 84 16 85 13 86 15 87
REMARK SMILES IDX 14 88 20 89 21 90 22 91 23 92 24 93 27 94 25 95 26 96
REMARK H PARENT 3 5 86 23 54 34 7 75
REMARK Flexibility Score: inf
ROOT
ATOM      1  C   UNL     1       4.258   0.809   1.131  1.00  0.00     0.118 C 
ENDROOT
BRANCH   1   2
ATOM      2  N   UNL     1       2.863   0.451   0.948  1.00  0.00    -0.352 N 
ATOM      3  O   UNL     1       1.044  -0.142  -0.219  1.00  0.00    -0.269 OA
ATOM      4  C   UNL     1       2.264  -0.212  -0.094  1.00  0.00     0.251 C 
ATOM      5  H   UNL     1       2.259   0.723   1.676  1.00  0.00     0.163 HD
BRANCH   4   6
ATOM      6  C   UNL     1       3.074  -0.997  -1.056  1.00  0.00     0.039 A 
ATOM      7  C   UNL     1       4.159  -1.766  -0.625  1.00  0.00     0.014 A 
ATOM      8  C   UNL     1       2.686  -1.037  -2.398  1.00  0.00     0.014 A 
ATOM      9  C   UNL     1       4.915  -2.489  -1.543  1.00  0.00     0.010 A 
ATOM     10  C   UNL     1       3.390  -1.837  -3.305  1.00  0.00     0.010 A 
ATOM     11  C   UNL     1       4.510  -2.568  -2.883  1.00  0.00    -0.014 A 
BRANCH  11  12
ATOM     12  C   UNL     1       5.165  -3.551  -3.784  1.00  0.00     0.031 A 
ATOM     13  C   UNL     1       5.917  -3.120  -5.009  1.00  0.00     0.074 A 
ATOM     14  C   UNL     1       5.017  -4.862  -3.501  1.00  0.00     0.049 A 
ATOM     15  N   UNL     1       6.513  -3.863  -5.904  1.00  0.00    -0.248 NA
ATOM     16  C   UNL     1       6.009  -1.675  -5.273  1.00  0.00     0.031 C 
ATOM     17  C   UNL     1       4.251  -5.396  -2.369  1.00  0.00     0.029 A 
ATOM     18  N   UNL     1       5.475  -5.982  -4.145  1.00  0.00    -0.354 N 
ATOM     19  C   UNL     1       7.010  -2.988  -6.861  1.00  0.00     0.074 A 
ATOM     20  C   UNL     1       6.656  -1.651  -6.433  1.00  0.00     0.031 C 
ATOM     21  C   UNL     1       4.291  -6.735  -2.400  1.00  0.00     0.029 A 
ATOM     22  C   UNL     1       5.033  -7.157  -3.580  1.00  0.00     0.049 A 
ATOM     23  H   UNL     1       6.063  -5.950  -4.934  1.00  0.00     0.167 HD
ATOM     24  C   UNL     1       7.704  -3.279  -7.987  1.00  0.00     0.034 A 
ATOM     25  C   UNL     1       5.171  -8.434  -3.985  1.00  0.00     0.034 A 
ATOM     26  C   UNL     1       8.087  -4.610  -8.380  1.00  0.00     0.049 A 
ATOM     27  C   UNL     1       5.958  -8.716  -5.231  1.00  0.00     0.074 A 
ATOM     28  C   UNL     1       8.896  -4.992  -9.436  1.00  0.00     0.029 A 
ATOM     29  N   UNL     1       7.668  -5.774  -7.756  1.00  0.00    -0.354 N 
ATOM     30  N   UNL     1       6.583  -7.873  -6.017  1.00  0.00    -0.248 NA
ATOM     31  C   UNL     1       6.078 -10.122  -5.638  1.00  0.00     0.031 C 
ATOM     32  C   UNL     1       8.936  -6.390  -9.472  1.00  0.00     0.029 A 
ATOM     33  C   UNL     1       8.171  -6.877  -8.425  1.00  0.00     0.049 A 
ATOM     34  H   UNL     1       7.097  -5.811  -6.954  1.00  0.00     0.167 HD
ATOM     35  C   UNL     1       7.178  -8.646  -7.005  1.00  0.00     0.074 A 
ATOM     36  C   UNL     1       6.873 -10.028  -6.695  1.00  0.00     0.031 C 
ATOM     37  C   UNL     1       7.891  -8.247  -8.085  1.00  0.00     0.034 A 
BRANCH  24  38
ATOM     38  C   UNL     1       8.136  -2.145  -8.878  1.00  0.00     0.023 A 
ATOM     39  C   UNL     1       9.237  -1.348  -8.507  1.00  0.00     0.012 A 
ATOM     40  C   UNL     1       7.535  -1.954 -10.138  1.00  0.00     0.148 A 
ATOM     41  C   UNL     1       9.727  -0.371  -9.374  1.00  0.00     0.002 A 
ATOM     42  C   UNL     1       8.051  -1.003 -11.010  1.00  0.00     0.091 A 
ATOM     43  F   UNL     1       6.479  -2.714 -10.462  1.00  0.00    -0.205 F 
ATOM     44  C   UNL     1       9.143  -0.207 -10.628  1.00  0.00     0.022 A 
BRANCH  42  45
ATOM     45  S   UNL     1       7.418  -0.764 -12.675  1.00  0.00     0.127 S 
ATOM     46  O   UNL     1       6.827   0.570 -12.575  1.00  0.00    -0.237 OA
ATOM     47  O   UNL     1       8.638  -0.831 -13.479  1.00  0.00    -0.237 OA
ATOM     48  O   UNL     1       6.472  -1.846 -12.907  1.00  0.00    -0.744 OA
ENDBRANCH  42  45
ENDBRANCH  24  38
BRANCH  25  49
ATOM     49  C   UNL     1       4.549  -9.534  -3.198  1.00  0.00     0.023 A 
ATOM     50  C   UNL     1       5.367 -10.448  -2.508  1.00  0.00     0.012 A 
ATOM     51  C   UNL     1       3.148  -9.660  -3.105  1.00  0.00     0.148 A 
ATOM     52  C   UNL     1       4.802 -11.484  -1.763  1.00  0.00     0.002 A 
ATOM     53  C   UNL     1       2.593 -10.656  -2.312  1.00  0.00     0.091 A 
ATOM     54  F   UNL     1       2.383  -8.795  -3.786  1.00  0.00    -0.205 F 
ATOM     55  C   UNL     1       3.417 -11.581  -1.655  1.00  0.00     0.022 A 
BRANCH  53  56
ATOM     56  S   UNL     1       0.825 -10.745  -2.007  1.00  0.00     0.127 S 
ATOM     57  O   UNL     1       0.414 -11.800  -2.928  1.00  0.00    -0.237 OA
ATOM     58  O   UNL     1       0.773 -11.108  -0.590  1.00  0.00    -0.237 OA
ATOM     59  O   UNL     1       0.320  -9.409  -2.294  1.00  0.00    -0.744 OA
ENDBRANCH  53  56
ENDBRANCH  25  49
BRANCH  37  60
ATOM     60  C   UNL     1       8.391  -9.316  -9.017  1.00  0.00     0.023 A 
ATOM     61  C   UNL     1       7.481  -9.970  -9.871  1.00  0.00     0.012 A 
ATOM     62  C   UNL     1       9.763  -9.623  -9.099  1.00  0.00     0.148 A 
ATOM     63  C   UNL     1       7.925 -10.934 -10.775  1.00  0.00     0.002 A 
ATOM     64  C   UNL     1      10.205 -10.550 -10.035  1.00  0.00     0.091 A 
ATOM     65  F   UNL     1      10.608  -9.000  -8.265  1.00  0.00    -0.205 F 
ATOM     66  C   UNL     1       9.286 -11.214 -10.865  1.00  0.00     0.022 A 
BRANCH  64  67
ATOM     67  S   UNL     1      11.945 -10.912 -10.289  1.00  0.00     0.127 S 
ATOM     68  O   UNL     1      12.043 -12.278  -9.776  1.00  0.00    -0.237 OA
ATOM     69  O   UNL     1      12.078 -10.794 -11.741  1.00  0.00    -0.237 OA
ATOM     70  O   UNL     1      12.681  -9.909  -9.530  1.00  0.00    -0.744 OA
ENDBRANCH  64  67
ENDBRANCH  37  60
ENDBRANCH  11  12
ENDBRANCH   4   6
ENDBRANCH   1   2
BRANCH   1  71
ATOM     71  C   UNL     1       4.495   2.288   0.869  1.00  0.00     0.042 C 
BRANCH  71  72
ATOM     72  C   UNL     1       3.924   3.195   1.952  1.00  0.00     0.117 C 
BRANCH  72  73
ATOM     73  N   UNL     1       4.589   2.994   3.229  1.00  0.00    -0.355 N 
ATOM     74  C   UNL     1       5.652   3.624   3.800  1.00  0.00     0.230 C 
ATOM     75  H   UNL     1       4.202   2.274   3.778  1.00  0.00     0.163 HD
ATOM     76  O   UNL     1       6.173   3.036   4.753  1.00  0.00    -0.274 OA
BRANCH  74  77
ATOM     77  C   UNL     1       6.143   5.029   3.339  1.00  0.00     0.077 C 
ATOM     78  C   UNL     1       7.322   5.478   4.263  1.00  0.00     0.038 C 
ATOM     79  C   UNL     1       4.994   6.049   3.547  1.00  0.00     0.038 C 
ATOM     80  C   UNL     1       6.906   5.772   5.718  1.00  0.00     0.104 C 
ATOM     81  C   UNL     1       4.611   6.196   5.009  1.00  0.00     0.104 C 
ATOM     82  N   UNL     1       5.778   6.742   5.734  1.00  0.00    -0.197 NA
BRANCH  77  83
ATOM     83  C   UNL     1       6.646   4.965   1.877  1.00  0.00    -0.032 A 
ATOM     84  C   UNL     1       6.107   5.772   0.856  1.00  0.00     0.005 A 
ATOM     85  C   UNL     1       7.622   4.019   1.507  1.00  0.00     0.005 A 
ATOM     86  C   UNL     1       6.460   5.584  -0.483  1.00  0.00     0.000 A 
ATOM     87  C   UNL     1       7.977   3.836   0.166  1.00  0.00     0.000 A 
ATOM     88  C   UNL     1       7.381   4.605  -0.830  1.00  0.00     0.000 A 
ENDBRANCH  77  83
BRANCH  82  89
ATOM     89  S   UNL     1       5.407   7.378   7.282  1.00  0.00     0.252 S 
ATOM     90  O   UNL     1       4.448   6.495   7.910  1.00  0.00    -0.206 OA
ATOM     91  O   UNL     1       6.646   7.742   7.937  1.00  0.00    -0.206 OA
BRANCH  89  92
ATOM     92  C   UNL     1       4.498   8.901   7.005  1.00  0.00     0.135 A 
ATOM     93  C   UNL     1       3.229   9.140   6.501  1.00  0.00     0.033 A 
ATOM     94  S   UNL     1       5.280  10.369   7.415  1.00  0.00    -0.131 S 
ATOM     95  C   UNL     1       2.922  10.529   6.414  1.00  0.00     0.013 A 
ATOM     96  C   UNL     1       3.947  11.308   6.899  1.00  0.00     0.066 A 
ENDBRANCH  89  92
ENDBRANCH  82  89
ENDBRANCH  74  77
ENDBRANCH  72  73
ENDBRANCH  71  72
ENDBRANCH   1  71
TORSDOF 16
