REMARK SMILES CCC[C@]1(C(=O)NCCCNC(=O)c2ccc(-c3c4nc(c(-c5cccc(S(=O)(=O)[O-])c5F)c5ccc([nH]5)c(-c5cccc(S(=O)(=O)[O-])c5F)c5nc(c(-c6cccc(S(=O)(=O)[O-])c6F)c6ccc3[nH]6)C=C5)C=C4)cc2)CCCN(C(=O)N[C@H]2CCOC2)C1
REMARK SMILES IDX 9 1 8 2 7 3 5 4 6 5 4 7 77 8 89 9 78 10 80 11 79 12 3 13
REMARK SMILES IDX 2 14 1 15 81 16 82 17 83 18 84 20 85 21 88 22 86 23 87 24
REMARK SMILES IDX 10 25 11 26 12 27 13 29 14 30 15 31 76 32 16 33 75 34 17 35
REMARK SMILES IDX 18 36 19 37 69 38 20 39 74 40 68 41 70 42 21 43 73 44 67 45
REMARK SMILES IDX 66 46 22 48 54 49 34 50 53 51 35 52 38 53 52 54 71 55 36 56
REMARK SMILES IDX 37 57 51 59 72 60 39 61 23 62 24 63 32 64 25 65 27 66 33 67
REMARK SMILES IDX 26 68 28 69 29 70 30 71 31 72 55 73 56 74 64 75 57 76 59 77
REMARK SMILES IDX 65 78 58 79 60 80 61 81 62 82 63 83 40 84 41 85 49 86 42 87
REMARK SMILES IDX 44 88 50 89 43 90 45 91 46 92 47 93 48 94
REMARK H PARENT 7 6 83 19 11 28 70 47 38 58
REMARK Flexibility Score: inf
ROOT
ATOM      1  C   UNL     1      -5.865   7.691   7.686  1.00  0.00     0.042 C 
ENDROOT
BRANCH   1   2
ATOM      2  C   UNL     1      -5.221   6.668   8.617  1.00  0.00     0.117 C 
BRANCH   2   3
ATOM      3  N   UNL     1      -6.187   5.861   9.349  1.00  0.00    -0.355 N 
ATOM      4  C   UNL     1      -6.583   4.559   9.262  1.00  0.00     0.228 C 
ATOM      5  O   UNL     1      -7.532   4.255   9.992  1.00  0.00    -0.274 OA
ATOM      6  H   UNL     1      -6.653   6.361  10.058  1.00  0.00     0.163 HD
BRANCH   4   7
ATOM      7  C   UNL     1      -5.953   3.545   8.277  1.00  0.00     0.067 C 
ATOM      8  C   UNL     1      -6.311   4.066   6.846  1.00  0.00     0.020 C 
ATOM      9  C   UNL     1      -4.424   3.406   8.513  1.00  0.00     0.138 C 
ATOM     10  C   UNL     1      -5.386   3.590   5.733  1.00  0.00     0.023 C 
ATOM     11  N   UNL     1      -3.724   2.864   7.336  1.00  0.00    -0.324 N 
ATOM     12  C   UNL     1      -3.931   3.674   6.156  1.00  0.00     0.121 C 
BRANCH   7  13
ATOM     13  C   UNL     1      -6.647   2.138   8.415  1.00  0.00     0.018 C 
BRANCH  13  14
ATOM     14  C   UNL     1      -6.257   1.192   9.565  1.00  0.00    -0.002 C 
ATOM     15  C   UNL     1      -6.461   1.718  10.974  1.00  0.00     0.004 C 
ENDBRANCH  13  14
ENDBRANCH   7  13
BRANCH  11  16
ATOM     16  C   UNL     1      -3.053   1.689   7.461  1.00  0.00     0.317 C 
ATOM     17  O   UNL     1      -2.912   1.141   8.562  1.00  0.00    -0.249 OA
ATOM     18  N   UNL     1      -2.504   0.998   6.455  1.00  0.00    -0.333 N 
ATOM     19  H   UNL     1      -2.183   0.134   6.803  1.00  0.00     0.165 HD
BRANCH  18  20
ATOM     20  C   UNL     1      -2.211   1.065   5.024  1.00  0.00     0.112 C 
ATOM     21  C   UNL     1      -3.372   1.119   4.059  1.00  0.00     0.056 C 
ATOM     22  C   UNL     1      -1.233   2.142   4.586  1.00  0.00     0.185 C 
ATOM     23  C   UNL     1      -3.020   2.225   3.082  1.00  0.00     0.162 C 
ATOM     24  O   UNL     1      -1.662   2.615   3.306  1.00  0.00    -0.379 OA
ENDBRANCH  18  20
ENDBRANCH  11  16
ENDBRANCH   4   7
ENDBRANCH   2   3
ENDBRANCH   1   2
BRANCH   1  25
ATOM     25  C   UNL     1      -6.719   8.733   8.387  1.00  0.00     0.118 C 
BRANCH  25  26
ATOM     26  N   UNL     1      -5.935   9.597   9.254  1.00  0.00    -0.352 N 
ATOM     27  C   UNL     1      -5.674  10.941   9.159  1.00  0.00     0.251 C 
ATOM     28  H   UNL     1      -5.527   9.148  10.030  1.00  0.00     0.163 HD
ATOM     29  O   UNL     1      -4.804  11.432   9.874  1.00  0.00    -0.269 OA
BRANCH  27  30
ATOM     30  C   UNL     1      -6.420  11.797   8.207  1.00  0.00     0.039 A 
ATOM     31  C   UNL     1      -5.747  12.842   7.567  1.00  0.00     0.014 A 
ATOM     32  C   UNL     1      -7.787  11.614   7.980  1.00  0.00     0.014 A 
ATOM     33  C   UNL     1      -6.434  13.677   6.680  1.00  0.00     0.010 A 
ATOM     34  C   UNL     1      -8.445  12.381   7.024  1.00  0.00     0.010 A 
ATOM     35  C   UNL     1      -7.786  13.442   6.388  1.00  0.00    -0.014 A 
BRANCH  35  36
ATOM     36  C   UNL     1      -8.550  14.325   5.469  1.00  0.00     0.031 A 
ATOM     37  C   UNL     1      -9.737  15.097   5.986  1.00  0.00     0.074 A 
ATOM     38  C   UNL     1      -8.232  14.371   4.160  1.00  0.00     0.049 A 
ATOM     39  N   UNL     1     -10.576  15.857   5.333  1.00  0.00    -0.248 NA
ATOM     40  C   UNL     1     -10.042  14.970   7.422  1.00  0.00     0.031 C 
ATOM     41  C   UNL     1      -7.156  13.611   3.521  1.00  0.00     0.029 A 
ATOM     42  N   UNL     1      -8.804  15.069   3.126  1.00  0.00    -0.354 N 
ATOM     43  C   UNL     1     -11.529  16.258   6.263  1.00  0.00     0.074 A 
ATOM     44  C   UNL     1     -11.189  15.626   7.517  1.00  0.00     0.031 C 
ATOM     45  C   UNL     1      -7.143  13.887   2.207  1.00  0.00     0.029 A 
ATOM     46  C   UNL     1      -8.223  14.822   1.905  1.00  0.00     0.049 A 
ATOM     47  H   UNL     1      -9.559  15.689   3.247  1.00  0.00     0.167 HD
ATOM     48  C   UNL     1     -12.574  17.103   6.100  1.00  0.00     0.034 A 
ATOM     49  C   UNL     1      -8.527  15.294   0.679  1.00  0.00     0.034 A 
ATOM     50  C   UNL     1     -12.870  17.783   4.869  1.00  0.00     0.049 A 
ATOM     51  C   UNL     1      -9.650  16.286   0.538  1.00  0.00     0.074 A 
ATOM     52  C   UNL     1     -13.847  18.731   4.622  1.00  0.00     0.029 A 
ATOM     53  N   UNL     1     -12.188  17.591   3.678  1.00  0.00    -0.354 N 
ATOM     54  N   UNL     1     -10.444  16.771   1.462  1.00  0.00    -0.248 NA
ATOM     55  C   UNL     1      -9.893  16.829  -0.806  1.00  0.00     0.031 C 
ATOM     56  C   UNL     1     -13.763  19.103   3.276  1.00  0.00     0.029 A 
ATOM     57  C   UNL     1     -12.720  18.402   2.692  1.00  0.00     0.049 A 
ATOM     58  H   UNL     1     -11.435  16.968   3.552  1.00  0.00     0.167 HD
ATOM     59  C   UNL     1     -11.251  17.704   0.821  1.00  0.00     0.074 A 
ATOM     60  C   UNL     1     -10.838  17.729  -0.567  1.00  0.00     0.031 C 
ATOM     61  C   UNL     1     -12.254  18.462   1.331  1.00  0.00     0.034 A 
BRANCH  48  62
ATOM     62  C   UNL     1     -13.437  17.390   7.302  1.00  0.00     0.023 A 
ATOM     63  C   UNL     1     -12.921  18.170   8.357  1.00  0.00     0.012 A 
ATOM     64  C   UNL     1     -14.769  16.936   7.367  1.00  0.00     0.148 A 
ATOM     65  C   UNL     1     -13.701  18.460   9.476  1.00  0.00     0.002 A 
ATOM     66  C   UNL     1     -15.556  17.269   8.464  1.00  0.00     0.091 A 
ATOM     67  F   UNL     1     -15.237  16.178   6.365  1.00  0.00    -0.205 F 
ATOM     68  C   UNL     1     -15.020  18.019   9.524  1.00  0.00     0.022 A 
BRANCH  66  69
ATOM     69  S   UNL     1     -17.291  16.818   8.584  1.00  0.00     0.127 S 
ATOM     70  O   UNL     1     -17.255  15.779   9.613  1.00  0.00    -0.237 OA
ATOM     71  O   UNL     1     -17.908  18.075   9.008  1.00  0.00    -0.237 OA
ATOM     72  O   UNL     1     -17.681  16.369   7.255  1.00  0.00    -0.744 OA
ENDBRANCH  66  69
ENDBRANCH  48  62
BRANCH  49  73
ATOM     73  C   UNL     1      -7.703  14.897  -0.497  1.00  0.00     0.023 A 
ATOM     74  C   UNL     1      -6.848  15.846  -1.091  1.00  0.00     0.012 A 
ATOM     75  C   UNL     1      -7.734  13.586  -1.010  1.00  0.00     0.148 A 
ATOM     76  C   UNL     1      -6.066  15.508  -2.195  1.00  0.00     0.002 A 
ATOM     77  C   UNL     1      -6.911  13.240  -2.076  1.00  0.00     0.091 A 
ATOM     78  F   UNL     1      -8.561  12.699  -0.438  1.00  0.00    -0.205 F 
ATOM     79  C   UNL     1      -6.089  14.203  -2.681  1.00  0.00     0.022 A 
BRANCH  77  80
ATOM     80  S   UNL     1      -6.779  11.554  -2.682  1.00  0.00     0.127 S 
ATOM     81  O   UNL     1      -7.480  11.638  -3.959  1.00  0.00    -0.237 OA
ATOM     82  O   UNL     1      -5.330  11.380  -2.783  1.00  0.00    -0.237 OA
ATOM     83  O   UNL     1      -7.410  10.722  -1.664  1.00  0.00    -0.744 OA
ENDBRANCH  77  80
ENDBRANCH  49  73
BRANCH  61  84
ATOM     84  C   UNL     1     -12.950  19.420   0.401  1.00  0.00     0.023 A 
ATOM     85  C   UNL     1     -13.841  18.930  -0.573  1.00  0.00     0.012 A 
ATOM     86  C   UNL     1     -12.783  20.811   0.551  1.00  0.00     0.148 A 
ATOM     87  C   UNL     1     -14.532  19.809  -1.405  1.00  0.00     0.002 A 
ATOM     88  C   UNL     1     -13.512  21.682  -0.249  1.00  0.00     0.091 A 
ATOM     89  F   UNL     1     -11.915  21.257   1.471  1.00  0.00    -0.205 F 
ATOM     90  C   UNL     1     -14.378  21.183  -1.236  1.00  0.00     0.022 A 
BRANCH  88  91
ATOM     91  S   UNL     1     -13.448  23.464  -0.032  1.00  0.00     0.127 S 
ATOM     92  O   UNL     1     -12.635  23.875  -1.175  1.00  0.00    -0.237 OA
ATOM     93  O   UNL     1     -14.860  23.840  -0.120  1.00  0.00    -0.237 OA
ATOM     94  O   UNL     1     -12.848  23.686   1.277  1.00  0.00    -0.744 OA
ENDBRANCH  88  91
ENDBRANCH  61  84
ENDBRANCH  35  36
ENDBRANCH  27  30
ENDBRANCH  25  26
ENDBRANCH   1  25
TORSDOF 17
