REMARK SMILES CCC1(C(=O)NCCCNC(=O)c2ccc(-c3c4nc(c(-c5cccc(S(=O)(=O)[O-])c5F)c5ccc([nH]5)c(-c5cccc(S(=O)(=O)[O-])c5F)c5nc(c(-c6cccc(S(=O)(=O)[O-])c6F)c6ccc3[nH]6)C=C5)C=C4)cc2)CCN(C(=O)C[C@H]2CSCC[NH2+]2)CC1
REMARK SMILES IDX 8 1 7 2 6 3 4 4 5 5 3 7 76 8 89 9 77 10 88 11 78 12 79 13
REMARK SMILES IDX 80 14 2 15 1 16 81 17 82 18 83 19 87 20 84 21 86 22 85 25
REMARK SMILES IDX 9 26 10 27 11 28 12 30 13 31 14 32 75 33 15 34 74 35 16 36
REMARK SMILES IDX 17 37 18 38 68 39 19 40 73 41 67 42 69 43 20 44 72 45 66 46
REMARK SMILES IDX 65 47 21 49 53 50 33 51 52 52 34 53 37 54 51 55 70 56 35 57
REMARK SMILES IDX 36 58 50 60 71 61 38 62 22 63 23 64 31 65 24 66 26 67 32 68
REMARK SMILES IDX 25 69 27 70 28 71 29 72 30 73 54 74 55 75 63 76 56 77 58 78
REMARK SMILES IDX 64 79 57 80 59 81 60 82 61 83 62 84 39 85 40 86 48 87 41 88
REMARK SMILES IDX 43 89 49 90 42 91 44 92 45 93 46 94 47 95
REMARK H PARENT 6 6 87 23 87 24 10 29 69 48 37 59
REMARK Flexibility Score: inf
ROOT
ATOM      1  C   UNL     1       7.009 -10.370  -2.045  1.00  0.00     0.042 C 
ENDROOT
BRANCH   1   2
ATOM      2  C   UNL     1       6.263  -9.347  -2.892  1.00  0.00     0.117 C 
BRANCH   2   3
ATOM      3  N   UNL     1       6.526  -9.510  -4.315  1.00  0.00    -0.356 N 
ATOM      4  C   UNL     1       5.725  -9.802  -5.376  1.00  0.00     0.226 C 
ATOM      5  O   UNL     1       6.271  -9.763  -6.483  1.00  0.00    -0.274 OA
ATOM      6  H   UNL     1       7.472  -9.383  -4.559  1.00  0.00     0.163 HD
BRANCH   4   7
ATOM      7  C   UNL     1       4.214 -10.096  -5.225  1.00  0.00     0.052 C 
ATOM      8  C   UNL     1       3.978 -11.271  -4.237  1.00  0.00     0.038 C 
ATOM      9  C   UNL     1       3.525  -8.767  -4.762  1.00  0.00     0.038 C 
ATOM     10  C   UNL     1       2.566 -11.310  -3.674  1.00  0.00     0.120 C 
ATOM     11  C   UNL     1       2.115  -8.969  -4.198  1.00  0.00     0.120 C 
ATOM     12  N   UNL     1       2.158 -10.001  -3.179  1.00  0.00    -0.342 N 
ATOM     13  C   UNL     1       2.162  -9.758  -1.811  1.00  0.00     0.228 C 
ATOM     14  O   UNL     1       2.824 -10.442  -1.032  1.00  0.00    -0.275 OA
BRANCH   7  15
ATOM     15  C   UNL     1       3.605 -10.441  -6.631  1.00  0.00     0.013 C 
ATOM     16  C   UNL     1       4.081 -11.726  -7.307  1.00  0.00     0.005 C 
ENDBRANCH   7  15
BRANCH  13  17
ATOM     17  C   UNL     1       1.195  -8.711  -1.283  1.00  0.00     0.166 C 
BRANCH  17  18
ATOM     18  C   UNL     1       1.693  -7.258  -1.192  1.00  0.00     0.201 C 
ATOM     19  C   UNL     1       0.431  -6.357  -1.190  1.00  0.00     0.135 C 
ATOM     20  N   UNL     1       2.513  -7.055   0.019  1.00  0.00    -0.342 N 
ATOM     21  S   UNL     1       0.803  -4.578  -1.127  1.00  0.00    -0.150 SA
ATOM     22  C   UNL     1       3.006  -5.674   0.141  1.00  0.00     0.271 C 
ATOM     23  H   UNL     1       3.313  -7.686  -0.019  1.00  0.00     0.346 HD
ATOM     24  H   UNL     1       1.923  -7.245   0.829  1.00  0.00     0.346 HD
ATOM     25  C   UNL     1       1.893  -4.637   0.327  1.00  0.00     0.131 C 
ENDBRANCH  17  18
ENDBRANCH  13  17
ENDBRANCH   4   7
ENDBRANCH   2   3
ENDBRANCH   1   2
BRANCH   1  26
ATOM     26  C   UNL     1       8.524 -10.226  -2.103  1.00  0.00     0.118 C 
BRANCH  26  27
ATOM     27  N   UNL     1       8.985  -8.936  -1.602  1.00  0.00    -0.352 N 
ATOM     28  C   UNL     1       9.764  -8.642  -0.511  1.00  0.00     0.251 C 
ATOM     29  H   UNL     1       8.692  -8.156  -2.127  1.00  0.00     0.163 HD
ATOM     30  O   UNL     1       9.863  -7.475  -0.134  1.00  0.00    -0.269 OA
BRANCH  28  31
ATOM     31  C   UNL     1      10.468  -9.720   0.213  1.00  0.00     0.039 A 
ATOM     32  C   UNL     1      10.498  -9.697   1.609  1.00  0.00     0.014 A 
ATOM     33  C   UNL     1      11.104 -10.750  -0.484  1.00  0.00     0.014 A 
ATOM     34  C   UNL     1      11.107 -10.745   2.304  1.00  0.00     0.010 A 
ATOM     35  C   UNL     1      11.619 -11.839   0.208  1.00  0.00     0.010 A 
ATOM     36  C   UNL     1      11.638 -11.845   1.610  1.00  0.00    -0.014 A 
BRANCH  36  37
ATOM     37  C   UNL     1      12.213 -13.011   2.328  1.00  0.00     0.031 A 
ATOM     38  C   UNL     1      13.653 -13.397   2.119  1.00  0.00     0.074 A 
ATOM     39  C   UNL     1      11.415 -13.777   3.099  1.00  0.00     0.049 A 
ATOM     40  N   UNL     1      14.315 -14.412   2.611  1.00  0.00    -0.248 NA
ATOM     41  C   UNL     1      14.447 -12.549   1.213  1.00  0.00     0.031 C 
ATOM     42  C   UNL     1       9.984 -13.558   3.316  1.00  0.00     0.029 A 
ATOM     43  N   UNL     1      11.690 -14.911   3.822  1.00  0.00    -0.354 N 
ATOM     44  C   UNL     1      15.584 -14.348   2.047  1.00  0.00     0.074 A 
ATOM     45  C   UNL     1      15.588 -13.219   1.143  1.00  0.00     0.031 C 
ATOM     46  C   UNL     1       9.509 -14.515   4.128  1.00  0.00     0.029 A 
ATOM     47  C   UNL     1      10.590 -15.438   4.459  1.00  0.00     0.049 A 
ATOM     48  H   UNL     1      12.588 -15.309   3.880  1.00  0.00     0.167 HD
ATOM     49  C   UNL     1      16.659 -15.137   2.281  1.00  0.00     0.034 A 
ATOM     50  C   UNL     1      10.464 -16.544   5.218  1.00  0.00     0.034 A 
ATOM     51  C   UNL     1      16.661 -16.237   3.207  1.00  0.00     0.049 A 
ATOM     52  C   UNL     1      11.680 -17.387   5.488  1.00  0.00     0.074 A 
ATOM     53  C   UNL     1      17.721 -17.042   3.584  1.00  0.00     0.029 A 
ATOM     54  N   UNL     1      15.547 -16.696   3.893  1.00  0.00    -0.354 N 
ATOM     55  N   UNL     1      12.911 -17.219   5.069  1.00  0.00    -0.248 NA
ATOM     56  C   UNL     1      11.497 -18.553   6.364  1.00  0.00     0.031 C 
ATOM     57  C   UNL     1      17.239 -18.011   4.471  1.00  0.00     0.029 A 
ATOM     58  C   UNL     1      15.888 -17.783   4.679  1.00  0.00     0.049 A 
ATOM     59  H   UNL     1      14.645 -16.306   3.830  1.00  0.00     0.167 HD
ATOM     60  C   UNL     1      13.657 -18.233   5.660  1.00  0.00     0.074 A 
ATOM     61  C   UNL     1      12.741 -18.999   6.480  1.00  0.00     0.031 C 
ATOM     62  C   UNL     1      14.977 -18.510   5.527  1.00  0.00     0.034 A 
BRANCH  49  63
ATOM     63  C   UNL     1      17.937 -14.811   1.550  1.00  0.00     0.023 A 
ATOM     64  C   UNL     1      18.644 -13.632   1.868  1.00  0.00     0.012 A 
ATOM     65  C   UNL     1      18.462 -15.688   0.580  1.00  0.00     0.148 A 
ATOM     66  C   UNL     1      19.825 -13.308   1.201  1.00  0.00     0.002 A 
ATOM     67  C   UNL     1      19.666 -15.383  -0.044  1.00  0.00     0.091 A 
ATOM     68  F   UNL     1      17.768 -16.794   0.275  1.00  0.00    -0.205 F 
ATOM     69  C   UNL     1      20.340 -14.187   0.254  1.00  0.00     0.022 A 
BRANCH  67  70
ATOM     70  S   UNL     1      20.457 -16.490  -1.216  1.00  0.00     0.127 S 
ATOM     71  O   UNL     1      20.282 -15.762  -2.473  1.00  0.00    -0.237 OA
ATOM     72  O   UNL     1      21.834 -16.528  -0.722  1.00  0.00    -0.237 OA
ATOM     73  O   UNL     1      19.742 -17.754  -1.121  1.00  0.00    -0.744 OA
ENDBRANCH  67  70
ENDBRANCH  49  63
BRANCH  50  74
ATOM     74  C   UNL     1       9.147 -16.879   5.830  1.00  0.00     0.023 A 
ATOM     75  C   UNL     1       8.978 -16.750   7.222  1.00  0.00     0.012 A 
ATOM     76  C   UNL     1       8.056 -17.292   5.041  1.00  0.00     0.148 A 
ATOM     77  C   UNL     1       7.757 -17.057   7.822  1.00  0.00     0.002 A 
ATOM     78  C   UNL     1       6.827 -17.543   5.638  1.00  0.00     0.091 A 
ATOM     79  F   UNL     1       8.240 -17.414   3.719  1.00  0.00    -0.205 F 
ATOM     80  C   UNL     1       6.679 -17.443   7.030  1.00  0.00     0.022 A 
BRANCH  78  81
ATOM     81  S   UNL     1       5.351 -17.926   4.689  1.00  0.00     0.127 S 
ATOM     82  O   UNL     1       5.092 -19.309   5.082  1.00  0.00    -0.237 OA
ATOM     83  O   UNL     1       4.397 -16.948   5.212  1.00  0.00    -0.237 OA
ATOM     84  O   UNL     1       5.715 -17.726   3.293  1.00  0.00    -0.744 OA
ENDBRANCH  78  81
ENDBRANCH  50  74
BRANCH  62  85
ATOM     85  C   UNL     1      15.533 -19.666   6.318  1.00  0.00     0.023 A 
ATOM     86  C   UNL     1      15.205 -20.989   5.960  1.00  0.00     0.012 A 
ATOM     87  C   UNL     1      16.439 -19.439   7.373  1.00  0.00     0.148 A 
ATOM     88  C   UNL     1      15.742 -22.066   6.664  1.00  0.00     0.002 A 
ATOM     89  C   UNL     1      17.012 -20.518   8.034  1.00  0.00     0.091 A 
ATOM     90  F   UNL     1      16.725 -18.173   7.709  1.00  0.00    -0.205 F 
ATOM     91  C   UNL     1      16.654 -21.832   7.691  1.00  0.00     0.022 A 
BRANCH  89  92
ATOM     92  S   UNL     1      18.270 -20.316   9.300  1.00  0.00     0.127 S 
ATOM     93  O   UNL     1      17.543 -20.704  10.507  1.00  0.00    -0.237 OA
ATOM     94  O   UNL     1      19.295 -21.268   8.871  1.00  0.00    -0.237 OA
ATOM     95  O   UNL     1      18.680 -18.919   9.241  1.00  0.00    -0.744 OA
ENDBRANCH  89  92
ENDBRANCH  62  85
ENDBRANCH  36  37
ENDBRANCH  28  31
ENDBRANCH  26  27
ENDBRANCH   1  26
TORSDOF 16
