REMARK SMILES CCN(C(=O)c1ccccc1C(=O)NCCCNC(=O)c1ccc(-c2c3nc(c(-c4cccc(S(=O)(=O)[O-])c4F)c4ccc([nH]4)c(-c4cccc(S(=O)(=O)[O-])c4F)c4nc(c(-c5cccc(S(=O)(=O)[O-])c5F)c5ccc2[nH]5)C=C4)C=C3)cc1)[C@H](CCO)c1ccccc1
REMARK SMILES IDX 12 1 13 2 14 3 11 5 6 6 7 7 8 8 10 9 9 10 4 11 5 12 3 13
REMARK SMILES IDX 2 14 1 15 84 16 88 17 89 18 93 19 90 20 92 21 91 22 85 23
REMARK SMILES IDX 86 24 87 25 15 27 16 28 17 29 18 30 19 31 20 33 21 34 22 35
REMARK SMILES IDX 83 36 23 37 82 38 24 39 25 40 26 41 76 42 27 43 81 44 75 45
REMARK SMILES IDX 77 46 28 47 80 48 74 49 73 50 29 52 61 53 41 54 60 55 42 56
REMARK SMILES IDX 45 57 59 58 78 59 43 60 44 61 58 63 79 64 46 65 30 66 31 67
REMARK SMILES IDX 39 68 32 69 34 70 40 71 33 72 35 73 36 74 37 75 38 76 62 77
REMARK SMILES IDX 63 78 71 79 64 80 66 81 72 82 65 83 67 84 68 85 69 86 70 87
REMARK SMILES IDX 47 88 48 89 56 90 49 91 51 92 57 93 50 94 52 95 53 96 54 97
REMARK SMILES IDX 55 98
REMARK H PARENT 14 4 87 26 18 32 77 51 45 62
REMARK Flexibility Score: inf
ROOT
ATOM      1  C   UNL     1       4.761   3.662   0.627  1.00  0.00     0.252 C 
ATOM      2  O   UNL     1       4.443   3.728   1.813  1.00  0.00    -0.269 OA
ATOM      3  N   UNL     1       5.270   2.495   0.122  1.00  0.00    -0.352 N 
ATOM      4  H   UNL     1       5.495   1.787   0.767  1.00  0.00     0.163 HD
ENDROOT
BRANCH   1   5
ATOM      5  C   UNL     1       4.758   4.901  -0.198  1.00  0.00     0.052 A 
ATOM      6  C   UNL     1       4.170   5.101  -1.468  1.00  0.00     0.052 A 
ATOM      7  C   UNL     1       4.472   6.294  -2.151  1.00  0.00     0.014 A 
ATOM      8  C   UNL     1       5.236   7.303  -1.555  1.00  0.00     0.001 A 
ATOM      9  C   UNL     1       5.482   5.949   0.411  1.00  0.00     0.014 A 
ATOM     10  C   UNL     1       5.713   7.146  -0.260  1.00  0.00     0.001 A 
BRANCH   6  11
ATOM     11  C   UNL     1       3.297   4.130  -2.230  1.00  0.00     0.255 C 
ATOM     12  O   UNL     1       3.552   3.983  -3.427  1.00  0.00    -0.269 OA
BRANCH  11  13
ATOM     13  N   UNL     1       2.314   3.361  -1.573  1.00  0.00    -0.332 N 
BRANCH  13  14
ATOM     14  C   UNL     1       1.692   3.896  -0.355  1.00  0.00     0.117 C 
ATOM     15  C   UNL     1       0.311   4.519  -0.520  1.00  0.00     0.027 C 
ENDBRANCH  13  14
BRANCH  13  16
ATOM     16  C   UNL     1       1.921   2.016  -2.181  1.00  0.00     0.118 C 
BRANCH  16  17
ATOM     17  C   UNL     1       2.779   0.817  -1.716  1.00  0.00    -0.025 A 
ATOM     18  C   UNL     1       3.684  -0.293  -2.848  1.00  0.00     0.006 A 
ATOM     19  C   UNL     1       2.607   0.375   0.011  1.00  0.00     0.006 A 
ATOM     20  C   UNL     1       4.440  -1.829  -2.174  1.00  0.00     0.000 A 
ATOM     21  C   UNL     1       3.211  -1.198   0.635  1.00  0.00     0.000 A 
ATOM     22  C   UNL     1       4.095  -2.325  -0.440  1.00  0.00     0.000 A 
ENDBRANCH  16  17
BRANCH  16  23
ATOM     23  C   UNL     1       0.407   1.644  -2.146  1.00  0.00     0.058 C 
BRANCH  23  24
ATOM     24  C   UNL     1      -0.262   1.035  -0.896  1.00  0.00     0.158 C 
BRANCH  24  25
ATOM     25  O   UNL     1      -0.083   1.761   0.309  1.00  0.00    -0.396 OA
ATOM     26  H   UNL     1       0.860   1.783   0.536  1.00  0.00     0.210 HD
ENDBRANCH  24  25
ENDBRANCH  23  24
ENDBRANCH  16  23
ENDBRANCH  13  16
ENDBRANCH  11  13
ENDBRANCH   6  11
ENDBRANCH   1   5
BRANCH   3  27
ATOM     27  C   UNL     1       5.505   2.213  -1.269  1.00  0.00     0.118 C 
BRANCH  27  28
ATOM     28  C   UNL     1       5.539   0.774  -1.720  1.00  0.00     0.042 C 
BRANCH  28  29
ATOM     29  C   UNL     1       4.463  -0.268  -0.884  1.00  0.00     0.118 C 
BRANCH  29  30
ATOM     30  N   UNL     1       2.681  -1.215  -1.409  1.00  0.00    -0.352 N 
ATOM     31  C   UNL     1       1.899  -2.088  -2.376  1.00  0.00     0.251 C 
ATOM     32  H   UNL     1       2.046  -0.991  -0.690  1.00  0.00     0.163 HD
ATOM     33  O   UNL     1       0.666  -2.075  -2.259  1.00  0.00    -0.269 OA
BRANCH  31  34
ATOM     34  C   UNL     1       2.465  -3.040  -3.437  1.00  0.00     0.039 A 
ATOM     35  C   UNL     1       2.419  -2.896  -4.841  1.00  0.00     0.014 A 
ATOM     36  C   UNL     1       3.230  -4.077  -2.942  1.00  0.00     0.014 A 
ATOM     37  C   UNL     1       3.329  -3.625  -5.684  1.00  0.00     0.010 A 
ATOM     38  C   UNL     1       4.285  -4.539  -3.722  1.00  0.00     0.010 A 
ATOM     39  C   UNL     1       4.358  -4.393  -5.115  1.00  0.00    -0.014 A 
BRANCH  39  40
ATOM     40  C   UNL     1       5.529  -5.120  -5.764  1.00  0.00     0.031 A 
ATOM     41  C   UNL     1       5.895  -6.512  -5.211  1.00  0.00     0.074 A 
ATOM     42  C   UNL     1       6.438  -4.514  -6.569  1.00  0.00     0.049 A 
ATOM     43  N   UNL     1       7.026  -7.173  -5.270  1.00  0.00    -0.248 NA
ATOM     44  C   UNL     1       4.893  -7.166  -4.341  1.00  0.00     0.031 C 
ATOM     45  C   UNL     1       6.360  -3.147  -7.085  1.00  0.00     0.029 A 
ATOM     46  N   UNL     1       7.667  -4.958  -7.035  1.00  0.00    -0.354 N 
ATOM     47  C   UNL     1       6.897  -8.218  -4.353  1.00  0.00     0.074 A 
ATOM     48  C   UNL     1       5.647  -8.019  -3.668  1.00  0.00     0.031 C 
ATOM     49  C   UNL     1       7.479  -2.863  -7.779  1.00  0.00     0.029 A 
ATOM     50  C   UNL     1       8.380  -4.013  -7.748  1.00  0.00     0.049 A 
ATOM     51  H   UNL     1       8.002  -5.869  -6.871  1.00  0.00     0.167 HD
ATOM     52  C   UNL     1       7.696  -9.289  -4.122  1.00  0.00     0.034 A 
ATOM     53  C   UNL     1       9.613  -4.057  -8.308  1.00  0.00     0.034 A 
ATOM     54  C   UNL     1       8.885  -9.546  -4.880  1.00  0.00     0.049 A 
ATOM     55  C   UNL     1      10.443  -5.313  -8.184  1.00  0.00     0.074 A 
ATOM     56  C   UNL     1       9.671 -10.682  -4.894  1.00  0.00     0.029 A 
ATOM     57  N   UNL     1       9.457  -8.642  -5.756  1.00  0.00    -0.354 N 
ATOM     58  N   UNL     1      10.206  -6.385  -7.466  1.00  0.00    -0.248 NA
ATOM     59  C   UNL     1      11.684  -5.390  -8.974  1.00  0.00     0.031 C 
ATOM     60  C   UNL     1      10.761 -10.438  -5.734  1.00  0.00     0.029 A 
ATOM     61  C   UNL     1      10.602  -9.183  -6.303  1.00  0.00     0.049 A 
ATOM     62  H   UNL     1       9.101  -7.747  -5.959  1.00  0.00     0.167 HD
ATOM     63  C   UNL     1      11.230  -7.279  -7.759  1.00  0.00     0.074 A 
ATOM     64  C   UNL     1      12.098  -6.624  -8.715  1.00  0.00     0.031 C 
ATOM     65  C   UNL     1      11.427  -8.534  -7.287  1.00  0.00     0.034 A 
BRANCH  52  66
ATOM     66  C   UNL     1       7.274 -10.297  -3.070  1.00  0.00     0.023 A 
ATOM     67  C   UNL     1       6.056 -11.000  -3.204  1.00  0.00     0.012 A 
ATOM     68  C   UNL     1       8.101 -10.583  -1.963  1.00  0.00     0.148 A 
ATOM     69  C   UNL     1       5.632 -11.903  -2.229  1.00  0.00     0.002 A 
ATOM     70  C   UNL     1       7.704 -11.535  -1.029  1.00  0.00     0.091 A 
ATOM     71  F   UNL     1       9.254  -9.912  -1.835  1.00  0.00    -0.205 F 
ATOM     72  C   UNL     1       6.461 -12.178  -1.147  1.00  0.00     0.022 A 
BRANCH  70  73
ATOM     73  S   UNL     1       8.738 -12.037   0.352  1.00  0.00     0.127 S 
ATOM     74  O   UNL     1       7.973 -11.531   1.492  1.00  0.00    -0.237 OA
ATOM     75  O   UNL     1       8.739 -13.493   0.218  1.00  0.00    -0.237 OA
ATOM     76  O   UNL     1      10.031 -11.402   0.141  1.00  0.00    -0.744 OA
ENDBRANCH  70  73
ENDBRANCH  52  66
BRANCH  53  77
ATOM     77  C   UNL     1      10.103  -2.906  -9.132  1.00  0.00     0.023 A 
ATOM     78  C   UNL     1      10.134  -3.026 -10.538  1.00  0.00     0.012 A 
ATOM     79  C   UNL     1      10.481  -1.682  -8.547  1.00  0.00     0.148 A 
ATOM     80  C   UNL     1      10.537  -1.957 -11.342  1.00  0.00     0.002 A 
ATOM     81  C   UNL     1      10.832  -0.604  -9.356  1.00  0.00     0.091 A 
ATOM     82  F   UNL     1      10.462  -1.589  -7.211  1.00  0.00    -0.205 F 
ATOM     83  C   UNL     1      10.872  -0.742 -10.753  1.00  0.00     0.022 A 
BRANCH  81  84
ATOM     84  S   UNL     1      11.161   1.037  -8.699  1.00  0.00     0.127 S 
ATOM     85  O   UNL     1      12.562   1.232  -9.065  1.00  0.00    -0.237 OA
ATOM     86  O   UNL     1      10.209   1.854  -9.451  1.00  0.00    -0.237 OA
ATOM     87  O   UNL     1      10.893   0.952  -7.270  1.00  0.00    -0.744 OA
ENDBRANCH  81  84
ENDBRANCH  53  77
BRANCH  65  88
ATOM     88  C   UNL     1      12.565  -9.342  -7.844  1.00  0.00     0.023 A 
ATOM     89  C   UNL     1      13.894  -9.062  -7.479  1.00  0.00     0.012 A 
ATOM     90  C   UNL     1      12.280 -10.479  -8.629  1.00  0.00     0.148 A 
ATOM     91  C   UNL     1      14.929  -9.895  -7.906  1.00  0.00     0.002 A 
ATOM     92  C   UNL     1      13.306 -11.334  -8.999  1.00  0.00     0.091 A 
ATOM     93  F   UNL     1      11.005 -10.715  -8.969  1.00  0.00    -0.205 F 
ATOM     94  C   UNL     1      14.634 -11.037  -8.650  1.00  0.00     0.022 A 
BRANCH  92  95
ATOM     95  S   UNL     1      13.005 -12.882  -9.857  1.00  0.00     0.127 S 
ATOM     96  O   UNL     1      13.655 -12.638 -11.144  1.00  0.00    -0.237 OA
ATOM     97  O   UNL     1      13.690 -13.847  -8.998  1.00  0.00    -0.237 OA
ATOM     98  O   UNL     1      11.557 -13.039  -9.917  1.00  0.00    -0.744 OA
ENDBRANCH  92  95
ENDBRANCH  65  88
ENDBRANCH  39  40
ENDBRANCH  31  34
ENDBRANCH  29  30
ENDBRANCH  28  29
ENDBRANCH  27  28
ENDBRANCH   3  27
TORSDOF 21
