REMARK SMILES C[C@@H]1[C@H](C)CC[C@H]1[NH2+]Cc1ccc(C(=O)NCCCNC(=O)c2ccc(-c3c4nc(c(-c5cccc(S(=O)(=O)[O-])c5F)c5ccc([nH]5)c(-c5cccc(S(=O)(=O)[O-])c5F)c5nc(c(-c6cccc(S(=O)(=O)[O-])c6F)c6ccc3[nH]6)C=C5)C=C4)cc2)cn1
REMARK SMILES IDX 18 1 17 2 16 3 14 4 15 5 13 7 10 8 11 9 87 10 12 11 86 12
REMARK SMILES IDX 9 13 8 14 7 17 1 18 2 19 3 20 4 21 5 22 6 23 19 24 20 25
REMARK SMILES IDX 21 26 22 28 23 29 24 30 85 31 25 32 84 33 26 34 27 35 28 36
REMARK SMILES IDX 78 37 29 38 83 39 77 40 79 41 30 42 82 43 76 44 75 45 31 47
REMARK SMILES IDX 63 48 43 49 62 50 44 51 47 52 61 53 80 54 45 55 46 56 60 58
REMARK SMILES IDX 81 59 48 60 32 61 33 62 41 63 34 64 36 65 42 66 35 67 37 68
REMARK SMILES IDX 38 69 39 70 40 71 64 72 65 73 73 74 66 75 68 76 74 77 67 78
REMARK SMILES IDX 69 79 70 80 71 81 72 82 49 83 50 84 58 85 51 86 53 87 59 88
REMARK SMILES IDX 52 89 54 90 55 91 56 92 57 93
REMARK H PARENT 16 6 8 15 8 16 20 27 79 46 47 57
REMARK Flexibility Score: inf
ROOT
ATOM      1  C   UNL     1      -5.757   6.724   2.788  1.00  0.00     0.042 C 
ENDROOT
BRANCH   1   2
ATOM      2  C   UNL     1      -4.489   6.821   1.943  1.00  0.00     0.118 C 
BRANCH   2   3
ATOM      3  N   UNL     1      -3.443   7.537   2.650  1.00  0.00    -0.352 N 
ATOM      4  C   UNL     1      -2.394   7.129   3.431  1.00  0.00     0.252 C 
ATOM      5  O   UNL     1      -1.654   8.008   3.878  1.00  0.00    -0.269 OA
ATOM      6  H   UNL     1      -3.500   8.515   2.549  1.00  0.00     0.163 HD
BRANCH   4   7
ATOM      7  C   UNL     1      -2.054   5.709   3.688  1.00  0.00     0.058 A 
ATOM      8  C   UNL     1      -1.029   3.147   3.889  1.00  0.00     0.094 A 
ATOM      9  C   UNL     1      -2.396   3.319   3.687  1.00  0.00     0.030 A 
ATOM     10  N   UNL     1      -0.200   4.192   4.123  1.00  0.00    -0.255 NA
ATOM     11  C   UNL     1      -2.911   4.615   3.604  1.00  0.00     0.017 A 
ATOM     12  C   UNL     1      -0.728   5.438   4.016  1.00  0.00     0.125 A 
BRANCH   8  13
ATOM     13  C   UNL     1      -0.390   1.788   3.675  1.00  0.00     0.318 C 
BRANCH  13  14
ATOM     14  N   UNL     1      -0.398   1.328   2.272  1.00  0.00    -0.339 N 
ATOM     15  H   UNL     1      -0.165   0.335   2.262  1.00  0.00     0.346 HD
ATOM     16  H   UNL     1      -1.330   1.526   1.910  1.00  0.00     0.346 HD
BRANCH  14  17
ATOM     17  C   UNL     1       0.544   2.026   1.390  1.00  0.00     0.185 C 
ATOM     18  C   UNL     1       1.209  -0.042   0.009  1.00  0.00     0.014 C 
ATOM     19  C   UNL     1       0.596   1.352   0.003  1.00  0.00     0.047 C 
ATOM     20  C   UNL     1       1.312   2.389  -0.891  1.00  0.00    -0.005 C 
ATOM     21  C   UNL     1       2.833   2.252  -0.959  1.00  0.00     0.008 C 
ATOM     22  C   UNL     1       0.924   3.749  -0.294  1.00  0.00     0.010 C 
ATOM     23  C   UNL     1       0.164   3.457   0.996  1.00  0.00     0.065 C 
ENDBRANCH  14  17
ENDBRANCH  13  14
ENDBRANCH   8  13
ENDBRANCH   4   7
ENDBRANCH   2   3
ENDBRANCH   1   2
BRANCH   1  24
ATOM     24  C   UNL     1      -6.496   8.054   2.921  1.00  0.00     0.118 C 
BRANCH  24  25
ATOM     25  N   UNL     1      -7.091   8.476   1.660  1.00  0.00    -0.352 N 
ATOM     26  C   UNL     1      -8.404   8.720   1.343  1.00  0.00     0.251 C 
ATOM     27  H   UNL     1      -6.453   8.605   0.921  1.00  0.00     0.163 HD
ATOM     28  O   UNL     1      -8.723   8.838   0.162  1.00  0.00    -0.269 OA
BRANCH  26  29
ATOM     29  C   UNL     1      -9.431   8.837   2.401  1.00  0.00     0.039 A 
ATOM     30  C   UNL     1     -10.695   8.281   2.179  1.00  0.00     0.014 A 
ATOM     31  C   UNL     1      -9.175   9.534   3.586  1.00  0.00     0.014 A 
ATOM     32  C   UNL     1     -11.683   8.383   3.163  1.00  0.00     0.010 A 
ATOM     33  C   UNL     1     -10.136   9.572   4.593  1.00  0.00     0.010 A 
ATOM     34  C   UNL     1     -11.404   9.007   4.389  1.00  0.00    -0.014 A 
BRANCH  34  35
ATOM     35  C   UNL     1     -12.420   9.075   5.471  1.00  0.00     0.031 A 
ATOM     36  C   UNL     1     -12.939  10.406   5.945  1.00  0.00     0.074 A 
ATOM     37  C   UNL     1     -12.806   7.941   6.089  1.00  0.00     0.049 A 
ATOM     38  N   UNL     1     -13.773  10.667   6.918  1.00  0.00    -0.248 NA
ATOM     39  C   UNL     1     -12.435  11.604   5.252  1.00  0.00     0.031 C 
ATOM     40  C   UNL     1     -12.314   6.598   5.775  1.00  0.00     0.029 A 
ATOM     41  N   UNL     1     -13.676   7.740   7.131  1.00  0.00    -0.354 N 
ATOM     42  C   UNL     1     -13.863  12.052   6.982  1.00  0.00     0.074 A 
ATOM     43  C   UNL     1     -12.976  12.579   5.968  1.00  0.00     0.031 C 
ATOM     44  C   UNL     1     -12.890   5.713   6.604  1.00  0.00     0.029 A 
ATOM     45  C   UNL     1     -13.768   6.425   7.527  1.00  0.00     0.049 A 
ATOM     46  H   UNL     1     -14.187   8.467   7.555  1.00  0.00     0.167 HD
ATOM     47  C   UNL     1     -14.634  12.817   7.792  1.00  0.00     0.034 A 
ATOM     48  C   UNL     1     -14.473   5.858   8.525  1.00  0.00     0.034 A 
ATOM     49  C   UNL     1     -15.552  12.286   8.764  1.00  0.00     0.049 A 
ATOM     50  C   UNL     1     -15.361   6.725   9.376  1.00  0.00     0.074 A 
ATOM     51  C   UNL     1     -16.447  12.972   9.566  1.00  0.00     0.029 A 
ATOM     52  N   UNL     1     -15.690  10.941   9.071  1.00  0.00    -0.354 N 
ATOM     53  N   UNL     1     -15.555   8.020   9.311  1.00  0.00    -0.248 NA
ATOM     54  C   UNL     1     -16.157   6.049  10.411  1.00  0.00     0.031 C 
ATOM     55  C   UNL     1     -17.113  12.042  10.372  1.00  0.00     0.029 A 
ATOM     56  C   UNL     1     -16.649  10.775  10.055  1.00  0.00     0.049 A 
ATOM     57  H   UNL     1     -15.180  10.211   8.650  1.00  0.00     0.167 HD
ATOM     58  C   UNL     1     -16.519   8.309  10.271  1.00  0.00     0.074 A 
ATOM     59  C   UNL     1     -16.884   7.051  10.887  1.00  0.00     0.031 C 
ATOM     60  C   UNL     1     -17.043   9.510  10.620  1.00  0.00     0.034 A 
BRANCH  47  61
ATOM     61  C   UNL     1     -14.564  14.313   7.621  1.00  0.00     0.023 A 
ATOM     62  C   UNL     1     -15.127  14.908   6.473  1.00  0.00     0.012 A 
ATOM     63  C   UNL     1     -13.998  15.134   8.617  1.00  0.00     0.148 A 
ATOM     64  C   UNL     1     -15.097  16.291   6.301  1.00  0.00     0.002 A 
ATOM     65  C   UNL     1     -14.011  16.515   8.458  1.00  0.00     0.091 A 
ATOM     66  F   UNL     1     -13.449  14.551   9.692  1.00  0.00    -0.205 F 
ATOM     67  C   UNL     1     -14.549  17.094   7.297  1.00  0.00     0.022 A 
BRANCH  65  68
ATOM     68  S   UNL     1     -13.402  17.641   9.719  1.00  0.00     0.127 S 
ATOM     69  O   UNL     1     -12.171  18.134   9.103  1.00  0.00    -0.237 OA
ATOM     70  O   UNL     1     -14.480  18.627   9.799  1.00  0.00    -0.237 OA
ATOM     71  O   UNL     1     -13.223  16.839  10.921  1.00  0.00    -0.744 OA
ENDBRANCH  65  68
ENDBRANCH  47  61
BRANCH  48  72
ATOM     72  C   UNL     1     -14.424   4.382   8.723  1.00  0.00     0.023 A 
ATOM     73  C   UNL     1     -15.556   3.606   8.406  1.00  0.00     0.012 A 
ATOM     74  C   UNL     1     -13.259   3.739   9.186  1.00  0.00     0.148 A 
ATOM     75  C   UNL     1     -15.540   2.221   8.576  1.00  0.00     0.002 A 
ATOM     76  C   UNL     1     -13.232   2.354   9.299  1.00  0.00     0.091 A 
ATOM     77  F   UNL     1     -12.196   4.496   9.493  1.00  0.00    -0.205 F 
ATOM     78  C   UNL     1     -14.376   1.594   9.011  1.00  0.00     0.022 A 
BRANCH  76  79
ATOM     79  S   UNL     1     -11.735   1.453   9.719  1.00  0.00     0.127 S 
ATOM     80  O   UNL     1     -12.026   1.005  11.078  1.00  0.00    -0.237 OA
ATOM     81  O   UNL     1     -11.724   0.395   8.709  1.00  0.00    -0.237 OA
ATOM     82  O   UNL     1     -10.649   2.416   9.586  1.00  0.00    -0.744 OA
ENDBRANCH  76  79
ENDBRANCH  48  72
BRANCH  60  83
ATOM     83  C   UNL     1     -18.095   9.526  11.697  1.00  0.00     0.023 A 
ATOM     84  C   UNL     1     -17.727   9.307  13.039  1.00  0.00     0.012 A 
ATOM     85  C   UNL     1     -19.435   9.833  11.387  1.00  0.00     0.148 A 
ATOM     86  C   UNL     1     -18.683   9.363  14.053  1.00  0.00     0.002 A 
ATOM     87  C   UNL     1     -20.372   9.935  12.409  1.00  0.00     0.091 A 
ATOM     88  F   UNL     1     -19.769  10.019  10.102  1.00  0.00    -0.205 F 
ATOM     89  C   UNL     1     -20.000   9.689  13.740  1.00  0.00     0.022 A 
BRANCH  87  90
ATOM     90  S   UNL     1     -22.069  10.444  12.109  1.00  0.00     0.127 S 
ATOM     91  O   UNL     1     -22.791   9.183  12.272  1.00  0.00    -0.237 OA
ATOM     92  O   UNL     1     -22.295  11.419  13.177  1.00  0.00    -0.237 OA
ATOM     93  O   UNL     1     -22.086  11.007  10.766  1.00  0.00    -0.744 OA
ENDBRANCH  87  90
ENDBRANCH  60  83
ENDBRANCH  34  35
ENDBRANCH  26  29
ENDBRANCH  24  25
ENDBRANCH   1  24
TORSDOF 16
