REMARK SMILES O=C(C[C@@H]([NH2+]Cc1cccnc1)C(=O)NCCCNC(=O)c1ccc(-c2c3nc(c(-c4cccc(S(=O)(=O)[O-])c4F)c4ccc([nH]4)c(-c4cccc(S(=O)(=O)[O-])c4F)c4nc(c(-c5cccc(S(=O)(=O)[O-])c5F)c5ccc2[nH]5)C=C4)C=C3)cc1)Nc1ccc2ccccc2c1
REMARK SMILES IDX 17 1 16 2 15 3 13 4 14 5 4 7 3 8 2 9 1 10 85 11 86 13 87 14
REMARK SMILES IDX 95 15 88 16 94 17 89 18 93 19 90 20 92 21 91 22 5 23 6 26
REMARK SMILES IDX 7 27 8 28 12 29 9 30 11 31 10 32 18 33 19 34 20 35 21 37
REMARK SMILES IDX 22 38 23 39 84 40 24 41 83 42 25 43 26 44 27 45 77 46 28 47
REMARK SMILES IDX 82 48 76 49 78 50 29 51 81 52 75 53 74 54 30 56 62 57 42 58
REMARK SMILES IDX 61 59 43 60 46 61 60 62 79 63 44 64 45 65 59 67 80 68 47 69
REMARK SMILES IDX 31 70 32 71 40 72 33 73 35 74 41 75 34 76 36 77 37 78 38 79
REMARK SMILES IDX 39 80 63 81 64 82 72 83 65 84 67 85 73 86 66 87 68 88 69 89
REMARK SMILES IDX 70 90 71 91 48 92 49 93 57 94 50 95 52 96 58 97 51 98 53 99
REMARK SMILES IDX 54 100 55 101 56 102
REMARK H PARENT 15 6 85 12 5 24 5 25 19 36 78 55 46 66
REMARK Flexibility Score: inf
ROOT
ATOM      1  C   UNL     1       5.492   0.658  -3.386  1.00  0.00     0.042 C 
ENDROOT
BRANCH   1   2
ATOM      2  C   UNL     1       5.895   1.068  -1.974  1.00  0.00     0.118 C 
BRANCH   2   3
ATOM      3  N   UNL     1       5.418   2.401  -1.651  1.00  0.00    -0.351 N 
ATOM      4  C   UNL     1       4.448   2.802  -0.781  1.00  0.00     0.278 C 
ATOM      5  O   UNL     1       4.262   4.015  -0.654  1.00  0.00    -0.268 OA
ATOM      6  H   UNL     1       5.866   3.130  -2.136  1.00  0.00     0.163 HD
BRANCH   4   7
ATOM      7  C   UNL     1       3.661   1.789   0.073  1.00  0.00     0.282 C 
BRANCH   7   8
ATOM      8  C   UNL     1       2.778   0.904  -0.830  1.00  0.00     0.175 C 
BRANCH   8   9
ATOM      9  C   UNL     1       1.941  -0.097  -0.061  1.00  0.00     0.230 C 
ATOM     10  O   UNL     1       0.725   0.012   0.041  1.00  0.00    -0.274 OA
ATOM     11  N   UNL     1       2.718  -1.071   0.547  1.00  0.00    -0.326 N 
ATOM     12  H   UNL     1       3.675  -1.117   0.319  1.00  0.00     0.169 HD
BRANCH  11  13
ATOM     13  C   UNL     1       2.207  -1.990   1.470  1.00  0.00     0.041 A 
ATOM     14  C   UNL     1       2.746  -1.996   2.755  1.00  0.00     0.027 A 
ATOM     15  C   UNL     1       1.234  -2.921   1.111  1.00  0.00     0.034 A 
ATOM     16  C   UNL     1       2.234  -2.858   3.721  1.00  0.00     0.011 A 
ATOM     17  C   UNL     1       0.821  -3.896   2.037  1.00  0.00    -0.016 A 
ATOM     18  C   UNL     1       1.282  -3.824   3.373  1.00  0.00    -0.018 A 
ATOM     19  C   UNL     1      -0.007  -4.967   1.665  1.00  0.00     0.009 A 
ATOM     20  C   UNL     1       0.817  -4.747   4.320  1.00  0.00     0.009 A 
ATOM     21  C   UNL     1      -0.389  -5.932   2.601  1.00  0.00     0.001 A 
ATOM     22  C   UNL     1      -0.005  -5.804   3.933  1.00  0.00     0.001 A 
ENDBRANCH  11  13
ENDBRANCH   8   9
ENDBRANCH   7   8
BRANCH   7  23
ATOM     23  N   UNL     1       4.575   1.012   0.973  1.00  0.00    -0.332 N 
ATOM     24  H   UNL     1       5.145   0.393   0.396  1.00  0.00     0.347 HD
ATOM     25  H   UNL     1       3.984   0.501   1.628  1.00  0.00     0.347 HD
BRANCH  23  26
ATOM     26  C   UNL     1       5.478   1.858   1.778  1.00  0.00     0.299 C 
BRANCH  26  27
ATOM     27  C   UNL     1       4.765   2.645   2.843  1.00  0.00     0.024 A 
ATOM     28  C   UNL     1       3.979   2.019   3.818  1.00  0.00     0.013 A 
ATOM     29  C   UNL     1       4.854   4.032   2.891  1.00  0.00     0.120 A 
ATOM     30  C   UNL     1       3.291   2.785   4.752  1.00  0.00     0.021 A 
ATOM     31  N   UNL     1       4.223   4.799   3.810  1.00  0.00    -0.264 NA
ATOM     32  C   UNL     1       3.442   4.159   4.706  1.00  0.00     0.111 A 
ENDBRANCH  26  27
ENDBRANCH  23  26
ENDBRANCH   7  23
ENDBRANCH   4   7
ENDBRANCH   2   3
ENDBRANCH   1   2
BRANCH   1  33
ATOM     33  C   UNL     1       6.179   1.473  -4.474  1.00  0.00     0.118 C 
BRANCH  33  34
ATOM     34  N   UNL     1       7.620   1.261  -4.497  1.00  0.00    -0.352 N 
ATOM     35  C   UNL     1       8.418   0.754  -5.494  1.00  0.00     0.251 C 
ATOM     36  H   UNL     1       8.094   1.519  -3.673  1.00  0.00     0.163 HD
ATOM     37  O   UNL     1       9.580   0.456  -5.246  1.00  0.00    -0.269 OA
BRANCH  35  38
ATOM     38  C   UNL     1       7.870   0.557  -6.855  1.00  0.00     0.039 A 
ATOM     39  C   UNL     1       8.196  -0.610  -7.551  1.00  0.00     0.014 A 
ATOM     40  C   UNL     1       7.050   1.520  -7.447  1.00  0.00     0.014 A 
ATOM     41  C   UNL     1       7.647  -0.838  -8.815  1.00  0.00     0.010 A 
ATOM     42  C   UNL     1       6.436   1.252  -8.666  1.00  0.00     0.010 A 
ATOM     43  C   UNL     1       6.733   0.074  -9.368  1.00  0.00    -0.014 A 
BRANCH  43  44
ATOM     44  C   UNL     1       6.068  -0.192 -10.670  1.00  0.00     0.031 A 
ATOM     45  C   UNL     1       6.262   0.750 -11.829  1.00  0.00     0.074 A 
ATOM     46  C   UNL     1       5.212  -1.228 -10.780  1.00  0.00     0.049 A 
ATOM     47  N   UNL     1       5.710   0.721 -13.014  1.00  0.00    -0.248 NA
ATOM     48  C   UNL     1       7.173   1.889 -11.623  1.00  0.00     0.031 C 
ATOM     49  C   UNL     1       4.874  -2.164  -9.704  1.00  0.00     0.029 A 
ATOM     50  N   UNL     1       4.443  -1.649 -11.837  1.00  0.00    -0.354 N 
ATOM     51  C   UNL     1       6.166   1.855 -13.675  1.00  0.00     0.074 A 
ATOM     52  C   UNL     1       7.026   2.564 -12.754  1.00  0.00     0.031 C 
ATOM     53  C   UNL     1       3.963  -3.042 -10.153  1.00  0.00     0.029 A 
ATOM     54  C   UNL     1       3.623  -2.712 -11.533  1.00  0.00     0.049 A 
ATOM     55  H   UNL     1       4.474  -1.230 -12.727  1.00  0.00     0.167 HD
ATOM     56  C   UNL     1       5.907   2.259 -14.941  1.00  0.00     0.034 A 
ATOM     57  C   UNL     1       2.686  -3.337 -12.273  1.00  0.00     0.034 A 
ATOM     58  C   UNL     1       5.090   1.527 -15.869  1.00  0.00     0.049 A 
ATOM     59  C   UNL     1       2.456  -2.891 -13.692  1.00  0.00     0.074 A 
ATOM     60  C   UNL     1       4.862   1.795 -17.207  1.00  0.00     0.029 A 
ATOM     61  N   UNL     1       4.349   0.399 -15.555  1.00  0.00    -0.354 N 
ATOM     62  N   UNL     1       3.035  -1.921 -14.356  1.00  0.00    -0.248 NA
ATOM     63  C   UNL     1       1.469  -3.648 -14.477  1.00  0.00     0.031 C 
ATOM     64  C   UNL     1       3.950   0.854 -17.692  1.00  0.00     0.029 A 
ATOM     65  C   UNL     1       3.646  -0.028 -16.668  1.00  0.00     0.049 A 
ATOM     66  H   UNL     1       4.327  -0.034 -14.671  1.00  0.00     0.167 HD
ATOM     67  C   UNL     1       2.513  -1.975 -15.643  1.00  0.00     0.074 A 
ATOM     68  C   UNL     1       1.587  -3.087 -15.672  1.00  0.00     0.031 C 
ATOM     69  C   UNL     1       2.768  -1.168 -16.701  1.00  0.00     0.034 A 
BRANCH  56  70
ATOM     70  C   UNL     1       6.539   3.540 -15.421  1.00  0.00     0.023 A 
ATOM     71  C   UNL     1       7.924   3.589 -15.676  1.00  0.00     0.012 A 
ATOM     72  C   UNL     1       5.742   4.666 -15.707  1.00  0.00     0.148 A 
ATOM     73  C   UNL     1       8.511   4.748 -16.183  1.00  0.00     0.002 A 
ATOM     74  C   UNL     1       6.326   5.800 -16.257  1.00  0.00     0.091 A 
ATOM     75  F   UNL     1       4.430   4.605 -15.438  1.00  0.00    -0.205 F 
ATOM     76  C   UNL     1       7.711   5.847 -16.485  1.00  0.00     0.022 A 
BRANCH  74  77
ATOM     77  S   UNL     1       5.371   7.235 -16.763  1.00  0.00     0.127 S 
ATOM     78  O   UNL     1       5.827   8.243 -15.808  1.00  0.00    -0.237 OA
ATOM     79  O   UNL     1       5.834   7.441 -18.136  1.00  0.00    -0.237 OA
ATOM     80  O   UNL     1       3.971   6.852 -16.642  1.00  0.00    -0.744 OA
ENDBRANCH  74  77
ENDBRANCH  56  70
BRANCH  57  81
ATOM     81  C   UNL     1       1.911  -4.473 -11.697  1.00  0.00     0.023 A 
ATOM     82  C   UNL     1       2.104  -5.776 -12.194  1.00  0.00     0.012 A 
ATOM     83  C   UNL     1       0.986  -4.267 -10.654  1.00  0.00     0.148 A 
ATOM     84  C   UNL     1       1.359  -6.846 -11.696  1.00  0.00     0.002 A 
ATOM     85  C   UNL     1       0.293  -5.346 -10.120  1.00  0.00     0.091 A 
ATOM     86  F   UNL     1       0.808  -3.018 -10.201  1.00  0.00    -0.205 F 
ATOM     87  C   UNL     1       0.461  -6.633 -10.654  1.00  0.00     0.022 A 
BRANCH  85  88
ATOM     88  S   UNL     1      -0.778  -5.185  -8.687  1.00  0.00     0.127 S 
ATOM     89  O   UNL     1      -2.100  -5.357  -9.281  1.00  0.00    -0.237 OA
ATOM     90  O   UNL     1      -0.328  -6.296  -7.848  1.00  0.00    -0.237 OA
ATOM     91  O   UNL     1      -0.496  -3.866  -8.135  1.00  0.00    -0.744 OA
ENDBRANCH  85  88
ENDBRANCH  57  81
BRANCH  69  92
ATOM     92  C   UNL     1       2.079  -1.479 -18.005  1.00  0.00     0.023 A 
ATOM     93  C   UNL     1       0.698  -1.243 -18.149  1.00  0.00     0.012 A 
ATOM     94  C   UNL     1       2.824  -1.931 -19.112  1.00  0.00     0.148 A 
ATOM     95  C   UNL     1       0.063  -1.485 -19.367  1.00  0.00     0.002 A 
ATOM     96  C   UNL     1       2.195  -2.117 -20.337  1.00  0.00     0.091 A 
ATOM     97  F   UNL     1       4.134  -2.165 -18.949  1.00  0.00    -0.205 F 
ATOM     98  C   UNL     1       0.812  -1.909 -20.462  1.00  0.00     0.022 A 
BRANCH  96  99
ATOM     99  S   UNL     1       3.096  -2.562 -21.825  1.00  0.00     0.127 S 
ATOM    100  O   UNL     1       2.639  -3.933 -22.051  1.00  0.00    -0.237 OA
ATOM    101  O   UNL     1       2.597  -1.585 -22.792  1.00  0.00    -0.237 OA
ATOM    102  O   UNL     1       4.509  -2.424 -21.498  1.00  0.00    -0.744 OA
ENDBRANCH  96  99
ENDBRANCH  69  92
ENDBRANCH  43  44
ENDBRANCH  35  38
ENDBRANCH  33  34
ENDBRANCH   1  33
TORSDOF 19
