REMARK SMILES Nc1ccc2[nH]cc(C(=O)NCCCNC(=O)c3ccc(-c4c5nc(c(-c6cccc(S(=O)(=O)[O-])c6F)c6ccc([nH]6)c(-c6cccc(S(=O)(=O)[O-])c6F)c6nc(c(-c7cccc(S(=O)(=O)[O-])c7F)c7ccc4[nH]7)C=C6)C=C5)cc3)c2c1
REMARK SMILES IDX 14 1 13 2 12 3 11 4 9 5 10 6 8 8 2 9 3 10 82 11 4 12 81 13
REMARK SMILES IDX 5 14 6 15 7 16 1 18 15 21 16 22 17 24 18 25 19 26 80 27
REMARK SMILES IDX 20 28 79 29 21 30 22 31 23 32 73 33 24 34 78 35 72 36 74 37
REMARK SMILES IDX 25 38 77 39 71 40 70 41 26 43 58 44 38 45 57 46 39 47 42 48
REMARK SMILES IDX 56 49 75 50 40 51 41 52 55 54 76 55 43 56 27 57 28 58 36 59
REMARK SMILES IDX 29 60 31 61 37 62 30 63 32 64 33 65 34 66 35 67 59 68 60 69
REMARK SMILES IDX 68 70 61 71 63 72 69 73 62 74 64 75 65 76 66 77 67 78 44 79
REMARK SMILES IDX 45 80 53 81 46 82 48 83 54 84 47 85 49 86 50 87 51 88 52 89
REMARK H PARENT 11 7 6 17 1 19 1 20 15 23 74 42 42 53
REMARK Flexibility Score: inf
ROOT
ATOM      1  C   UNL     1      -1.730   4.505  -1.704  1.00  0.00     0.118 C 
ENDROOT
BRANCH   1   2
ATOM      2  C   UNL     1      -1.438   3.003  -1.615  1.00  0.00     0.042 C 
BRANCH   2   3
ATOM      3  C   UNL     1      -2.658   2.185  -1.176  1.00  0.00     0.118 C 
BRANCH   3   4
ATOM      4  N   UNL     1      -3.467   1.771  -2.292  1.00  0.00    -0.352 N 
ATOM      5  C   UNL     1      -3.609   0.601  -2.980  1.00  0.00     0.253 C 
ATOM      6  O   UNL     1      -4.575   0.610  -3.756  1.00  0.00    -0.269 OA
ATOM      7  H   UNL     1      -4.045   2.490  -2.636  1.00  0.00     0.163 HD
BRANCH   5   8
ATOM      8  C   UNL     1      -2.748  -0.594  -2.894  1.00  0.00     0.065 A 
ATOM      9  C   UNL     1       0.550  -1.194  -0.881  1.00  0.00     0.032 A 
ATOM     10  C   UNL     1       0.778  -2.467  -1.379  1.00  0.00     0.027 A 
ATOM     11  C   UNL     1      -0.594  -0.489  -1.297  1.00  0.00     0.036 A 
ATOM     12  C   UNL     1      -0.094  -3.043  -2.299  1.00  0.00     0.029 A 
ATOM     13  C   UNL     1      -1.524  -1.018  -2.229  1.00  0.00     0.014 A 
ATOM     14  C   UNL     1      -1.223  -2.312  -2.690  1.00  0.00     0.046 A 
ATOM     15  N   UNL     1      -2.211  -2.687  -3.558  1.00  0.00    -0.360 N 
ATOM     16  C   UNL     1      -3.120  -1.689  -3.678  1.00  0.00     0.097 A 
ATOM     17  H   UNL     1      -2.254  -3.552  -4.026  1.00  0.00     0.166 HD
BRANCH   9  18
ATOM     18  N   UNL     1       1.372  -0.676   0.109  1.00  0.00    -0.399 N 
ATOM     19  H   UNL     1       2.171  -1.174   0.396  1.00  0.00     0.156 HD
ATOM     20  H   UNL     1       1.156   0.189   0.526  1.00  0.00     0.156 HD
ENDBRANCH   9  18
ENDBRANCH   5   8
ENDBRANCH   3   4
ENDBRANCH   2   3
ENDBRANCH   1   2
BRANCH   1  21
ATOM     21  N   UNL     1      -2.204   5.063  -0.450  1.00  0.00    -0.352 N 
ATOM     22  C   UNL     1      -1.631   5.505   0.710  1.00  0.00     0.251 C 
ATOM     23  H   UNL     1      -3.185   5.144  -0.430  1.00  0.00     0.163 HD
ATOM     24  O   UNL     1      -2.426   5.882   1.575  1.00  0.00    -0.269 OA
BRANCH  22  25
ATOM     25  C   UNL     1      -0.173   5.536   1.010  1.00  0.00     0.039 A 
ATOM     26  C   UNL     1       0.845   5.117   0.154  1.00  0.00     0.014 A 
ATOM     27  C   UNL     1       0.182   6.017   2.288  1.00  0.00     0.014 A 
ATOM     28  C   UNL     1       2.171   5.123   0.583  1.00  0.00     0.010 A 
ATOM     29  C   UNL     1       1.507   6.039   2.715  1.00  0.00     0.010 A 
ATOM     30  C   UNL     1       2.500   5.558   1.871  1.00  0.00    -0.014 A 
BRANCH  30  31
ATOM     31  C   UNL     1       3.913   5.579   2.242  1.00  0.00     0.031 A 
ATOM     32  C   UNL     1       4.768   6.460   1.399  1.00  0.00     0.074 A 
ATOM     33  C   UNL     1       4.431   4.929   3.305  1.00  0.00     0.049 A 
ATOM     34  N   UNL     1       5.689   6.104   0.562  1.00  0.00    -0.248 NA
ATOM     35  C   UNL     1       4.482   7.902   1.403  1.00  0.00     0.031 C 
ATOM     36  C   UNL     1       3.699   4.274   4.392  1.00  0.00     0.029 A 
ATOM     37  N   UNL     1       5.736   4.818   3.697  1.00  0.00    -0.354 N 
ATOM     38  C   UNL     1       6.248   7.293   0.097  1.00  0.00     0.074 A 
ATOM     39  C   UNL     1       5.374   8.356   0.521  1.00  0.00     0.031 C 
ATOM     40  C   UNL     1       4.544   4.053   5.425  1.00  0.00     0.029 A 
ATOM     41  C   UNL     1       5.892   4.404   5.016  1.00  0.00     0.049 A 
ATOM     42  H   UNL     1       6.495   5.013   3.101  1.00  0.00     0.167 HD
ATOM     43  C   UNL     1       7.516   7.348  -0.394  1.00  0.00     0.034 A 
ATOM     44  C   UNL     1       7.044   4.412   5.728  1.00  0.00     0.034 A 
ATOM     45  C   UNL     1       8.069   6.045  -0.623  1.00  0.00     0.049 A 
ATOM     46  C   UNL     1       8.160   4.350   4.758  1.00  0.00     0.074 A 
ATOM     47  C   UNL     1       7.940   5.042  -1.554  1.00  0.00     0.029 A 
ATOM     48  N   UNL     1       8.706   5.521   0.468  1.00  0.00    -0.354 N 
ATOM     49  N   UNL     1       8.395   3.323   3.990  1.00  0.00    -0.248 NA
ATOM     50  C   UNL     1       8.919   5.555   4.445  1.00  0.00     0.031 C 
ATOM     51  C   UNL     1       8.316   3.839  -0.886  1.00  0.00     0.029 A 
ATOM     52  C   UNL     1       8.672   4.154   0.424  1.00  0.00     0.049 A 
ATOM     53  H   UNL     1       9.128   6.051   1.183  1.00  0.00     0.167 HD
ATOM     54  C   UNL     1       8.984   3.872   2.868  1.00  0.00     0.074 A 
ATOM     55  C   UNL     1       9.456   5.184   3.281  1.00  0.00     0.031 C 
ATOM     56  C   UNL     1       8.740   3.360   1.631  1.00  0.00     0.034 A 
BRANCH  43  57
ATOM     57  C   UNL     1       8.429   8.543  -0.266  1.00  0.00     0.023 A 
ATOM     58  C   UNL     1       9.584   8.592  -1.076  1.00  0.00     0.012 A 
ATOM     59  C   UNL     1       8.354   9.455   0.810  1.00  0.00     0.148 A 
ATOM     60  C   UNL     1      10.613   9.510  -0.827  1.00  0.00     0.002 A 
ATOM     61  C   UNL     1       9.342  10.414   1.007  1.00  0.00     0.091 A 
ATOM     62  F   UNL     1       7.397   9.307   1.734  1.00  0.00    -0.205 F 
ATOM     63  C   UNL     1      10.484  10.433   0.204  1.00  0.00     0.022 A 
BRANCH  61  64
ATOM     64  S   UNL     1       9.195  11.648   2.304  1.00  0.00     0.127 S 
ATOM     65  O   UNL     1      10.149  11.143   3.294  1.00  0.00    -0.237 OA
ATOM     66  O   UNL     1       9.620  12.865   1.606  1.00  0.00    -0.237 OA
ATOM     67  O   UNL     1       7.799  11.637   2.688  1.00  0.00    -0.744 OA
ENDBRANCH  61  64
ENDBRANCH  43  57
BRANCH  44  68
ATOM     68  C   UNL     1       7.297   4.672   7.168  1.00  0.00     0.023 A 
ATOM     69  C   UNL     1       8.582   4.400   7.688  1.00  0.00     0.012 A 
ATOM     70  C   UNL     1       6.428   5.473   7.938  1.00  0.00     0.148 A 
ATOM     71  C   UNL     1       9.022   4.985   8.880  1.00  0.00     0.002 A 
ATOM     72  C   UNL     1       6.867   6.042   9.132  1.00  0.00     0.091 A 
ATOM     73  F   UNL     1       5.213   5.766   7.459  1.00  0.00    -0.205 F 
ATOM     74  C   UNL     1       8.171   5.821   9.592  1.00  0.00     0.022 A 
BRANCH  72  75
ATOM     75  S   UNL     1       5.816   7.136  10.097  1.00  0.00     0.127 S 
ATOM     76  O   UNL     1       6.150   6.755  11.471  1.00  0.00    -0.237 OA
ATOM     77  O   UNL     1       6.297   8.453   9.693  1.00  0.00    -0.237 OA
ATOM     78  O   UNL     1       4.451   6.804   9.706  1.00  0.00    -0.744 OA
ENDBRANCH  72  75
ENDBRANCH  44  68
BRANCH  56  79
ATOM     79  C   UNL     1       8.279   1.937   1.546  1.00  0.00     0.023 A 
ATOM     80  C   UNL     1       6.990   1.533   1.945  1.00  0.00     0.012 A 
ATOM     81  C   UNL     1       9.133   1.012   0.925  1.00  0.00     0.148 A 
ATOM     82  C   UNL     1       6.564   0.220   1.732  1.00  0.00     0.002 A 
ATOM     83  C   UNL     1       8.691  -0.279   0.678  1.00  0.00     0.091 A 
ATOM     84  F   UNL     1      10.353   1.429   0.555  1.00  0.00    -0.205 F 
ATOM     85  C   UNL     1       7.410  -0.682   1.087  1.00  0.00     0.022 A 
BRANCH  83  86
ATOM     86  S   UNL     1       9.682  -1.457  -0.242  1.00  0.00     0.127 S 
ATOM     87  O   UNL     1       9.978  -2.467   0.771  1.00  0.00    -0.237 OA
ATOM     88  O   UNL     1       8.751  -1.890  -1.285  1.00  0.00    -0.237 OA
ATOM     89  O   UNL     1      10.836  -0.718  -0.739  1.00  0.00    -0.744 OA
ENDBRANCH  83  86
ENDBRANCH  56  79
ENDBRANCH  30  31
ENDBRANCH  22  25
ENDBRANCH   1  21
TORSDOF 14
