REMARK SMILES CC(C)c1nc(N2C[C@H](C)OC(C)(C)C2)sc1C(=O)NCCCNC(=O)c1ccc(-c2c3nc(c(-c4cccc(S(=O)(=O)[O-])c4F)c4ccc([nH]4)c(-c4cccc(S(=O)(=O)[O-])c4F)c4nc(c(-c5cccc(S(=O)(=O)[O-])c5F)c5ccc2[nH]5)C=C4)C=C3)cc1
REMARK SMILES IDX 23 1 22 2 21 3 20 4 18 5 19 6 17 8 4 9 5 10 6 11 16 12 2 13
REMARK SMILES IDX 1 14 3 15 7 16 8 17 15 18 9 19 12 20 11 21 10 22 13 23 14 24
REMARK SMILES IDX 24 25 25 26 26 28 27 29 28 30 89 31 29 32 88 33 30 34 31 35
REMARK SMILES IDX 32 36 82 37 33 38 87 39 81 40 83 41 34 42 86 43 80 44 79 45
REMARK SMILES IDX 35 47 67 48 47 49 66 50 48 51 51 52 65 53 84 54 49 55 50 56
REMARK SMILES IDX 64 58 85 59 52 60 36 61 37 62 45 63 38 64 40 65 46 66 39 67
REMARK SMILES IDX 41 68 42 69 43 70 44 71 68 72 69 73 77 74 70 75 72 76 78 77
REMARK SMILES IDX 71 78 73 79 74 80 75 81 76 82 53 83 54 84 62 85 55 86 57 87
REMARK SMILES IDX 63 88 56 89 58 90 59 91 60 92 61 93
REMARK H PARENT 20 7 24 27 83 46 51 57
REMARK Flexibility Score: inf
ROOT
ATOM      1  C   UNL     1       2.993   3.514   0.212  1.00  0.00     0.118 C 
ENDROOT
BRANCH   1   2
ATOM      2  C   UNL     1       2.055   2.323   0.177  1.00  0.00     0.042 C 
BRANCH   2   3
ATOM      3  C   UNL     1       1.148   2.263   1.390  1.00  0.00     0.118 C 
BRANCH   3   4
ATOM      4  N   UNL     1      -0.167   2.774   1.149  1.00  0.00    -0.351 N 
ATOM      5  C   UNL     1      -1.420   2.231   1.219  1.00  0.00     0.263 C 
ATOM      6  O   UNL     1      -2.283   3.111   1.066  1.00  0.00    -0.268 OA
ATOM      7  H   UNL     1      -0.170   3.719   0.874  1.00  0.00     0.163 HD
BRANCH   5   8
ATOM      8  C   UNL     1      -1.779   0.822   1.443  1.00  0.00     0.117 A 
ATOM      9  C   UNL     1      -1.223  -0.432   1.737  1.00  0.00     0.069 A 
ATOM     10  N   UNL     1      -2.161  -1.457   1.901  1.00  0.00    -0.224 NA
ATOM     11  C   UNL     1      -3.366  -1.097   1.562  1.00  0.00     0.186 A 
ATOM     12  S   UNL     1      -3.507   0.563   1.227  1.00  0.00    -0.091 S 
BRANCH   9  13
ATOM     13  C   UNL     1       0.177  -0.987   1.879  1.00  0.00     0.034 C 
ATOM     14  C   UNL     1       0.930  -0.988   0.543  1.00  0.00     0.014 C 
ATOM     15  C   UNL     1       0.941  -0.506   3.119  1.00  0.00     0.014 C 
ENDBRANCH   9  13
BRANCH  11  16
ATOM     16  N   UNL     1      -4.414  -1.952   1.527  1.00  0.00    -0.343 N 
ATOM     17  C   UNL     1      -5.373  -1.950   0.425  1.00  0.00     0.150 C 
ATOM     18  C   UNL     1      -4.408  -3.152   2.360  1.00  0.00     0.153 C 
ATOM     19  C   UNL     1      -5.209  -3.244  -0.399  1.00  0.00     0.135 C 
ATOM     20  C   UNL     1      -4.392  -4.455   1.517  1.00  0.00     0.081 C 
ATOM     21  O   UNL     1      -5.356  -4.407   0.438  1.00  0.00    -0.369 OA
ATOM     22  C   UNL     1      -6.267  -3.326  -1.490  1.00  0.00     0.040 C 
ATOM     23  C   UNL     1      -2.993  -4.782   0.976  1.00  0.00     0.044 C 
ATOM     24  C   UNL     1      -4.844  -5.616   2.416  1.00  0.00     0.044 C 
ENDBRANCH  11  16
ENDBRANCH   5   8
ENDBRANCH   3   4
ENDBRANCH   2   3
ENDBRANCH   1   2
BRANCH   1  25
ATOM     25  N   UNL     1       3.949   3.438   1.318  1.00  0.00    -0.352 N 
ATOM     26  C   UNL     1       5.313   3.266   1.324  1.00  0.00     0.251 C 
ATOM     27  H   UNL     1       3.546   3.524   2.212  1.00  0.00     0.163 HD
ATOM     28  O   UNL     1       5.884   3.045   2.390  1.00  0.00    -0.269 OA
BRANCH  26  29
ATOM     29  C   UNL     1       6.086   3.322   0.065  1.00  0.00     0.039 A 
ATOM     30  C   UNL     1       7.182   2.472  -0.109  1.00  0.00     0.014 A 
ATOM     31  C   UNL     1       5.733   4.211  -0.948  1.00  0.00     0.014 A 
ATOM     32  C   UNL     1       7.862   2.460  -1.331  1.00  0.00     0.010 A 
ATOM     33  C   UNL     1       6.313   4.095  -2.202  1.00  0.00     0.010 A 
ATOM     34  C   UNL     1       7.401   3.237  -2.405  1.00  0.00    -0.014 A 
BRANCH  34  35
ATOM     35  C   UNL     1       8.039   3.198  -3.747  1.00  0.00     0.031 A 
ATOM     36  C   UNL     1       8.550   4.473  -4.370  1.00  0.00     0.074 A 
ATOM     37  C   UNL     1       8.054   2.048  -4.450  1.00  0.00     0.049 A 
ATOM     38  N   UNL     1       9.018   4.674  -5.574  1.00  0.00    -0.248 NA
ATOM     39  C   UNL     1       8.480   5.696  -3.548  1.00  0.00     0.031 C 
ATOM     40  C   UNL     1       7.507   0.766  -3.997  1.00  0.00     0.029 A 
ATOM     41  N   UNL     1       8.525   1.777  -5.711  1.00  0.00    -0.354 N 
ATOM     42  C   UNL     1       9.241   6.043  -5.670  1.00  0.00     0.074 A 
ATOM     43  C   UNL     1       8.812   6.632  -4.423  1.00  0.00     0.031 C 
ATOM     44  C   UNL     1       7.689  -0.156  -4.955  1.00  0.00     0.029 A 
ATOM     45  C   UNL     1       8.329   0.473  -6.105  1.00  0.00     0.049 A 
ATOM     46  H   UNL     1       8.961   2.452  -6.279  1.00  0.00     0.167 HD
ATOM     47  C   UNL     1       9.792   6.746  -6.688  1.00  0.00     0.034 A 
ATOM     48  C   UNL     1       8.629  -0.144  -7.265  1.00  0.00     0.034 A 
ATOM     49  C   UNL     1      10.290   6.144  -7.894  1.00  0.00     0.049 A 
ATOM     50  C   UNL     1       9.307   0.644  -8.353  1.00  0.00     0.074 A 
ATOM     51  C   UNL     1      10.963   6.747  -8.941  1.00  0.00     0.029 A 
ATOM     52  N   UNL     1      10.174   4.800  -8.210  1.00  0.00    -0.354 N 
ATOM     53  N   UNL     1       9.649   1.910  -8.364  1.00  0.00    -0.248 NA
ATOM     54  C   UNL     1       9.674  -0.087  -9.573  1.00  0.00     0.031 C 
ATOM     55  C   UNL     1      11.238   5.767  -9.901  1.00  0.00     0.029 A 
ATOM     56  C   UNL     1      10.760   4.551  -9.438  1.00  0.00     0.049 A 
ATOM     57  H   UNL     1       9.739   4.122  -7.644  1.00  0.00     0.167 HD
ATOM     58  C   UNL     1      10.304   2.117  -9.572  1.00  0.00     0.074 A 
ATOM     59  C   UNL     1      10.329   0.841 -10.257  1.00  0.00     0.031 C 
ATOM     60  C   UNL     1      10.826   3.263 -10.076  1.00  0.00     0.034 A 
BRANCH  47  61
ATOM     61  C   UNL     1       9.947   8.235  -6.510  1.00  0.00     0.023 A 
ATOM     62  C   UNL     1      10.883   8.732  -5.579  1.00  0.00     0.012 A 
ATOM     63  C   UNL     1       9.206   9.141  -7.293  1.00  0.00     0.148 A 
ATOM     64  C   UNL     1      11.049  10.104  -5.399  1.00  0.00     0.002 A 
ATOM     65  C   UNL     1       9.414  10.508  -7.144  1.00  0.00     0.091 A 
ATOM     66  F   UNL     1       8.306   8.653  -8.158  1.00  0.00    -0.205 F 
ATOM     67  C   UNL     1      10.323  10.991  -6.188  1.00  0.00     0.022 A 
BRANCH  65  68
ATOM     68  S   UNL     1       8.591  11.732  -8.168  1.00  0.00     0.127 S 
ATOM     69  O   UNL     1       7.686  12.361  -7.207  1.00  0.00    -0.237 OA
ATOM     70  O   UNL     1       9.707  12.575  -8.596  1.00  0.00    -0.237 OA
ATOM     71  O   UNL     1       7.943  10.990  -9.241  1.00  0.00    -0.744 OA
ENDBRANCH  65  68
ENDBRANCH  47  61
BRANCH  48  72
ATOM     72  C   UNL     1       8.363  -1.602  -7.426  1.00  0.00     0.023 A 
ATOM     73  C   UNL     1       9.450  -2.498  -7.470  1.00  0.00     0.012 A 
ATOM     74  C   UNL     1       7.052  -2.110  -7.508  1.00  0.00     0.148 A 
ATOM     75  C   UNL     1       9.239  -3.868  -7.628  1.00  0.00     0.002 A 
ATOM     76  C   UNL     1       6.847  -3.482  -7.610  1.00  0.00     0.091 A 
ATOM     77  F   UNL     1       6.032  -1.242  -7.473  1.00  0.00    -0.205 F 
ATOM     78  C   UNL     1       7.938  -4.361  -7.688  1.00  0.00     0.022 A 
BRANCH  76  79
ATOM     79  S   UNL     1       5.208  -4.217  -7.562  1.00  0.00     0.127 S 
ATOM     80  O   UNL     1       5.046  -4.676  -8.939  1.00  0.00    -0.237 OA
ATOM     81  O   UNL     1       5.384  -5.281  -6.573  1.00  0.00    -0.237 OA
ATOM     82  O   UNL     1       4.311  -3.149  -7.141  1.00  0.00    -0.744 OA
ENDBRANCH  76  79
ENDBRANCH  48  72
BRANCH  60  83
ATOM     83  C   UNL     1      11.508   3.189 -11.416  1.00  0.00     0.023 A 
ATOM     84  C   UNL     1      10.742   3.032 -12.587  1.00  0.00     0.012 A 
ATOM     85  C   UNL     1      12.903   3.358 -11.517  1.00  0.00     0.148 A 
ATOM     86  C   UNL     1      11.357   3.014 -13.838  1.00  0.00     0.002 A 
ATOM     87  C   UNL     1      13.503   3.391 -12.769  1.00  0.00     0.091 A 
ATOM     88  F   UNL     1      13.616   3.488 -10.388  1.00  0.00    -0.205 F 
ATOM     89  C   UNL     1      12.734   3.206 -13.930  1.00  0.00     0.022 A 
BRANCH  87  90
ATOM     90  S   UNL     1      15.253   3.733 -12.989  1.00  0.00     0.127 S 
ATOM     91  O   UNL     1      15.766   2.422 -13.379  1.00  0.00    -0.237 OA
ATOM     92  O   UNL     1      15.242   4.729 -14.061  1.00  0.00    -0.237 OA
ATOM     93  O   UNL     1      15.728   4.234 -11.706  1.00  0.00    -0.744 OA
ENDBRANCH  87  90
ENDBRANCH  60  83
ENDBRANCH  34  35
ENDBRANCH  26  29
ENDBRANCH   1  25
TORSDOF 15
