REMARK SMILES Cc1ccc(NS(=O)(=O)c2cc(C(=O)NCCCNC(=O)c3ccc(-c4c5nc(c(-c6cccc(S(=O)(=O)[O-])c6F)c6ccc([nH]6)c(-c6cccc(S(=O)(=O)[O-])c6F)c6nc(c(-c7cccc(S(=O)(=O)[O-])c7F)c7ccc4[nH]7)C=C6)C=C5)cc3)ccc2Cl)nc1
REMARK SMILES IDX 17 1 16 2 15 3 13 4 14 5 12 7 10 8 11 9 87 10 86 11 88 12
REMARK SMILES IDX 85 13 7 14 8 15 9 16 6 17 5 19 1 20 2 21 3 22 90 23 4 24
REMARK SMILES IDX 89 25 18 26 19 27 20 28 21 30 22 31 23 32 84 33 24 34 83 35
REMARK SMILES IDX 25 36 26 37 27 38 77 39 28 40 82 41 76 42 78 43 29 44 81 45
REMARK SMILES IDX 75 46 74 47 30 49 62 50 42 51 61 52 43 53 46 54 60 55 79 56
REMARK SMILES IDX 44 57 45 58 59 60 80 61 47 62 31 63 32 64 40 65 33 66 35 67
REMARK SMILES IDX 41 68 34 69 36 70 37 71 38 72 39 73 63 74 64 75 72 76 65 77
REMARK SMILES IDX 67 78 73 79 66 80 68 81 69 82 70 83 71 84 48 85 49 86 57 87
REMARK SMILES IDX 50 88 52 89 58 90 51 91 53 92 54 93 55 94 56 95
REMARK H PARENT 15 6 6 18 19 29 78 48 46 59
REMARK Flexibility Score: inf
ROOT
ATOM      1  C   UNL     1      -0.148  -8.154   0.421  1.00  0.00     0.042 C 
ENDROOT
BRANCH   1   2
ATOM      2  C   UNL     1      -1.325  -7.895  -0.521  1.00  0.00     0.118 C 
BRANCH   2   3
ATOM      3  N   UNL     1      -2.482  -7.434   0.222  1.00  0.00    -0.352 N 
ATOM      4  C   UNL     1      -2.988  -6.197   0.524  1.00  0.00     0.251 C 
ATOM      5  O   UNL     1      -4.006  -6.176   1.218  1.00  0.00    -0.269 OA
ATOM      6  H   UNL     1      -3.022  -8.170   0.589  1.00  0.00     0.163 HD
BRANCH   4   7
ATOM      7  C   UNL     1      -2.453  -4.907  -0.009  1.00  0.00     0.041 A 
ATOM      8  C   UNL     1      -2.971  -2.569  -0.542  1.00  0.00     0.107 A 
ATOM      9  C   UNL     1      -3.300  -3.789   0.077  1.00  0.00     0.037 A 
ATOM     10  C   UNL     1      -1.838  -2.494  -1.343  1.00  0.00     0.061 A 
ATOM     11  C   UNL     1      -0.919  -3.546  -1.302  1.00  0.00     0.023 A 
ATOM     12  Cl  UNL     1      -1.508  -1.215  -2.455  1.00  0.00    -0.083 Cl
ATOM     13  C   UNL     1      -1.203  -4.722  -0.595  1.00  0.00     0.015 A 
BRANCH   8  14
ATOM     14  S   UNL     1      -3.991  -1.178  -0.138  1.00  0.00     0.264 S 
ATOM     15  O   UNL     1      -4.484  -1.367   1.216  1.00  0.00    -0.201 OA
ATOM     16  O   UNL     1      -4.931  -1.039  -1.229  1.00  0.00    -0.201 OA
BRANCH  14  17
ATOM     17  N   UNL     1      -3.100   0.227  -0.148  1.00  0.00    -0.263 N 
ATOM     18  H   UNL     1      -3.511   1.031  -0.542  1.00  0.00     0.182 HD
BRANCH  17  19
ATOM     19  C   UNL     1      -1.796   0.339   0.369  1.00  0.00     0.139 A 
ATOM     20  C   UNL     1       2.398   0.144   0.797  1.00  0.00     0.046 C 
ATOM     21  C   UNL     1       0.911   0.305   0.768  1.00  0.00    -0.033 A 
ATOM     22  C   UNL     1       0.319   1.433   0.203  1.00  0.00     0.009 A 
ATOM     23  C   UNL     1       0.067  -0.715   1.193  1.00  0.00     0.117 A 
ATOM     24  C   UNL     1      -1.060   1.462   0.019  1.00  0.00     0.048 A 
ATOM     25  N   UNL     1      -1.276  -0.714   1.013  1.00  0.00    -0.238 NA
ENDBRANCH  17  19
ENDBRANCH  14  17
ENDBRANCH   8  14
ENDBRANCH   4   7
ENDBRANCH   2   3
ENDBRANCH   1   2
BRANCH   1  26
ATOM     26  C   UNL     1      -0.198  -9.551   1.042  1.00  0.00     0.118 C 
BRANCH  26  27
ATOM     27  N   UNL     1       0.127 -10.575   0.058  1.00  0.00    -0.352 N 
ATOM     28  C   UNL     1       0.955 -11.662   0.159  1.00  0.00     0.251 C 
ATOM     29  H   UNL     1      -0.317 -10.469  -0.814  1.00  0.00     0.163 HD
ATOM     30  O   UNL     1       1.258 -12.273  -0.864  1.00  0.00    -0.269 OA
BRANCH  28  31
ATOM     31  C   UNL     1       1.490 -12.102   1.468  1.00  0.00     0.039 A 
ATOM     32  C   UNL     1       2.803 -12.582   1.520  1.00  0.00     0.014 A 
ATOM     33  C   UNL     1       0.697 -12.118   2.619  1.00  0.00     0.014 A 
ATOM     34  C   UNL     1       3.328 -13.052   2.726  1.00  0.00     0.010 A 
ATOM     35  C   UNL     1       1.238 -12.540   3.834  1.00  0.00     0.010 A 
ATOM     36  C   UNL     1       2.553 -13.025   3.896  1.00  0.00    -0.014 A 
BRANCH  36  37
ATOM     37  C   UNL     1       3.112 -13.504   5.184  1.00  0.00     0.031 A 
ATOM     38  C   UNL     1       2.578 -14.750   5.837  1.00  0.00     0.074 A 
ATOM     39  C   UNL     1       4.071 -12.782   5.796  1.00  0.00     0.049 A 
ATOM     40  N   UNL     1       2.957 -15.323   6.950  1.00  0.00    -0.248 NA
ATOM     41  C   UNL     1       1.457 -15.428   5.165  1.00  0.00     0.031 C 
ATOM     42  C   UNL     1       4.611 -11.512   5.306  1.00  0.00     0.029 A 
ATOM     43  N   UNL     1       4.749 -13.002   6.968  1.00  0.00    -0.354 N 
ATOM     44  C   UNL     1       2.107 -16.408   7.129  1.00  0.00     0.074 A 
ATOM     45  C   UNL     1       1.172 -16.397   6.024  1.00  0.00     0.031 C 
ATOM     46  C   UNL     1       5.542 -11.070   6.167  1.00  0.00     0.029 A 
ATOM     47  C   UNL     1       5.660 -12.018   7.272  1.00  0.00     0.049 A 
ATOM     48  H   UNL     1       4.598 -13.791   7.538  1.00  0.00     0.167 HD
ATOM     49  C   UNL     1       2.124 -17.348   8.104  1.00  0.00     0.034 A 
ATOM     50  C   UNL     1       6.505 -11.900   8.314  1.00  0.00     0.034 A 
ATOM     51  C   UNL     1       3.089 -17.389   9.169  1.00  0.00     0.049 A 
ATOM     52  C   UNL     1       6.560 -13.002   9.337  1.00  0.00     0.074 A 
ATOM     53  C   UNL     1       3.245 -18.346  10.156  1.00  0.00     0.029 A 
ATOM     54  N   UNL     1       4.068 -16.431   9.385  1.00  0.00    -0.354 N 
ATOM     55  N   UNL     1       5.864 -14.111   9.393  1.00  0.00    -0.248 NA
ATOM     56  C   UNL     1       7.549 -12.858  10.416  1.00  0.00     0.031 C 
ATOM     57  C   UNL     1       4.321 -17.967  10.968  1.00  0.00     0.029 A 
ATOM     58  C   UNL     1       4.834 -16.774  10.485  1.00  0.00     0.049 A 
ATOM     59  H   UNL     1       4.199 -15.624   8.836  1.00  0.00     0.167 HD
ATOM     60  C   UNL     1       6.348 -14.811  10.492  1.00  0.00     0.074 A 
ATOM     61  C   UNL     1       7.415 -14.011  11.058  1.00  0.00     0.031 C 
ATOM     62  C   UNL     1       5.932 -15.997  11.000  1.00  0.00     0.034 A 
BRANCH  49  63
ATOM     63  C   UNL     1       1.111 -18.459   8.018  1.00  0.00     0.023 A 
ATOM     64  C   UNL     1       1.289 -19.474   7.056  1.00  0.00     0.012 A 
ATOM     65  C   UNL     1       0.022 -18.533   8.907  1.00  0.00     0.148 A 
ATOM     66  C   UNL     1       0.384 -20.530   6.960  1.00  0.00     0.002 A 
ATOM     67  C   UNL     1      -0.857 -19.609   8.829  1.00  0.00     0.091 A 
ATOM     68  F   UNL     1      -0.148 -17.546   9.798  1.00  0.00    -0.205 F 
ATOM     69  C   UNL     1      -0.682 -20.603   7.852  1.00  0.00     0.022 A 
BRANCH  67  70
ATOM     70  S   UNL     1      -2.221 -19.822   9.979  1.00  0.00     0.127 S 
ATOM     71  O   UNL     1      -3.359 -19.383   9.173  1.00  0.00    -0.237 OA
ATOM     72  O   UNL     1      -2.183 -21.260  10.248  1.00  0.00    -0.237 OA
ATOM     73  O   UNL     1      -1.901 -18.986  11.129  1.00  0.00    -0.744 OA
ENDBRANCH  67  70
ENDBRANCH  49  63
BRANCH  50  74
ATOM     74  C   UNL     1       7.445 -10.747   8.373  1.00  0.00     0.023 A 
ATOM     75  C   UNL     1       8.812 -10.964   8.112  1.00  0.00     0.012 A 
ATOM     76  C   UNL     1       6.995  -9.438   8.630  1.00  0.00     0.148 A 
ATOM     77  C   UNL     1       9.717  -9.903   8.130  1.00  0.00     0.002 A 
ATOM     78  C   UNL     1       7.894  -8.377   8.594  1.00  0.00     0.091 A 
ATOM     79  F   UNL     1       5.693  -9.251   8.893  1.00  0.00    -0.205 F 
ATOM     80  C   UNL     1       9.258  -8.609   8.359  1.00  0.00     0.022 A 
BRANCH  78  81
ATOM     81  S   UNL     1       7.353  -6.670   8.739  1.00  0.00     0.127 S 
ATOM     82  O   UNL     1       7.662  -6.373  10.134  1.00  0.00    -0.237 OA
ATOM     83  O   UNL     1       8.204  -5.990   7.761  1.00  0.00    -0.237 OA
ATOM     84  O   UNL     1       5.940  -6.686   8.383  1.00  0.00    -0.744 OA
ENDBRANCH  78  81
ENDBRANCH  50  74
BRANCH  62  85
ATOM     85  C   UNL     1       6.639 -16.511  12.225  1.00  0.00     0.023 A 
ATOM     86  C   UNL     1       6.370 -15.922  13.476  1.00  0.00     0.012 A 
ATOM     87  C   UNL     1       7.516 -17.610  12.152  1.00  0.00     0.148 A 
ATOM     88  C   UNL     1       6.986 -16.400  14.632  1.00  0.00     0.002 A 
ATOM     89  C   UNL     1       8.096 -18.106  13.315  1.00  0.00     0.091 A 
ATOM     90  F   UNL     1       7.781 -18.144  10.951  1.00  0.00    -0.205 F 
ATOM     91  C   UNL     1       7.839 -17.498  14.554  1.00  0.00     0.022 A 
BRANCH  89  92
ATOM     92  S   UNL     1       9.139 -19.570  13.293  1.00  0.00     0.127 S 
ATOM     93  O   UNL     1      10.474 -18.987  13.187  1.00  0.00    -0.237 OA
ATOM     94  O   UNL     1       8.848 -20.191  14.587  1.00  0.00    -0.237 OA
ATOM     95  O   UNL     1       8.688 -20.346  12.146  1.00  0.00    -0.744 OA
ENDBRANCH  89  92
ENDBRANCH  62  85
ENDBRANCH  36  37
ENDBRANCH  28  31
ENDBRANCH  26  27
ENDBRANCH   1  26
TORSDOF 16
