REMARK SMILES [NH3+][C@H](Cc1cc(F)c(F)c(F)c1)C(=O)NCCCNC(=O)c1ccc(-c2c3nc(c(-c4cccc(S(=O)(=O)[O-])c4F)c4ccc([nH]4)c(-c4cccc(S(=O)(=O)[O-])c4F)c4nc(c(-c5cccc(S(=O)(=O)[O-])c5F)c5ccc2[nH]5)C=C4)C=C3)cc1
REMARK SMILES IDX 17 1 16 2 15 3 13 4 14 5 2 7 1 8 3 12 4 13 5 14 12 15 6 16
REMARK SMILES IDX 10 17 7 18 8 19 11 20 9 21 18 22 19 23 20 24 21 26 22 27
REMARK SMILES IDX 23 28 84 29 24 30 83 31 25 32 26 33 27 34 77 35 28 36 82 37
REMARK SMILES IDX 76 38 78 39 29 40 81 41 75 42 74 43 30 45 62 46 42 47 61 48
REMARK SMILES IDX 43 49 46 50 60 51 79 52 44 53 45 54 59 56 80 57 47 58 31 59
REMARK SMILES IDX 32 60 40 61 33 62 35 63 41 64 34 65 36 66 37 67 38 68 39 69
REMARK SMILES IDX 63 70 64 71 72 72 65 73 67 74 73 75 66 76 68 77 69 78 70 79
REMARK SMILES IDX 71 80 48 81 49 82 57 83 50 84 52 85 58 86 51 87 53 88 54 89
REMARK SMILES IDX 55 90 56 91
REMARK H PARENT 15 6 1 9 1 10 1 11 19 25 78 44 46 55
REMARK Flexibility Score: inf
ROOT
ATOM      1  C   UNL     1      -1.377   2.038   2.006  1.00  0.00     0.042 C 
ENDROOT
BRANCH   1   2
ATOM      2  C   UNL     1      -1.031   0.582   2.271  1.00  0.00     0.118 C 
BRANCH   2   3
ATOM      3  N   UNL     1      -1.587  -0.296   1.257  1.00  0.00    -0.351 N 
ATOM      4  C   UNL     1      -0.998  -1.240   0.473  1.00  0.00     0.278 C 
ATOM      5  O   UNL     1      -1.700  -1.794  -0.376  1.00  0.00    -0.268 OA
ATOM      6  H   UNL     1      -2.555  -0.192   1.113  1.00  0.00     0.163 HD
BRANCH   4   7
ATOM      7  C   UNL     1       0.482  -1.627   0.654  1.00  0.00     0.275 C 
BRANCH   7   8
ATOM      8  N   UNL     1       0.747  -1.998   2.067  1.00  0.00    -0.347 N 
ATOM      9  H   UNL     1       0.084  -2.716   2.360  1.00  0.00     0.345 HD
ATOM     10  H   UNL     1       0.640  -1.175   2.660  1.00  0.00     0.345 HD
ATOM     11  H   UNL     1       1.698  -2.357   2.151  1.00  0.00     0.345 HD
ENDBRANCH   7   8
BRANCH   7  12
ATOM     12  C   UNL     1       1.417  -0.541   0.076  1.00  0.00     0.111 C 
BRANCH  12  13
ATOM     13  C   UNL     1       2.824  -1.000  -0.258  1.00  0.00    -0.036 A 
ATOM     14  C   UNL     1       3.463  -0.502  -1.406  1.00  0.00     0.046 A 
ATOM     15  C   UNL     1       3.544  -1.873   0.573  1.00  0.00     0.046 A 
ATOM     16  C   UNL     1       4.759  -0.909  -1.726  1.00  0.00     0.162 A 
ATOM     17  C   UNL     1       4.837  -2.271   0.239  1.00  0.00     0.162 A 
ATOM     18  F   UNL     1       5.338  -0.438  -2.839  1.00  0.00    -0.204 F 
ATOM     19  C   UNL     1       5.445  -1.797  -0.911  1.00  0.00     0.194 A 
ATOM     20  F   UNL     1       5.485  -3.123   1.045  1.00  0.00    -0.204 F 
ATOM     21  F   UNL     1       6.684  -2.196  -1.231  1.00  0.00    -0.200 F 
ENDBRANCH  12  13
ENDBRANCH   7  12
ENDBRANCH   4   7
ENDBRANCH   2   3
ENDBRANCH   1   2
BRANCH   1  22
ATOM     22  C   UNL     1      -2.869   2.337   2.069  1.00  0.00     0.118 C 
BRANCH  22  23
ATOM     23  N   UNL     1      -3.443   2.055   3.379  1.00  0.00    -0.352 N 
ATOM     24  C   UNL     1      -4.024   2.913   4.284  1.00  0.00     0.251 C 
ATOM     25  H   UNL     1      -3.410   1.111   3.657  1.00  0.00     0.163 HD
ATOM     26  O   UNL     1      -4.268   2.528   5.420  1.00  0.00    -0.269 OA
BRANCH  24  27
ATOM     27  C   UNL     1      -4.327   4.302   3.881  1.00  0.00     0.039 A 
ATOM     28  C   UNL     1      -3.996   5.348   4.744  1.00  0.00     0.014 A 
ATOM     29  C   UNL     1      -4.914   4.568   2.641  1.00  0.00     0.014 A 
ATOM     30  C   UNL     1      -4.176   6.668   4.325  1.00  0.00     0.010 A 
ATOM     31  C   UNL     1      -5.004   5.879   2.190  1.00  0.00     0.010 A 
ATOM     32  C   UNL     1      -4.635   6.944   3.026  1.00  0.00    -0.014 A 
BRANCH  32  33
ATOM     33  C   UNL     1      -4.708   8.332   2.506  1.00  0.00     0.031 A 
ATOM     34  C   UNL     1      -6.026   8.908   2.065  1.00  0.00     0.074 A 
ATOM     35  C   UNL     1      -3.571   9.034   2.332  1.00  0.00     0.049 A 
ATOM     36  N   UNL     1      -6.274  10.064   1.508  1.00  0.00    -0.248 NA
ATOM     37  C   UNL     1      -7.219   8.063   2.248  1.00  0.00     0.031 C 
ATOM     38  C   UNL     1      -2.223   8.554   2.645  1.00  0.00     0.029 A 
ATOM     39  N   UNL     1      -3.362  10.290   1.818  1.00  0.00    -0.354 N 
ATOM     40  C   UNL     1      -7.637  10.072   1.240  1.00  0.00     0.074 A 
ATOM     41  C   UNL     1      -8.159   8.791   1.664  1.00  0.00     0.031 C 
ATOM     42  C   UNL     1      -1.330   9.502   2.321  1.00  0.00     0.029 A 
ATOM     43  C   UNL     1      -2.034  10.640   1.740  1.00  0.00     0.049 A 
ATOM     44  H   UNL     1      -4.094  10.883   1.532  1.00  0.00     0.167 HD
ATOM     45  C   UNL     1      -8.393  11.065   0.714  1.00  0.00     0.034 A 
ATOM     46  C   UNL     1      -1.447  11.745   1.241  1.00  0.00     0.034 A 
ATOM     47  C   UNL     1      -7.875  12.349   0.326  1.00  0.00     0.049 A 
ATOM     48  C   UNL     1      -2.312  12.842   0.681  1.00  0.00     0.074 A 
ATOM     49  C   UNL     1      -8.572  13.454  -0.130  1.00  0.00     0.029 A 
ATOM     50  N   UNL     1      -6.533  12.697   0.332  1.00  0.00    -0.354 N 
ATOM     51  N   UNL     1      -3.618  12.896   0.589  1.00  0.00    -0.248 NA
ATOM     52  C   UNL     1      -1.624  14.043   0.186  1.00  0.00     0.031 C 
ATOM     53  C   UNL     1      -7.647  14.459  -0.432  1.00  0.00     0.029 A 
ATOM     54  C   UNL     1      -6.378  13.993  -0.131  1.00  0.00     0.049 A 
ATOM     55  H   UNL     1      -5.799  12.110   0.623  1.00  0.00     0.167 HD
ATOM     56  C   UNL     1      -3.911  14.144   0.053  1.00  0.00     0.074 A 
ATOM     57  C   UNL     1      -2.646  14.825  -0.132  1.00  0.00     0.031 C 
ATOM     58  C   UNL     1      -5.116  14.674  -0.272  1.00  0.00     0.034 A 
BRANCH  45  59
ATOM     59  C   UNL     1      -9.872  10.817   0.566  1.00  0.00     0.023 A 
ATOM     60  C   UNL     1     -10.686  10.748   1.716  1.00  0.00     0.012 A 
ATOM     61  C   UNL     1     -10.465  10.711  -0.707  1.00  0.00     0.148 A 
ATOM     62  C   UNL     1     -12.060  10.541   1.603  1.00  0.00     0.002 A 
ATOM     63  C   UNL     1     -11.842  10.553  -0.813  1.00  0.00     0.091 A 
ATOM     64  F   UNL     1      -9.673  10.758  -1.787  1.00  0.00    -0.205 F 
ATOM     65  C   UNL     1     -12.638  10.455   0.340  1.00  0.00     0.022 A 
BRANCH  63  66
ATOM     66  S   UNL     1     -12.695  10.512  -2.393  1.00  0.00     0.127 S 
ATOM     67  O   UNL     1     -13.130   9.117  -2.456  1.00  0.00    -0.237 OA
ATOM     68  O   UNL     1     -13.774  11.478  -2.184  1.00  0.00    -0.237 OA
ATOM     69  O   UNL     1     -11.711  10.904  -3.392  1.00  0.00    -0.744 OA
ENDBRANCH  63  66
ENDBRANCH  45  59
BRANCH  46  70
ATOM     70  C   UNL     1       0.036  11.889   1.290  1.00  0.00     0.023 A 
ATOM     71  C   UNL     1       0.612  12.844   2.149  1.00  0.00     0.012 A 
ATOM     72  C   UNL     1       0.877  11.069   0.512  1.00  0.00     0.148 A 
ATOM     73  C   UNL     1       1.997  13.005   2.208  1.00  0.00     0.002 A 
ATOM     74  C   UNL     1       2.257  11.194   0.619  1.00  0.00     0.091 A 
ATOM     75  F   UNL     1       0.309  10.172  -0.307  1.00  0.00    -0.205 F 
ATOM     76  C   UNL     1       2.819  12.174   1.451  1.00  0.00     0.022 A 
BRANCH  74  77
ATOM     77  S   UNL     1       3.391  10.075  -0.210  1.00  0.00     0.127 S 
ATOM     78  O   UNL     1       3.997  10.950  -1.210  1.00  0.00    -0.237 OA
ATOM     79  O   UNL     1       4.279   9.681   0.884  1.00  0.00    -0.237 OA
ATOM     80  O   UNL     1       2.567   8.993  -0.732  1.00  0.00    -0.744 OA
ENDBRANCH  74  77
ENDBRANCH  46  70
BRANCH  58  81
ATOM     81  C   UNL     1      -5.134  16.070  -0.838  1.00  0.00     0.023 A 
ATOM     82  C   UNL     1      -4.663  16.302  -2.146  1.00  0.00     0.012 A 
ATOM     83  C   UNL     1      -5.682  17.138  -0.101  1.00  0.00     0.148 A 
ATOM     84  C   UNL     1      -4.704  17.582  -2.697  1.00  0.00     0.002 A 
ATOM     85  C   UNL     1      -5.768  18.400  -0.675  1.00  0.00     0.091 A 
ATOM     86  F   UNL     1      -6.111  16.899   1.148  1.00  0.00    -0.205 F 
ATOM     87  C   UNL     1      -5.267  18.627  -1.968  1.00  0.00     0.022 A 
BRANCH  85  88
ATOM     88  S   UNL     1      -6.563  19.784   0.148  1.00  0.00     0.127 S 
ATOM     89  O   UNL     1      -5.422  20.644   0.454  1.00  0.00    -0.237 OA
ATOM     90  O   UNL     1      -7.451  20.296  -0.896  1.00  0.00    -0.237 OA
ATOM     91  O   UNL     1      -7.249  19.224   1.305  1.00  0.00    -0.744 OA
ENDBRANCH  85  88
ENDBRANCH  58  81
ENDBRANCH  32  33
ENDBRANCH  24  27
ENDBRANCH  22  23
ENDBRANCH   1  22
TORSDOF 16
