REMARK SMILES COc1ccc(-c2cccc(/C=C\C(=O)NCCCNC(=O)c3ccc(-c4c5nc(c(-c6cccc(S(=O)(=O)[O-])c6F)c6ccc([nH]6)c(-c6cccc(S(=O)(=O)[O-])c6F)c6nc(c(-c7cccc(S(=O)(=O)[O-])c7F)c7ccc4[nH]7)C=C6)C=C5)cc3)c2)c(Cl)c1OC
REMARK SMILES IDX 18 1 17 2 16 3 14 4 15 5 13 7 12 8 11 9 7 10 8 11 86 12 9 13
REMARK SMILES IDX 10 14 6 15 3 16 4 17 89 18 5 19 87 20 88 21 2 22 1 23 90 24
REMARK SMILES IDX 91 25 19 26 20 27 21 28 22 30 23 31 24 32 85 33 25 34 84 35
REMARK SMILES IDX 26 36 27 37 28 38 78 39 29 40 83 41 77 42 79 43 30 44 82 45
REMARK SMILES IDX 76 46 75 47 31 49 63 50 43 51 62 52 44 53 47 54 61 55 80 56
REMARK SMILES IDX 45 57 46 58 60 60 81 61 48 62 32 63 33 64 41 65 34 66 36 67
REMARK SMILES IDX 42 68 35 69 37 70 38 71 39 72 40 73 64 74 65 75 73 76 66 77
REMARK SMILES IDX 68 78 74 79 67 80 69 81 70 82 71 83 72 84 49 85 50 86 58 87
REMARK SMILES IDX 51 88 53 89 59 90 52 91 54 92 55 93 56 94 57 95
REMARK H PARENT 16 6 20 29 79 48 47 59
REMARK Flexibility Score: inf
ROOT
ATOM      1  C   UNL     1       2.137   5.260   8.985  1.00  0.00     0.042 C 
ENDROOT
BRANCH   1   2
ATOM      2  C   UNL     1       2.212   3.763   9.209  1.00  0.00     0.118 C 
BRANCH   2   3
ATOM      3  N   UNL     1       2.550   3.329  10.548  1.00  0.00    -0.352 N 
ATOM      4  C   UNL     1       2.312   2.126  11.139  1.00  0.00     0.244 C 
ATOM      5  O   UNL     1       2.744   1.922  12.276  1.00  0.00    -0.270 OA
ATOM      6  H   UNL     1       3.015   3.993  11.106  1.00  0.00     0.163 HD
BRANCH   4   7
ATOM      7  C   UNL     1       1.458   1.073  10.518  1.00  0.00     0.072 C 
ATOM      8  C   UNL     1       1.401   0.526   9.290  1.00  0.00     0.014 C 
BRANCH   8   9
ATOM      9  C   UNL     1       2.194   0.870   8.106  1.00  0.00    -0.025 A 
ATOM     10  C   UNL     1       2.211   1.669   5.781  1.00  0.00    -0.016 A 
ATOM     11  C   UNL     1       3.573   1.987   5.974  1.00  0.00     0.009 A 
ATOM     12  C   UNL     1       1.534   1.117   6.884  1.00  0.00     0.017 A 
ATOM     13  C   UNL     1       4.264   1.614   7.129  1.00  0.00     0.001 A 
ATOM     14  C   UNL     1       3.580   1.022   8.184  1.00  0.00     0.008 A 
BRANCH  10  15
ATOM     15  C   UNL     1       1.612   1.770   4.412  1.00  0.00     0.004 A 
ATOM     16  C   UNL     1       0.697   1.572   1.748  1.00  0.00     0.162 A 
ATOM     17  C   UNL     1       2.020   1.281   2.046  1.00  0.00     0.051 A 
ATOM     18  C   UNL     1      -0.189   2.061   2.739  1.00  0.00     0.180 A 
ATOM     19  C   UNL     1       2.451   1.348   3.357  1.00  0.00     0.014 A 
ATOM     20  C   UNL     1       0.287   2.186   4.073  1.00  0.00     0.094 A 
ATOM     21  Cl  UNL     1      -0.672   2.922   5.321  1.00  0.00    -0.079 Cl
BRANCH  16  22
ATOM     22  O   UNL     1       0.234   1.430   0.456  1.00  0.00    -0.493 OA
ATOM     23  C   UNL     1       0.617   0.194  -0.144  1.00  0.00     0.278 C 
ENDBRANCH  16  22
BRANCH  18  24
ATOM     24  O   UNL     1      -1.422   2.336   2.205  1.00  0.00    -0.491 OA
ATOM     25  C   UNL     1      -2.546   2.714   2.979  1.00  0.00     0.278 C 
ENDBRANCH  18  24
ENDBRANCH  10  15
ENDBRANCH   8   9
ENDBRANCH   4   7
ENDBRANCH   2   3
ENDBRANCH   1   2
BRANCH   1  26
ATOM     26  C   UNL     1       3.490   5.968   8.954  1.00  0.00     0.118 C 
BRANCH  26  27
ATOM     27  N   UNL     1       4.418   5.497   7.922  1.00  0.00    -0.352 N 
ATOM     28  C   UNL     1       4.825   6.009   6.705  1.00  0.00     0.251 C 
ATOM     29  H   UNL     1       4.838   4.634   8.141  1.00  0.00     0.163 HD
ATOM     30  O   UNL     1       5.564   5.338   5.998  1.00  0.00    -0.269 OA
BRANCH  28  31
ATOM     31  C   UNL     1       4.349   7.330   6.224  1.00  0.00     0.039 A 
ATOM     32  C   UNL     1       4.071   7.501   4.862  1.00  0.00     0.014 A 
ATOM     33  C   UNL     1       4.157   8.397   7.093  1.00  0.00     0.014 A 
ATOM     34  C   UNL     1       3.468   8.683   4.412  1.00  0.00     0.010 A 
ATOM     35  C   UNL     1       3.435   9.508   6.676  1.00  0.00     0.010 A 
ATOM     36  C   UNL     1       3.066   9.663   5.333  1.00  0.00    -0.014 A 
BRANCH  36  37
ATOM     37  C   UNL     1       2.212  10.822   4.949  1.00  0.00     0.031 A 
ATOM     38  C   UNL     1       2.629  12.228   5.296  1.00  0.00     0.074 A 
ATOM     39  C   UNL     1       0.979  10.598   4.447  1.00  0.00     0.049 A 
ATOM     40  N   UNL     1       1.944  13.339   5.210  1.00  0.00    -0.248 NA
ATOM     41  C   UNL     1       3.975  12.400   5.868  1.00  0.00     0.031 C 
ATOM     42  C   UNL     1       0.402   9.279   4.174  1.00  0.00     0.029 A 
ATOM     43  N   UNL     1      -0.031  11.471   4.123  1.00  0.00    -0.354 N 
ATOM     44  C   UNL     1       2.744  14.323   5.779  1.00  0.00     0.074 A 
ATOM     45  C   UNL     1       3.950  13.671   6.239  1.00  0.00     0.031 C 
ATOM     46  C   UNL     1      -0.853   9.429   3.725  1.00  0.00     0.029 A 
ATOM     47  C   UNL     1      -1.190  10.848   3.718  1.00  0.00     0.049 A 
ATOM     48  H   UNL     1       0.065  12.450   4.175  1.00  0.00     0.167 HD
ATOM     49  C   UNL     1       2.514  15.655   5.882  1.00  0.00     0.034 A 
ATOM     50  C   UNL     1      -2.397  11.352   3.397  1.00  0.00     0.034 A 
ATOM     51  C   UNL     1       1.348  16.309   5.352  1.00  0.00     0.049 A 
ATOM     52  C   UNL     1      -2.600  12.840   3.430  1.00  0.00     0.074 A 
ATOM     53  C   UNL     1       1.088  17.665   5.262  1.00  0.00     0.029 A 
ATOM     54  N   UNL     1       0.244  15.655   4.829  1.00  0.00    -0.354 N 
ATOM     55  N   UNL     1      -1.757  13.777   3.790  1.00  0.00    -0.248 NA
ATOM     56  C   UNL     1      -3.907  13.345   2.986  1.00  0.00     0.031 C 
ATOM     57  C   UNL     1      -0.185  17.829   4.705  1.00  0.00     0.029 A 
ATOM     58  C   UNL     1      -0.711  16.576   4.432  1.00  0.00     0.049 A 
ATOM     59  H   UNL     1       0.152  14.678   4.751  1.00  0.00     0.167 HD
ATOM     60  C   UNL     1      -2.422  14.983   3.604  1.00  0.00     0.074 A 
ATOM     61  C   UNL     1      -3.729  14.658   3.069  1.00  0.00     0.031 C 
ATOM     62  C   UNL     1      -1.997  16.243   3.872  1.00  0.00     0.034 A 
BRANCH  49  63
ATOM     63  C   UNL     1       3.578  16.496   6.542  1.00  0.00     0.023 A 
ATOM     64  C   UNL     1       4.819  16.683   5.898  1.00  0.00     0.012 A 
ATOM     65  C   UNL     1       3.348  17.118   7.785  1.00  0.00     0.148 A 
ATOM     66  C   UNL     1       5.832  17.426   6.503  1.00  0.00     0.002 A 
ATOM     67  C   UNL     1       4.347  17.898   8.360  1.00  0.00     0.091 A 
ATOM     68  F   UNL     1       2.173  16.916   8.397  1.00  0.00    -0.205 F 
ATOM     69  C   UNL     1       5.593  18.039   7.729  1.00  0.00     0.022 A 
BRANCH  67  70
ATOM     70  S   UNL     1       4.103  18.795   9.897  1.00  0.00     0.127 S 
ATOM     71  O   UNL     1       4.826  17.953  10.848  1.00  0.00    -0.237 OA
ATOM     72  O   UNL     1       4.742  20.080   9.613  1.00  0.00    -0.237 OA
ATOM     73  O   UNL     1       2.661  18.869  10.088  1.00  0.00    -0.744 OA
ENDBRANCH  67  70
ENDBRANCH  49  63
BRANCH  50  74
ATOM     74  C   UNL     1      -3.479  10.426   2.953  1.00  0.00     0.023 A 
ATOM     75  C   UNL     1      -3.831  10.385   1.590  1.00  0.00     0.012 A 
ATOM     76  C   UNL     1      -4.092   9.528   3.849  1.00  0.00     0.148 A 
ATOM     77  C   UNL     1      -4.785   9.476   1.130  1.00  0.00     0.002 A 
ATOM     78  C   UNL     1      -4.998   8.586   3.374  1.00  0.00     0.091 A 
ATOM     79  F   UNL     1      -3.744   9.588   5.143  1.00  0.00    -0.205 F 
ATOM     80  C   UNL     1      -5.358   8.569   2.018  1.00  0.00     0.022 A 
BRANCH  78  81
ATOM     81  S   UNL     1      -5.682   7.287   4.411  1.00  0.00     0.127 S 
ATOM     82  O   UNL     1      -7.103   7.623   4.415  1.00  0.00    -0.237 OA
ATOM     83  O   UNL     1      -5.336   6.084   3.652  1.00  0.00    -0.237 OA
ATOM     84  O   UNL     1      -5.005   7.405   5.695  1.00  0.00    -0.744 OA
ENDBRANCH  78  81
ENDBRANCH  50  74
BRANCH  62  85
ATOM     85  C   UNL     1      -2.953  17.374   3.599  1.00  0.00     0.023 A 
ATOM     86  C   UNL     1      -4.053  17.573   4.456  1.00  0.00     0.012 A 
ATOM     87  C   UNL     1      -2.720  18.285   2.550  1.00  0.00     0.148 A 
ATOM     88  C   UNL     1      -4.922  18.645   4.258  1.00  0.00     0.002 A 
ATOM     89  C   UNL     1      -3.564  19.377   2.386  1.00  0.00     0.091 A 
ATOM     90  F   UNL     1      -1.678  18.068   1.734  1.00  0.00    -0.205 F 
ATOM     91  C   UNL     1      -4.671  19.553   3.232  1.00  0.00     0.022 A 
BRANCH  89  92
ATOM     92  S   UNL     1      -3.267  20.649   1.152  1.00  0.00     0.127 S 
ATOM     93  O   UNL     1      -4.335  20.385   0.189  1.00  0.00    -0.237 OA
ATOM     94  O   UNL     1      -3.435  21.879   1.927  1.00  0.00    -0.237 OA
ATOM     95  O   UNL     1      -1.914  20.425   0.662  1.00  0.00    -0.744 OA
ENDBRANCH  89  92
ENDBRANCH  62  85
ENDBRANCH  36  37
ENDBRANCH  28  31
ENDBRANCH  26  27
ENDBRANCH   1  26
TORSDOF 17
