REMARK SMILES O=C(NCCCNC(=O)[C@@H]1CCCN1C(=O)[C@@H]1CCCN1C(=O)OCC1c2ccccc2-c2ccccc21)c1ccc(-c2c3nc(c(-c4cccc(S(=O)(=O)[O-])c4F)c4ccc([nH]4)c(-c4cccc(S(=O)(=O)[O-])c4F)c4nc(c(-c5cccc(S(=O)(=O)[O-])c5F)c5ccc2[nH]5)C=C4)C=C3)cc1
REMARK SMILES IDX 7 1 8 2 9 3 6 5 5 6 4 7 3 8 1 9 2 10 39 12 40 13 101 14
REMARK SMILES IDX 41 15 100 16 42 17 43 18 44 19 94 20 45 21 99 22 93 23 95 24
REMARK SMILES IDX 46 25 98 26 92 27 91 28 47 30 79 31 59 32 78 33 60 34 63 35
REMARK SMILES IDX 77 36 96 37 61 38 62 39 76 41 97 42 64 43 48 44 49 45 57 46
REMARK SMILES IDX 50 47 52 48 58 49 51 50 53 51 54 52 55 53 56 54 80 55 81 56
REMARK SMILES IDX 89 57 82 58 84 59 90 60 83 61 85 62 86 63 87 64 88 65 65 66
REMARK SMILES IDX 66 67 74 68 67 69 69 70 75 71 68 72 70 73 71 74 72 75 73 76
REMARK SMILES IDX 10 77 11 78 14 79 12 80 13 81 15 82 16 83 17 84 18 85 21 86
REMARK SMILES IDX 19 87 20 88 22 89 23 90 24 91 25 92 26 93 27 94 38 95 28 96
REMARK SMILES IDX 32 97 33 98 37 99 29 100 31 101 34 102 36 103 30 104 35 105
REMARK H PARENT 7 4 3 11 95 29 63 40
REMARK Flexibility Score: inf
ROOT
ATOM      1  N   UNL     1       4.574   2.108  -3.769  1.00  0.00    -0.354 N 
ATOM      2  C   UNL     1       5.589   2.661  -4.465  1.00  0.00     0.242 C 
ATOM      3  O   UNL     1       5.582   3.889  -4.340  1.00  0.00    -0.273 OA
ATOM      4  H   UNL     1       4.078   2.787  -3.257  1.00  0.00     0.163 HD
ENDROOT
BRANCH   1   5
ATOM      5  C   UNL     1       4.018   0.787  -3.574  1.00  0.00     0.117 C 
BRANCH   5   6
ATOM      6  C   UNL     1       4.622   0.085  -2.369  1.00  0.00     0.042 C 
BRANCH   6   7
ATOM      7  C   UNL     1       4.403   0.851  -1.071  1.00  0.00     0.118 C 
BRANCH   7   8
ATOM      8  N   UNL     1       3.008   0.832  -0.646  1.00  0.00    -0.352 N 
ATOM      9  O   UNL     1       1.140  -0.032   0.263  1.00  0.00    -0.269 OA
ATOM     10  C   UNL     1       2.367  -0.003   0.240  1.00  0.00     0.251 C 
ATOM     11  H   UNL     1       2.438   1.522  -1.056  1.00  0.00     0.163 HD
BRANCH  10  12
ATOM     12  C   UNL     1       3.157  -0.872   1.140  1.00  0.00     0.039 A 
ATOM     13  C   UNL     1       4.312  -0.380   1.743  1.00  0.00     0.014 A 
ATOM     14  C   UNL     1       2.737  -2.179   1.405  1.00  0.00     0.014 A 
ATOM     15  C   UNL     1       5.149  -1.239   2.436  1.00  0.00     0.010 A 
ATOM     16  C   UNL     1       3.515  -3.007   2.225  1.00  0.00     0.010 A 
ATOM     17  C   UNL     1       4.745  -2.554   2.721  1.00  0.00    -0.014 A 
BRANCH  17  18
ATOM     18  C   UNL     1       5.600  -3.361   3.631  1.00  0.00     0.031 A 
ATOM     19  C   UNL     1       6.238  -4.650   3.194  1.00  0.00     0.074 A 
ATOM     20  C   UNL     1       5.847  -2.865   4.862  1.00  0.00     0.049 A 
ATOM     21  N   UNL     1       7.088  -5.402   3.847  1.00  0.00    -0.248 NA
ATOM     22  C   UNL     1       5.875  -5.173   1.868  1.00  0.00     0.031 C 
ATOM     23  C   UNL     1       5.231  -1.654   5.415  1.00  0.00     0.029 A 
ATOM     24  N   UNL     1       6.691  -3.285   5.855  1.00  0.00    -0.354 N 
ATOM     25  C   UNL     1       7.336  -6.500   3.032  1.00  0.00     0.074 A 
ATOM     26  C   UNL     1       6.537  -6.323   1.838  1.00  0.00     0.031 C 
ATOM     27  C   UNL     1       5.765  -1.392   6.614  1.00  0.00     0.029 A 
ATOM     28  C   UNL     1       6.706  -2.452   6.950  1.00  0.00     0.049 A 
ATOM     29  H   UNL     1       7.235  -4.104   5.792  1.00  0.00     0.167 HD
ATOM     30  C   UNL     1       8.166  -7.547   3.254  1.00  0.00     0.034 A 
ATOM     31  C   UNL     1       7.391  -2.532   8.106  1.00  0.00     0.034 A 
ATOM     32  C   UNL     1       8.979  -7.697   4.434  1.00  0.00     0.049 A 
ATOM     33  C   UNL     1       8.345  -3.672   8.295  1.00  0.00     0.074 A 
ATOM     34  C   UNL     1       9.873  -8.709   4.740  1.00  0.00     0.029 A 
ATOM     35  N   UNL     1       9.001  -6.811   5.501  1.00  0.00    -0.354 N 
ATOM     36  N   UNL     1       8.641  -4.643   7.464  1.00  0.00    -0.248 NA
ATOM     37  C   UNL     1       9.078  -3.718   9.566  1.00  0.00     0.031 C 
ATOM     38  C   UNL     1      10.429  -8.438   5.996  1.00  0.00     0.029 A 
ATOM     39  C   UNL     1       9.894  -7.249   6.465  1.00  0.00     0.049 A 
ATOM     40  H   UNL     1       8.461  -5.991   5.564  1.00  0.00     0.167 HD
ATOM     41  C   UNL     1       9.596  -5.414   8.109  1.00  0.00     0.074 A 
ATOM     42  C   UNL     1       9.867  -4.768   9.378  1.00  0.00     0.031 C 
ATOM     43  C   UNL     1      10.175  -6.572   7.705  1.00  0.00     0.034 A 
BRANCH  30  44
ATOM     44  C   UNL     1       8.280  -8.598   2.178  1.00  0.00     0.023 A 
ATOM     45  C   UNL     1       8.999  -8.306   1.002  1.00  0.00     0.012 A 
ATOM     46  C   UNL     1       7.750  -9.891   2.360  1.00  0.00     0.148 A 
ATOM     47  C   UNL     1       9.172  -9.276   0.014  1.00  0.00     0.002 A 
ATOM     48  C   UNL     1       7.958 -10.864   1.387  1.00  0.00     0.091 A 
ATOM     49  F   UNL     1       7.053 -10.145   3.477  1.00  0.00    -0.205 F 
ATOM     50  C   UNL     1       8.661 -10.556   0.211  1.00  0.00     0.022 A 
BRANCH  48  51
ATOM     51  S   UNL     1       7.404 -12.563   1.575  1.00  0.00     0.127 S 
ATOM     52  O   UNL     1       6.333 -12.634   0.582  1.00  0.00    -0.237 OA
ATOM     53  O   UNL     1       8.607 -13.320   1.229  1.00  0.00    -0.237 OA
ATOM     54  O   UNL     1       6.979 -12.696   2.962  1.00  0.00    -0.744 OA
ENDBRANCH  48  51
ENDBRANCH  30  44
BRANCH  31  55
ATOM     55  C   UNL     1       7.209  -1.481   9.146  1.00  0.00     0.023 A 
ATOM     56  C   UNL     1       8.264  -0.599   9.447  1.00  0.00     0.012 A 
ATOM     57  C   UNL     1       5.971  -1.314   9.796  1.00  0.00     0.148 A 
ATOM     58  C   UNL     1       8.095   0.414  10.392  1.00  0.00     0.002 A 
ATOM     59  C   UNL     1       5.788  -0.261  10.684  1.00  0.00     0.091 A 
ATOM     60  F   UNL     1       4.982  -2.176   9.517  1.00  0.00    -0.205 F 
ATOM     61  C   UNL     1       6.854   0.593  10.998  1.00  0.00     0.022 A 
BRANCH  59  62
ATOM     62  S   UNL     1       4.170   0.126  11.361  1.00  0.00     0.127 S 
ATOM     63  O   UNL     1       4.246  -0.481  12.687  1.00  0.00    -0.237 OA
ATOM     64  O   UNL     1       4.171   1.589  11.351  1.00  0.00    -0.237 OA
ATOM     65  O   UNL     1       3.217  -0.471  10.434  1.00  0.00    -0.744 OA
ENDBRANCH  59  62
ENDBRANCH  31  55
BRANCH  43  66
ATOM     66  C   UNL     1      11.157  -7.206   8.652  1.00  0.00     0.023 A 
ATOM     67  C   UNL     1      10.686  -7.829   9.825  1.00  0.00     0.012 A 
ATOM     68  C   UNL     1      12.536  -7.213   8.369  1.00  0.00     0.148 A 
ATOM     69  C   UNL     1      11.576  -8.413  10.724  1.00  0.00     0.002 A 
ATOM     70  C   UNL     1      13.413  -7.837   9.248  1.00  0.00     0.091 A 
ATOM     71  F   UNL     1      12.967  -6.594   7.260  1.00  0.00    -0.205 F 
ATOM     72  C   UNL     1      12.938  -8.425  10.431  1.00  0.00     0.022 A 
BRANCH  70  73
ATOM     73  S   UNL     1      15.171  -7.973   8.904  1.00  0.00     0.127 S 
ATOM     74  O   UNL     1      15.725  -6.934   9.768  1.00  0.00    -0.237 OA
ATOM     75  O   UNL     1      15.468  -9.342   9.328  1.00  0.00    -0.237 OA
ATOM     76  O   UNL     1      15.312  -7.745   7.472  1.00  0.00    -0.744 OA
ENDBRANCH  70  73
ENDBRANCH  43  66
ENDBRANCH  17  18
ENDBRANCH  10  12
ENDBRANCH   7   8
ENDBRANCH   6   7
ENDBRANCH   5   6
ENDBRANCH   1   5
BRANCH   2  77
ATOM     77  C   UNL     1       6.611   1.953  -5.400  1.00  0.00     0.174 C 
ATOM     78  C   UNL     1       6.490   0.426  -5.399  1.00  0.00     0.037 C 
ATOM     79  N   UNL     1       8.093   2.116  -5.311  1.00  0.00    -0.329 N 
ATOM     80  C   UNL     1       7.674  -0.070  -6.194  1.00  0.00     0.024 C 
ATOM     81  C   UNL     1       8.751   0.936  -5.873  1.00  0.00     0.120 C 
BRANCH  79  82
ATOM     82  C   UNL     1       8.924   3.215  -5.232  1.00  0.00     0.246 C 
ATOM     83  O   UNL     1      10.134   3.069  -5.492  1.00  0.00    -0.272 OA
BRANCH  82  84
ATOM     84  C   UNL     1       8.539   4.590  -4.678  1.00  0.00     0.178 C 
ATOM     85  C   UNL     1       8.224   4.532  -3.180  1.00  0.00     0.037 C 
ATOM     86  N   UNL     1       7.506   5.423  -5.245  1.00  0.00    -0.296 N 
ATOM     87  C   UNL     1       7.361   5.763  -2.898  1.00  0.00     0.024 C 
ATOM     88  C   UNL     1       7.039   6.373  -4.259  1.00  0.00     0.124 C 
BRANCH  86  89
ATOM     89  C   UNL     1       7.383   5.683  -6.585  1.00  0.00     0.410 C 
ATOM     90  O   UNL     1       7.122   6.788  -7.041  1.00  0.00    -0.224 OA
BRANCH  89  91
ATOM     91  O   UNL     1       7.525   4.553  -7.335  1.00  0.00    -0.448 OA
BRANCH  91  92
ATOM     92  C   UNL     1       7.250   4.666  -8.746  1.00  0.00     0.248 C 
BRANCH  92  93
ATOM     93  C   UNL     1       5.801   4.314  -9.153  1.00  0.00     0.088 C 
ATOM     94  C   UNL     1       5.366   2.875  -8.875  1.00  0.00    -0.029 A 
ATOM     95  C   UNL     1       4.723   5.102  -8.422  1.00  0.00    -0.029 A 
ATOM     96  C   UNL     1       5.891   1.694  -9.379  1.00  0.00     0.005 A 
ATOM     97  C   UNL     1       4.226   2.865  -8.039  1.00  0.00    -0.014 A 
ATOM     98  C   UNL     1       3.864   4.229  -7.723  1.00  0.00    -0.014 A 
ATOM     99  C   UNL     1       4.536   6.474  -8.383  1.00  0.00     0.005 A 
ATOM    100  C   UNL     1       5.262   0.493  -9.036  1.00  0.00     0.000 A 
ATOM    101  C   UNL     1       3.613   1.673  -7.686  1.00  0.00     0.009 A 
ATOM    102  C   UNL     1       2.866   4.729  -6.903  1.00  0.00     0.009 A 
ATOM    103  C   UNL     1       3.526   6.979  -7.564  1.00  0.00     0.000 A 
ATOM    104  C   UNL     1       4.135   0.482  -8.196  1.00  0.00     0.001 A 
ATOM    105  C   UNL     1       2.709   6.116  -6.817  1.00  0.00     0.001 A 
ENDBRANCH  92  93
ENDBRANCH  91  92
ENDBRANCH  89  91
ENDBRANCH  86  89
ENDBRANCH  82  84
ENDBRANCH  79  82
ENDBRANCH   2  77
TORSDOF 19
