REMARK SMILES CC[C@H](C(=O)NCc1ccc(C(=O)NCCCNC(=O)c2ccc(-c3c4nc(c(-c5cccc(S(=O)(=O)[O-])c5F)c5ccc([nH]5)c(-c5cccc(S(=O)(=O)[O-])c5F)c5nc(c(-c6cccc(S(=O)(=O)[O-])c6F)c6ccc3[nH]6)C=C5)C=C4)cc2)o1)c1ccccc1
REMARK SMILES IDX 15 1 14 2 12 3 13 4 11 6 8 7 9 8 84 9 10 10 7 11 6 12 4 13
REMARK SMILES IDX 5 14 3 16 2 17 1 18 85 19 86 20 90 21 87 22 89 23 88 24
REMARK SMILES IDX 16 25 17 26 18 27 19 28 20 30 21 31 22 32 83 33 23 34 82 35
REMARK SMILES IDX 24 36 25 37 26 38 76 39 27 40 81 41 75 42 77 43 28 44 80 45
REMARK SMILES IDX 74 46 73 47 29 49 61 50 41 51 60 52 42 53 45 54 59 55 78 56
REMARK SMILES IDX 43 57 44 58 58 60 79 61 46 62 30 63 31 64 39 65 32 66 34 67
REMARK SMILES IDX 40 68 33 69 35 70 36 71 37 72 38 73 62 74 63 75 71 76 64 77
REMARK SMILES IDX 66 78 72 79 65 80 67 81 68 82 69 83 70 84 47 85 48 86 56 87
REMARK SMILES IDX 49 88 51 89 57 90 50 91 52 92 53 93 54 94 55 95
REMARK H PARENT 14 5 6 15 18 29 77 48 45 59
REMARK Flexibility Score: inf
ROOT
ATOM      1  C   UNL     1      -6.088   4.589  -2.523  1.00  0.00     0.118 C 
ENDROOT
BRANCH   1   2
ATOM      2  N   UNL     1      -5.816   3.174  -2.667  1.00  0.00    -0.349 N 
ATOM      3  C   UNL     1      -4.859   2.390  -2.062  1.00  0.00     0.286 C 
ATOM      4  O   UNL     1      -4.950   1.180  -2.237  1.00  0.00    -0.266 OA
ATOM      5  H   UNL     1      -6.406   2.699  -3.296  1.00  0.00     0.163 HD
BRANCH   3   6
ATOM      6  C   UNL     1      -3.846   3.003  -1.227  1.00  0.00     0.191 A 
ATOM      7  C   UNL     1      -2.477   3.003   0.501  1.00  0.00     0.124 A 
ATOM      8  C   UNL     1      -2.346   4.239  -0.089  1.00  0.00     0.048 A 
ATOM      9  O   UNL     1      -3.379   2.250  -0.181  1.00  0.00    -0.454 OA
ATOM     10  C   UNL     1      -3.192   4.222  -1.222  1.00  0.00     0.056 A 
BRANCH   7  11
ATOM     11  C   UNL     1      -1.887   2.383   1.702  1.00  0.00     0.191 C 
BRANCH  11  12
ATOM     12  N   UNL     1      -1.029   1.268   1.350  1.00  0.00    -0.348 N 
ATOM     13  C   UNL     1       0.298   1.192   1.056  1.00  0.00     0.227 C 
ATOM     14  O   UNL     1       0.792   0.060   0.990  1.00  0.00    -0.274 OA
ATOM     15  H   UNL     1      -1.494   0.401   1.317  1.00  0.00     0.163 HD
BRANCH  13  16
ATOM     16  C   UNL     1       1.163   2.428   0.737  1.00  0.00     0.108 C 
BRANCH  16  17
ATOM     17  C   UNL     1       0.904   2.805  -0.745  1.00  0.00     0.015 C 
ATOM     18  C   UNL     1       1.716   1.946  -1.713  1.00  0.00     0.005 C 
ENDBRANCH  16  17
BRANCH  16  19
ATOM     19  C   UNL     1       1.080   3.533   1.791  1.00  0.00    -0.036 A 
ATOM     20  C   UNL     1       1.043   4.899   1.475  1.00  0.00     0.004 A 
ATOM     21  C   UNL     1       1.067   3.180   3.157  1.00  0.00     0.004 A 
ATOM     22  C   UNL     1       0.891   5.866   2.473  1.00  0.00     0.000 A 
ATOM     23  C   UNL     1       0.892   4.145   4.152  1.00  0.00     0.000 A 
ATOM     24  C   UNL     1       0.789   5.488   3.808  1.00  0.00     0.000 A 
ENDBRANCH  16  19
ENDBRANCH  13  16
ENDBRANCH  11  12
ENDBRANCH   7  11
ENDBRANCH   3   6
ENDBRANCH   1   2
BRANCH   1  25
ATOM     25  C   UNL     1      -5.596   5.384  -3.727  1.00  0.00     0.042 C 
BRANCH  25  26
ATOM     26  C   UNL     1      -6.406   5.125  -4.993  1.00  0.00     0.118 C 
BRANCH  26  27
ATOM     27  N   UNL     1      -7.785   5.570  -4.855  1.00  0.00    -0.352 N 
ATOM     28  C   UNL     1      -8.518   6.426  -5.636  1.00  0.00     0.251 C 
ATOM     29  H   UNL     1      -8.267   5.198  -4.082  1.00  0.00     0.163 HD
ATOM     30  O   UNL     1      -9.592   6.846  -5.213  1.00  0.00    -0.269 OA
BRANCH  28  31
ATOM     31  C   UNL     1      -8.033   6.839  -6.971  1.00  0.00     0.039 A 
ATOM     32  C   UNL     1      -8.289   8.144  -7.402  1.00  0.00     0.014 A 
ATOM     33  C   UNL     1      -7.398   5.933  -7.826  1.00  0.00     0.014 A 
ATOM     34  C   UNL     1      -7.893   8.544  -8.680  1.00  0.00     0.010 A 
ATOM     35  C   UNL     1      -6.935   6.355  -9.069  1.00  0.00     0.010 A 
ATOM     36  C   UNL     1      -7.205   7.654  -9.521  1.00  0.00    -0.014 A 
BRANCH  36  37
ATOM     37  C   UNL     1      -6.803   8.051 -10.892  1.00  0.00     0.031 A 
ATOM     38  C   UNL     1      -7.404   7.353 -12.084  1.00  0.00     0.074 A 
ATOM     39  C   UNL     1      -5.852   8.989 -11.064  1.00  0.00     0.049 A 
ATOM     40  N   UNL     1      -7.157   7.530 -13.356  1.00  0.00    -0.248 NA
ATOM     41  C   UNL     1      -8.392   6.294 -11.810  1.00  0.00     0.031 C 
ATOM     42  C   UNL     1      -5.138   9.675  -9.985  1.00  0.00     0.029 A 
ATOM     43  N   UNL     1      -5.305   9.509 -12.209  1.00  0.00    -0.354 N 
ATOM     44  C   UNL     1      -7.921   6.583 -14.028  1.00  0.00     0.074 A 
ATOM     45  C   UNL     1      -8.614   5.809 -13.023  1.00  0.00     0.031 C 
ATOM     46  C   UNL     1      -4.251  10.530 -10.520  1.00  0.00     0.029 A 
ATOM     47  C   UNL     1      -4.321  10.441 -11.976  1.00  0.00     0.049 A 
ATOM     48  H   UNL     1      -5.590   9.241 -13.112  1.00  0.00     0.167 HD
ATOM     49  C   UNL     1      -8.061   6.396 -15.362  1.00  0.00     0.034 A 
ATOM     50  C   UNL     1      -3.566  11.147 -12.839  1.00  0.00     0.034 A 
ATOM     51  C   UNL     1      -7.416   7.210 -16.356  1.00  0.00     0.049 A 
ATOM     52  C   UNL     1      -3.805  10.982 -14.316  1.00  0.00     0.074 A 
ATOM     53  C   UNL     1      -7.553   7.161 -17.732  1.00  0.00     0.029 A 
ATOM     54  N   UNL     1      -6.517   8.228 -16.079  1.00  0.00    -0.354 N 
ATOM     55  N   UNL     1      -4.647  10.188 -14.932  1.00  0.00    -0.248 NA
ATOM     56  C   UNL     1      -3.026  11.844 -15.216  1.00  0.00     0.031 C 
ATOM     57  C   UNL     1      -6.731   8.148 -18.287  1.00  0.00     0.029 A 
ATOM     58  C   UNL     1      -6.096   8.822 -17.256  1.00  0.00     0.049 A 
ATOM     59  H   UNL     1      -6.221   8.491 -15.177  1.00  0.00     0.167 HD
ATOM     60  C   UNL     1      -4.532  10.484 -16.285  1.00  0.00     0.074 A 
ATOM     61  C   UNL     1      -3.550  11.544 -16.396  1.00  0.00     0.031 C 
ATOM     62  C   UNL     1      -5.169   9.921 -17.341  1.00  0.00     0.034 A 
BRANCH  49  63
ATOM     63  C   UNL     1      -8.999   5.310 -15.822  1.00  0.00     0.023 A 
ATOM     64  C   UNL     1     -10.390   5.483 -15.665  1.00  0.00     0.012 A 
ATOM     65  C   UNL     1      -8.516   4.145 -16.450  1.00  0.00     0.148 A 
ATOM     66  C   UNL     1     -11.283   4.500 -16.089  1.00  0.00     0.002 A 
ATOM     67  C   UNL     1      -9.415   3.189 -16.911  1.00  0.00     0.091 A 
ATOM     68  F   UNL     1      -7.191   3.986 -16.571  1.00  0.00    -0.205 F 
ATOM     69  C   UNL     1     -10.796   3.359 -16.721  1.00  0.00     0.022 A 
BRANCH  67  70
ATOM     70  S   UNL     1      -8.892   1.723 -17.809  1.00  0.00     0.127 S 
ATOM     71  O   UNL     1      -9.100   0.676 -16.810  1.00  0.00    -0.237 OA
ATOM     72  O   UNL     1      -9.835   1.693 -18.928  1.00  0.00    -0.237 OA
ATOM     73  O   UNL     1      -7.507   1.961 -18.190  1.00  0.00    -0.744 OA
ENDBRANCH  67  70
ENDBRANCH  49  63
BRANCH  50  74
ATOM     74  C   UNL     1      -2.589  12.147 -12.324  1.00  0.00     0.023 A 
ATOM     75  C   UNL     1      -2.863  13.520 -12.479  1.00  0.00     0.012 A 
ATOM     76  C   UNL     1      -1.416  11.753 -11.652  1.00  0.00     0.148 A 
ATOM     77  C   UNL     1      -1.972  14.482 -12.003  1.00  0.00     0.002 A 
ATOM     78  C   UNL     1      -0.560  12.717 -11.132  1.00  0.00     0.091 A 
ATOM     79  F   UNL     1      -1.167  10.442 -11.523  1.00  0.00    -0.205 F 
ATOM     80  C   UNL     1      -0.827  14.082 -11.321  1.00  0.00     0.022 A 
BRANCH  78  81
ATOM     81  S   UNL     1       0.865  12.291 -10.123  1.00  0.00     0.127 S 
ATOM     82  O   UNL     1       1.970  12.547 -11.042  1.00  0.00    -0.237 OA
ATOM     83  O   UNL     1       0.750  13.243  -9.017  1.00  0.00    -0.237 OA
ATOM     84  O   UNL     1       0.666  10.901  -9.736  1.00  0.00    -0.744 OA
ENDBRANCH  78  81
ENDBRANCH  50  74
BRANCH  62  85
ATOM     85  C   UNL     1      -4.866  10.469 -18.710  1.00  0.00     0.023 A 
ATOM     86  C   UNL     1      -3.630  10.183 -19.322  1.00  0.00     0.012 A 
ATOM     87  C   UNL     1      -5.835  11.208 -19.417  1.00  0.00     0.148 A 
ATOM     88  C   UNL     1      -3.350  10.653 -20.605  1.00  0.00     0.002 A 
ATOM     89  C   UNL     1      -5.567  11.633 -20.712  1.00  0.00     0.091 A 
ATOM     90  F   UNL     1      -6.997  11.489 -18.809  1.00  0.00    -0.205 F 
ATOM     91  C   UNL     1      -4.321  11.367 -21.303  1.00  0.00     0.022 A 
BRANCH  89  92
ATOM     92  S   UNL     1      -6.800  12.473 -21.712  1.00  0.00     0.127 S 
ATOM     93  O   UNL     1      -6.378  13.868 -21.598  1.00  0.00    -0.237 OA
ATOM     94  O   UNL     1      -6.593  11.879 -23.034  1.00  0.00    -0.237 OA
ATOM     95  O   UNL     1      -8.085  12.150 -21.107  1.00  0.00    -0.744 OA
ENDBRANCH  89  92
ENDBRANCH  62  85
ENDBRANCH  36  37
ENDBRANCH  28  31
ENDBRANCH  26  27
ENDBRANCH  25  26
ENDBRANCH   1  25
TORSDOF 18
