REMARK SMILES Cc1c(-c2nn(-c3ccccc3)cc2/C=N/O)nnn1-c1ccc(C(=O)NCCCNC(=O)c2ccc(-c3c4nc(c(-c5cccc(S(=O)(=O)[O-])c5F)c5ccc([nH]5)c(-c5cccc(S(=O)(=O)[O-])c5F)c5nc(c(-c6cccc(S(=O)(=O)[O-])c6F)c6ccc3[nH]6)C=C5)C=C4)cc2)cc1
REMARK SMILES IDX 28 1 27 2 25 3 26 4 24 6 21 7 22 8 98 9 23 10 97 11 20 12
REMARK SMILES IDX 1 13 2 14 3 15 18 16 19 17 4 18 5 19 14 20 6 21 13 22 15 23
REMARK SMILES IDX 16 24 17 25 7 27 8 28 12 29 9 30 11 31 10 32 29 33 30 34
REMARK SMILES IDX 31 35 32 36 33 38 34 39 35 40 96 41 36 42 95 43 37 44 38 45
REMARK SMILES IDX 39 46 89 47 40 48 94 49 88 50 90 51 41 52 93 53 87 54 86 55
REMARK SMILES IDX 42 57 74 58 54 59 73 60 55 61 58 62 72 63 91 64 56 65 57 66
REMARK SMILES IDX 71 68 92 69 59 70 43 71 44 72 52 73 45 74 47 75 53 76 46 77
REMARK SMILES IDX 48 78 49 79 50 80 51 81 75 82 76 83 84 84 77 85 79 86 85 87
REMARK SMILES IDX 78 88 80 89 81 90 82 91 83 92 60 93 61 94 69 95 62 96 64 97
REMARK SMILES IDX 70 98 63 99 65 100 66 101 67 102 68 103
REMARK H PARENT 27 5 17 26 31 37 90 56 58 67
REMARK Flexibility Score: inf
ROOT
ATOM      1  C   UNL     1      -0.680   4.462  -4.290  1.00  0.00     0.118 C 
ENDROOT
BRANCH   1   2
ATOM      2  N   UNL     1      -2.007   3.965  -4.605  1.00  0.00    -0.352 N 
ATOM      3  C   UNL     1      -2.631   2.761  -4.400  1.00  0.00     0.251 C 
ATOM      4  O   UNL     1      -3.825   2.696  -4.686  1.00  0.00    -0.269 OA
ATOM      5  H   UNL     1      -2.575   4.628  -5.060  1.00  0.00     0.163 HD
BRANCH   3   6
ATOM      6  C   UNL     1      -1.973   1.568  -3.790  1.00  0.00     0.039 A 
ATOM      7  C   UNL     1      -0.929  -0.650  -2.424  1.00  0.00     0.067 A 
ATOM      8  C   UNL     1      -2.304  -0.559  -2.636  1.00  0.00     0.029 A 
ATOM      9  C   UNL     1      -0.066   0.301  -2.972  1.00  0.00     0.029 A 
ATOM     10  C   UNL     1      -2.820   0.564  -3.288  1.00  0.00     0.016 A 
ATOM     11  C   UNL     1      -0.593   1.377  -3.692  1.00  0.00     0.016 A 
BRANCH   7  12
ATOM     12  N   UNL     1      -0.417  -1.715  -1.657  1.00  0.00    -0.217 N 
ATOM     13  C   UNL     1       1.086  -0.467  -0.009  1.00  0.00     0.069 C 
ATOM     14  C   UNL     1       0.542  -1.683  -0.660  1.00  0.00     0.071 A 
ATOM     15  C   UNL     1       0.717  -3.020  -0.360  1.00  0.00     0.137 A 
ATOM     16  N   UNL     1      -0.152  -3.788  -1.075  1.00  0.00    -0.128 NA
ATOM     17  N   UNL     1      -0.895  -2.973  -1.810  1.00  0.00    -0.061 NA
BRANCH  15  18
ATOM     18  C   UNL     1       1.581  -3.619   0.646  1.00  0.00     0.124 A 
ATOM     19  N   UNL     1       1.249  -3.636   1.942  1.00  0.00    -0.165 NA
ATOM     20  C   UNL     1       2.826  -4.240   0.396  1.00  0.00     0.044 A 
ATOM     21  N   UNL     1       2.314  -4.190   2.554  1.00  0.00    -0.240 N 
ATOM     22  C   UNL     1       3.295  -4.551   1.659  1.00  0.00     0.125 A 
BRANCH  20  23
ATOM     23  C   UNL     1       3.512  -4.533  -0.838  1.00  0.00     0.166 C 
ATOM     24  N   UNL     1       3.075  -4.047  -1.951  1.00  0.00    -0.097 NA
BRANCH  24  25
ATOM     25  O   UNL     1       3.879  -4.502  -3.003  1.00  0.00    -0.411 OA
ATOM     26  H   UNL     1       3.693  -4.238  -3.883  1.00  0.00     0.330 HD
ENDBRANCH  24  25
ENDBRANCH  20  23
BRANCH  21  27
ATOM     27  C   UNL     1       2.344  -4.334   3.959  1.00  0.00     0.065 A 
ATOM     28  C   UNL     1       1.151  -4.604   4.643  1.00  0.00     0.028 A 
ATOM     29  C   UNL     1       3.546  -4.194   4.662  1.00  0.00     0.028 A 
ATOM     30  C   UNL     1       1.169  -4.766   6.028  1.00  0.00     0.002 A 
ATOM     31  C   UNL     1       3.544  -4.303   6.053  1.00  0.00     0.002 A 
ATOM     32  C   UNL     1       2.362  -4.602   6.733  1.00  0.00     0.000 A 
ENDBRANCH  21  27
ENDBRANCH  15  18
ENDBRANCH   7  12
ENDBRANCH   3   6
ENDBRANCH   1   2
BRANCH   1  33
ATOM     33  C   UNL     1       0.282   4.321  -5.476  1.00  0.00     0.042 C 
BRANCH  33  34
ATOM     34  C   UNL     1       0.129   5.462  -6.469  1.00  0.00     0.118 C 
BRANCH  34  35
ATOM     35  N   UNL     1       0.626   6.729  -5.925  1.00  0.00    -0.352 N 
ATOM     36  C   UNL     1       0.583   7.992  -6.487  1.00  0.00     0.251 C 
ATOM     37  H   UNL     1       1.049   6.673  -5.037  1.00  0.00     0.163 HD
ATOM     38  O   UNL     1       1.327   8.871  -6.087  1.00  0.00    -0.269 OA
BRANCH  36  39
ATOM     39  C   UNL     1      -0.372   8.249  -7.580  1.00  0.00     0.039 A 
ATOM     40  C   UNL     1      -0.015   9.038  -8.676  1.00  0.00     0.014 A 
ATOM     41  C   UNL     1      -1.628   7.654  -7.512  1.00  0.00     0.014 A 
ATOM     42  C   UNL     1      -0.906   9.145  -9.739  1.00  0.00     0.010 A 
ATOM     43  C   UNL     1      -2.420   7.609  -8.629  1.00  0.00     0.010 A 
ATOM     44  C   UNL     1      -2.098   8.399  -9.723  1.00  0.00    -0.014 A 
BRANCH  44  45
ATOM     45  C   UNL     1      -2.944   8.324 -10.908  1.00  0.00     0.031 A 
ATOM     46  C   UNL     1      -2.203   7.959 -12.143  1.00  0.00     0.074 A 
ATOM     47  C   UNL     1      -4.295   8.381 -10.872  1.00  0.00     0.049 A 
ATOM     48  N   UNL     1      -1.900   8.739 -13.128  1.00  0.00    -0.248 NA
ATOM     49  C   UNL     1      -1.561   6.636 -12.212  1.00  0.00     0.031 C 
ATOM     50  C   UNL     1      -5.165   8.429  -9.689  1.00  0.00     0.029 A 
ATOM     51  N   UNL     1      -5.191   8.268 -11.892  1.00  0.00    -0.354 N 
ATOM     52  C   UNL     1      -1.288   7.917 -14.067  1.00  0.00     0.074 A 
ATOM     53  C   UNL     1      -0.892   6.725 -13.365  1.00  0.00     0.031 C 
ATOM     54  C   UNL     1      -6.424   8.084 -10.037  1.00  0.00     0.029 A 
ATOM     55  C   UNL     1      -6.491   7.977 -11.480  1.00  0.00     0.049 A 
ATOM     56  H   UNL     1      -4.942   8.382 -12.837  1.00  0.00     0.167 HD
ATOM     57  C   UNL     1      -1.450   8.147 -15.399  1.00  0.00     0.034 A 
ATOM     58  C   UNL     1      -7.541   7.644 -12.270  1.00  0.00     0.034 A 
ATOM     59  C   UNL     1      -1.971   9.468 -15.649  1.00  0.00     0.049 A 
ATOM     60  C   UNL     1      -7.228   8.134 -13.628  1.00  0.00     0.074 A 
ATOM     61  C   UNL     1      -1.586  10.753 -15.321  1.00  0.00     0.029 A 
ATOM     62  N   UNL     1      -3.301   9.545 -15.985  1.00  0.00    -0.354 N 
ATOM     63  N   UNL     1      -7.139   9.398 -13.932  1.00  0.00    -0.248 NA
ATOM     64  C   UNL     1      -6.601   7.216 -14.561  1.00  0.00     0.031 C 
ATOM     65  C   UNL     1      -2.803  11.436 -15.022  1.00  0.00     0.029 A 
ATOM     66  C   UNL     1      -3.865  10.561 -15.261  1.00  0.00     0.049 A 
ATOM     67  H   UNL     1      -3.767   8.969 -16.633  1.00  0.00     0.167 HD
ATOM     68  C   UNL     1      -6.052   9.460 -14.793  1.00  0.00     0.074 A 
ATOM     69  C   UNL     1      -5.853   8.084 -15.246  1.00  0.00     0.031 C 
ATOM     70  C   UNL     1      -5.243  10.560 -14.818  1.00  0.00     0.034 A 
BRANCH  57  71
ATOM     71  C   UNL     1      -1.544   7.055 -16.441  1.00  0.00     0.023 A 
ATOM     72  C   UNL     1      -1.512   7.442 -17.798  1.00  0.00     0.012 A 
ATOM     73  C   UNL     1      -1.935   5.724 -16.166  1.00  0.00     0.148 A 
ATOM     74  C   UNL     1      -1.881   6.561 -18.821  1.00  0.00     0.002 A 
ATOM     75  C   UNL     1      -2.204   4.824 -17.189  1.00  0.00     0.091 A 
ATOM     76  F   UNL     1      -2.198   5.348 -14.911  1.00  0.00    -0.205 F 
ATOM     77  C   UNL     1      -2.212   5.245 -18.518  1.00  0.00     0.022 A 
BRANCH  75  78
ATOM     78  S   UNL     1      -2.567   3.098 -16.845  1.00  0.00     0.127 S 
ATOM     79  O   UNL     1      -4.000   3.043 -17.114  1.00  0.00    -0.237 OA
ATOM     80  O   UNL     1      -1.722   2.417 -17.827  1.00  0.00    -0.237 OA
ATOM     81  O   UNL     1      -2.160   2.885 -15.462  1.00  0.00    -0.744 OA
ENDBRANCH  75  78
ENDBRANCH  57  71
BRANCH  58  82
ATOM     82  C   UNL     1      -8.698   6.755 -12.019  1.00  0.00     0.023 A 
ATOM     83  C   UNL     1      -9.843   6.859 -12.836  1.00  0.00     0.012 A 
ATOM     84  C   UNL     1      -8.564   5.611 -11.202  1.00  0.00     0.148 A 
ATOM     85  C   UNL     1     -10.797   5.834 -12.878  1.00  0.00     0.002 A 
ATOM     86  C   UNL     1      -9.515   4.596 -11.247  1.00  0.00     0.091 A 
ATOM     87  F   UNL     1      -7.459   5.480 -10.456  1.00  0.00    -0.205 F 
ATOM     88  C   UNL     1     -10.626   4.697 -12.095  1.00  0.00     0.022 A 
BRANCH  86  89
ATOM     89  S   UNL     1      -9.350   3.078 -10.297  1.00  0.00     0.127 S 
ATOM     90  O   UNL     1     -10.662   2.980  -9.656  1.00  0.00    -0.237 OA
ATOM     91  O   UNL     1      -9.107   2.091 -11.346  1.00  0.00    -0.237 OA
ATOM     92  O   UNL     1      -8.245   3.307  -9.376  1.00  0.00    -0.744 OA
ENDBRANCH  86  89
ENDBRANCH  58  82
BRANCH  70  93
ATOM     93  C   UNL     1      -5.731  11.812 -14.127  1.00  0.00     0.023 A 
ATOM     94  C   UNL     1      -5.990  11.875 -12.741  1.00  0.00     0.012 A 
ATOM     95  C   UNL     1      -5.798  12.995 -14.881  1.00  0.00     0.148 A 
ATOM     96  C   UNL     1      -6.339  13.084 -12.130  1.00  0.00     0.002 A 
ATOM     97  C   UNL     1      -6.099  14.203 -14.263  1.00  0.00     0.091 A 
ATOM     98  F   UNL     1      -5.548  12.922 -16.197  1.00  0.00    -0.205 F 
ATOM     99  C   UNL     1      -6.381  14.251 -12.890  1.00  0.00     0.022 A 
BRANCH  97 100
ATOM    100  S   UNL     1      -6.053  15.751 -15.169  1.00  0.00     0.127 S 
ATOM    101  O   UNL     1      -7.473  16.039 -15.353  1.00  0.00    -0.237 OA
ATOM    102  O   UNL     1      -5.363  16.642 -14.235  1.00  0.00    -0.237 OA
ATOM    103  O   UNL     1      -5.304  15.477 -16.390  1.00  0.00    -0.744 OA
ENDBRANCH  97 100
ENDBRANCH  70  93
ENDBRANCH  44  45
ENDBRANCH  36  39
ENDBRANCH  34  35
ENDBRANCH  33  34
ENDBRANCH   1  33
TORSDOF 18
