REMARK SMILES Cc1ccccc1/C=C1\SC(=S)N(CCC(=O)N[C@@H](C)C(=O)NCCCNC(=O)c2ccc(-c3c4nc(c(-c5cccc(S(=O)(=O)[O-])c5F)c5ccc([nH]5)c(-c5cccc(S(=O)(=O)[O-])c5F)c5nc(c(-c6cccc(S(=O)(=O)[O-])c6F)c6ccc3[nH]6)C=C5)C=C4)cc2)C1=O
REMARK SMILES IDX 24 1 23 2 21 3 22 4 19 6 20 7 18 8 16 9 17 10 15 12 14 13
REMARK SMILES IDX 13 14 8 15 9 16 10 17 93 18 11 19 94 20 12 21 7 22 1 23 2 24
REMARK SMILES IDX 3 25 4 26 6 27 5 28 25 29 26 30 27 31 28 32 29 34 30 35
REMARK SMILES IDX 31 36 92 37 32 38 91 39 33 40 34 41 35 42 85 43 36 44 90 45
REMARK SMILES IDX 84 46 86 47 37 48 89 49 83 50 82 51 38 53 70 54 50 55 69 56
REMARK SMILES IDX 51 57 54 58 68 59 87 60 52 61 53 62 67 64 88 65 55 66 39 67
REMARK SMILES IDX 40 68 48 69 41 70 43 71 49 72 42 73 44 74 45 75 46 76 47 77
REMARK SMILES IDX 71 78 72 79 80 80 73 81 75 82 81 83 74 84 76 85 77 86 78 87
REMARK SMILES IDX 79 88 56 89 57 90 65 91 58 92 60 93 66 94 59 95 61 96 62 97
REMARK SMILES IDX 63 98 64 99
REMARK H PARENT 23 5 18 11 27 33 86 52 54 63
REMARK Flexibility Score: inf
ROOT
ATOM      1  C   UNL     1      -1.067   4.586   0.684  1.00  0.00     0.117 C 
ENDROOT
BRANCH   1   2
ATOM      2  N   UNL     1      -1.294   4.979  -0.702  1.00  0.00    -0.354 N 
ATOM      3  C   UNL     1      -0.457   5.358  -1.709  1.00  0.00     0.242 C 
ATOM      4  O   UNL     1      -0.987   5.722  -2.766  1.00  0.00    -0.273 OA
ATOM      5  H   UNL     1      -2.243   4.968  -0.963  1.00  0.00     0.163 HD
BRANCH   3   6
ATOM      6  C   UNL     1       1.089   5.402  -1.593  1.00  0.00     0.168 C 
ATOM      7  C   UNL     1       1.701   4.688  -0.415  1.00  0.00     0.041 C 
BRANCH   6   8
ATOM      8  N   UNL     1       1.674   6.738  -1.618  1.00  0.00    -0.345 N 
ATOM      9  C   UNL     1       2.995   6.999  -1.877  1.00  0.00     0.222 C 
ATOM     10  O   UNL     1       3.550   7.935  -1.304  1.00  0.00    -0.275 OA
ATOM     11  H   UNL     1       1.081   7.503  -1.437  1.00  0.00     0.164 HD
BRANCH   9  12
ATOM     12  C   UNL     1       3.730   6.160  -2.917  1.00  0.00     0.122 C 
BRANCH  12  13
ATOM     13  C   UNL     1       4.682   5.061  -2.401  1.00  0.00     0.137 C 
BRANCH  13  14
ATOM     14  N   UNL     1       4.124   3.687  -2.401  1.00  0.00    -0.292 N 
ATOM     15  C   UNL     1       2.506   1.330  -0.293  1.00  0.00     0.029 C 
ATOM     16  C   UNL     1       3.152   1.815  -1.363  1.00  0.00     0.081 C 
ATOM     17  S   UNL     1       2.880   1.503  -3.022  1.00  0.00    -0.054 SA
ATOM     18  C   UNL     1       4.099   2.955  -1.222  1.00  0.00     0.266 C 
ATOM     19  C   UNL     1       3.706   2.986  -3.517  1.00  0.00     0.148 C 
ATOM     20  O   UNL     1       4.694   3.218  -0.187  1.00  0.00    -0.268 OA
ATOM     21  S   UNL     1       3.908   3.391  -5.122  1.00  0.00    -0.052 S 
BRANCH  15  22
ATOM     22  C   UNL     1       1.389   0.373  -0.274  1.00  0.00    -0.021 A 
ATOM     23  C   UNL     1       2.992  -1.529   0.223  1.00  0.00     0.045 C 
ATOM     24  C   UNL     1       1.607  -0.982   0.025  1.00  0.00    -0.044 A 
ATOM     25  C   UNL     1       0.506  -1.853   0.096  1.00  0.00     0.004 A 
ATOM     26  C   UNL     1      -0.795  -1.382  -0.084  1.00  0.00     0.000 A 
ATOM     27  C   UNL     1       0.074   0.833  -0.467  1.00  0.00     0.008 A 
ATOM     28  C   UNL     1      -1.013  -0.038  -0.362  1.00  0.00     0.001 A 
ENDBRANCH  15  22
ENDBRANCH  13  14
ENDBRANCH  12  13
ENDBRANCH   9  12
ENDBRANCH   6   8
ENDBRANCH   3   6
ENDBRANCH   1   2
BRANCH   1  29
ATOM     29  C   UNL     1      -0.576   5.742   1.566  1.00  0.00     0.042 C 
BRANCH  29  30
ATOM     30  C   UNL     1      -1.627   6.458   2.395  1.00  0.00     0.118 C 
BRANCH  30  31
ATOM     31  N   UNL     1      -2.211   5.563   3.378  1.00  0.00    -0.352 N 
ATOM     32  C   UNL     1      -3.510   5.360   3.789  1.00  0.00     0.251 C 
ATOM     33  H   UNL     1      -1.553   4.994   3.839  1.00  0.00     0.163 HD
ATOM     34  O   UNL     1      -3.672   4.859   4.891  1.00  0.00    -0.269 OA
BRANCH  32  35
ATOM     35  C   UNL     1      -4.656   5.691   2.911  1.00  0.00     0.039 A 
ATOM     36  C   UNL     1      -5.970   5.670   3.406  1.00  0.00     0.014 A 
ATOM     37  C   UNL     1      -4.449   5.889   1.555  1.00  0.00     0.014 A 
ATOM     38  C   UNL     1      -7.050   5.751   2.520  1.00  0.00     0.010 A 
ATOM     39  C   UNL     1      -5.482   6.194   0.725  1.00  0.00     0.010 A 
ATOM     40  C   UNL     1      -6.779   5.960   1.174  1.00  0.00    -0.014 A 
BRANCH  40  41
ATOM     41  C   UNL     1      -7.695   5.781   0.060  1.00  0.00     0.031 A 
ATOM     42  C   UNL     1      -8.647   6.820  -0.319  1.00  0.00     0.074 A 
ATOM     43  C   UNL     1      -7.293   4.827  -0.812  1.00  0.00     0.049 A 
ATOM     44  N   UNL     1      -9.545   6.676  -1.228  1.00  0.00    -0.248 NA
ATOM     45  C   UNL     1      -8.657   8.123   0.323  1.00  0.00     0.031 C 
ATOM     46  C   UNL     1      -7.488   4.763  -2.248  1.00  0.00     0.029 A 
ATOM     47  N   UNL     1      -6.581   3.658  -0.512  1.00  0.00    -0.354 N 
ATOM     48  C   UNL     1     -10.023   7.936  -1.520  1.00  0.00     0.074 A 
ATOM     49  C   UNL     1      -9.557   8.761  -0.430  1.00  0.00     0.031 C 
ATOM     50  C   UNL     1      -7.153   3.529  -2.665  1.00  0.00     0.029 A 
ATOM     51  C   UNL     1      -6.944   2.715  -1.476  1.00  0.00     0.049 A 
ATOM     52  H   UNL     1      -5.949   3.527   0.231  1.00  0.00     0.167 HD
ATOM     53  C   UNL     1     -10.594   8.150  -2.742  1.00  0.00     0.034 A 
ATOM     54  C   UNL     1      -7.649   1.591  -1.142  1.00  0.00     0.034 A 
ATOM     55  C   UNL     1     -10.665   6.883  -3.504  1.00  0.00     0.049 A 
ATOM     56  C   UNL     1      -9.041   1.598  -1.752  1.00  0.00     0.074 A 
ATOM     57  C   UNL     1      -9.892   6.348  -4.524  1.00  0.00     0.029 A 
ATOM     58  N   UNL     1     -11.441   5.831  -3.024  1.00  0.00    -0.354 N 
ATOM     59  N   UNL     1      -9.524   2.568  -2.480  1.00  0.00    -0.248 NA
ATOM     60  C   UNL     1     -10.013   0.524  -1.566  1.00  0.00     0.031 C 
ATOM     61  C   UNL     1     -10.114   4.939  -4.555  1.00  0.00     0.029 A 
ATOM     62  C   UNL     1     -11.053   4.620  -3.588  1.00  0.00     0.049 A 
ATOM     63  H   UNL     1     -12.171   5.932  -2.370  1.00  0.00     0.167 HD
ATOM     64  C   UNL     1     -10.861   2.380  -2.682  1.00  0.00     0.074 A 
ATOM     65  C   UNL     1     -11.091   1.030  -2.192  1.00  0.00     0.031 C 
ATOM     66  C   UNL     1     -11.683   3.373  -3.144  1.00  0.00     0.034 A 
BRANCH  53  67
ATOM     67  C   UNL     1     -10.816   9.516  -3.397  1.00  0.00     0.023 A 
ATOM     68  C   UNL     1     -11.114   9.530  -4.779  1.00  0.00     0.012 A 
ATOM     69  C   UNL     1     -10.704  10.793  -2.794  1.00  0.00     0.148 A 
ATOM     70  C   UNL     1     -11.206  10.714  -5.525  1.00  0.00     0.002 A 
ATOM     71  C   UNL     1     -10.748  11.976  -3.541  1.00  0.00     0.091 A 
ATOM     72  F   UNL     1     -10.626  10.908  -1.472  1.00  0.00    -0.205 F 
ATOM     73  C   UNL     1     -10.995  11.940  -4.912  1.00  0.00     0.022 A 
BRANCH  71  74
ATOM     74  S   UNL     1     -10.451  13.598  -2.804  1.00  0.00     0.127 S 
ATOM     75  O   UNL     1      -9.395  14.138  -3.663  1.00  0.00    -0.237 OA
ATOM     76  O   UNL     1     -11.749  14.252  -2.952  1.00  0.00    -0.237 OA
ATOM     77  O   UNL     1     -10.031  13.355  -1.428  1.00  0.00    -0.744 OA
ENDBRANCH  71  74
ENDBRANCH  53  67
BRANCH  54  78
ATOM     78  C   UNL     1      -7.283   1.057   0.212  1.00  0.00     0.023 A 
ATOM     79  C   UNL     1      -5.971   0.539   0.355  1.00  0.00     0.012 A 
ATOM     80  C   UNL     1      -7.979   1.455   1.371  1.00  0.00     0.148 A 
ATOM     81  C   UNL     1      -5.321   0.552   1.592  1.00  0.00     0.002 A 
ATOM     82  C   UNL     1      -7.316   1.482   2.599  1.00  0.00     0.091 A 
ATOM     83  F   UNL     1      -9.233   1.903   1.239  1.00  0.00    -0.205 F 
ATOM     84  C   UNL     1      -5.979   1.063   2.705  1.00  0.00     0.022 A 
BRANCH  82  85
ATOM     85  S   UNL     1      -8.077   2.198   4.066  1.00  0.00     0.127 S 
ATOM     86  O   UNL     1      -8.591   1.008   4.738  1.00  0.00    -0.237 OA
ATOM     87  O   UNL     1      -6.944   2.837   4.732  1.00  0.00    -0.237 OA
ATOM     88  O   UNL     1      -9.070   3.131   3.554  1.00  0.00    -0.744 OA
ENDBRANCH  82  85
ENDBRANCH  54  78
BRANCH  66  89
ATOM     89  C   UNL     1     -13.193   3.278  -3.165  1.00  0.00     0.023 A 
ATOM     90  C   UNL     1     -13.911   2.503  -2.234  1.00  0.00     0.012 A 
ATOM     91  C   UNL     1     -13.947   4.115  -4.024  1.00  0.00     0.148 A 
ATOM     92  C   UNL     1     -15.309   2.508  -2.196  1.00  0.00     0.002 A 
ATOM     93  C   UNL     1     -15.329   4.208  -3.898  1.00  0.00     0.091 A 
ATOM     94  F   UNL     1     -13.325   4.823  -4.979  1.00  0.00    -0.205 F 
ATOM     95  C   UNL     1     -16.019   3.381  -3.009  1.00  0.00     0.022 A 
BRANCH  93  96
ATOM     96  S   UNL     1     -16.232   5.516  -4.739  1.00  0.00     0.127 S 
ATOM     97  O   UNL     1     -16.570   4.886  -6.012  1.00  0.00    -0.237 OA
ATOM     98  O   UNL     1     -17.373   5.740  -3.849  1.00  0.00    -0.237 OA
ATOM     99  O   UNL     1     -15.296   6.632  -4.797  1.00  0.00    -0.744 OA
ENDBRANCH  93  96
ENDBRANCH  66  89
ENDBRANCH  40  41
ENDBRANCH  32  35
ENDBRANCH  30  31
ENDBRANCH  29  30
ENDBRANCH   1  29
TORSDOF 18
