REMARK SMILES COC(=O)CNC(=O)N[C@H]1CCCCC[C@@H]1C(=O)NCCCNC(=O)c1ccc(-c2c3nc(c(-c4cccc(S(=O)(=O)[O-])c4F)c4ccc([nH]4)c(-c4cccc(S(=O)(=O)[O-])c4F)c4nc(c(-c5cccc(S(=O)(=O)[O-])c5F)c5ccc2[nH]5)C=C4)C=C3)cc1
REMARK SMILES IDX 20 1 19 2 17 3 18 4 16 6 10 7 9 8 6 9 7 10 8 12 5 14 3 15
REMARK SMILES IDX 4 16 2 17 1 18 11 19 15 21 14 22 13 23 12 24 21 26 22 27
REMARK SMILES IDX 23 28 24 29 25 31 26 32 27 33 88 34 28 35 87 36 29 37 30 38
REMARK SMILES IDX 31 39 81 40 32 41 86 42 80 43 82 44 33 45 85 46 79 47 78 48
REMARK SMILES IDX 34 50 66 51 46 52 65 53 47 54 50 55 64 56 83 57 48 58 49 59
REMARK SMILES IDX 63 61 84 62 51 63 35 64 36 65 44 66 37 67 39 68 45 69 38 70
REMARK SMILES IDX 40 71 41 72 42 73 43 74 67 75 68 76 76 77 69 78 71 79 77 80
REMARK SMILES IDX 70 81 72 82 73 83 74 84 75 85 52 86 53 87 61 88 54 89 56 90
REMARK SMILES IDX 62 91 55 92 57 93 58 94 59 95 60 96
REMARK H PARENT 19 5 6 11 9 13 23 30 82 49 50 60
REMARK Flexibility Score: 100.00
ROOT
ATOM      1  C   UNL     1       1.199   0.267  -0.590  1.00  0.00     0.117 C 
ENDROOT
BRANCH   1   2
ATOM      2  N   UNL     1       0.731  -0.166  -1.904  1.00  0.00    -0.356 N 
ATOM      3  C   UNL     1       0.003   0.523  -2.837  1.00  0.00     0.225 C 
ATOM      4  O   UNL     1      -0.029   0.083  -3.986  1.00  0.00    -0.275 OA
ATOM      5  H   UNL     1       0.975  -1.086  -2.156  1.00  0.00     0.163 HD
BRANCH   3   6
ATOM      6  C   UNL     1      -0.723   1.801  -2.414  1.00  0.00     0.101 C 
BRANCH   6   7
ATOM      7  C   UNL     1      -1.876   2.184  -3.400  1.00  0.00     0.096 C 
BRANCH   7   8
ATOM      8  N   UNL     1      -3.266   2.024  -2.877  1.00  0.00    -0.335 N 
ATOM      9  N   UNL     1      -4.059  -0.198  -2.635  1.00  0.00    -0.327 N 
ATOM     10  C   UNL     1      -4.221   1.108  -2.769  1.00  0.00     0.315 C 
ATOM     11  H   UNL     1      -4.891  -0.708  -2.762  1.00  0.00     0.166 HD
ATOM     12  O   UNL     1      -5.382   1.530  -2.763  1.00  0.00    -0.249 OA
ATOM     13  H   UNL     1      -3.574   2.874  -2.487  1.00  0.00     0.165 HD
BRANCH   9  14
ATOM     14  C   UNL     1      -2.918  -1.031  -2.340  1.00  0.00     0.240 C 
BRANCH  14  15
ATOM     15  C   UNL     1      -2.488  -1.040  -0.874  1.00  0.00     0.325 C 
ATOM     16  O   UNL     1      -1.716  -1.878  -0.422  1.00  0.00    -0.250 OA
BRANCH  15  17
ATOM     17  O   UNL     1      -2.977   0.027  -0.186  1.00  0.00    -0.468 OA
ATOM     18  C   UNL     1      -2.553   0.174   1.174  1.00  0.00     0.282 C 
ENDBRANCH  15  17
ENDBRANCH  14  15
ENDBRANCH   9  14
ENDBRANCH   7   8
BRANCH   7  19
ATOM     19  C   UNL     1      -1.799   3.672  -3.867  1.00  0.00     0.026 CG0
ATOM     20  G   UNL     1      -1.982   4.713  -2.740  1.00  0.00     0.000 G0
ENDBRANCH   7  19
ENDBRANCH   6   7
BRANCH   6  21
ATOM     21  C   UNL     1       0.396   2.865  -2.271  1.00  0.00     0.015 C 
BRANCH  21  22
ATOM     22  C   UNL     1       0.010   3.976  -1.309  1.00  0.00     0.001 C 
BRANCH  22  23
ATOM     23  C   UNL     1      -0.712   5.117  -2.001  1.00  0.00     0.000 C 
BRANCH  23  24
ATOM     24  C   UNL     1      -1.982   4.713  -2.740  1.00  0.00     0.002 CG0
ATOM     25  G   UNL     1      -1.799   3.672  -3.867  1.00  0.00     0.000 G0
ENDBRANCH  23  24
ENDBRANCH  22  23
ENDBRANCH  21  22
ENDBRANCH   6  21
ENDBRANCH   3   6
ENDBRANCH   1   2
BRANCH   1  26
ATOM     26  C   UNL     1       1.092  -0.769   0.517  1.00  0.00     0.042 C 
BRANCH  26  27
ATOM     27  C   UNL     1       1.664  -2.131   0.169  1.00  0.00     0.118 C 
BRANCH  27  28
ATOM     28  N   UNL     1       3.119  -2.110   0.104  1.00  0.00    -0.352 N 
ATOM     29  C   UNL     1       4.055  -2.297   1.094  1.00  0.00     0.251 C 
ATOM     30  H   UNL     1       3.491  -1.933  -0.790  1.00  0.00     0.163 HD
ATOM     31  O   UNL     1       5.222  -1.978   0.876  1.00  0.00    -0.269 OA
BRANCH  29  32
ATOM     32  C   UNL     1       3.676  -2.848   2.417  1.00  0.00     0.039 A 
ATOM     33  C   UNL     1       4.299  -2.346   3.565  1.00  0.00     0.014 A 
ATOM     34  C   UNL     1       2.755  -3.888   2.538  1.00  0.00     0.014 A 
ATOM     35  C   UNL     1       3.955  -2.848   4.825  1.00  0.00     0.010 A 
ATOM     36  C   UNL     1       2.333  -4.310   3.797  1.00  0.00     0.010 A 
ATOM     37  C   UNL     1       2.943  -3.812   4.956  1.00  0.00    -0.014 A 
BRANCH  37  38
ATOM     38  C   UNL     1       2.516  -4.330   6.285  1.00  0.00     0.031 A 
ATOM     39  C   UNL     1       2.616  -5.803   6.595  1.00  0.00     0.074 A 
ATOM     40  C   UNL     1       1.949  -3.495   7.179  1.00  0.00     0.049 A 
ATOM     41  N   UNL     1       2.210  -6.453   7.655  1.00  0.00    -0.248 NA
ATOM     42  C   UNL     1       3.219  -6.665   5.564  1.00  0.00     0.031 C 
ATOM     43  C   UNL     1       1.716  -2.065   6.972  1.00  0.00     0.029 A 
ATOM     44  N   UNL     1       1.435  -3.736   8.430  1.00  0.00    -0.354 N 
ATOM     45  C   UNL     1       2.461  -7.797   7.399  1.00  0.00     0.074 A 
ATOM     46  C   UNL     1       3.023  -7.874   6.069  1.00  0.00     0.031 C 
ATOM     47  C   UNL     1       1.114  -1.554   8.058  1.00  0.00     0.029 A 
ATOM     48  C   UNL     1       0.885  -2.624   9.024  1.00  0.00     0.049 A 
ATOM     49  H   UNL     1       1.459  -4.621   8.861  1.00  0.00     0.167 HD
ATOM     50  C   UNL     1       2.276  -8.868   8.208  1.00  0.00     0.034 A 
ATOM     51  C   UNL     1       0.259  -2.481  10.209  1.00  0.00     0.034 A 
ATOM     52  C   UNL     1       1.783  -8.782   9.556  1.00  0.00     0.049 A 
ATOM     53  C   UNL     1       0.116  -3.676  11.112  1.00  0.00     0.074 A 
ATOM     54  C   UNL     1       1.666  -9.792  10.494  1.00  0.00     0.029 A 
ATOM     55  N   UNL     1       1.325  -7.621  10.158  1.00  0.00    -0.354 N 
ATOM     56  N   UNL     1       0.514  -4.910  10.916  1.00  0.00    -0.248 NA
ATOM     57  C   UNL     1      -0.533  -3.455  12.413  1.00  0.00     0.031 C 
ATOM     58  C   UNL     1       1.120  -9.244  11.659  1.00  0.00     0.029 A 
ATOM     59  C   UNL     1       0.914  -7.890  11.451  1.00  0.00     0.049 A 
ATOM     60  H   UNL     1       1.297  -6.736   9.729  1.00  0.00     0.167 HD
ATOM     61  C   UNL     1       0.191  -5.604  12.076  1.00  0.00     0.074 A 
ATOM     62  C   UNL     1      -0.413  -4.647  12.981  1.00  0.00     0.031 C 
ATOM     63  C   UNL     1       0.362  -6.918  12.360  1.00  0.00     0.034 A 
BRANCH  50  64
ATOM     64  C   UNL     1       2.672 -10.223   7.680  1.00  0.00     0.023 A 
ATOM     65  C   UNL     1       4.038 -10.537   7.530  1.00  0.00     0.012 A 
ATOM     66  C   UNL     1       1.703 -11.204   7.390  1.00  0.00     0.148 A 
ATOM     67  C   UNL     1       4.434 -11.790   7.066  1.00  0.00     0.002 A 
ATOM     68  C   UNL     1       2.107 -12.466   6.970  1.00  0.00     0.091 A 
ATOM     69  F   UNL     1       0.408 -10.883   7.519  1.00  0.00    -0.205 F 
ATOM     70  C   UNL     1       3.470 -12.757   6.796  1.00  0.00     0.022 A 
BRANCH  68  71
ATOM     71  S   UNL     1       0.948 -13.806   6.672  1.00  0.00     0.127 S 
ATOM     72  O   UNL     1       0.976 -13.902   5.214  1.00  0.00    -0.237 OA
ATOM     73  O   UNL     1       1.582 -14.925   7.369  1.00  0.00    -0.237 OA
ATOM     74  O   UNL     1      -0.319 -13.374   7.247  1.00  0.00    -0.744 OA
ENDBRANCH  68  71
ENDBRANCH  50  64
BRANCH  51  75
ATOM     75  C   UNL     1      -0.219  -1.135  10.638  1.00  0.00     0.023 A 
ATOM     76  C   UNL     1       0.447  -0.470  11.686  1.00  0.00     0.012 A 
ATOM     77  C   UNL     1      -1.294  -0.495   9.992  1.00  0.00     0.148 A 
ATOM     78  C   UNL     1       0.033   0.796  12.102  1.00  0.00     0.002 A 
ATOM     79  C   UNL     1      -1.665   0.789  10.373  1.00  0.00     0.091 A 
ATOM     80  F   UNL     1      -1.924  -1.149   9.006  1.00  0.00    -0.205 F 
ATOM     81  C   UNL     1      -1.015   1.430  11.439  1.00  0.00     0.022 A 
BRANCH  79  82
ATOM     82  S   UNL     1      -2.907   1.734   9.482  1.00  0.00     0.127 S 
ATOM     83  O   UNL     1      -4.029   1.711  10.415  1.00  0.00    -0.237 OA
ATOM     84  O   UNL     1      -2.252   3.035   9.336  1.00  0.00    -0.237 OA
ATOM     85  O   UNL     1      -3.109   1.025   8.225  1.00  0.00    -0.744 OA
ENDBRANCH  79  82
ENDBRANCH  51  75
BRANCH  63  86
ATOM     86  C   UNL     1      -0.089  -7.407  13.711  1.00  0.00     0.023 A 
ATOM     87  C   UNL     1      -1.465  -7.551  13.975  1.00  0.00     0.012 A 
ATOM     88  C   UNL     1       0.848  -7.804  14.685  1.00  0.00     0.148 A 
ATOM     89  C   UNL     1      -1.903  -8.057  15.198  1.00  0.00     0.002 A 
ATOM     90  C   UNL     1       0.406  -8.351  15.884  1.00  0.00     0.091 A 
ATOM     91  F   UNL     1       2.153  -7.643  14.421  1.00  0.00    -0.205 F 
ATOM     92  C   UNL     1      -0.969  -8.468  16.146  1.00  0.00     0.022 A 
BRANCH  90  93
ATOM     93  S   UNL     1       1.534  -8.994  17.125  1.00  0.00     0.127 S 
ATOM     94  O   UNL     1       1.425  -7.986  18.177  1.00  0.00    -0.237 OA
ATOM     95  O   UNL     1       0.931 -10.287  17.453  1.00  0.00    -0.237 OA
ATOM     96  O   UNL     1       2.836  -9.082  16.477  1.00  0.00    -0.744 OA
ENDBRANCH  90  93
ENDBRANCH  63  86
ENDBRANCH  37  38
ENDBRANCH  29  32
ENDBRANCH  27  28
ENDBRANCH  26  27
ENDBRANCH   1  26
TORSDOF 17
