REMARK SMILES C=CC[N@@H+](CC(=O)NCCCNC(=O)c1ccc(-c2c3nc(c(-c4cccc(S(=O)(=O)[O-])c4F)c4ccc([nH]4)c(-c4cccc(S(=O)(=O)[O-])c4F)c4nc(c(-c5cccc(S(=O)(=O)[O-])c5F)c5ccc2[nH]5)C=C4)C=C3)cc1)C(C)C
REMARK SMILES IDX 10 1 9 2 8 3 6 4 7 5 5 7 4 8 3 10 2 11 1 12 78 13 79 14
REMARK SMILES IDX 80 15 11 16 12 17 13 18 14 20 15 21 16 22 77 23 17 24 76 25
REMARK SMILES IDX 18 26 19 27 20 28 70 29 21 30 75 31 69 32 71 33 22 34 74 35
REMARK SMILES IDX 68 36 67 37 23 39 55 40 35 41 54 42 36 43 39 44 53 45 72 46
REMARK SMILES IDX 37 47 38 48 52 50 73 51 40 52 24 53 25 54 33 55 26 56 28 57
REMARK SMILES IDX 34 58 27 59 29 60 30 61 31 62 32 63 56 64 57 65 65 66 58 67
REMARK SMILES IDX 60 68 66 69 59 70 61 71 62 72 63 73 64 74 41 75 42 76 50 77
REMARK SMILES IDX 43 78 45 79 51 80 44 81 46 82 47 83 48 84 49 85
REMARK H PARENT 8 6 4 9 12 19 71 38 39 49
REMARK Flexibility Score: inf
ROOT
ATOM      1  C   UNL     1      -1.861  -1.771  -0.708  1.00  0.00     0.042 C 
ENDROOT
BRANCH   1   2
ATOM      2  C   UNL     1      -3.036  -0.863  -1.085  1.00  0.00     0.118 C 
BRANCH   2   3
ATOM      3  N   UNL     1      -3.665  -0.251   0.074  1.00  0.00    -0.351 N 
ATOM      4  C   UNL     1      -3.680   1.034   0.533  1.00  0.00     0.275 C 
ATOM      5  O   UNL     1      -4.429   1.260   1.493  1.00  0.00    -0.269 OA
ATOM      6  H   UNL     1      -4.177  -0.881   0.631  1.00  0.00     0.163 HD
BRANCH   4   7
ATOM      7  C   UNL     1      -2.885   2.180  -0.110  1.00  0.00     0.363 C 
BRANCH   7   8
ATOM      8  N   UNL     1      -1.435   2.291   0.211  1.00  0.00    -0.322 N 
ATOM      9  H   UNL     1      -1.117   3.239   0.011  1.00  0.00     0.349 HD
BRANCH   8  10
ATOM     10  C   UNL     1      -0.634   1.497  -0.707  1.00  0.00     0.291 C 
BRANCH  10  11
ATOM     11  C   UNL     1       0.853   1.634  -0.719  1.00  0.00     0.025 C 
ATOM     12  C   UNL     1       1.684   0.602  -0.508  1.00  0.00     0.010 C 
ENDBRANCH  10  11
ENDBRANCH   8  10
BRANCH   8  13
ATOM     13  C   UNL     1      -1.114   2.303   1.654  1.00  0.00     0.178 C 
ATOM     14  C   UNL     1      -1.278   0.984   2.424  1.00  0.00     0.075 C 
ATOM     15  C   UNL     1       0.288   2.860   1.959  1.00  0.00     0.075 C 
ENDBRANCH   8  13
ENDBRANCH   7   8
ENDBRANCH   4   7
ENDBRANCH   2   3
ENDBRANCH   1   2
BRANCH   1  16
ATOM     16  C   UNL     1      -2.233  -3.097  -0.067  1.00  0.00     0.118 C 
BRANCH  16  17
ATOM     17  N   UNL     1      -2.650  -4.092  -1.036  1.00  0.00    -0.352 N 
ATOM     18  C   UNL     1      -1.991  -5.178  -1.562  1.00  0.00     0.251 C 
ATOM     19  H   UNL     1      -3.566  -3.969  -1.376  1.00  0.00     0.163 HD
ATOM     20  O   UNL     1      -2.506  -5.756  -2.519  1.00  0.00    -0.269 OA
BRANCH  18  21
ATOM     21  C   UNL     1      -0.686  -5.661  -1.035  1.00  0.00     0.039 A 
ATOM     22  C   UNL     1       0.220  -6.234  -1.938  1.00  0.00     0.014 A 
ATOM     23  C   UNL     1      -0.361  -5.644   0.323  1.00  0.00     0.014 A 
ATOM     24  C   UNL     1       1.444  -6.745  -1.489  1.00  0.00     0.010 A 
ATOM     25  C   UNL     1       0.900  -6.060   0.756  1.00  0.00     0.010 A 
ATOM     26  C   UNL     1       1.810  -6.642  -0.138  1.00  0.00    -0.014 A 
BRANCH  26  27
ATOM     27  C   UNL     1       3.122  -7.153   0.348  1.00  0.00     0.031 A 
ATOM     28  C   UNL     1       3.189  -8.241   1.391  1.00  0.00     0.074 A 
ATOM     29  C   UNL     1       4.265  -6.588  -0.091  1.00  0.00     0.049 A 
ATOM     30  N   UNL     1       4.241  -8.791   1.944  1.00  0.00    -0.248 NA
ATOM     31  C   UNL     1       1.910  -8.757   1.904  1.00  0.00     0.031 C 
ATOM     32  C   UNL     1       4.345  -5.462  -1.022  1.00  0.00     0.029 A 
ATOM     33  N   UNL     1       5.576  -6.862   0.211  1.00  0.00    -0.354 N 
ATOM     34  C   UNL     1       3.753  -9.677   2.898  1.00  0.00     0.074 A 
ATOM     35  C   UNL     1       2.311  -9.568   2.872  1.00  0.00     0.031 C 
ATOM     36  C   UNL     1       5.633  -5.141  -1.214  1.00  0.00     0.029 A 
ATOM     37  C   UNL     1       6.472  -6.019  -0.403  1.00  0.00     0.049 A 
ATOM     38  H   UNL     1       5.849  -7.594   0.811  1.00  0.00     0.167 HD
ATOM     39  C   UNL     1       4.436 -10.526   3.704  1.00  0.00     0.034 A 
ATOM     40  C   UNL     1       7.816  -5.949  -0.321  1.00  0.00     0.034 A 
ATOM     41  C   UNL     1       5.866 -10.676   3.691  1.00  0.00     0.049 A 
ATOM     42  C   UNL     1       8.556  -6.952   0.519  1.00  0.00     0.074 A 
ATOM     43  C   UNL     1       6.641 -11.598   4.372  1.00  0.00     0.029 A 
ATOM     44  N   UNL     1       6.740  -9.874   2.974  1.00  0.00    -0.354 N 
ATOM     45  N   UNL     1       8.075  -7.916   1.266  1.00  0.00    -0.248 NA
ATOM     46  C   UNL     1      10.025  -6.887   0.496  1.00  0.00     0.031 C 
ATOM     47  C   UNL     1       7.986 -11.334   4.090  1.00  0.00     0.029 A 
ATOM     48  C   UNL     1       8.047 -10.265   3.211  1.00  0.00     0.049 A 
ATOM     49  H   UNL     1       6.471  -9.134   2.383  1.00  0.00     0.167 HD
ATOM     50  C   UNL     1       9.178  -8.586   1.783  1.00  0.00     0.074 A 
ATOM     51  C   UNL     1      10.353  -7.934   1.242  1.00  0.00     0.031 C 
ATOM     52  C   UNL     1       9.212  -9.636   2.640  1.00  0.00     0.034 A 
BRANCH  39  53
ATOM     53  C   UNL     1       3.635 -11.397   4.641  1.00  0.00     0.023 A 
ATOM     54  C   UNL     1       2.847 -12.445   4.121  1.00  0.00     0.012 A 
ATOM     55  C   UNL     1       3.694 -11.206   6.035  1.00  0.00     0.148 A 
ATOM     56  C   UNL     1       2.094 -13.257   4.968  1.00  0.00     0.002 A 
ATOM     57  C   UNL     1       2.977 -12.050   6.877  1.00  0.00     0.091 A 
ATOM     58  F   UNL     1       4.430 -10.193   6.514  1.00  0.00    -0.205 F 
ATOM     59  C   UNL     1       2.166 -13.066   6.345  1.00  0.00     0.022 A 
BRANCH  57  60
ATOM     60  S   UNL     1       3.073 -11.934   8.667  1.00  0.00     0.127 S 
ATOM     61  O   UNL     1       1.795 -11.300   8.990  1.00  0.00    -0.237 OA
ATOM     62  O   UNL     1       3.173 -13.339   9.065  1.00  0.00    -0.237 OA
ATOM     63  O   UNL     1       4.260 -11.140   8.951  1.00  0.00    -0.744 OA
ENDBRANCH  57  60
ENDBRANCH  39  53
BRANCH  40  64
ATOM     64  C   UNL     1       8.541  -4.918  -1.115  1.00  0.00     0.023 A 
ATOM     65  C   UNL     1       9.283  -5.305  -2.248  1.00  0.00     0.012 A 
ATOM     66  C   UNL     1       8.437  -3.550  -0.795  1.00  0.00     0.148 A 
ATOM     67  C   UNL     1       9.923  -4.350  -3.038  1.00  0.00     0.002 A 
ATOM     68  C   UNL     1       9.028  -2.600  -1.619  1.00  0.00     0.091 A 
ATOM     69  F   UNL     1       7.734  -3.206   0.293  1.00  0.00    -0.205 F 
ATOM     70  C   UNL     1       9.785  -2.998  -2.732  1.00  0.00     0.022 A 
BRANCH  68  71
ATOM     71  S   UNL     1       8.778  -0.836  -1.387  1.00  0.00     0.127 S 
ATOM     72  O   UNL     1      10.116  -0.395  -0.995  1.00  0.00    -0.237 OA
ATOM     73  O   UNL     1       8.360  -0.415  -2.726  1.00  0.00    -0.237 OA
ATOM     74  O   UNL     1       7.748  -0.712  -0.369  1.00  0.00    -0.744 OA
ENDBRANCH  68  71
ENDBRANCH  40  64
BRANCH  52  75
ATOM     75  C   UNL     1      10.564 -10.168   3.043  1.00  0.00     0.023 A 
ATOM     76  C   UNL     1      11.376  -9.421   3.920  1.00  0.00     0.012 A 
ATOM     77  C   UNL     1      10.997 -11.438   2.614  1.00  0.00     0.148 A 
ATOM     78  C   UNL     1      12.612  -9.916   4.337  1.00  0.00     0.002 A 
ATOM     79  C   UNL     1      12.208 -11.945   3.072  1.00  0.00     0.091 A 
ATOM     80  F   UNL     1      10.220 -12.126   1.765  1.00  0.00    -0.205 F 
ATOM     81  C   UNL     1      13.021 -11.181   3.924  1.00  0.00     0.022 A 
BRANCH  79  82
ATOM     82  S   UNL     1      12.770 -13.603   2.668  1.00  0.00     0.127 S 
ATOM     83  O   UNL     1      13.838 -13.330   1.708  1.00  0.00    -0.237 OA
ATOM     84  O   UNL     1      13.229 -14.102   3.966  1.00  0.00    -0.237 OA
ATOM     85  O   UNL     1      11.608 -14.300   2.132  1.00  0.00    -0.744 OA
ENDBRANCH  79  82
ENDBRANCH  52  75
ENDBRANCH  26  27
ENDBRANCH  18  21
ENDBRANCH  16  17
ENDBRANCH   1  16
TORSDOF 17
