REMARK SMILES O=C(NCCCNC(=O)c1ccc(-c2c3nc(c(-c4cccc(S(=O)(=O)[O-])c4F)c4ccc([nH]4)c(-c4cccc(S(=O)(=O)[O-])c4F)c4nc(c(-c5cccc(S(=O)(=O)[O-])c5F)c5ccc2[nH]5)C=C4)C=C3)cc1)c1ccc(/[NH+]=C2\S[C@@H](Cc3ccc(F)cc3)C(=O)N2Cc2ccccc2)cc1
REMARK SMILES IDX 5 1 4 2 3 3 1 4 2 5 73 7 74 8 100 9 75 10 99 11 76 12 77 13
REMARK SMILES IDX 78 14 79 16 91 17 80 18 89 19 90 20 92 21 93 22 94 23 98 24
REMARK SMILES IDX 95 25 97 26 96 27 81 28 82 29 83 30 88 31 84 32 87 33 85 34
REMARK SMILES IDX 86 35 6 36 7 37 8 38 9 40 10 41 11 42 72 43 12 44 71 45
REMARK SMILES IDX 13 46 14 47 15 48 65 49 16 50 70 51 64 52 66 53 17 54 69 55
REMARK SMILES IDX 63 56 62 57 18 59 50 60 30 61 49 62 31 63 34 64 48 65 67 66
REMARK SMILES IDX 32 67 33 68 47 70 68 71 35 72 19 73 20 74 28 75 21 76 23 77
REMARK SMILES IDX 29 78 22 79 24 80 25 81 26 82 27 83 51 84 52 85 60 86 53 87
REMARK SMILES IDX 55 88 61 89 54 90 56 91 57 92 58 93 59 94 36 95 37 96 45 97
REMARK SMILES IDX 38 98 40 99 46 100 39 101 41 102 42 103 43 104 44 105
REMARK H PARENT 3 6 77 15 7 39 66 58 34 69
REMARK Flexibility Score: inf
ROOT
ATOM      1  C   UNL     1       5.002   1.919   1.287  1.00  0.00     0.042 C 
ENDROOT
BRANCH   1   2
ATOM      2  C   UNL     1       4.564   0.466   1.236  1.00  0.00     0.118 C 
BRANCH   2   3
ATOM      3  N   UNL     1       3.115   0.319   1.154  1.00  0.00    -0.352 N 
ATOM      4  O   UNL     1       1.108   0.031   0.162  1.00  0.00    -0.269 OA
ATOM      5  C   UNL     1       2.334  -0.075   0.100  1.00  0.00     0.251 C 
ATOM      6  H   UNL     1       2.626   0.537   1.980  1.00  0.00     0.163 HD
BRANCH   5   7
ATOM      7  C   UNL     1       2.955  -0.644  -1.110  1.00  0.00     0.040 A 
ATOM      8  C   UNL     1       3.928  -1.637  -0.994  1.00  0.00     0.018 A 
ATOM      9  C   UNL     1       2.527  -0.223  -2.374  1.00  0.00     0.018 A 
ATOM     10  C   UNL     1       4.545  -2.127  -2.136  1.00  0.00     0.052 A 
ATOM     11  C   UNL     1       3.115  -0.763  -3.523  1.00  0.00     0.052 A 
ATOM     12  C   UNL     1       4.144  -1.699  -3.406  1.00  0.00     0.125 A 
BRANCH  12  13
ATOM     13  N   UNL     1       4.688  -2.366  -4.501  1.00  0.00    -0.235 N 
ATOM     14  C   UNL     1       5.584  -1.851  -5.269  1.00  0.00     0.320 C 
ATOM     15  H   UNL     1       4.371  -3.277  -4.698  1.00  0.00     0.313 HD
ATOM     16  S   UNL     1       6.166  -0.214  -5.288  1.00  0.00    -0.022 SA
ATOM     17  N   UNL     1       6.226  -2.613  -6.206  1.00  0.00    -0.186 N 
ATOM     18  C   UNL     1       6.948  -0.433  -6.922  1.00  0.00     0.178 C 
ATOM     19  C   UNL     1       7.049  -1.946  -7.091  1.00  0.00     0.324 C 
ATOM     20  O   UNL     1       7.696  -2.501  -7.974  1.00  0.00    -0.245 OA
BRANCH  17  21
ATOM     21  C   UNL     1       6.026  -4.057  -6.307  1.00  0.00     0.283 C 
BRANCH  21  22
ATOM     22  C   UNL     1       6.779  -4.884  -5.276  1.00  0.00    -0.006 A 
ATOM     23  C   UNL     1       7.911  -5.628  -5.629  1.00  0.00     0.008 A 
ATOM     24  C   UNL     1       6.321  -4.978  -3.953  1.00  0.00     0.008 A 
ATOM     25  C   UNL     1       8.559  -6.434  -4.684  1.00  0.00     0.000 A 
ATOM     26  C   UNL     1       6.989  -5.745  -2.997  1.00  0.00     0.000 A 
ATOM     27  C   UNL     1       8.107  -6.482  -3.366  1.00  0.00     0.000 A 
ENDBRANCH  21  22
ENDBRANCH  17  21
BRANCH  18  28
ATOM     28  C   UNL     1       8.279   0.315  -7.011  1.00  0.00     0.063 C 
BRANCH  28  29
ATOM     29  C   UNL     1       8.908   0.282  -8.389  1.00  0.00    -0.046 A 
ATOM     30  C   UNL     1      10.153  -0.339  -8.574  1.00  0.00     0.007 A 
ATOM     31  C   UNL     1       8.264   0.858  -9.497  1.00  0.00     0.007 A 
ATOM     32  C   UNL     1      10.728  -0.413  -9.843  1.00  0.00     0.039 A 
ATOM     33  C   UNL     1       8.839   0.778 -10.767  1.00  0.00     0.039 A 
ATOM     34  C   UNL     1      10.061   0.138 -10.929  1.00  0.00     0.123 A 
ATOM     35  F   UNL     1      10.605   0.050 -12.151  1.00  0.00    -0.207 F 
ENDBRANCH  28  29
ENDBRANCH  18  28
ENDBRANCH  12  13
ENDBRANCH   5   7
ENDBRANCH   2   3
ENDBRANCH   1   2
BRANCH   1  36
ATOM     36  C   UNL     1       4.497   2.674   2.506  1.00  0.00     0.118 C 
BRANCH  36  37
ATOM     37  N   UNL     1       4.958   2.095   3.762  1.00  0.00    -0.352 N 
ATOM     38  C   UNL     1       5.744   2.636   4.750  1.00  0.00     0.251 C 
ATOM     39  H   UNL     1       4.660   1.172   3.928  1.00  0.00     0.163 HD
ATOM     40  O   UNL     1       6.164   1.913   5.651  1.00  0.00    -0.269 OA
BRANCH  38  41
ATOM     41  C   UNL     1       6.100   4.071   4.721  1.00  0.00     0.039 A 
ATOM     42  C   UNL     1       7.401   4.454   5.060  1.00  0.00     0.014 A 
ATOM     43  C   UNL     1       5.157   5.038   4.368  1.00  0.00     0.014 A 
ATOM     44  C   UNL     1       7.771   5.798   4.975  1.00  0.00     0.010 A 
ATOM     45  C   UNL     1       5.554   6.358   4.187  1.00  0.00     0.010 A 
ATOM     46  C   UNL     1       6.861   6.757   4.501  1.00  0.00    -0.014 A 
BRANCH  46  47
ATOM     47  C   UNL     1       7.247   8.181   4.328  1.00  0.00     0.031 A 
ATOM     48  C   UNL     1       6.524   9.257   5.094  1.00  0.00     0.074 A 
ATOM     49  C   UNL     1       8.180   8.514   3.414  1.00  0.00     0.049 A 
ATOM     50  N   UNL     1       6.658  10.555   5.018  1.00  0.00    -0.248 NA
ATOM     51  C   UNL     1       5.491   8.817   6.047  1.00  0.00     0.031 C 
ATOM     52  C   UNL     1       8.900   7.572   2.555  1.00  0.00     0.029 A 
ATOM     53  N   UNL     1       8.662   9.742   3.035  1.00  0.00    -0.354 N 
ATOM     54  C   UNL     1       5.704  11.087   5.878  1.00  0.00     0.074 A 
ATOM     55  C   UNL     1       4.971   9.972   6.436  1.00  0.00     0.031 C 
ATOM     56  C   UNL     1       9.735   8.254   1.755  1.00  0.00     0.029 A 
ATOM     57  C   UNL     1       9.584   9.682   2.016  1.00  0.00     0.049 A 
ATOM     58  H   UNL     1       8.375  10.587   3.452  1.00  0.00     0.167 HD
ATOM     59  C   UNL     1       5.477  12.382   6.199  1.00  0.00     0.034 A 
ATOM     60  C   UNL     1      10.226  10.666   1.356  1.00  0.00     0.034 A 
ATOM     61  C   UNL     1       6.234  13.485   5.674  1.00  0.00     0.049 A 
ATOM     62  C   UNL     1       9.977  12.096   1.752  1.00  0.00     0.074 A 
ATOM     63  C   UNL     1       6.142  14.826   6.002  1.00  0.00     0.029 A 
ATOM     64  N   UNL     1       7.217  13.378   4.702  1.00  0.00    -0.354 N 
ATOM     65  N   UNL     1       9.179  12.569   2.679  1.00  0.00    -0.248 NA
ATOM     66  C   UNL     1      10.742  13.127   1.036  1.00  0.00     0.031 C 
ATOM     67  C   UNL     1       7.048  15.534   5.205  1.00  0.00     0.029 A 
ATOM     68  C   UNL     1       7.731  14.630   4.408  1.00  0.00     0.049 A 
ATOM     69  H   UNL     1       7.508  12.536   4.283  1.00  0.00     0.167 HD
ATOM     70  C   UNL     1       9.374  13.946   2.684  1.00  0.00     0.074 A 
ATOM     71  C   UNL     1      10.380  14.228   1.680  1.00  0.00     0.031 C 
ATOM     72  C   UNL     1       8.768  14.892   3.442  1.00  0.00     0.034 A 
BRANCH  59  73
ATOM     73  C   UNL     1       4.388  12.673   7.202  1.00  0.00     0.023 A 
ATOM     74  C   UNL     1       4.566  12.306   8.552  1.00  0.00     0.012 A 
ATOM     75  C   UNL     1       3.212  13.347   6.820  1.00  0.00     0.148 A 
ATOM     76  C   UNL     1       3.574  12.565   9.496  1.00  0.00     0.002 A 
ATOM     77  C   UNL     1       2.249  13.647   7.777  1.00  0.00     0.091 A 
ATOM     78  F   UNL     1       3.050  13.671   5.529  1.00  0.00    -0.205 F 
ATOM     79  C   UNL     1       2.422  13.244   9.111  1.00  0.00     0.022 A 
BRANCH  77  80
ATOM     80  S   UNL     1       0.769  14.591   7.399  1.00  0.00     0.127 S 
ATOM     81  O   UNL     1      -0.269  13.566   7.503  1.00  0.00    -0.237 OA
ATOM     82  O   UNL     1       0.755  15.584   8.474  1.00  0.00    -0.237 OA
ATOM     83  O   UNL     1       0.973  15.142   6.067  1.00  0.00    -0.744 OA
ENDBRANCH  77  80
ENDBRANCH  59  73
BRANCH  60  84
ATOM     84  C   UNL     1      11.216  10.327   0.294  1.00  0.00     0.023 A 
ATOM     85  C   UNL     1      12.587  10.549   0.531  1.00  0.00     0.012 A 
ATOM     86  C   UNL     1      10.813   9.763  -0.932  1.00  0.00     0.148 A 
ATOM     87  C   UNL     1      13.536  10.248  -0.446  1.00  0.00     0.002 A 
ATOM     88  C   UNL     1      11.769   9.413  -1.879  1.00  0.00     0.091 A 
ATOM     89  F   UNL     1       9.504   9.566  -1.140  1.00  0.00    -0.205 F 
ATOM     90  C   UNL     1      13.128   9.671  -1.646  1.00  0.00     0.022 A 
BRANCH  88  91
ATOM     91  S   UNL     1      11.352   8.547  -3.396  1.00  0.00     0.127 S 
ATOM     92  O   UNL     1      11.640   9.560  -4.408  1.00  0.00    -0.237 OA
ATOM     93  O   UNL     1      12.286   7.421  -3.366  1.00  0.00    -0.237 OA
ATOM     94  O   UNL     1       9.951   8.168  -3.264  1.00  0.00    -0.744 OA
ENDBRANCH  88  91
ENDBRANCH  60  84
BRANCH  72  95
ATOM     95  C   UNL     1       9.200  16.323   3.255  1.00  0.00     0.023 A 
ATOM     96  C   UNL     1       8.841  17.021   2.085  1.00  0.00     0.012 A 
ATOM     97  C   UNL     1       9.899  16.998   4.276  1.00  0.00     0.148 A 
ATOM     98  C   UNL     1       9.201  18.358   1.920  1.00  0.00     0.002 A 
ATOM     99  C   UNL     1      10.208  18.344   4.127  1.00  0.00     0.091 A 
ATOM    100  F   UNL     1      10.247  16.311   5.374  1.00  0.00    -0.205 F 
ATOM    101  C   UNL     1       9.873  19.022   2.944  1.00  0.00     0.022 A 
BRANCH  99 102
ATOM    102  S   UNL     1      10.982  19.306   5.432  1.00  0.00     0.127 S 
ATOM    103  O   UNL     1      12.320  19.525   4.887  1.00  0.00    -0.237 OA
ATOM    104  O   UNL     1      10.138  20.501   5.477  1.00  0.00    -0.237 OA
ATOM    105  O   UNL     1      10.924  18.479   6.630  1.00  0.00    -0.744 OA
ENDBRANCH  99 102
ENDBRANCH  72  95
ENDBRANCH  46  47
ENDBRANCH  38  41
ENDBRANCH  36  37
ENDBRANCH   1  36
TORSDOF 18
