REMARK SMILES CC[NH2+][C@H](C)c1cccn1Cc1ccc(C(=O)NCCCNC(=O)c2ccc(-c3c4nc(c(-c5cccc(S(=O)(=O)[O-])c5F)c5ccc([nH]5)c(-c5cccc(S(=O)(=O)[O-])c5F)c5nc(c(-c6cccc(S(=O)(=O)[O-])c6F)c6ccc3[nH]6)C=C5)C=C4)cc2)cc1
REMARK SMILES IDX 19 1 18 2 16 3 17 4 15 6 12 7 13 8 89 9 14 10 88 11 11 12
REMARK SMILES IDX 10 13 6 14 7 15 8 16 9 17 4 18 5 19 3 20 2 23 1 24 20 25
REMARK SMILES IDX 21 26 22 27 23 28 24 30 25 31 26 32 87 33 27 34 86 35 28 36
REMARK SMILES IDX 29 37 30 38 80 39 31 40 85 41 79 42 81 43 32 44 84 45 78 46
REMARK SMILES IDX 77 47 33 49 65 50 45 51 64 52 46 53 49 54 63 55 82 56 47 57
REMARK SMILES IDX 48 58 62 60 83 61 50 62 34 63 35 64 43 65 36 66 38 67 44 68
REMARK SMILES IDX 37 69 39 70 40 71 41 72 42 73 66 74 67 75 75 76 68 77 70 78
REMARK SMILES IDX 76 79 69 80 71 81 72 82 73 83 74 84 51 85 52 86 60 87 53 88
REMARK SMILES IDX 55 89 61 90 54 91 56 92 57 93 58 94 59 95
REMARK H PARENT 18 5 3 21 3 22 22 29 81 48 49 59
REMARK Flexibility Score: inf
ROOT
ATOM      1  C   UNL     1       7.442   0.994   9.156  1.00  0.00     0.118 C 
ENDROOT
BRANCH   1   2
ATOM      2  N   UNL     1       7.842  -0.231   8.491  1.00  0.00    -0.352 N 
ATOM      3  C   UNL     1       7.130  -1.187   7.808  1.00  0.00     0.251 C 
ATOM      4  O   UNL     1       7.768  -2.073   7.239  1.00  0.00    -0.269 OA
ATOM      5  H   UNL     1       8.809  -0.412   8.537  1.00  0.00     0.163 HD
BRANCH   3   6
ATOM      6  C   UNL     1       5.642  -1.172   7.664  1.00  0.00     0.039 A 
ATOM      7  C   UNL     1       2.861  -1.063   7.077  1.00  0.00    -0.028 A 
ATOM      8  C   UNL     1       3.712  -1.917   6.371  1.00  0.00     0.006 A 
ATOM      9  C   UNL     1       3.395  -0.398   8.183  1.00  0.00     0.006 A 
ATOM     10  C   UNL     1       5.087  -1.954   6.643  1.00  0.00     0.014 A 
ATOM     11  C   UNL     1       4.760  -0.461   8.475  1.00  0.00     0.014 A 
BRANCH   7  12
ATOM     12  C   UNL     1       1.419  -0.859   6.653  1.00  0.00     0.157 C 
BRANCH  12  13
ATOM     13  N   UNL     1       1.174   0.490   6.117  1.00  0.00    -0.342 N 
ATOM     14  C   UNL     1       0.850   0.871   4.816  1.00  0.00     0.076 A 
ATOM     15  C   UNL     1       0.754   2.260   4.830  1.00  0.00     0.029 A 
ATOM     16  C   UNL     1       0.926   2.719   6.149  1.00  0.00     0.020 A 
ATOM     17  C   UNL     1       1.130   1.610   6.926  1.00  0.00     0.086 A 
BRANCH  14  18
ATOM     18  C   UNL     1       0.542  -0.073   3.674  1.00  0.00     0.227 C 
ATOM     19  C   UNL     1       0.241   0.635   2.341  1.00  0.00     0.082 C 
BRANCH  18  20
ATOM     20  N   UNL     1       1.516  -1.149   3.471  1.00  0.00    -0.339 N 
ATOM     21  H   UNL     1       1.506  -1.743   4.300  1.00  0.00     0.346 HD
ATOM     22  H   UNL     1       1.229  -1.630   2.618  1.00  0.00     0.346 HD
BRANCH  20  23
ATOM     23  C   UNL     1       2.894  -0.716   3.244  1.00  0.00     0.257 C 
ATOM     24  C   UNL     1       3.740  -1.929   2.868  1.00  0.00     0.071 C 
ENDBRANCH  20  23
ENDBRANCH  18  20
ENDBRANCH  14  18
ENDBRANCH  12  13
ENDBRANCH   7  12
ENDBRANCH   3   6
ENDBRANCH   1   2
BRANCH   1  25
ATOM     25  C   UNL     1       7.115   0.753  10.635  1.00  0.00     0.042 C 
BRANCH  25  26
ATOM     26  C   UNL     1       8.327   0.963  11.532  1.00  0.00     0.118 C 
BRANCH  26  27
ATOM     27  N   UNL     1       8.630   2.384  11.633  1.00  0.00    -0.352 N 
ATOM     28  C   UNL     1       9.609   3.033  12.342  1.00  0.00     0.251 C 
ATOM     29  H   UNL     1       8.040   2.972  11.109  1.00  0.00     0.163 HD
ATOM     30  O   UNL     1       9.481   4.234  12.548  1.00  0.00    -0.269 OA
BRANCH  28  31
ATOM     31  C   UNL     1      10.786   2.314  12.871  1.00  0.00     0.039 A 
ATOM     32  C   UNL     1      11.305   2.736  14.103  1.00  0.00     0.014 A 
ATOM     33  C   UNL     1      11.422   1.300  12.150  1.00  0.00     0.014 A 
ATOM     34  C   UNL     1      12.414   2.096  14.644  1.00  0.00     0.010 A 
ATOM     35  C   UNL     1      12.513   0.641  12.699  1.00  0.00     0.010 A 
ATOM     36  C   UNL     1      12.994   1.026  13.953  1.00  0.00    -0.014 A 
BRANCH  36  37
ATOM     37  C   UNL     1      14.009   0.191  14.631  1.00  0.00     0.031 A 
ATOM     38  C   UNL     1      13.341  -0.811  15.612  1.00  0.00     0.074 A 
ATOM     39  C   UNL     1      15.313   0.436  14.287  1.00  0.00     0.049 A 
ATOM     40  N   UNL     1      13.771  -1.306  16.736  1.00  0.00    -0.248 NA
ATOM     41  C   UNL     1      11.934  -1.240  15.362  1.00  0.00     0.031 C 
ATOM     42  C   UNL     1      15.750   1.426  13.272  1.00  0.00     0.029 A 
ATOM     43  N   UNL     1      16.529  -0.080  14.688  1.00  0.00    -0.354 N 
ATOM     44  C   UNL     1      12.814  -2.266  17.172  1.00  0.00     0.074 A 
ATOM     45  C   UNL     1      11.648  -2.063  16.374  1.00  0.00     0.031 C 
ATOM     46  C   UNL     1      17.099   1.489  13.198  1.00  0.00     0.029 A 
ATOM     47  C   UNL     1      17.679   0.540  14.128  1.00  0.00     0.049 A 
ATOM     48  H   UNL     1      16.596  -0.830  15.322  1.00  0.00     0.167 HD
ATOM     49  C   UNL     1      13.110  -3.277  18.047  1.00  0.00     0.034 A 
ATOM     50  C   UNL     1      19.002   0.332  14.423  1.00  0.00     0.034 A 
ATOM     51  C   UNL     1      14.496  -3.205  18.372  1.00  0.00     0.049 A 
ATOM     52  C   UNL     1      19.019  -0.827  15.323  1.00  0.00     0.074 A 
ATOM     53  C   UNL     1      15.232  -2.366  19.163  1.00  0.00     0.029 A 
ATOM     54  N   UNL     1      15.325  -3.896  17.521  1.00  0.00    -0.354 N 
ATOM     55  N   UNL     1      18.791  -2.052  14.953  1.00  0.00    -0.248 NA
ATOM     56  C   UNL     1      19.179  -0.595  16.764  1.00  0.00     0.031 C 
ATOM     57  C   UNL     1      16.438  -2.236  18.447  1.00  0.00     0.029 A 
ATOM     58  C   UNL     1      16.468  -3.157  17.390  1.00  0.00     0.049 A 
ATOM     59  H   UNL     1      15.133  -4.759  17.089  1.00  0.00     0.167 HD
ATOM     60  C   UNL     1      18.415  -2.635  16.136  1.00  0.00     0.074 A 
ATOM     61  C   UNL     1      18.997  -1.839  17.194  1.00  0.00     0.031 C 
ATOM     62  C   UNL     1      17.256  -3.340  16.197  1.00  0.00     0.034 A 
BRANCH  49  63
ATOM     63  C   UNL     1      12.417  -4.546  18.508  1.00  0.00     0.023 A 
ATOM     64  C   UNL     1      12.984  -5.152  19.671  1.00  0.00     0.012 A 
ATOM     65  C   UNL     1      11.518  -5.324  17.761  1.00  0.00     0.148 A 
ATOM     66  C   UNL     1      12.800  -6.495  19.991  1.00  0.00     0.002 A 
ATOM     67  C   UNL     1      11.290  -6.661  18.120  1.00  0.00     0.091 A 
ATOM     68  F   UNL     1      10.949  -4.805  16.669  1.00  0.00    -0.205 F 
ATOM     69  C   UNL     1      11.964  -7.256  19.199  1.00  0.00     0.022 A 
BRANCH  67  70
ATOM     70  S   UNL     1      10.143  -7.732  17.244  1.00  0.00     0.127 S 
ATOM     71  O   UNL     1      11.047  -8.602  16.497  1.00  0.00    -0.237 OA
ATOM     72  O   UNL     1       9.444  -8.394  18.349  1.00  0.00    -0.237 OA
ATOM     73  O   UNL     1       9.298  -6.842  16.459  1.00  0.00    -0.744 OA
ENDBRANCH  67  70
ENDBRANCH  49  63
BRANCH  50  74
ATOM     74  C   UNL     1      20.329   1.023  14.174  1.00  0.00     0.023 A 
ATOM     75  C   UNL     1      20.545   2.009  13.203  1.00  0.00     0.012 A 
ATOM     76  C   UNL     1      21.440   0.754  15.034  1.00  0.00     0.148 A 
ATOM     77  C   UNL     1      21.745   2.754  13.169  1.00  0.00     0.002 A 
ATOM     78  C   UNL     1      22.558   1.577  15.093  1.00  0.00     0.091 A 
ATOM     79  F   UNL     1      21.447  -0.350  15.789  1.00  0.00    -0.205 F 
ATOM     80  C   UNL     1      22.725   2.579  14.146  1.00  0.00     0.022 A 
BRANCH  78  81
ATOM     81  S   UNL     1      23.718   1.498  16.475  1.00  0.00     0.127 S 
ATOM     82  O   UNL     1      24.994   1.272  15.801  1.00  0.00    -0.237 OA
ATOM     83  O   UNL     1      23.561   2.829  17.064  1.00  0.00    -0.237 OA
ATOM     84  O   UNL     1      23.264   0.408  17.330  1.00  0.00    -0.744 OA
ENDBRANCH  78  81
ENDBRANCH  50  74
BRANCH  62  85
ATOM     85  C   UNL     1      16.805  -3.967  14.878  1.00  0.00     0.023 A 
ATOM     86  C   UNL     1      17.681  -4.894  14.280  1.00  0.00     0.012 A 
ATOM     87  C   UNL     1      15.633  -3.633  14.155  1.00  0.00     0.148 A 
ATOM     88  C   UNL     1      17.420  -5.456  13.027  1.00  0.00     0.002 A 
ATOM     89  C   UNL     1      15.375  -4.184  12.893  1.00  0.00     0.091 A 
ATOM     90  F   UNL     1      14.774  -2.774  14.695  1.00  0.00    -0.205 F 
ATOM     91  C   UNL     1      16.270  -5.102  12.333  1.00  0.00     0.022 A 
BRANCH  89  92
ATOM     92  S   UNL     1      13.953  -3.743  11.868  1.00  0.00     0.127 S 
ATOM     93  O   UNL     1      14.585  -3.329  10.613  1.00  0.00    -0.237 OA
ATOM     94  O   UNL     1      13.229  -5.009  11.784  1.00  0.00    -0.237 OA
ATOM     95  O   UNL     1      13.254  -2.668  12.562  1.00  0.00    -0.744 OA
ENDBRANCH  89  92
ENDBRANCH  62  85
ENDBRANCH  36  37
ENDBRANCH  28  31
ENDBRANCH  26  27
ENDBRANCH  25  26
ENDBRANCH   1  25
TORSDOF 18
