REMARK SMILES Cc1cc2[nH]ccc2nc1C(=O)NCCCNC(=O)c1ccc(-c2c3nc(c(-c4cccc(S(=O)(=O)[O-])c4F)c4ccc([nH]4)c(-c4cccc(S(=O)(=O)[O-])c4F)c4nc(c(-c5cccc(S(=O)(=O)[O-])c5F)c5ccc2[nH]5)C=C4)C=C3)cc1
REMARK SMILES IDX 17 1 18 2 19 3 16 5 15 6 14 7 13 8 11 9 12 10 10 12 1 13
REMARK SMILES IDX 2 14 3 15 4 16 9 17 5 18 8 19 6 20 7 22 20 23 21 24 82 25
REMARK SMILES IDX 22 26 81 27 23 28 24 29 25 30 75 31 26 32 80 33 74 34 76 35
REMARK SMILES IDX 27 36 79 37 73 38 72 39 28 41 60 42 40 43 59 44 41 45 44 46
REMARK SMILES IDX 58 47 77 48 42 49 43 50 57 52 78 53 45 54 29 55 30 56 38 57
REMARK SMILES IDX 31 58 33 59 39 60 32 61 34 62 35 63 36 64 37 65 61 66 62 67
REMARK SMILES IDX 70 68 63 69 65 70 71 71 64 72 66 73 67 74 68 75 69 76 46 77
REMARK SMILES IDX 47 78 55 79 48 80 50 81 56 82 49 83 51 84 52 85 53 86 54 87
REMARK H PARENT 17 4 13 11 5 21 76 40 44 51
REMARK Flexibility Score: inf
ROOT
ATOM      1  N   UNL     1       2.107   3.186   2.745  1.00  0.00    -0.352 N 
ATOM      2  C   UNL     1       2.201   4.164   3.730  1.00  0.00     0.251 C 
ATOM      3  O   UNL     1       1.827   3.963   4.881  1.00  0.00    -0.269 OA
ATOM      4  H   UNL     1       1.562   2.393   2.950  1.00  0.00     0.163 HD
ENDROOT
BRANCH   1   5
ATOM      5  C   UNL     1       2.752   3.235   1.423  1.00  0.00     0.118 C 
BRANCH   5   6
ATOM      6  C   UNL     1       2.791   1.935   0.667  1.00  0.00     0.042 C 
BRANCH   6   7
ATOM      7  C   UNL     1       1.441   1.439   0.204  1.00  0.00     0.118 C 
BRANCH   7   8
ATOM      8  N   UNL     1       0.756   2.056  -0.896  1.00  0.00    -0.351 N 
ATOM      9  C   UNL     1      -0.071   1.429  -1.821  1.00  0.00     0.270 C 
ATOM     10  O   UNL     1      -0.802   2.164  -2.492  1.00  0.00    -0.268 OA
ATOM     11  H   UNL     1       0.885   3.026  -1.006  1.00  0.00     0.163 HD
BRANCH   9  12
ATOM     12  C   UNL     1      -0.044  -0.074  -2.116  1.00  0.00     0.131 A 
ATOM     13  C   UNL     1      -0.055  -1.078   0.302  1.00  0.00     0.047 C 
ATOM     14  C   UNL     1       0.063  -1.142  -1.196  1.00  0.00    -0.018 A 
ATOM     15  C   UNL     1       0.270  -2.444  -1.691  1.00  0.00     0.034 A 
ATOM     16  C   UNL     1       0.156  -2.619  -3.060  1.00  0.00     0.064 A 
ATOM     17  N   UNL     1      -0.156  -0.273  -3.460  1.00  0.00    -0.241 NA
ATOM     18  N   UNL     1       0.208  -3.747  -3.841  1.00  0.00    -0.360 N 
ATOM     19  C   UNL     1      -0.092  -1.545  -3.898  1.00  0.00     0.089 A 
ATOM     20  C   UNL     1      -0.086  -3.425  -5.141  1.00  0.00     0.085 A 
ATOM     21  H   UNL     1       0.425  -4.650  -3.516  1.00  0.00     0.166 HD
ATOM     22  C   UNL     1      -0.263  -2.059  -5.205  1.00  0.00     0.048 A 
ENDBRANCH   9  12
ENDBRANCH   7   8
ENDBRANCH   6   7
ENDBRANCH   5   6
ENDBRANCH   1   5
BRANCH   2  23
ATOM     23  C   UNL     1       2.780   5.459   3.325  1.00  0.00     0.039 A 
ATOM     24  C   UNL     1       3.884   6.009   3.974  1.00  0.00     0.014 A 
ATOM     25  C   UNL     1       2.337   5.961   2.107  1.00  0.00     0.014 A 
ATOM     26  C   UNL     1       4.617   6.987   3.305  1.00  0.00     0.010 A 
ATOM     27  C   UNL     1       3.200   6.720   1.363  1.00  0.00     0.010 A 
ATOM     28  C   UNL     1       4.308   7.297   1.966  1.00  0.00    -0.014 A 
BRANCH  28  29
ATOM     29  C   UNL     1       5.186   8.143   1.160  1.00  0.00     0.031 A 
ATOM     30  C   UNL     1       6.640   7.882   1.339  1.00  0.00     0.074 A 
ATOM     31  C   UNL     1       4.751   9.032   0.237  1.00  0.00     0.049 A 
ATOM     32  N   UNL     1       7.455   8.579   2.060  1.00  0.00    -0.248 NA
ATOM     33  C   UNL     1       7.224   6.635   0.824  1.00  0.00     0.031 C 
ATOM     34  C   UNL     1       3.392   9.242  -0.284  1.00  0.00     0.029 A 
ATOM     35  N   UNL     1       5.482   9.896  -0.518  1.00  0.00    -0.354 N 
ATOM     36  C   UNL     1       8.710   8.006   1.884  1.00  0.00     0.074 A 
ATOM     37  C   UNL     1       8.474   6.715   1.294  1.00  0.00     0.031 C 
ATOM     38  C   UNL     1       3.442   9.966  -1.424  1.00  0.00     0.029 A 
ATOM     39  C   UNL     1       4.793  10.454  -1.589  1.00  0.00     0.049 A 
ATOM     40  H   UNL     1       6.423  10.109  -0.321  1.00  0.00     0.167 HD
ATOM     41  C   UNL     1       9.839   8.757   2.019  1.00  0.00     0.034 A 
ATOM     42  C   UNL     1       5.293  11.276  -2.541  1.00  0.00     0.034 A 
ATOM     43  C   UNL     1       9.540  10.032   2.626  1.00  0.00     0.049 A 
ATOM     44  C   UNL     1       6.489  11.918  -1.955  1.00  0.00     0.074 A 
ATOM     45  C   UNL     1       9.000  10.443   3.828  1.00  0.00     0.029 A 
ATOM     46  N   UNL     1       9.432  11.102   1.770  1.00  0.00    -0.354 N 
ATOM     47  N   UNL     1       6.435  12.747  -0.950  1.00  0.00    -0.248 NA
ATOM     48  C   UNL     1       7.780  11.302  -2.199  1.00  0.00     0.031 C 
ATOM     49  C   UNL     1       8.178  11.559   3.493  1.00  0.00     0.029 A 
ATOM     50  C   UNL     1       8.321  11.816   2.127  1.00  0.00     0.049 A 
ATOM     51  H   UNL     1      10.046  11.317   1.031  1.00  0.00     0.167 HD
ATOM     52  C   UNL     1       7.526  12.398  -0.166  1.00  0.00     0.074 A 
ATOM     53  C   UNL     1       8.375  11.588  -1.038  1.00  0.00     0.031 C 
ATOM     54  C   UNL     1       7.498  12.553   1.190  1.00  0.00     0.034 A 
BRANCH  41  55
ATOM     55  C   UNL     1      11.142   8.548   1.279  1.00  0.00     0.023 A 
ATOM     56  C   UNL     1      12.225   9.385   1.640  1.00  0.00     0.012 A 
ATOM     57  C   UNL     1      11.284   7.799   0.091  1.00  0.00     0.148 A 
ATOM     58  C   UNL     1      13.354   9.524   0.827  1.00  0.00     0.002 A 
ATOM     59  C   UNL     1      12.442   7.882  -0.676  1.00  0.00     0.091 A 
ATOM     60  F   UNL     1      10.255   7.095  -0.384  1.00  0.00    -0.205 F 
ATOM     61  C   UNL     1      13.464   8.770  -0.332  1.00  0.00     0.022 A 
BRANCH  59  62
ATOM     62  S   UNL     1      12.668   6.892  -2.159  1.00  0.00     0.127 S 
ATOM     63  O   UNL     1      12.584   7.908  -3.205  1.00  0.00    -0.237 OA
ATOM     64  O   UNL     1      14.003   6.334  -1.941  1.00  0.00    -0.237 OA
ATOM     65  O   UNL     1      11.597   5.904  -2.140  1.00  0.00    -0.744 OA
ENDBRANCH  59  62
ENDBRANCH  41  55
BRANCH  42  66
ATOM     66  C   UNL     1       4.987  11.347  -3.987  1.00  0.00     0.023 A 
ATOM     67  C   UNL     1       5.351  12.495  -4.718  1.00  0.00     0.012 A 
ATOM     68  C   UNL     1       4.638  10.180  -4.702  1.00  0.00     0.148 A 
ATOM     69  C   UNL     1       5.417  12.468  -6.116  1.00  0.00     0.002 A 
ATOM     70  C   UNL     1       4.713  10.155  -6.091  1.00  0.00     0.091 A 
ATOM     71  F   UNL     1       4.325   9.074  -4.013  1.00  0.00    -0.205 F 
ATOM     72  C   UNL     1       5.114  11.295  -6.801  1.00  0.00     0.022 A 
BRANCH  70  73
ATOM     73  S   UNL     1       4.401   8.666  -7.050  1.00  0.00     0.127 S 
ATOM     74  O   UNL     1       3.393   9.130  -8.003  1.00  0.00    -0.237 OA
ATOM     75  O   UNL     1       5.715   8.401  -7.630  1.00  0.00    -0.237 OA
ATOM     76  O   UNL     1       3.923   7.672  -6.098  1.00  0.00    -0.744 OA
ENDBRANCH  70  73
ENDBRANCH  42  66
BRANCH  54  77
ATOM     77  C   UNL     1       6.381  13.363   1.804  1.00  0.00     0.023 A 
ATOM     78  C   UNL     1       5.032  12.953   1.764  1.00  0.00     0.012 A 
ATOM     79  C   UNL     1       6.742  14.435   2.637  1.00  0.00     0.148 A 
ATOM     80  C   UNL     1       4.067  13.600   2.544  1.00  0.00     0.002 A 
ATOM     81  C   UNL     1       5.793  15.035   3.454  1.00  0.00     0.091 A 
ATOM     82  F   UNL     1       8.029  14.814   2.655  1.00  0.00    -0.205 F 
ATOM     83  C   UNL     1       4.451  14.627   3.405  1.00  0.00     0.022 A 
BRANCH  81  84
ATOM     84  S   UNL     1       6.256  16.245   4.696  1.00  0.00     0.127 S 
ATOM     85  O   UNL     1       5.694  17.477   4.146  1.00  0.00    -0.237 OA
ATOM     86  O   UNL     1       5.577  15.741   5.891  1.00  0.00    -0.237 OA
ATOM     87  O   UNL     1       7.711  16.205   4.777  1.00  0.00    -0.744 OA
ENDBRANCH  81  84
ENDBRANCH  54  77
ENDBRANCH  28  29
ENDBRANCH   2  23
TORSDOF 13
