REMARK SMILES C[C@H](CC(=O)NCCCNC(=O)c1ccc(-c2c3nc(c(-c4cccc(S(=O)(=O)[O-])c4F)c4ccc([nH]4)c(-c4cccc(S(=O)(=O)[O-])c4F)c4nc(c(-c5cccc(S(=O)(=O)[O-])c5F)c5ccc2[nH]5)C=C4)C=C3)cc1)N1C(=O)S/C(=C\c2ccc(Cl)cc2)C1=O
REMARK SMILES IDX 8 1 7 2 6 3 4 4 5 5 3 7 2 8 1 9 76 10 77 11 89 12 78 13
REMARK SMILES IDX 79 14 80 15 90 16 81 17 82 18 83 19 88 20 84 21 87 22 85 23
REMARK SMILES IDX 86 24 9 25 10 26 11 27 12 29 13 30 14 31 75 32 15 33 74 34
REMARK SMILES IDX 16 35 17 36 18 37 68 38 19 39 73 40 67 41 69 42 20 43 72 44
REMARK SMILES IDX 66 45 65 46 21 48 53 49 33 50 52 51 34 52 37 53 51 54 70 55
REMARK SMILES IDX 35 56 36 57 50 59 71 60 38 61 22 62 23 63 31 64 24 65 26 66
REMARK SMILES IDX 32 67 25 68 27 69 28 70 29 71 30 72 54 73 55 74 63 75 56 76
REMARK SMILES IDX 58 77 64 78 57 79 59 80 60 81 61 82 62 83 39 84 40 85 48 86
REMARK SMILES IDX 41 87 43 88 49 89 42 90 44 91 45 92 46 93 47 94
REMARK H PARENT 6 6 10 28 69 47 37 58
REMARK Flexibility Score: inf
ROOT
ATOM      1  C   UNL     1      -2.791   1.713  -0.203  1.00  0.00     0.042 C 
ENDROOT
BRANCH   1   2
ATOM      2  C   UNL     1      -1.770   1.304  -1.255  1.00  0.00     0.117 C 
BRANCH   2   3
ATOM      3  N   UNL     1      -0.466   1.872  -0.964  1.00  0.00    -0.356 N 
ATOM      4  C   UNL     1       0.614   1.349  -0.322  1.00  0.00     0.222 C 
ATOM      5  O   UNL     1       1.570   2.099  -0.108  1.00  0.00    -0.275 OA
ATOM      6  H   UNL     1      -0.342   2.794  -1.286  1.00  0.00     0.163 HD
BRANCH   4   7
ATOM      7  C   UNL     1       0.691  -0.121   0.039  1.00  0.00     0.125 C 
BRANCH   7   8
ATOM      8  C   UNL     1       0.532  -0.495   1.532  1.00  0.00     0.101 C 
ATOM      9  C   UNL     1       1.227   0.476   2.489  1.00  0.00     0.032 C 
BRANCH   8  10
ATOM     10  N   UNL     1      -0.856  -0.859   1.872  1.00  0.00    -0.265 N 
ATOM     11  C   UNL     1      -1.358  -2.061   1.424  1.00  0.00     0.293 C 
ATOM     12  C   UNL     1      -1.756  -0.038   2.515  1.00  0.00     0.268 C 
ATOM     13  O   UNL     1      -0.749  -2.918   0.803  1.00  0.00    -0.261 OA
ATOM     14  S   UNL     1      -3.073  -2.186   1.753  1.00  0.00    -0.022 SA
ATOM     15  C   UNL     1      -3.134  -0.603   2.403  1.00  0.00     0.083 C 
ATOM     16  O   UNL     1      -1.524   1.060   3.002  1.00  0.00    -0.268 OA
ATOM     17  C   UNL     1      -4.217   0.153   2.629  1.00  0.00     0.029 C 
BRANCH  17  18
ATOM     18  C   UNL     1      -5.613  -0.197   2.347  1.00  0.00    -0.024 A 
ATOM     19  C   UNL     1      -6.148  -0.041   1.060  1.00  0.00     0.009 A 
ATOM     20  C   UNL     1      -6.456  -0.584   3.389  1.00  0.00     0.009 A 
ATOM     21  C   UNL     1      -7.516  -0.208   0.832  1.00  0.00     0.021 A 
ATOM     22  C   UNL     1      -7.829  -0.739   3.166  1.00  0.00     0.021 A 
ATOM     23  C   UNL     1      -8.355  -0.533   1.893  1.00  0.00     0.041 A 
ATOM     24  Cl  UNL     1     -10.051  -0.640   1.632  1.00  0.00    -0.084 Cl
ENDBRANCH  17  18
ENDBRANCH   8  10
ENDBRANCH   7   8
ENDBRANCH   4   7
ENDBRANCH   2   3
ENDBRANCH   1   2
BRANCH   1  25
ATOM     25  C   UNL     1      -3.238   3.170  -0.225  1.00  0.00     0.118 C 
BRANCH  25  26
ATOM     26  N   UNL     1      -4.494   3.350  -0.931  1.00  0.00    -0.352 N 
ATOM     27  C   UNL     1      -5.791   3.510  -0.502  1.00  0.00     0.251 C 
ATOM     28  H   UNL     1      -4.399   3.359  -1.911  1.00  0.00     0.163 HD
ATOM     29  O   UNL     1      -6.671   3.462  -1.364  1.00  0.00    -0.269 OA
BRANCH  27  30
ATOM     30  C   UNL     1      -6.188   3.698   0.923  1.00  0.00     0.039 A 
ATOM     31  C   UNL     1      -7.454   3.223   1.305  1.00  0.00     0.014 A 
ATOM     32  C   UNL     1      -5.437   4.407   1.863  1.00  0.00     0.014 A 
ATOM     33  C   UNL     1      -7.936   3.402   2.607  1.00  0.00     0.010 A 
ATOM     34  C   UNL     1      -5.901   4.559   3.179  1.00  0.00     0.010 A 
ATOM     35  C   UNL     1      -7.162   4.073   3.558  1.00  0.00    -0.014 A 
BRANCH  35  36
ATOM     36  C   UNL     1      -7.718   4.385   4.903  1.00  0.00     0.031 A 
ATOM     37  C   UNL     1      -8.162   5.787   5.205  1.00  0.00     0.074 A 
ATOM     38  C   UNL     1      -7.822   3.435   5.851  1.00  0.00     0.049 A 
ATOM     39  N   UNL     1      -8.626   6.283   6.322  1.00  0.00    -0.248 NA
ATOM     40  C   UNL     1      -8.064   6.760   4.106  1.00  0.00     0.031 C 
ATOM     41  C   UNL     1      -7.425   2.044   5.678  1.00  0.00     0.029 A 
ATOM     42  N   UNL     1      -8.273   3.492   7.148  1.00  0.00    -0.354 N 
ATOM     43  C   UNL     1      -8.838   7.633   6.075  1.00  0.00     0.074 A 
ATOM     44  C   UNL     1      -8.447   7.879   4.703  1.00  0.00     0.031 C 
ATOM     45  C   UNL     1      -7.647   1.371   6.819  1.00  0.00     0.029 A 
ATOM     46  C   UNL     1      -8.162   2.297   7.824  1.00  0.00     0.049 A 
ATOM     47  H   UNL     1      -8.641   4.309   7.555  1.00  0.00     0.167 HD
ATOM     48  C   UNL     1      -9.322   8.581   6.910  1.00  0.00     0.034 A 
ATOM     49  C   UNL     1      -8.420   1.992   9.113  1.00  0.00     0.034 A 
ATOM     50  C   UNL     1      -9.725   8.332   8.267  1.00  0.00     0.049 A 
ATOM     51  C   UNL     1      -8.942   3.071  10.027  1.00  0.00     0.074 A 
ATOM     52  C   UNL     1     -10.251   9.225   9.184  1.00  0.00     0.029 A 
ATOM     53  N   UNL     1      -9.637   7.105   8.906  1.00  0.00    -0.354 N 
ATOM     54  N   UNL     1      -9.228   4.320   9.748  1.00  0.00    -0.248 NA
ATOM     55  C   UNL     1      -9.196   2.698  11.427  1.00  0.00     0.031 C 
ATOM     56  C   UNL     1     -10.454   8.542  10.388  1.00  0.00     0.029 A 
ATOM     57  C   UNL     1     -10.087   7.218  10.210  1.00  0.00     0.049 A 
ATOM     58  H   UNL     1      -9.304   6.276   8.493  1.00  0.00     0.167 HD
ATOM     59  C   UNL     1      -9.725   4.871  10.924  1.00  0.00     0.074 A 
ATOM     60  C   UNL     1      -9.721   3.815  11.915  1.00  0.00     0.031 C 
ATOM     61  C   UNL     1     -10.133   6.141  11.167  1.00  0.00     0.034 A 
BRANCH  48  62
ATOM     62  C   UNL     1      -9.440   9.980   6.370  1.00  0.00     0.023 A 
ATOM     63  C   UNL     1     -10.448  10.288   5.434  1.00  0.00     0.012 A 
ATOM     64  C   UNL     1      -8.564  10.993   6.804  1.00  0.00     0.148 A 
ATOM     65  C   UNL     1     -10.558  11.574   4.908  1.00  0.00     0.002 A 
ATOM     66  C   UNL     1      -8.707  12.283   6.308  1.00  0.00     0.091 A 
ATOM     67  F   UNL     1      -7.599  10.673   7.677  1.00  0.00    -0.205 F 
ATOM     68  C   UNL     1      -9.694  12.573   5.351  1.00  0.00     0.022 A 
BRANCH  66  69
ATOM     69  S   UNL     1      -7.688  13.652   6.866  1.00  0.00     0.127 S 
ATOM     70  O   UNL     1      -6.867  13.909   5.683  1.00  0.00    -0.237 OA
ATOM     71  O   UNL     1      -8.687  14.682   7.152  1.00  0.00    -0.237 OA
ATOM     72  O   UNL     1      -6.965  13.166   8.033  1.00  0.00    -0.744 OA
ENDBRANCH  66  69
ENDBRANCH  48  62
BRANCH  49  73
ATOM     73  C   UNL     1      -8.210   0.603   9.619  1.00  0.00     0.023 A 
ATOM     74  C   UNL     1      -9.319  -0.169  10.020  1.00  0.00     0.012 A 
ATOM     75  C   UNL     1      -6.921   0.041   9.705  1.00  0.00     0.148 A 
ATOM     76  C   UNL     1      -9.144  -1.458  10.529  1.00  0.00     0.002 A 
ATOM     77  C   UNL     1      -6.760  -1.264  10.156  1.00  0.00     0.091 A 
ATOM     78  F   UNL     1      -5.875   0.794   9.338  1.00  0.00    -0.205 F 
ATOM     79  C   UNL     1      -7.867  -2.009  10.587  1.00  0.00     0.022 A 
BRANCH  77  80
ATOM     80  S   UNL     1      -5.169  -2.099  10.134  1.00  0.00     0.127 S 
ATOM     81  O   UNL     1      -4.852  -2.179  11.557  1.00  0.00    -0.237 OA
ATOM     82  O   UNL     1      -5.506  -3.375   9.502  1.00  0.00    -0.237 OA
ATOM     83  O   UNL     1      -4.293  -1.251   9.335  1.00  0.00    -0.744 OA
ENDBRANCH  77  80
ENDBRANCH  49  73
BRANCH  61  84
ATOM     84  C   UNL     1     -10.653   6.464  12.543  1.00  0.00     0.023 A 
ATOM     85  C   UNL     1      -9.759   6.577  13.625  1.00  0.00     0.012 A 
ATOM     86  C   UNL     1     -12.018   6.758  12.739  1.00  0.00     0.148 A 
ATOM     87  C   UNL     1     -10.218   6.955  14.886  1.00  0.00     0.002 A 
ATOM     88  C   UNL     1     -12.459   7.182  13.986  1.00  0.00     0.091 A 
ATOM     89  F   UNL     1     -12.855   6.626  11.700  1.00  0.00    -0.205 F 
ATOM     90  C   UNL     1     -11.563   7.271  15.063  1.00  0.00     0.022 A 
BRANCH  88  91
ATOM     91  S   UNL     1     -14.151   7.710  14.280  1.00  0.00     0.127 S 
ATOM     92  O   UNL     1     -14.664   6.617  15.105  1.00  0.00    -0.237 OA
ATOM     93  O   UNL     1     -13.962   8.974  14.992  1.00  0.00    -0.237 OA
ATOM     94  O   UNL     1     -14.766   7.841  12.966  1.00  0.00    -0.744 OA
ENDBRANCH  88  91
ENDBRANCH  61  84
ENDBRANCH  35  36
ENDBRANCH  27  30
ENDBRANCH  25  26
ENDBRANCH   1  25
TORSDOF 16
