REMARK SMILES [NH3+][C@]1(C(=O)NCCCNC(=O)c2ccc(-c3c4nc(c(-c5cccc(S(=O)(=O)[O-])c5F)c5ccc([nH]5)c(-c5cccc(S(=O)(=O)[O-])c5F)c5nc(c(-c6cccc(S(=O)(=O)[O-])c6F)c6ccc3[nH]6)C=C5)C=C4)cc2)CC[C@@H](Sc2ccc(Cl)c(Cl)c2)C1
REMARK SMILES IDX 7 1 6 2 5 3 3 4 4 5 2 7 75 8 87 9 76 10 77 11 1 12 78 16
REMARK SMILES IDX 79 17 80 18 86 19 81 20 84 21 82 22 85 23 83 24 8 25 9 26
REMARK SMILES IDX 10 27 11 29 12 30 13 31 74 32 14 33 73 34 15 35 16 36 17 37
REMARK SMILES IDX 67 38 18 39 72 40 66 41 68 42 19 43 71 44 65 45 64 46 20 48
REMARK SMILES IDX 52 49 32 50 51 51 33 52 36 53 50 54 69 55 34 56 35 57 49 59
REMARK SMILES IDX 70 60 37 61 21 62 22 63 30 64 23 65 25 66 31 67 24 68 26 69
REMARK SMILES IDX 27 70 28 71 29 72 53 73 54 74 62 75 55 76 57 77 63 78 56 79
REMARK SMILES IDX 58 80 59 81 60 82 61 83 38 84 39 85 47 86 40 87 42 88 48 89
REMARK SMILES IDX 41 90 43 91 44 92 45 93 46 94
REMARK H PARENT 5 6 1 13 1 14 1 15 9 28 68 47 36 58
REMARK Flexibility Score: inf
ROOT
ATOM      1  C   UNL     1       3.835   1.821   1.628  1.00  0.00     0.042 C 
ENDROOT
BRANCH   1   2
ATOM      2  C   UNL     1       2.320   1.992   1.487  1.00  0.00     0.118 C 
BRANCH   2   3
ATOM      3  N   UNL     1       1.790   1.313   0.318  1.00  0.00    -0.351 N 
ATOM      4  C   UNL     1       1.075   0.174   0.155  1.00  0.00     0.281 C 
ATOM      5  O   UNL     1       0.682  -0.050  -0.999  1.00  0.00    -0.268 OA
ATOM      6  H   UNL     1       1.991   1.775  -0.528  1.00  0.00     0.163 HD
BRANCH   4   7
ATOM      7  C   UNL     1       0.618  -0.765   1.315  1.00  0.00     0.175 C 
ATOM      8  C   UNL     1       0.520  -2.202   0.740  1.00  0.00     0.080 C 
ATOM      9  C   UNL     1       1.534  -0.919   2.542  1.00  0.00     0.094 C 
ATOM     10  C   UNL     1       0.715  -3.145   1.914  1.00  0.00     0.022 C 
ATOM     11  C   UNL     1       1.660  -2.412   2.852  1.00  0.00     0.058 C 
BRANCH   7  12
ATOM     12  N   UNL     1      -0.722  -0.302   1.763  1.00  0.00    -0.345 N 
ATOM     13  H   UNL     1      -1.051  -0.897   2.523  1.00  0.00     0.345 HD
ATOM     14  H   UNL     1      -1.378  -0.354   0.983  1.00  0.00     0.345 HD
ATOM     15  H   UNL     1      -0.657   0.662   2.089  1.00  0.00     0.345 HD
ENDBRANCH   7  12
BRANCH  11  16
ATOM     16  S   UNL     1       3.391  -3.045   2.933  1.00  0.00    -0.122 SA
BRANCH  16  17
ATOM     17  C   UNL     1       4.050  -3.058   1.274  1.00  0.00     0.009 A 
ATOM     18  C   UNL     1       4.817  -4.165   0.892  1.00  0.00     0.017 A 
ATOM     19  C   UNL     1       3.972  -1.985   0.387  1.00  0.00     0.037 A 
ATOM     20  C   UNL     1       5.448  -4.211  -0.359  1.00  0.00     0.023 A 
ATOM     21  C   UNL     1       4.589  -2.023  -0.871  1.00  0.00     0.060 A 
ATOM     22  C   UNL     1       5.327  -3.144  -1.248  1.00  0.00     0.059 A 
ATOM     23  Cl  UNL     1       4.406  -0.638  -1.890  1.00  0.00    -0.083 Cl
ATOM     24  Cl  UNL     1       6.112  -3.263  -2.780  1.00  0.00    -0.083 Cl
ENDBRANCH  16  17
ENDBRANCH  11  16
ENDBRANCH   4   7
ENDBRANCH   2   3
ENDBRANCH   1   2
BRANCH   1  25
ATOM     25  C   UNL     1       4.651   2.452   0.501  1.00  0.00     0.118 C 
BRANCH  25  26
ATOM     26  N   UNL     1       4.693   3.899   0.616  1.00  0.00    -0.352 N 
ATOM     27  C   UNL     1       5.774   4.738   0.725  1.00  0.00     0.251 C 
ATOM     28  H   UNL     1       3.816   4.345   0.617  1.00  0.00     0.163 HD
ATOM     29  O   UNL     1       5.587   5.905   1.063  1.00  0.00    -0.269 OA
BRANCH  27  30
ATOM     30  C   UNL     1       7.152   4.265   0.444  1.00  0.00     0.039 A 
ATOM     31  C   UNL     1       8.196   4.751   1.238  1.00  0.00     0.014 A 
ATOM     32  C   UNL     1       7.439   3.425  -0.636  1.00  0.00     0.014 A 
ATOM     33  C   UNL     1       9.517   4.384   0.963  1.00  0.00     0.010 A 
ATOM     34  C   UNL     1       8.753   3.010  -0.873  1.00  0.00     0.010 A 
ATOM     35  C   UNL     1       9.809   3.503  -0.091  1.00  0.00    -0.014 A 
BRANCH  35  36
ATOM     36  C   UNL     1      11.214   3.110  -0.385  1.00  0.00     0.031 A 
ATOM     37  C   UNL     1      11.870   3.517  -1.679  1.00  0.00     0.074 A 
ATOM     38  C   UNL     1      11.892   2.349   0.497  1.00  0.00     0.049 A 
ATOM     39  N   UNL     1      13.087   3.276  -2.098  1.00  0.00    -0.248 NA
ATOM     40  C   UNL     1      11.049   4.274  -2.637  1.00  0.00     0.031 C 
ATOM     41  C   UNL     1      11.349   1.826   1.752  1.00  0.00     0.029 A 
ATOM     42  N   UNL     1      13.177   1.866   0.464  1.00  0.00    -0.354 N 
ATOM     43  C   UNL     1      13.168   3.822  -3.374  1.00  0.00     0.074 A 
ATOM     44  C   UNL     1      11.867   4.380  -3.675  1.00  0.00     0.031 C 
ATOM     45  C   UNL     1      12.294   1.101   2.371  1.00  0.00     0.029 A 
ATOM     46  C   UNL     1      13.502   1.088   1.551  1.00  0.00     0.049 A 
ATOM     47  H   UNL     1      13.806   2.059  -0.268  1.00  0.00     0.167 HD
ATOM     48  C   UNL     1      14.233   3.883  -4.209  1.00  0.00     0.034 A 
ATOM     49  C   UNL     1      14.643   0.437   1.855  1.00  0.00     0.034 A 
ATOM     50  C   UNL     1      15.539   3.367  -3.892  1.00  0.00     0.049 A 
ATOM     51  C   UNL     1      15.825   0.559   0.931  1.00  0.00     0.074 A 
ATOM     52  C   UNL     1      16.704   3.462  -4.632  1.00  0.00     0.029 A 
ATOM     53  N   UNL     1      15.851   2.654  -2.746  1.00  0.00    -0.354 N 
ATOM     54  N   UNL     1      15.931   1.227  -0.192  1.00  0.00    -0.248 NA
ATOM     55  C   UNL     1      17.059  -0.131   1.337  1.00  0.00     0.031 C 
ATOM     56  C   UNL     1      17.717   2.785  -3.943  1.00  0.00     0.029 A 
ATOM     57  C   UNL     1      17.188   2.291  -2.762  1.00  0.00     0.049 A 
ATOM     58  H   UNL     1      15.216   2.437  -2.025  1.00  0.00     0.167 HD
ATOM     59  C   UNL     1      17.247   1.065  -0.611  1.00  0.00     0.074 A 
ATOM     60  C   UNL     1      17.908   0.257   0.394  1.00  0.00     0.031 C 
ATOM     61  C   UNL     1      17.849   1.529  -1.734  1.00  0.00     0.034 A 
BRANCH  48  62
ATOM     62  C   UNL     1      14.050   4.584  -5.532  1.00  0.00     0.023 A 
ATOM     63  C   UNL     1      13.916   5.988  -5.559  1.00  0.00     0.012 A 
ATOM     64  C   UNL     1      14.075   3.870  -6.746  1.00  0.00     0.148 A 
ATOM     65  C   UNL     1      13.774   6.666  -6.769  1.00  0.00     0.002 A 
ATOM     66  C   UNL     1      13.976   4.558  -7.951  1.00  0.00     0.091 A 
ATOM     67  F   UNL     1      14.185   2.535  -6.701  1.00  0.00    -0.205 F 
ATOM     68  C   UNL     1      13.814   5.953  -7.964  1.00  0.00     0.022 A 
BRANCH  66  69
ATOM     69  S   UNL     1      14.096   3.741  -9.547  1.00  0.00     0.127 S 
ATOM     70  O   UNL     1      12.717   3.822 -10.025  1.00  0.00    -0.237 OA
ATOM     71  O   UNL     1      15.040   4.601 -10.263  1.00  0.00    -0.237 OA
ATOM     72  O   UNL     1      14.587   2.398  -9.274  1.00  0.00    -0.744 OA
ENDBRANCH  66  69
ENDBRANCH  48  62
BRANCH  49  73
ATOM     73  C   UNL     1      14.743  -0.329   3.129  1.00  0.00     0.023 A 
ATOM     74  C   UNL     1      15.563   0.157   4.166  1.00  0.00     0.012 A 
ATOM     75  C   UNL     1      14.011  -1.515   3.331  1.00  0.00     0.148 A 
ATOM     76  C   UNL     1      15.675  -0.540   5.370  1.00  0.00     0.002 A 
ATOM     77  C   UNL     1      14.084  -2.174   4.553  1.00  0.00     0.091 A 
ATOM     78  F   UNL     1      13.247  -1.969   2.327  1.00  0.00    -0.205 F 
ATOM     79  C   UNL     1      14.928  -1.698   5.568  1.00  0.00     0.022 A 
BRANCH  77  80
ATOM     80  S   UNL     1      13.057  -3.596   4.942  1.00  0.00     0.127 S 
ATOM     81  O   UNL     1      14.030  -4.683   4.926  1.00  0.00    -0.237 OA
ATOM     82  O   UNL     1      12.543  -3.246   6.267  1.00  0.00    -0.237 OA
ATOM     83  O   UNL     1      12.038  -3.640   3.899  1.00  0.00    -0.744 OA
ENDBRANCH  77  80
ENDBRANCH  49  73
BRANCH  61  84
ATOM     84  C   UNL     1      19.305   1.199  -1.933  1.00  0.00     0.023 A 
ATOM     85  C   UNL     1      19.684  -0.116  -2.271  1.00  0.00     0.012 A 
ATOM     86  C   UNL     1      20.291   2.203  -1.856  1.00  0.00     0.148 A 
ATOM     87  C   UNL     1      21.023  -0.433  -2.496  1.00  0.00     0.002 A 
ATOM     88  C   UNL     1      21.617   1.890  -2.129  1.00  0.00     0.091 A 
ATOM     89  F   UNL     1      19.914   3.444  -1.515  1.00  0.00    -0.205 F 
ATOM     90  C   UNL     1      21.987   0.571  -2.437  1.00  0.00     0.022 A 
BRANCH  88  91
ATOM     91  S   UNL     1      22.911   3.136  -2.169  1.00  0.00     0.127 S 
ATOM     92  O   UNL     1      23.634   2.855  -0.930  1.00  0.00    -0.237 OA
ATOM     93  O   UNL     1      23.639   2.790  -3.391  1.00  0.00    -0.237 OA
ATOM     94  O   UNL     1      22.227   4.421  -2.218  1.00  0.00    -0.744 OA
ENDBRANCH  88  91
ENDBRANCH  61  84
ENDBRANCH  35  36
ENDBRANCH  27  30
ENDBRANCH  25  26
ENDBRANCH   1  25
TORSDOF 16
