REMARK SMILES O=C(CCCCc1nc(C[C@H]2CCCO2)no1)NCCCNC(=O)c1ccc(-c2c3nc(c(-c4cccc(S(=O)(=O)[O-])c4F)c4ccc([nH]4)c(-c4cccc(S(=O)(=O)[O-])c4F)c4nc(c(-c5cccc(S(=O)(=O)[O-])c5F)c5ccc2[nH]5)C=C4)C=C3)cc1
REMARK SMILES IDX 1 1 2 2 18 3 3 5 4 6 5 7 6 8 7 9 8 10 17 11 9 12 16 13 10 14
REMARK SMILES IDX 11 15 12 16 15 17 13 18 14 19 19 20 20 21 21 22 22 23 23 24
REMARK SMILES IDX 24 26 25 27 26 28 87 29 27 30 86 31 28 32 29 33 30 34 80 35
REMARK SMILES IDX 31 36 85 37 79 38 81 39 32 40 84 41 78 42 77 43 33 45 65 46
REMARK SMILES IDX 45 47 64 48 46 49 49 50 63 51 82 52 47 53 48 54 62 56 83 57
REMARK SMILES IDX 50 58 34 59 35 60 43 61 36 62 38 63 44 64 37 65 39 66 40 67
REMARK SMILES IDX 41 68 42 69 66 70 67 71 75 72 68 73 70 74 76 75 69 76 71 77
REMARK SMILES IDX 72 78 73 79 74 80 51 81 52 82 60 83 53 84 55 85 61 86 54 87
REMARK SMILES IDX 56 88 57 89 58 90 59 91
REMARK H PARENT 18 4 22 25 81 44 49 55
REMARK Flexibility Score: inf
ROOT
ATOM      1  O   UNL     1       4.344 -13.123   4.616  1.00  0.00    -0.275 OA
ATOM      2  C   UNL     1       4.636 -12.079   5.192  1.00  0.00     0.219 C 
ATOM      3  N   UNL     1       4.022 -11.627   6.333  1.00  0.00    -0.356 N 
ATOM      4  H   UNL     1       4.385 -10.829   6.780  1.00  0.00     0.163 HD
ENDROOT
BRANCH   2   5
ATOM      5  C   UNL     1       5.687 -11.129   4.661  1.00  0.00     0.100 C 
BRANCH   5   6
ATOM      6  C   UNL     1       5.048  -9.982   3.876  1.00  0.00     0.010 C 
BRANCH   6   7
ATOM      7  C   UNL     1       4.395  -8.860   4.708  1.00  0.00     0.010 C 
BRANCH   7   8
ATOM      8  C   UNL     1       5.313  -8.143   5.708  1.00  0.00     0.100 C 
BRANCH   8   9
ATOM      9  C   UNL     1       6.479  -7.521   5.041  1.00  0.00     0.226 A 
ATOM     10  N   UNL     1       6.604  -7.117   3.799  1.00  0.00    -0.196 NA
ATOM     11  O   UNL     1       7.636  -7.441   5.759  1.00  0.00    -0.339 OA
ATOM     12  C   UNL     1       7.939  -6.834   3.724  1.00  0.00     0.174 A 
ATOM     13  N   UNL     1       8.615  -6.987   4.870  1.00  0.00    -0.062 NA
BRANCH  12  14
ATOM     14  C   UNL     1       8.590  -6.497   2.442  1.00  0.00     0.113 C 
BRANCH  14  15
ATOM     15  C   UNL     1       8.599  -4.999   2.137  1.00  0.00     0.126 C 
ATOM     16  C   UNL     1       9.528  -4.180   3.022  1.00  0.00     0.035 C 
ATOM     17  O   UNL     1       9.105  -4.828   0.792  1.00  0.00    -0.378 OA
ATOM     18  C   UNL     1      10.853  -4.317   2.315  1.00  0.00     0.031 C 
ATOM     19  C   UNL     1      10.436  -4.295   0.861  1.00  0.00     0.160 C 
ENDBRANCH  14  15
ENDBRANCH  12  14
ENDBRANCH   8   9
ENDBRANCH   7   8
ENDBRANCH   6   7
ENDBRANCH   5   6
ENDBRANCH   2   5
BRANCH   3  20
ATOM     20  C   UNL     1       2.863 -12.275   6.909  1.00  0.00     0.117 C 
BRANCH  20  21
ATOM     21  C   UNL     1       2.893 -12.267   8.430  1.00  0.00     0.042 C 
BRANCH  21  22
ATOM     22  C   UNL     1       2.923 -10.881   9.068  1.00  0.00     0.118 C 
BRANCH  22  23
ATOM     23  N   UNL     1       1.726 -10.095   8.809  1.00  0.00    -0.352 N 
ATOM     24  C   UNL     1       0.905  -9.439   9.693  1.00  0.00     0.251 C 
ATOM     25  H   UNL     1       1.468 -10.024   7.862  1.00  0.00     0.163 HD
ATOM     26  O   UNL     1      -0.141  -8.937   9.281  1.00  0.00    -0.269 OA
BRANCH  24  27
ATOM     27  C   UNL     1       1.252  -9.346  11.131  1.00  0.00     0.039 A 
ATOM     28  C   UNL     1       0.237  -9.516  12.078  1.00  0.00     0.014 A 
ATOM     29  C   UNL     1       2.554  -9.066  11.553  1.00  0.00     0.014 A 
ATOM     30  C   UNL     1       0.537  -9.447  13.442  1.00  0.00     0.010 A 
ATOM     31  C   UNL     1       2.866  -9.083  12.912  1.00  0.00     0.010 A 
ATOM     32  C   UNL     1       1.859  -9.251  13.874  1.00  0.00    -0.014 A 
BRANCH  32  33
ATOM     33  C   UNL     1       2.192  -9.190  15.323  1.00  0.00     0.031 A 
ATOM     34  C   UNL     1       2.768  -7.930  15.918  1.00  0.00     0.074 A 
ATOM     35  C   UNL     1       2.028 -10.281  16.098  1.00  0.00     0.049 A 
ATOM     36  N   UNL     1       3.130  -7.692  17.153  1.00  0.00    -0.248 NA
ATOM     37  C   UNL     1       2.994  -6.799  15.003  1.00  0.00     0.031 C 
ATOM     38  C   UNL     1       1.554 -11.586  15.633  1.00  0.00     0.029 A 
ATOM     39  N   UNL     1       2.261 -10.471  17.438  1.00  0.00    -0.354 N 
ATOM     40  C   UNL     1       3.654  -6.404  17.156  1.00  0.00     0.074 A 
ATOM     41  C   UNL     1       3.603  -5.926  15.793  1.00  0.00     0.031 C 
ATOM     42  C   UNL     1       1.520 -12.437  16.672  1.00  0.00     0.029 A 
ATOM     43  C   UNL     1       1.993 -11.750  17.869  1.00  0.00     0.049 A 
ATOM     44  H   UNL     1       2.589  -9.760  18.034  1.00  0.00     0.167 HD
ATOM     45  C   UNL     1       4.106  -5.670  18.201  1.00  0.00     0.034 A 
ATOM     46  C   UNL     1       2.114 -12.307  19.091  1.00  0.00     0.034 A 
ATOM     47  C   UNL     1       4.117  -6.127  19.564  1.00  0.00     0.049 A 
ATOM     48  C   UNL     1       2.575 -11.455  20.244  1.00  0.00     0.074 A 
ATOM     49  C   UNL     1       4.478  -5.430  20.703  1.00  0.00     0.029 A 
ATOM     50  N   UNL     1       3.755  -7.401  19.974  1.00  0.00    -0.354 N 
ATOM     51  N   UNL     1       2.919 -10.190  20.251  1.00  0.00    -0.248 NA
ATOM     52  C   UNL     1       2.622 -12.096  21.567  1.00  0.00     0.031 C 
ATOM     53  C   UNL     1       4.360  -6.290  21.799  1.00  0.00     0.029 A 
ATOM     54  C   UNL     1       3.888  -7.512  21.347  1.00  0.00     0.049 A 
ATOM     55  H   UNL     1       3.448  -8.120  19.376  1.00  0.00     0.167 HD
ATOM     56  C   UNL     1       3.177  -9.872  21.580  1.00  0.00     0.074 A 
ATOM     57  C   UNL     1       2.933 -11.074  22.351  1.00  0.00     0.031 C 
ATOM     58  C   UNL     1       3.587  -8.694  22.112  1.00  0.00     0.034 A 
BRANCH  45  59
ATOM     59  C   UNL     1       4.583  -4.268  17.916  1.00  0.00     0.023 A 
ATOM     60  C   UNL     1       3.650  -3.273  17.555  1.00  0.00     0.012 A 
ATOM     61  C   UNL     1       5.941  -3.920  18.059  1.00  0.00     0.148 A 
ATOM     62  C   UNL     1       4.065  -1.966  17.301  1.00  0.00     0.002 A 
ATOM     63  C   UNL     1       6.339  -2.604  17.852  1.00  0.00     0.091 A 
ATOM     64  F   UNL     1       6.817  -4.881  18.384  1.00  0.00    -0.205 F 
ATOM     65  C   UNL     1       5.406  -1.630  17.460  1.00  0.00     0.022 A 
BRANCH  63  66
ATOM     66  S   UNL     1       8.029  -2.051  18.110  1.00  0.00     0.127 S 
ATOM     67  O   UNL     1       8.465  -1.787  16.739  1.00  0.00    -0.237 OA
ATOM     68  O   UNL     1       7.838  -0.853  18.930  1.00  0.00    -0.237 OA
ATOM     69  O   UNL     1       8.712  -3.146  18.784  1.00  0.00    -0.744 OA
ENDBRANCH  63  66
ENDBRANCH  45  59
BRANCH  46  70
ATOM     70  C   UNL     1       1.724 -13.730  19.305  1.00  0.00     0.023 A 
ATOM     71  C   UNL     1       0.574 -14.027  20.063  1.00  0.00     0.012 A 
ATOM     72  C   UNL     1       2.474 -14.785  18.753  1.00  0.00     0.148 A 
ATOM     73  C   UNL     1       0.200 -15.351  20.299  1.00  0.00     0.002 A 
ATOM     74  C   UNL     1       2.065 -16.100  18.945  1.00  0.00     0.091 A 
ATOM     75  F   UNL     1       3.570 -14.481  18.043  1.00  0.00    -0.205 F 
ATOM     76  C   UNL     1       0.940 -16.386  19.734  1.00  0.00     0.022 A 
BRANCH  74  77
ATOM     77  S   UNL     1       2.880 -17.488  18.149  1.00  0.00     0.127 S 
ATOM     78  O   UNL     1       3.513 -18.154  19.285  1.00  0.00    -0.237 OA
ATOM     79  O   UNL     1       1.746 -18.207  17.566  1.00  0.00    -0.237 OA
ATOM     80  O   UNL     1       3.788 -16.905  17.172  1.00  0.00    -0.744 OA
ENDBRANCH  74  77
ENDBRANCH  46  70
BRANCH  58  81
ATOM     81  C   UNL     1       3.745  -8.618  23.609  1.00  0.00     0.023 A 
ATOM     82  C   UNL     1       4.808  -9.290  24.245  1.00  0.00     0.012 A 
ATOM     83  C   UNL     1       2.874  -7.820  24.378  1.00  0.00     0.148 A 
ATOM     84  C   UNL     1       4.976  -9.202  25.627  1.00  0.00     0.002 A 
ATOM     85  C   UNL     1       3.079  -7.694  25.746  1.00  0.00     0.091 A 
ATOM     86  F   UNL     1       1.857  -7.203  23.758  1.00  0.00    -0.205 F 
ATOM     87  C   UNL     1       4.120  -8.395  26.375  1.00  0.00     0.022 A 
BRANCH  85  88
ATOM     88  S   UNL     1       2.089  -6.597  26.768  1.00  0.00     0.127 S 
ATOM     89  O   UNL     1       1.254  -7.547  27.502  1.00  0.00    -0.237 OA
ATOM     90  O   UNL     1       3.106  -5.926  27.579  1.00  0.00    -0.237 OA
ATOM     91  O   UNL     1       1.381  -5.721  25.845  1.00  0.00    -0.744 OA
ENDBRANCH  85  88
ENDBRANCH  58  81
ENDBRANCH  32  33
ENDBRANCH  24  27
ENDBRANCH  22  23
ENDBRANCH  21  22
ENDBRANCH  20  21
ENDBRANCH   3  20
TORSDOF 19
