REMARK SMILES COc1cc([C@@H]2CC(=O)Nc3c(C(=O)NCCCNC(=O)c4ccc(-c5c6nc(c(-c7cccc(S(=O)(=O)[O-])c7F)c7ccc([nH]7)c(-c7cccc(S(=O)(=O)[O-])c7F)c7nc(c(-c8cccc(S(=O)(=O)[O-])c8F)c8ccc5[nH]8)C=C7)C=C6)cc4)cn(-c4ccc(F)cc4)c32)c(OC)c2c1OCO2
REMARK SMILES IDX 17 1 16 2 15 3 13 4 14 5 12 7 6 8 7 9 94 10 8 11 11 12 86 13
REMARK SMILES IDX 9 14 10 15 85 16 5 18 3 19 4 20 99 21 98 22 100 23 95 24
REMARK SMILES IDX 102 25 101 26 2 27 1 28 96 29 97 30 87 31 88 32 93 33 89 34
REMARK SMILES IDX 92 35 90 36 91 37 18 38 19 39 20 40 21 42 22 43 23 44 84 45
REMARK SMILES IDX 24 46 83 47 25 48 26 49 27 50 77 51 28 52 82 53 76 54 78 55
REMARK SMILES IDX 29 56 81 57 75 58 74 59 30 61 62 62 42 63 61 64 43 65 46 66
REMARK SMILES IDX 60 67 79 68 44 69 45 70 59 72 80 73 47 74 31 75 32 76 40 77
REMARK SMILES IDX 33 78 35 79 41 80 34 81 36 82 37 83 38 84 39 85 63 86 64 87
REMARK SMILES IDX 72 88 65 89 67 90 73 91 66 92 68 93 69 94 70 95 71 96 48 97
REMARK SMILES IDX 49 98 57 99 50 100 52 101 58 102 51 103 53 104 54 105 55 106
REMARK SMILES IDX 56 107
REMARK H PARENT 15 6 10 17 19 41 78 60 46 71
REMARK Flexibility Score: inf
ROOT
ATOM      1  C   UNL     1      -0.539  -8.287  -7.329  1.00  0.00     0.042 C 
ENDROOT
BRANCH   1   2
ATOM      2  C   UNL     1       0.060  -7.073  -8.061  1.00  0.00     0.118 C 
BRANCH   2   3
ATOM      3  N   UNL     1      -0.956  -6.203  -8.603  1.00  0.00    -0.352 N 
ATOM      4  C   UNL     1      -1.655  -5.144  -8.092  1.00  0.00     0.254 C 
ATOM      5  O   UNL     1      -2.332  -4.522  -8.915  1.00  0.00    -0.269 OA
ATOM      6  H   UNL     1      -1.197  -6.417  -9.534  1.00  0.00     0.163 HD
BRANCH   4   7
ATOM      7  C   UNL     1      -1.624  -4.705  -6.689  1.00  0.00     0.081 A 
ATOM      8  C   UNL     1      -1.088  -4.464  -3.000  1.00  0.00     0.082 C 
ATOM      9  C   UNL     1      -0.998  -5.964  -2.693  1.00  0.00     0.115 C 
ATOM     10  C   UNL     1      -1.410  -4.262  -4.454  1.00  0.00     0.055 A 
ATOM     11  C   UNL     1      -0.248  -6.712  -3.763  1.00  0.00     0.225 C 
ATOM     12  C   UNL     1      -1.134  -5.186  -5.439  1.00  0.00     0.076 A 
ATOM     13  N   UNL     1      -2.125  -3.235  -5.018  1.00  0.00    -0.317 N 
ATOM     14  O   UNL     1       0.449  -7.697  -3.517  1.00  0.00    -0.275 OA
ATOM     15  N   UNL     1      -0.460  -6.317  -5.055  1.00  0.00    -0.324 N 
ATOM     16  C   UNL     1      -2.307  -3.534  -6.342  1.00  0.00     0.107 A 
ATOM     17  H   UNL     1      -0.099  -6.892  -5.768  1.00  0.00     0.170 HD
BRANCH   8  18
ATOM     18  C   UNL     1       0.153  -3.730  -2.480  1.00  0.00     0.012 A 
ATOM     19  C   UNL     1       1.002  -2.217  -0.748  1.00  0.00     0.165 A 
ATOM     20  C   UNL     1      -0.031  -2.966  -1.298  1.00  0.00     0.059 A 
ATOM     21  C   UNL     1       2.251  -2.321  -1.320  1.00  0.00     0.211 A 
ATOM     22  C   UNL     1       2.468  -3.087  -2.448  1.00  0.00     0.211 A 
ATOM     23  O   UNL     1       3.389  -1.720  -0.871  1.00  0.00    -0.449 OA
ATOM     24  C   UNL     1       1.441  -3.787  -3.070  1.00  0.00     0.168 A 
ATOM     25  O   UNL     1       3.777  -3.033  -2.834  1.00  0.00    -0.449 OA
ATOM     26  C   UNL     1       4.362  -2.272  -1.769  1.00  0.00     0.468 C 
BRANCH  19  27
ATOM     27  O   UNL     1       0.708  -1.454   0.343  1.00  0.00    -0.493 OA
ATOM     28  C   UNL     1       0.996  -0.076   0.110  1.00  0.00     0.278 C 
ENDBRANCH  19  27
BRANCH  24  29
ATOM     29  O   UNL     1       1.566  -4.513  -4.214  1.00  0.00    -0.492 OA
ATOM     30  C   UNL     1       2.857  -4.786  -4.738  1.00  0.00     0.278 C 
ENDBRANCH  24  29
ENDBRANCH   8  18
BRANCH  13  31
ATOM     31  C   UNL     1      -2.672  -2.123  -4.344  1.00  0.00     0.046 A 
ATOM     32  C   UNL     1      -1.847  -1.339  -3.534  1.00  0.00     0.029 A 
ATOM     33  C   UNL     1      -4.047  -1.881  -4.414  1.00  0.00     0.029 A 
ATOM     34  C   UNL     1      -2.409  -0.380  -2.698  1.00  0.00     0.041 A 
ATOM     35  C   UNL     1      -4.605  -0.918  -3.572  1.00  0.00     0.041 A 
ATOM     36  C   UNL     1      -3.786  -0.195  -2.707  1.00  0.00     0.123 A 
ATOM     37  F   UNL     1      -4.331   0.691  -1.864  1.00  0.00    -0.207 F 
ENDBRANCH  13  31
ENDBRANCH   4   7
ENDBRANCH   2   3
ENDBRANCH   1   2
BRANCH   1  38
ATOM     38  C   UNL     1      -0.533  -9.537  -8.172  1.00  0.00     0.118 C 
BRANCH  38  39
ATOM     39  N   UNL     1       0.843 -10.038  -8.334  1.00  0.00    -0.352 N 
ATOM     40  C   UNL     1       1.303 -11.058  -9.147  1.00  0.00     0.251 C 
ATOM     41  H   UNL     1       1.527  -9.587  -7.789  1.00  0.00     0.163 HD
ATOM     42  O   UNL     1       2.374 -11.597  -8.942  1.00  0.00    -0.269 OA
BRANCH  40  43
ATOM     43  C   UNL     1       0.447 -11.459 -10.272  1.00  0.00     0.039 A 
ATOM     44  C   UNL     1       0.234 -12.797 -10.604  1.00  0.00     0.014 A 
ATOM     45  C   UNL     1      -0.236 -10.435 -10.914  1.00  0.00     0.014 A 
ATOM     46  C   UNL     1      -0.745 -13.086 -11.548  1.00  0.00     0.010 A 
ATOM     47  C   UNL     1      -1.370 -10.740 -11.601  1.00  0.00     0.010 A 
ATOM     48  C   UNL     1      -1.558 -12.044 -12.022  1.00  0.00    -0.014 A 
BRANCH  48  49
ATOM     49  C   UNL     1      -2.695 -12.279 -12.892  1.00  0.00     0.031 A 
ATOM     50  C   UNL     1      -3.669 -13.249 -12.338  1.00  0.00     0.074 A 
ATOM     51  C   UNL     1      -2.939 -11.505 -13.974  1.00  0.00     0.049 A 
ATOM     52  N   UNL     1      -3.840 -14.475 -12.705  1.00  0.00    -0.248 NA
ATOM     53  C   UNL     1      -4.383 -12.895 -11.100  1.00  0.00     0.031 C 
ATOM     54  C   UNL     1      -2.224 -10.294 -14.413  1.00  0.00     0.029 A 
ATOM     55  N   UNL     1      -3.982 -11.551 -14.840  1.00  0.00    -0.354 N 
ATOM     56  C   UNL     1      -4.899 -14.941 -11.932  1.00  0.00     0.074 A 
ATOM     57  C   UNL     1      -4.991 -14.048 -10.810  1.00  0.00     0.031 C 
ATOM     58  C   UNL     1      -2.998  -9.595 -15.271  1.00  0.00     0.029 A 
ATOM     59  C   UNL     1      -4.165 -10.391 -15.589  1.00  0.00     0.049 A 
ATOM     60  H   UNL     1      -4.563 -12.340 -14.932  1.00  0.00     0.167 HD
ATOM     61  C   UNL     1      -5.802 -15.817 -12.455  1.00  0.00     0.034 A 
ATOM     62  C   UNL     1      -5.226 -10.098 -16.381  1.00  0.00     0.034 A 
ATOM     63  C   UNL     1      -5.311 -16.378 -13.694  1.00  0.00     0.049 A 
ATOM     64  C   UNL     1      -5.892 -11.383 -16.690  1.00  0.00     0.074 A 
ATOM     65  C   UNL     1      -4.188 -17.086 -14.073  1.00  0.00     0.029 A 
ATOM     66  N   UNL     1      -5.835 -15.850 -14.851  1.00  0.00    -0.354 N 
ATOM     67  N   UNL     1      -5.333 -12.328 -17.394  1.00  0.00    -0.248 NA
ATOM     68  C   UNL     1      -6.979 -11.804 -15.822  1.00  0.00     0.031 C 
ATOM     69  C   UNL     1      -3.834 -16.556 -15.350  1.00  0.00     0.029 A 
ATOM     70  C   UNL     1      -4.803 -15.621 -15.721  1.00  0.00     0.049 A 
ATOM     71  H   UNL     1      -6.787 -15.668 -15.024  1.00  0.00     0.167 HD
ATOM     72  C   UNL     1      -5.657 -13.495 -16.715  1.00  0.00     0.074 A 
ATOM     73  C   UNL     1      -6.760 -13.122 -15.827  1.00  0.00     0.031 C 
ATOM     74  C   UNL     1      -4.807 -14.564 -16.710  1.00  0.00     0.034 A 
BRANCH  61  75
ATOM     75  C   UNL     1      -7.280 -15.861 -12.118  1.00  0.00     0.023 A 
ATOM     76  C   UNL     1      -8.035 -16.896 -12.718  1.00  0.00     0.012 A 
ATOM     77  C   UNL     1      -8.012 -14.819 -11.503  1.00  0.00     0.148 A 
ATOM     78  C   UNL     1      -9.432 -16.852 -12.778  1.00  0.00     0.002 A 
ATOM     79  C   UNL     1      -9.403 -14.817 -11.498  1.00  0.00     0.091 A 
ATOM     80  F   UNL     1      -7.387 -13.744 -11.022  1.00  0.00    -0.205 F 
ATOM     81  C   UNL     1     -10.117 -15.812 -12.166  1.00  0.00     0.022 A 
BRANCH  79  82
ATOM     82  S   UNL     1     -10.344 -13.517 -10.687  1.00  0.00     0.127 S 
ATOM     83  O   UNL     1     -10.896 -12.800 -11.832  1.00  0.00    -0.237 OA
ATOM     84  O   UNL     1     -11.313 -14.293  -9.912  1.00  0.00    -0.237 OA
ATOM     85  O   UNL     1      -9.383 -12.780  -9.875  1.00  0.00    -0.744 OA
ENDBRANCH  79  82
ENDBRANCH  61  75
BRANCH  62  86
ATOM     86  C   UNL     1      -5.867  -8.796 -16.678  1.00  0.00     0.023 A 
ATOM     87  C   UNL     1      -6.698  -8.668 -17.810  1.00  0.00     0.012 A 
ATOM     88  C   UNL     1      -5.910  -7.775 -15.702  1.00  0.00     0.148 A 
ATOM     89  C   UNL     1      -7.572  -7.581 -17.947  1.00  0.00     0.002 A 
ATOM     90  C   UNL     1      -6.780  -6.696 -15.843  1.00  0.00     0.091 A 
ATOM     91  F   UNL     1      -5.169  -7.913 -14.595  1.00  0.00    -0.205 F 
ATOM     92  C   UNL     1      -7.621  -6.602 -16.959  1.00  0.00     0.022 A 
BRANCH  90  93
ATOM     93  S   UNL     1      -6.929  -5.412 -14.594  1.00  0.00     0.127 S 
ATOM     94  O   UNL     1      -6.782  -4.195 -15.394  1.00  0.00    -0.237 OA
ATOM     95  O   UNL     1      -8.275  -5.647 -14.079  1.00  0.00    -0.237 OA
ATOM     96  O   UNL     1      -5.843  -5.648 -13.652  1.00  0.00    -0.744 OA
ENDBRANCH  90  93
ENDBRANCH  62  86
BRANCH  74  97
ATOM     97  C   UNL     1      -3.639 -14.547 -17.666  1.00  0.00     0.023 A 
ATOM     98  C   UNL     1      -2.584 -13.613 -17.574  1.00  0.00     0.012 A 
ATOM     99  C   UNL     1      -3.519 -15.615 -18.569  1.00  0.00     0.148 A 
ATOM    100  C   UNL     1      -1.445 -13.737 -18.377  1.00  0.00     0.002 A 
ATOM    101  C   UNL     1      -2.367 -15.762 -19.330  1.00  0.00     0.091 A 
ATOM    102  F   UNL     1      -4.529 -16.495 -18.642  1.00  0.00    -0.205 F 
ATOM    103  C   UNL     1      -1.330 -14.820 -19.245  1.00  0.00     0.022 A 
BRANCH 101 104
ATOM    104  S   UNL     1      -2.112 -17.201 -20.369  1.00  0.00     0.127 S 
ATOM    105  O   UNL     1      -2.286 -16.645 -21.709  1.00  0.00    -0.237 OA
ATOM    106  O   UNL     1      -0.738 -17.586 -20.039  1.00  0.00    -0.237 OA
ATOM    107  O   UNL     1      -3.116 -18.176 -19.960  1.00  0.00    -0.744 OA
ENDBRANCH 101 104
ENDBRANCH  74  97
ENDBRANCH  48  49
ENDBRANCH  40  43
ENDBRANCH  38  39
ENDBRANCH   1  38
TORSDOF 17
