REMARK SMILES O=C(NCCCNC(=O)[C@@H]1CC2(CC[NH2+]CC2)C[N@@H+]1Cc1cccc2nonc12)c1ccc(-c2c3nc(c(-c4cccc(S(=O)(=O)[O-])c4F)c4ccc([nH]4)c(-c4cccc(S(=O)(=O)[O-])c4F)c4nc(c(-c5cccc(S(=O)(=O)[O-])c5F)c5ccc2[nH]5)C=C4)C=C3)cc1
REMARK SMILES IDX 4 1 3 2 1 3 2 4 30 6 31 7 92 8 32 9 91 10 33 11 34 12 35 13
REMARK SMILES IDX 85 14 36 15 90 16 84 17 86 18 37 19 89 20 83 21 82 22 38 24
REMARK SMILES IDX 70 25 50 26 69 27 51 28 54 29 68 30 87 31 52 32 53 33 67 35
REMARK SMILES IDX 88 36 55 37 39 38 40 39 48 40 41 41 43 42 49 43 42 44 44 45
REMARK SMILES IDX 45 46 46 47 47 48 71 49 72 50 80 51 73 52 75 53 81 54 74 55
REMARK SMILES IDX 76 56 77 57 78 58 79 59 56 60 57 61 65 62 58 63 60 64 66 65
REMARK SMILES IDX 59 66 61 67 62 68 63 69 64 70 5 71 6 72 7 73 8 74 9 76 10 77
REMARK SMILES IDX 11 78 19 79 12 80 18 81 13 83 17 84 14 85 16 86 15 87 20 90
REMARK SMILES IDX 21 91 22 92 29 93 23 94 25 95 28 96 24 97 26 98 27 99
REMARK H PARENT 3 5 86 23 54 34 7 75 19 82 15 88 15 89
REMARK Flexibility Score: inf
ROOT
ATOM      1  C   UNL     1       3.625   0.708   0.975  1.00  0.00     0.118 C 
ENDROOT
BRANCH   1   2
ATOM      2  N   UNL     1       2.273   0.276   0.768  1.00  0.00    -0.352 N 
ATOM      3  O   UNL     1       0.322   0.355  -0.276  1.00  0.00    -0.269 OA
ATOM      4  C   UNL     1       1.543   0.232  -0.386  1.00  0.00     0.251 C 
ATOM      5  H   UNL     1       1.802  -0.033   1.575  1.00  0.00     0.163 HD
BRANCH   4   6
ATOM      6  C   UNL     1       2.121   0.043  -1.738  1.00  0.00     0.039 A 
ATOM      7  C   UNL     1       1.527   0.789  -2.767  1.00  0.00     0.014 A 
ATOM      8  C   UNL     1       2.955  -1.033  -2.060  1.00  0.00     0.014 A 
ATOM      9  C   UNL     1       1.697   0.424  -4.101  1.00  0.00     0.010 A 
ATOM     10  C   UNL     1       3.123  -1.399  -3.409  1.00  0.00     0.010 A 
ATOM     11  C   UNL     1       2.469  -0.691  -4.434  1.00  0.00    -0.014 A 
BRANCH  11  12
ATOM     12  C   UNL     1       2.560  -1.035  -5.875  1.00  0.00     0.031 A 
ATOM     13  C   UNL     1       3.951  -1.188  -6.385  1.00  0.00     0.074 A 
ATOM     14  C   UNL     1       1.566  -1.702  -6.513  1.00  0.00     0.049 A 
ATOM     15  N   UNL     1       4.599  -2.288  -6.170  1.00  0.00    -0.248 NA
ATOM     16  C   UNL     1       4.797  -0.117  -6.900  1.00  0.00     0.031 C 
ATOM     17  C   UNL     1       0.619  -2.599  -5.828  1.00  0.00     0.029 A 
ATOM     18  N   UNL     1       1.305  -1.910  -7.855  1.00  0.00    -0.354 N 
ATOM     19  C   UNL     1       5.933  -2.080  -6.471  1.00  0.00     0.074 A 
ATOM     20  C   UNL     1       6.005  -0.712  -6.934  1.00  0.00     0.031 C 
ATOM     21  C   UNL     1       0.005  -3.374  -6.746  1.00  0.00     0.029 A 
ATOM     22  C   UNL     1       0.397  -2.944  -8.083  1.00  0.00     0.049 A 
ATOM     23  H   UNL     1       1.719  -1.383  -8.576  1.00  0.00     0.167 HD
ATOM     24  C   UNL     1       6.844  -3.088  -6.340  1.00  0.00     0.034 A 
ATOM     25  C   UNL     1       0.331  -3.720  -9.200  1.00  0.00     0.034 A 
ATOM     26  C   UNL     1       6.315  -4.377  -5.928  1.00  0.00     0.049 A 
ATOM     27  C   UNL     1       1.499  -4.654  -8.975  1.00  0.00     0.074 A 
ATOM     28  C   UNL     1       6.654  -5.447  -5.124  1.00  0.00     0.029 A 
ATOM     29  N   UNL     1       5.085  -4.693  -6.432  1.00  0.00    -0.354 N 
ATOM     30  N   UNL     1       1.541  -5.657  -8.134  1.00  0.00    -0.248 NA
ATOM     31  C   UNL     1       2.807  -4.260  -9.521  1.00  0.00     0.031 C 
ATOM     32  C   UNL     1       5.596  -6.420  -5.233  1.00  0.00     0.029 A 
ATOM     33  C   UNL     1       4.668  -5.956  -6.152  1.00  0.00     0.049 A 
ATOM     34  H   UNL     1       4.545  -4.058  -6.955  1.00  0.00     0.167 HD
ATOM     35  C   UNL     1       2.890  -5.801  -7.825  1.00  0.00     0.074 A 
ATOM     36  C   UNL     1       3.621  -5.031  -8.812  1.00  0.00     0.031 C 
ATOM     37  C   UNL     1       3.373  -6.336  -6.665  1.00  0.00     0.034 A 
BRANCH  24  38
ATOM     38  C   UNL     1       8.225  -3.029  -6.896  1.00  0.00     0.023 A 
ATOM     39  C   UNL     1       8.371  -3.500  -8.219  1.00  0.00     0.012 A 
ATOM     40  C   UNL     1       9.376  -2.737  -6.143  1.00  0.00     0.148 A 
ATOM     41  C   UNL     1       9.629  -3.698  -8.782  1.00  0.00     0.002 A 
ATOM     42  C   UNL     1      10.636  -2.939  -6.713  1.00  0.00     0.091 A 
ATOM     43  F   UNL     1       9.225  -2.308  -4.882  1.00  0.00    -0.205 F 
ATOM     44  C   UNL     1      10.762  -3.424  -8.027  1.00  0.00     0.022 A 
BRANCH  42  45
ATOM     45  S   UNL     1      12.182  -2.654  -5.836  1.00  0.00     0.127 S 
ATOM     46  O   UNL     1      12.770  -3.993  -5.806  1.00  0.00    -0.237 OA
ATOM     47  O   UNL     1      12.863  -1.711  -6.724  1.00  0.00    -0.237 OA
ATOM     48  O   UNL     1      11.812  -2.107  -4.538  1.00  0.00    -0.744 OA
ENDBRANCH  42  45
ENDBRANCH  24  38
BRANCH  25  49
ATOM     49  C   UNL     1       0.075  -3.024 -10.512  1.00  0.00     0.023 A 
ATOM     50  C   UNL     1      -0.889  -1.985 -10.528  1.00  0.00     0.012 A 
ATOM     51  C   UNL     1       0.690  -3.346 -11.738  1.00  0.00     0.148 A 
ATOM     52  C   UNL     1      -1.120  -1.207 -11.666  1.00  0.00     0.002 A 
ATOM     53  C   UNL     1       0.503  -2.533 -12.857  1.00  0.00     0.091 A 
ATOM     54  F   UNL     1       1.457  -4.440 -11.811  1.00  0.00    -0.205 F 
ATOM     55  C   UNL     1      -0.393  -1.456 -12.821  1.00  0.00     0.022 A 
BRANCH  53  56
ATOM     56  S   UNL     1       1.437  -2.740 -14.380  1.00  0.00     0.127 S 
ATOM     57  O   UNL     1       0.387  -2.724 -15.391  1.00  0.00    -0.237 OA
ATOM     58  O   UNL     1       2.294  -1.560 -14.354  1.00  0.00    -0.237 OA
ATOM     59  O   UNL     1       2.137  -4.018 -14.240  1.00  0.00    -0.744 OA
ENDBRANCH  53  56
ENDBRANCH  25  49
BRANCH  37  60
ATOM     60  C   UNL     1       2.505  -7.282  -5.920  1.00  0.00     0.023 A 
ATOM     61  C   UNL     1       2.216  -8.504  -6.558  1.00  0.00     0.012 A 
ATOM     62  C   UNL     1       2.090  -7.072  -4.594  1.00  0.00     0.148 A 
ATOM     63  C   UNL     1       1.548  -9.519  -5.884  1.00  0.00     0.002 A 
ATOM     64  C   UNL     1       1.427  -8.095  -3.922  1.00  0.00     0.091 A 
ATOM     65  F   UNL     1       2.366  -5.899  -4.005  1.00  0.00    -0.205 F 
ATOM     66  C   UNL     1       1.163  -9.319  -4.564  1.00  0.00     0.022 A 
BRANCH  64  67
ATOM     67  S   UNL     1       0.895  -7.964  -2.211  1.00  0.00     0.127 S 
ATOM     68  O   UNL     1      -0.517  -8.340  -2.299  1.00  0.00    -0.237 OA
ATOM     69  O   UNL     1       1.746  -8.956  -1.554  1.00  0.00    -0.237 OA
ATOM     70  O   UNL     1       1.130  -6.583  -1.811  1.00  0.00    -0.744 OA
ENDBRANCH  64  67
ENDBRANCH  37  60
ENDBRANCH  11  12
ENDBRANCH   4   6
ENDBRANCH   1   2
BRANCH   1  71
ATOM     71  C   UNL     1       3.792   1.403   2.346  1.00  0.00     0.042 C 
BRANCH  71  72
ATOM     72  C   UNL     1       3.248   0.947   3.790  1.00  0.00     0.118 C 
BRANCH  72  73
ATOM     73  N   UNL     1       3.337  -0.424   4.550  1.00  0.00    -0.351 N 
ATOM     74  C   UNL     1       4.170  -1.324   5.274  1.00  0.00     0.278 C 
ATOM     75  H   UNL     1       2.442  -0.832   4.510  1.00  0.00     0.163 HD
ATOM     76  O   UNL     1       3.727  -2.474   5.427  1.00  0.00    -0.268 OA
BRANCH  74  77
ATOM     77  C   UNL     1       5.554  -0.996   5.974  1.00  0.00     0.275 C 
ATOM     78  C   UNL     1       5.583  -0.752   7.505  1.00  0.00     0.089 C 
ATOM     79  N   UNL     1       5.880   0.308   5.505  1.00  0.00    -0.320 N 
ATOM     80  C   UNL     1       4.498   0.296   7.664  1.00  0.00     0.036 C 
ATOM     81  C   UNL     1       5.002   1.186   6.385  1.00  0.00     0.270 C 
ATOM     82  H   UNL     1       6.690   0.922   5.586  1.00  0.00     0.349 HD
ATOM     83  C   UNL     1       4.404   1.114   8.977  1.00  0.00     0.074 C 
ATOM     84  C   UNL     1       3.092  -0.429   7.691  1.00  0.00     0.074 C 
ATOM     85  C   UNL     1       4.073   0.265  10.230  1.00  0.00     0.261 C 
ATOM     86  C   UNL     1       2.982  -1.404   8.880  1.00  0.00     0.261 C 
ATOM     87  N   UNL     1       2.923  -0.638  10.114  1.00  0.00    -0.346 N 
ATOM     88  H   UNL     1       2.065  -0.087  10.124  1.00  0.00     0.346 HD
ATOM     89  H   UNL     1       2.941  -1.288  10.900  1.00  0.00     0.346 HD
BRANCH  79  90
ATOM     90  C   UNL     1       6.282   0.201   4.040  1.00  0.00     0.302 C 
BRANCH  90  91
ATOM     91  C   UNL     1       5.990  -1.106   3.127  1.00  0.00     0.038 A 
ATOM     92  C   UNL     1       4.723  -1.597   2.639  1.00  0.00     0.012 A 
ATOM     93  C   UNL     1       6.928  -2.034   2.609  1.00  0.00     0.144 A 
ATOM     94  C   UNL     1       4.334  -2.846   2.068  1.00  0.00     0.003 A 
ATOM     95  C   UNL     1       6.572  -3.324   1.933  1.00  0.00     0.135 A 
ATOM     96  N   UNL     1       8.264  -1.952   2.604  1.00  0.00    -0.049 NA
ATOM     97  C   UNL     1       5.267  -3.792   1.730  1.00  0.00     0.034 A 
ATOM     98  N   UNL     1       7.704  -3.927   1.568  1.00  0.00    -0.050 NA
ATOM     99  O   UNL     1       8.720  -3.060   1.907  1.00  0.00    -0.243 OA
ENDBRANCH  90  91
ENDBRANCH  79  90
ENDBRANCH  74  77
ENDBRANCH  72  73
ENDBRANCH  71  72
ENDBRANCH   1  71
TORSDOF 15
