REMARK SMILES Nc1c(C(=O)NCCCNC(=O)c2ccc(-c3c4nc(c(-c5cccc(S(=O)(=O)[O-])c5F)c5ccc([nH]5)c(-c5cccc(S(=O)(=O)[O-])c5F)c5nc(c(-c6cccc(S(=O)(=O)[O-])c6F)c6ccc3[nH]6)C=C5)C=C4)cc2)cccc1-c1cc(F)c(F)c(F)c1
REMARK SMILES IDX 9 1 8 2 7 3 6 4 4 5 5 6 3 8 2 9 79 10 76 11 78 12 77 13 1 14
REMARK SMILES IDX 80 17 81 18 88 19 82 20 86 21 83 22 84 23 87 24 85 25 10 26
REMARK SMILES IDX 11 27 12 29 13 30 14 31 75 32 15 33 74 34 16 35 17 36 18 37
REMARK SMILES IDX 68 38 19 39 73 40 67 41 69 42 20 43 72 44 66 45 65 46 21 48
REMARK SMILES IDX 53 49 33 50 52 51 34 52 37 53 51 54 70 55 35 56 36 57 50 59
REMARK SMILES IDX 71 60 38 61 22 62 23 63 31 64 24 65 26 66 32 67 25 68 27 69
REMARK SMILES IDX 28 70 29 71 30 72 54 73 55 74 63 75 56 76 58 77 64 78 57 79
REMARK SMILES IDX 59 80 60 81 61 82 62 83 39 84 40 85 48 86 41 87 43 88 49 89
REMARK SMILES IDX 42 90 44 91 45 92 46 93 47 94
REMARK H PARENT 6 7 1 15 1 16 10 28 69 47 37 58
REMARK Flexibility Score: inf
ROOT
ATOM      1  C   UNL     1       5.008  -2.879   1.435  1.00  0.00     0.118 C 
ENDROOT
BRANCH   1   2
ATOM      2  C   UNL     1       4.080  -1.719   1.764  1.00  0.00     0.042 C 
BRANCH   2   3
ATOM      3  C   UNL     1       3.155  -1.294   0.638  1.00  0.00     0.118 C 
BRANCH   3   4
ATOM      4  N   UNL     1       2.276  -2.338   0.125  1.00  0.00    -0.352 N 
ATOM      5  C   UNL     1       0.995  -2.253  -0.379  1.00  0.00     0.253 C 
ATOM      6  O   UNL     1       0.453  -3.280  -0.787  1.00  0.00    -0.269 OA
ATOM      7  H   UNL     1       2.656  -3.245   0.141  1.00  0.00     0.163 HD
BRANCH   5   8
ATOM      8  C   UNL     1       0.224  -0.979  -0.366  1.00  0.00     0.063 A 
ATOM      9  C   UNL     1       0.768   0.277  -0.720  1.00  0.00     0.052 A 
ATOM     10  C   UNL     1       0.038   1.453  -0.397  1.00  0.00     0.006 A 
ATOM     11  C   UNL     1      -1.099  -1.079   0.093  1.00  0.00     0.016 A 
ATOM     12  C   UNL     1      -1.289   1.316   0.067  1.00  0.00     0.011 A 
ATOM     13  C   UNL     1      -1.865   0.064   0.275  1.00  0.00     0.002 A 
BRANCH   9  14
ATOM     14  N   UNL     1       1.970   0.357  -1.433  1.00  0.00    -0.398 N 
ATOM     15  H   UNL     1       2.468  -0.464  -1.651  1.00  0.00     0.156 HD
ATOM     16  H   UNL     1       2.317   1.234  -1.715  1.00  0.00     0.156 HD
ENDBRANCH   9  14
BRANCH  10  17
ATOM     17  C   UNL     1       0.649   2.805  -0.422  1.00  0.00    -0.010 A 
ATOM     18  C   UNL     1       0.599   3.615   0.732  1.00  0.00     0.051 A 
ATOM     19  C   UNL     1       1.350   3.303  -1.532  1.00  0.00     0.051 A 
ATOM     20  C   UNL     1       1.251   4.847   0.776  1.00  0.00     0.162 A 
ATOM     21  C   UNL     1       2.027   4.521  -1.461  1.00  0.00     0.162 A 
ATOM     22  F   UNL     1       1.171   5.589   1.888  1.00  0.00    -0.204 F 
ATOM     23  C   UNL     1       1.981   5.295  -0.312  1.00  0.00     0.194 A 
ATOM     24  F   UNL     1       2.740   4.931  -2.519  1.00  0.00    -0.204 F 
ATOM     25  F   UNL     1       2.634   6.463  -0.257  1.00  0.00    -0.200 F 
ENDBRANCH  10  17
ENDBRANCH   5   8
ENDBRANCH   3   4
ENDBRANCH   2   3
ENDBRANCH   1   2
BRANCH   1  26
ATOM     26  N   UNL     1       5.938  -2.618   0.340  1.00  0.00    -0.352 N 
ATOM     27  C   UNL     1       7.292  -2.369   0.322  1.00  0.00     0.251 C 
ATOM     28  H   UNL     1       5.519  -2.619  -0.550  1.00  0.00     0.163 HD
ATOM     29  O   UNL     1       7.828  -2.087  -0.750  1.00  0.00    -0.269 OA
BRANCH  27  30
ATOM     30  C   UNL     1       8.102  -2.390   1.562  1.00  0.00     0.039 A 
ATOM     31  C   UNL     1       9.117  -1.441   1.729  1.00  0.00     0.014 A 
ATOM     32  C   UNL     1       7.879  -3.331   2.564  1.00  0.00     0.014 A 
ATOM     33  C   UNL     1       9.822  -1.374   2.937  1.00  0.00     0.010 A 
ATOM     34  C   UNL     1       8.484  -3.180   3.807  1.00  0.00     0.010 A 
ATOM     35  C   UNL     1       9.469  -2.204   4.011  1.00  0.00    -0.014 A 
BRANCH  35  36
ATOM     36  C   UNL     1      10.100  -2.079   5.355  1.00  0.00     0.031 A 
ATOM     37  C   UNL     1      10.764  -3.272   5.997  1.00  0.00     0.074 A 
ATOM     38  C   UNL     1       9.967  -0.932   6.053  1.00  0.00     0.049 A 
ATOM     39  N   UNL     1      11.250  -3.396   7.205  1.00  0.00    -0.248 NA
ATOM     40  C   UNL     1      10.854  -4.502   5.191  1.00  0.00     0.031 C 
ATOM     41  C   UNL     1       9.263   0.267   5.592  1.00  0.00     0.029 A 
ATOM     42  N   UNL     1      10.392  -0.597   7.316  1.00  0.00    -0.354 N 
ATOM     43  C   UNL     1      11.645  -4.724   7.322  1.00  0.00     0.074 A 
ATOM     44  C   UNL     1      11.305  -5.376   6.078  1.00  0.00     0.031 C 
ATOM     45  C   UNL     1       9.313   1.206   6.551  1.00  0.00     0.029 A 
ATOM     46  C   UNL     1      10.020   0.669   7.708  1.00  0.00     0.049 A 
ATOM     47  H   UNL     1      10.914  -1.206   7.887  1.00  0.00     0.167 HD
ATOM     48  C   UNL     1      12.267  -5.340   8.355  1.00  0.00     0.034 A 
ATOM     49  C   UNL     1      10.217   1.323   8.870  1.00  0.00     0.034 A 
ATOM     50  C   UNL     1      12.677  -4.671   9.560  1.00  0.00     0.049 A 
ATOM     51  C   UNL     1      10.985   0.643   9.971  1.00  0.00     0.074 A 
ATOM     52  C   UNL     1      13.416  -5.177  10.614  1.00  0.00     0.029 A 
ATOM     53  N   UNL     1      12.388  -3.352   9.868  1.00  0.00    -0.354 N 
ATOM     54  N   UNL     1      11.495  -0.565   9.996  1.00  0.00    -0.248 NA
ATOM     55  C   UNL     1      11.239   1.427  11.188  1.00  0.00     0.031 C 
ATOM     56  C   UNL     1      13.562  -4.165  11.569  1.00  0.00     0.029 A 
ATOM     57  C   UNL     1      12.931  -3.024  11.098  1.00  0.00     0.049 A 
ATOM     58  H   UNL     1      11.873  -2.738   9.297  1.00  0.00     0.167 HD
ATOM     59  C   UNL     1      12.158  -0.673  11.213  1.00  0.00     0.074 A 
ATOM     60  C   UNL     1      12.004   0.599  11.887  1.00  0.00     0.031 C 
ATOM     61  C   UNL     1      12.821  -1.736  11.732  1.00  0.00     0.034 A 
BRANCH  48  62
ATOM     62  C   UNL     1      12.607  -6.801   8.199  1.00  0.00     0.023 A 
ATOM     63  C   UNL     1      13.622  -7.186   7.299  1.00  0.00     0.012 A 
ATOM     64  C   UNL     1      11.965  -7.784   8.977  1.00  0.00     0.148 A 
ATOM     65  C   UNL     1      13.965  -8.528   7.144  1.00  0.00     0.002 A 
ATOM     66  C   UNL     1      12.345  -9.116   8.851  1.00  0.00     0.091 A 
ATOM     67  F   UNL     1      10.989  -7.404   9.813  1.00  0.00    -0.205 F 
ATOM     68  C   UNL     1      13.335  -9.491   7.927  1.00  0.00     0.022 A 
BRANCH  66  69
ATOM     69  S   UNL     1      11.653 -10.422   9.872  1.00  0.00     0.127 S 
ATOM     70  O   UNL     1      10.824 -11.143   8.907  1.00  0.00    -0.237 OA
ATOM     71  O   UNL     1      12.851 -11.143  10.304  1.00  0.00    -0.237 OA
ATOM     72  O   UNL     1      10.929  -9.753  10.943  1.00  0.00    -0.744 OA
ENDBRANCH  66  69
ENDBRANCH  48  62
BRANCH  49  73
ATOM     73  C   UNL     1       9.746   2.729   9.022  1.00  0.00     0.023 A 
ATOM     74  C   UNL     1      10.693   3.772   9.057  1.00  0.00     0.012 A 
ATOM     75  C   UNL     1       8.376   3.045   9.097  1.00  0.00     0.148 A 
ATOM     76  C   UNL     1      10.287   5.099   9.196  1.00  0.00     0.002 A 
ATOM     77  C   UNL     1       7.976   4.374   9.181  1.00  0.00     0.091 A 
ATOM     78  F   UNL     1       7.490   2.039   9.073  1.00  0.00    -0.205 F 
ATOM     79  C   UNL     1       8.929   5.401   9.248  1.00  0.00     0.022 A 
BRANCH  77  80
ATOM     80  S   UNL     1       6.248   4.864   9.119  1.00  0.00     0.127 S 
ATOM     81  O   UNL     1       6.006   5.284  10.496  1.00  0.00    -0.237 OA
ATOM     82  O   UNL     1       6.277   5.950   8.138  1.00  0.00    -0.237 OA
ATOM     83  O   UNL     1       5.521   3.680   8.679  1.00  0.00    -0.744 OA
ENDBRANCH  77  80
ENDBRANCH  49  73
BRANCH  61  84
ATOM     84  C   UNL     1      13.466  -1.568  13.081  1.00  0.00     0.023 A 
ATOM     85  C   UNL     1      12.666  -1.523  14.239  1.00  0.00     0.012 A 
ATOM     86  C   UNL     1      14.870  -1.540  13.207  1.00  0.00     0.148 A 
ATOM     87  C   UNL     1      13.251  -1.422  15.501  1.00  0.00     0.002 A 
ATOM     88  C   UNL     1      15.447  -1.489  14.470  1.00  0.00     0.091 A 
ATOM     89  F   UNL     1      15.613  -1.565  12.091  1.00  0.00    -0.205 F 
ATOM     90  C   UNL     1      14.640  -1.418  15.617  1.00  0.00     0.022 A 
BRANCH  88  91
ATOM     91  S   UNL     1      17.224  -1.579  14.718  1.00  0.00     0.127 S 
ATOM     92  O   UNL     1      17.544  -0.199  15.083  1.00  0.00    -0.237 OA
ATOM     93  O   UNL     1      17.337  -2.541  15.815  1.00  0.00    -0.237 OA
ATOM     94  O   UNL     1      17.782  -2.038  13.454  1.00  0.00    -0.744 OA
ENDBRANCH  88  91
ENDBRANCH  61  84
ENDBRANCH  35  36
ENDBRANCH  27  30
ENDBRANCH   1  26
TORSDOF 15
