REMARK SMILES O=C(NCCCNC(=O)[C@@H]1Cc2[nH]cnc2CN1C(=O)NCC(F)(F)F)c1ccc(-c2c3nc(c(-c4cccc(S(=O)(=O)[O-])c4F)c4ccc([nH]4)c(-c4cccc(S(=O)(=O)[O-])c4F)c4nc(c(-c5cccc(S(=O)(=O)[O-])c5F)c5ccc2[nH]5)C=C4)C=C3)cc1
REMARK SMILES IDX 5 1 4 2 3 3 1 4 2 5 27 7 28 8 89 9 29 10 88 11 30 12 31 13
REMARK SMILES IDX 32 14 82 15 33 16 87 17 81 18 83 19 34 20 86 21 80 22 79 23
REMARK SMILES IDX 35 25 67 26 47 27 66 28 48 29 51 30 65 31 84 32 49 33 50 34
REMARK SMILES IDX 64 36 85 37 52 38 36 39 37 40 45 41 38 42 40 43 46 44 39 45
REMARK SMILES IDX 41 46 42 47 43 48 44 49 68 50 69 51 77 52 70 53 72 54 78 55
REMARK SMILES IDX 71 56 73 57 74 58 75 59 76 60 53 61 54 62 62 63 55 64 57 65
REMARK SMILES IDX 63 66 56 67 58 68 59 69 60 70 61 71 6 72 7 73 8 74 9 76
REMARK SMILES IDX 10 77 11 78 18 79 12 80 17 81 13 82 16 83 14 84 15 86 19 87
REMARK SMILES IDX 20 88 21 89 22 91 23 92 24 93 25 94 26 95
REMARK H PARENT 3 6 83 24 51 35 7 75 13 85 21 90
REMARK Flexibility Score: inf
ROOT
ATOM      1  C   UNL     1       8.049   6.417  -1.985  1.00  0.00     0.042 C 
ENDROOT
BRANCH   1   2
ATOM      2  C   UNL     1       9.470   6.808  -2.378  1.00  0.00     0.118 C 
BRANCH   2   3
ATOM      3  N   UNL     1      10.232   5.722  -2.956  1.00  0.00    -0.352 N 
ATOM      4  O   UNL     1      11.128   4.209  -4.269  1.00  0.00    -0.269 OA
ATOM      5  C   UNL     1      10.303   5.124  -4.182  1.00  0.00     0.251 C 
ATOM      6  H   UNL     1      10.851   5.316  -2.308  1.00  0.00     0.163 HD
BRANCH   5   7
ATOM      7  C   UNL     1       9.448   5.438  -5.360  1.00  0.00     0.039 A 
ATOM      8  C   UNL     1       8.594   6.535  -5.495  1.00  0.00     0.014 A 
ATOM      9  C   UNL     1       9.534   4.521  -6.426  1.00  0.00     0.014 A 
ATOM     10  C   UNL     1       7.795   6.669  -6.633  1.00  0.00     0.010 A 
ATOM     11  C   UNL     1       8.751   4.657  -7.566  1.00  0.00     0.010 A 
ATOM     12  C   UNL     1       7.854   5.716  -7.656  1.00  0.00    -0.014 A 
BRANCH  12  13
ATOM     13  C   UNL     1       7.103   5.946  -8.890  1.00  0.00     0.031 A 
ATOM     14  C   UNL     1       7.543   7.148  -9.663  1.00  0.00     0.074 A 
ATOM     15  C   UNL     1       6.211   5.069  -9.398  1.00  0.00     0.049 A 
ATOM     16  N   UNL     1       6.848   8.193  -9.982  1.00  0.00    -0.248 NA
ATOM     17  C   UNL     1       8.966   7.247 -10.024  1.00  0.00     0.031 C 
ATOM     18  C   UNL     1       5.908   3.716  -8.919  1.00  0.00     0.029 A 
ATOM     19  N   UNL     1       5.475   5.154 -10.545  1.00  0.00    -0.354 N 
ATOM     20  C   UNL     1       7.691   8.988 -10.761  1.00  0.00     0.074 A 
ATOM     21  C   UNL     1       9.013   8.438 -10.621  1.00  0.00     0.031 C 
ATOM     22  C   UNL     1       5.255   3.034  -9.888  1.00  0.00     0.029 A 
ATOM     23  C   UNL     1       4.973   3.933 -10.992  1.00  0.00     0.049 A 
ATOM     24  H   UNL     1       5.313   6.004 -11.015  1.00  0.00     0.167 HD
ATOM     25  C   UNL     1       7.210   9.920 -11.630  1.00  0.00     0.034 A 
ATOM     26  C   UNL     1       4.430   3.669 -12.209  1.00  0.00     0.034 A 
ATOM     27  C   UNL     1       5.838  10.245 -11.355  1.00  0.00     0.049 A 
ATOM     28  C   UNL     1       4.015   4.959 -12.799  1.00  0.00     0.074 A 
ATOM     29  C   UNL     1       5.159  10.790 -10.284  1.00  0.00     0.029 A 
ATOM     30  N   UNL     1       4.883   9.652 -12.143  1.00  0.00    -0.354 N 
ATOM     31  N   UNL     1       3.058   5.696 -12.313  1.00  0.00    -0.248 NA
ATOM     32  C   UNL     1       4.951   5.637 -13.678  1.00  0.00     0.031 C 
ATOM     33  C   UNL     1       3.932  10.066 -10.228  1.00  0.00     0.029 A 
ATOM     34  C   UNL     1       3.908   9.178 -11.306  1.00  0.00     0.049 A 
ATOM     35  H   UNL     1       4.897   9.581 -13.124  1.00  0.00     0.167 HD
ATOM     36  C   UNL     1       3.534   6.993 -12.435  1.00  0.00     0.074 A 
ATOM     37  C   UNL     1       4.651   6.902 -13.374  1.00  0.00     0.031 C 
ATOM     38  C   UNL     1       3.166   7.963 -11.547  1.00  0.00     0.034 A 
BRANCH  25  39
ATOM     39  C   UNL     1       7.868  10.312 -12.934  1.00  0.00     0.023 A 
ATOM     40  C   UNL     1       7.347  11.429 -13.626  1.00  0.00     0.012 A 
ATOM     41  C   UNL     1       8.780   9.492 -13.637  1.00  0.00     0.148 A 
ATOM     42  C   UNL     1       7.687  11.693 -14.959  1.00  0.00     0.002 A 
ATOM     43  C   UNL     1       9.173   9.801 -14.935  1.00  0.00     0.091 A 
ATOM     44  F   UNL     1       9.178   8.333 -13.106  1.00  0.00    -0.205 F 
ATOM     45  C   UNL     1       8.607  10.883 -15.612  1.00  0.00     0.022 A 
BRANCH  43  46
ATOM     46  S   UNL     1      10.396   8.814 -15.809  1.00  0.00     0.127 S 
ATOM     47  O   UNL     1       9.562   8.123 -16.794  1.00  0.00    -0.237 OA
ATOM     48  O   UNL     1      11.273   9.850 -16.362  1.00  0.00    -0.237 OA
ATOM     49  O   UNL     1      11.021   7.980 -14.799  1.00  0.00    -0.744 OA
ENDBRANCH  43  46
ENDBRANCH  25  39
BRANCH  26  50
ATOM     50  C   UNL     1       4.494   2.437 -13.032  1.00  0.00     0.023 A 
ATOM     51  C   UNL     1       3.549   2.220 -14.057  1.00  0.00     0.012 A 
ATOM     52  C   UNL     1       5.653   1.631 -13.014  1.00  0.00     0.148 A 
ATOM     53  C   UNL     1       3.767   1.252 -15.047  1.00  0.00     0.002 A 
ATOM     54  C   UNL     1       5.864   0.670 -13.999  1.00  0.00     0.091 A 
ATOM     55  F   UNL     1       6.590   1.875 -12.089  1.00  0.00    -0.205 F 
ATOM     56  C   UNL     1       4.928   0.484 -15.024  1.00  0.00     0.022 A 
BRANCH  54  57
ATOM     57  S   UNL     1       7.357  -0.331 -14.056  1.00  0.00     0.127 S 
ATOM     58  O   UNL     1       6.808  -1.681 -14.179  1.00  0.00    -0.237 OA
ATOM     59  O   UNL     1       8.013   0.177 -15.258  1.00  0.00    -0.237 OA
ATOM     60  O   UNL     1       8.053  -0.078 -12.801  1.00  0.00    -0.744 OA
ENDBRANCH  54  57
ENDBRANCH  26  50
BRANCH  38  61
ATOM     61  C   UNL     1       2.062   7.643 -10.568  1.00  0.00     0.023 A 
ATOM     62  C   UNL     1       2.178   6.621  -9.600  1.00  0.00     0.012 A 
ATOM     63  C   UNL     1       0.953   8.501 -10.514  1.00  0.00     0.148 A 
ATOM     64  C   UNL     1       1.199   6.445  -8.618  1.00  0.00     0.002 A 
ATOM     65  C   UNL     1       0.007   8.356  -9.507  1.00  0.00     0.091 A 
ATOM     66  F   UNL     1       0.858   9.471 -11.436  1.00  0.00    -0.205 F 
ATOM     67  C   UNL     1       0.119   7.322  -8.564  1.00  0.00     0.022 A 
BRANCH  65  68
ATOM     68  S   UNL     1      -1.333   9.530  -9.304  1.00  0.00     0.127 S 
ATOM     69  O   UNL     1      -2.483   8.764  -9.776  1.00  0.00    -0.237 OA
ATOM     70  O   UNL     1      -1.311   9.779  -7.862  1.00  0.00    -0.237 OA
ATOM     71  O   UNL     1      -0.975  10.690 -10.113  1.00  0.00    -0.744 OA
ENDBRANCH  65  68
ENDBRANCH  38  61
ENDBRANCH  12  13
ENDBRANCH   5   7
ENDBRANCH   2   3
ENDBRANCH   1   2
BRANCH   1  72
ATOM     72  C   UNL     1       7.980   5.267  -0.977  1.00  0.00     0.117 C 
BRANCH  72  73
ATOM     73  N   UNL     1       8.325   5.691   0.369  1.00  0.00    -0.354 N 
ATOM     74  C   UNL     1       7.631   6.003   1.491  1.00  0.00     0.243 C 
ATOM     75  H   UNL     1       9.298   5.770   0.498  1.00  0.00     0.163 HD
ATOM     76  O   UNL     1       8.340   6.428   2.418  1.00  0.00    -0.273 OA
BRANCH  74  77
ATOM     77  C   UNL     1       6.105   5.770   1.745  1.00  0.00     0.182 C 
ATOM     78  C   UNL     1       5.121   5.586   0.564  1.00  0.00     0.091 C 
ATOM     79  N   UNL     1       5.561   6.911   2.564  1.00  0.00    -0.306 N 
ATOM     80  C   UNL     1       5.036   6.891  -0.134  1.00  0.00     0.042 A 
ATOM     81  C   UNL     1       5.728   8.246   1.909  1.00  0.00     0.180 C 
ATOM     82  N   UNL     1       4.723   7.174  -1.428  1.00  0.00    -0.348 N 
ATOM     83  C   UNL     1       5.326   8.101   0.465  1.00  0.00     0.081 A 
ATOM     84  C   UNL     1       4.915   8.524  -1.585  1.00  0.00     0.197 A 
ATOM     85  H   UNL     1       4.419   6.537  -2.115  1.00  0.00     0.167 HD
ATOM     86  N   UNL     1       5.282   9.106  -0.460  1.00  0.00    -0.240 NA
BRANCH  79  87
ATOM     87  C   UNL     1       4.766   6.882   3.665  1.00  0.00     0.318 C 
ATOM     88  O   UNL     1       4.396   7.912   4.237  1.00  0.00    -0.249 OA
ATOM     89  N   UNL     1       4.258   5.761   4.203  1.00  0.00    -0.329 N 
ATOM     90  H   UNL     1       3.617   5.970   4.921  1.00  0.00     0.165 HD
BRANCH  89  91
ATOM     91  C   UNL     1       4.392   4.317   4.019  1.00  0.00     0.233 C 
BRANCH  91  92
ATOM     92  C   UNL     1       5.488   3.665   4.867  1.00  0.00     0.405 C 
ATOM     93  F   UNL     1       5.070   3.503   6.145  1.00  0.00    -0.169 F 
ATOM     94  F   UNL     1       5.794   2.439   4.383  1.00  0.00    -0.169 F 
ATOM     95  F   UNL     1       6.625   4.387   4.891  1.00  0.00    -0.169 F 
ENDBRANCH  91  92
ENDBRANCH  89  91
ENDBRANCH  79  87
ENDBRANCH  74  77
ENDBRANCH  72  73
ENDBRANCH   1  72
TORSDOF 16
