REMARK SMILES C[C@@H](C(=O)NCCCNC(=O)c1ccc(-c2c3nc(c(-c4cccc(S(=O)(=O)[O-])c4F)c4ccc([nH]4)c(-c4cccc(S(=O)(=O)[O-])c4F)c4nc(c(-c5cccc(S(=O)(=O)[O-])c5F)c5ccc2[nH]5)C=C4)C=C3)cc1)c1ccc(-c2cccc(OC(=O)NCCCc3ccccc3)c2)c(F)c1
REMARK SMILES IDX 1 1 2 2 3 3 4 4 5 5 6 7 7 8 8 9 9 10 10 11 11 13 12 14 13 15
REMARK SMILES IDX 74 16 14 17 73 18 15 19 16 20 17 21 67 22 18 23 72 24 66 25
REMARK SMILES IDX 68 26 19 27 71 28 65 29 64 30 20 32 52 33 32 34 51 35 33 36
REMARK SMILES IDX 36 37 50 38 69 39 34 40 35 41 49 43 70 44 37 45 21 46 22 47
REMARK SMILES IDX 30 48 23 49 25 50 31 51 24 52 26 53 27 54 28 55 29 56 53 57
REMARK SMILES IDX 54 58 62 59 55 60 57 61 63 62 56 63 58 64 59 65 60 66 61 67
REMARK SMILES IDX 38 68 39 69 47 70 40 71 42 72 48 73 41 74 43 75 44 76 45 77
REMARK SMILES IDX 46 78 75 79 76 80 100 81 77 82 98 83 78 84 99 85 79 86 80 87
REMARK SMILES IDX 97 88 81 89 83 90 82 91 84 92 85 93 86 94 87 95 88 97 89 98
REMARK SMILES IDX 90 99 91 100 92 101 96 102 93 103 95 104 94 105
REMARK H PARENT 5 6 9 12 68 31 36 42 87 96
REMARK Flexibility Score: inf
ROOT
ATOM      1  C   UNL     1       1.040   0.208  -0.122  1.00  0.00     0.023 C 
ATOM      2  C   UNL     1       0.588  -0.472   1.171  1.00  0.00     0.105 C 
ENDROOT
BRANCH   2   3
ATOM      3  C   UNL     1       1.178   0.167   2.439  1.00  0.00     0.227 C 
ATOM      4  O   UNL     1       0.514   0.806   3.257  1.00  0.00    -0.274 OA
ATOM      5  N   UNL     1       2.498  -0.006   2.731  1.00  0.00    -0.356 N 
ATOM      6  H   UNL     1       2.777   0.325   3.616  1.00  0.00     0.163 HD
BRANCH   5   7
ATOM      7  C   UNL     1       3.553  -0.604   1.939  1.00  0.00     0.117 C 
BRANCH   7   8
ATOM      8  C   UNL     1       4.403   0.463   1.259  1.00  0.00     0.042 C 
BRANCH   8   9
ATOM      9  C   UNL     1       5.142   1.366   2.236  1.00  0.00     0.118 C 
BRANCH   9  10
ATOM     10  N   UNL     1       6.122   0.639   3.033  1.00  0.00    -0.352 N 
ATOM     11  C   UNL     1       7.480   0.827   3.116  1.00  0.00     0.251 C 
ATOM     12  H   UNL     1       5.760  -0.089   3.589  1.00  0.00     0.163 HD
ATOM     13  O   UNL     1       8.184  -0.005   3.680  1.00  0.00    -0.269 OA
BRANCH  11  14
ATOM     14  C   UNL     1       8.084   2.029   2.508  1.00  0.00     0.039 A 
ATOM     15  C   UNL     1       9.234   1.898   1.726  1.00  0.00     0.014 A 
ATOM     16  C   UNL     1       7.496   3.282   2.698  1.00  0.00     0.014 A 
ATOM     17  C   UNL     1       9.760   3.020   1.080  1.00  0.00     0.010 A 
ATOM     18  C   UNL     1       7.967   4.376   1.986  1.00  0.00     0.010 A 
ATOM     19  C   UNL     1       9.111   4.260   1.180  1.00  0.00    -0.014 A 
BRANCH  19  20
ATOM     20  C   UNL     1       9.604   5.471   0.477  1.00  0.00     0.031 A 
ATOM     21  C   UNL     1      10.003   6.678   1.280  1.00  0.00     0.074 A 
ATOM     22  C   UNL     1       9.565   5.533  -0.868  1.00  0.00     0.049 A 
ATOM     23  N   UNL     1      10.288   7.886   0.871  1.00  0.00    -0.248 NA
ATOM     24  C   UNL     1      10.046   6.512   2.742  1.00  0.00     0.031 C 
ATOM     25  C   UNL     1       9.139   4.449  -1.754  1.00  0.00     0.029 A 
ATOM     26  N   UNL     1       9.844   6.572  -1.721  1.00  0.00    -0.354 N 
ATOM     27  C   UNL     1      10.490   8.635   2.023  1.00  0.00     0.074 A 
ATOM     28  C   UNL     1      10.261   7.753   3.147  1.00  0.00     0.031 C 
ATOM     29  C   UNL     1       9.169   4.883  -3.024  1.00  0.00     0.029 A 
ATOM     30  C   UNL     1       9.571   6.287  -3.039  1.00  0.00     0.049 A 
ATOM     31  H   UNL     1      10.205   7.437  -1.420  1.00  0.00     0.167 HD
ATOM     32  C   UNL     1      10.853   9.934   2.138  1.00  0.00     0.034 A 
ATOM     33  C   UNL     1       9.609   7.074  -4.132  1.00  0.00     0.034 A 
ATOM     34  C   UNL     1      11.109  10.794   1.015  1.00  0.00     0.049 A 
ATOM     35  C   UNL     1      10.040   8.508  -3.989  1.00  0.00     0.074 A 
ATOM     36  C   UNL     1      11.566  12.099   1.018  1.00  0.00     0.029 A 
ATOM     37  N   UNL     1      10.918  10.438  -0.311  1.00  0.00    -0.354 N 
ATOM     38  N   UNL     1      10.355   9.168  -2.901  1.00  0.00    -0.248 NA
ATOM     39  C   UNL     1      10.153   9.298  -5.223  1.00  0.00     0.031 C 
ATOM     40  C   UNL     1      11.614  12.546  -0.306  1.00  0.00     0.029 A 
ATOM     41  C   UNL     1      11.236  11.502  -1.137  1.00  0.00     0.049 A 
ATOM     42  H   UNL     1      10.603   9.558  -0.621  1.00  0.00     0.167 HD
ATOM     43  C   UNL     1      10.749  10.433  -3.321  1.00  0.00     0.074 A 
ATOM     44  C   UNL     1      10.632  10.448  -4.765  1.00  0.00     0.031 C 
ATOM     45  C   UNL     1      11.169  11.485  -2.576  1.00  0.00     0.034 A 
BRANCH  32  46
ATOM     46  C   UNL     1      11.014  10.491   3.529  1.00  0.00     0.023 A 
ATOM     47  C   UNL     1      12.061  10.031   4.355  1.00  0.00     0.012 A 
ATOM     48  C   UNL     1      10.140  11.483   4.015  1.00  0.00     0.148 A 
ATOM     49  C   UNL     1      12.200  10.505   5.659  1.00  0.00     0.002 A 
ATOM     50  C   UNL     1      10.319  11.991   5.296  1.00  0.00     0.091 A 
ATOM     51  F   UNL     1       9.137  11.896   3.227  1.00  0.00    -0.205 F 
ATOM     52  C   UNL     1      11.335  11.491   6.125  1.00  0.00     0.022 A 
BRANCH  50  53
ATOM     53  S   UNL     1       9.312  13.325   5.954  1.00  0.00     0.127 S 
ATOM     54  O   UNL     1       8.476  12.614   6.920  1.00  0.00    -0.237 OA
ATOM     55  O   UNL     1      10.318  14.205   6.550  1.00  0.00    -0.237 OA
ATOM     56  O   UNL     1       8.608  13.895   4.814  1.00  0.00    -0.744 OA
ENDBRANCH  50  53
ENDBRANCH  32  46
BRANCH  33  57
ATOM     57  C   UNL     1       9.269   6.498  -5.463  1.00  0.00     0.023 A 
ATOM     58  C   UNL     1      10.292   6.275  -6.404  1.00  0.00     0.012 A 
ATOM     59  C   UNL     1       7.950   6.113  -5.776  1.00  0.00     0.148 A 
ATOM     60  C   UNL     1      10.005   5.701  -7.643  1.00  0.00     0.002 A 
ATOM     61  C   UNL     1       7.681   5.491  -6.989  1.00  0.00     0.091 A 
ATOM     62  F   UNL     1       6.993   6.336  -4.865  1.00  0.00    -0.205 F 
ATOM     63  C   UNL     1       8.703   5.299  -7.931  1.00  0.00     0.022 A 
BRANCH  61  64
ATOM     64  S   UNL     1       6.065   4.818  -7.393  1.00  0.00     0.127 S 
ATOM     65  O   UNL     1       5.673   5.645  -8.532  1.00  0.00    -0.237 OA
ATOM     66  O   UNL     1       6.394   3.431  -7.722  1.00  0.00    -0.237 OA
ATOM     67  O   UNL     1       5.255   4.979  -6.193  1.00  0.00    -0.744 OA
ENDBRANCH  61  64
ENDBRANCH  33  57
BRANCH  45  68
ATOM     68  C   UNL     1      11.608  12.733  -3.295  1.00  0.00     0.023 A 
ATOM     69  C   UNL     1      10.658  13.589  -3.883  1.00  0.00     0.012 A 
ATOM     70  C   UNL     1      12.966  13.112  -3.279  1.00  0.00     0.148 A 
ATOM     71  C   UNL     1      11.056  14.796  -4.460  1.00  0.00     0.002 A 
ATOM     72  C   UNL     1      13.347  14.338  -3.807  1.00  0.00     0.091 A 
ATOM     73  F   UNL     1      13.855  12.271  -2.729  1.00  0.00    -0.205 F 
ATOM     74  C   UNL     1      12.395  15.176  -4.409  1.00  0.00     0.022 A 
BRANCH  72  75
ATOM     75  S   UNL     1      15.029  14.957  -3.690  1.00  0.00     0.127 S 
ATOM     76  O   UNL     1      15.451  14.938  -5.090  1.00  0.00    -0.237 OA
ATOM     77  O   UNL     1      14.826  16.294  -3.132  1.00  0.00    -0.237 OA
ATOM     78  O   UNL     1      15.741  14.035  -2.815  1.00  0.00    -0.744 OA
ENDBRANCH  72  75
ENDBRANCH  45  68
ENDBRANCH  19  20
ENDBRANCH  11  14
ENDBRANCH   9  10
ENDBRANCH   8   9
ENDBRANCH   7   8
ENDBRANCH   5   7
ENDBRANCH   2   3
BRANCH   2  79
ATOM     79  C   UNL     1      -0.933  -0.502   1.195  1.00  0.00    -0.033 A 
ATOM     80  C   UNL     1      -1.676   0.689   1.204  1.00  0.00     0.005 A 
ATOM     81  C   UNL     1      -1.612  -1.724   1.191  1.00  0.00     0.044 A 
ATOM     82  C   UNL     1      -3.069   0.661   1.221  1.00  0.00     0.012 A 
ATOM     83  C   UNL     1      -3.002  -1.742   1.204  1.00  0.00     0.131 A 
ATOM     84  C   UNL     1      -3.757  -0.559   1.229  1.00  0.00     0.018 A 
ATOM     85  F   UNL     1      -3.615  -2.938   1.209  1.00  0.00    -0.206 F 
BRANCH  84  86
ATOM     86  C   UNL     1      -5.214  -0.580   1.367  1.00  0.00    -0.012 A 
ATOM     87  C   UNL     1      -6.058   0.124   0.494  1.00  0.00     0.009 A 
ATOM     88  C   UNL     1      -5.786  -1.275   2.442  1.00  0.00     0.056 A 
ATOM     89  C   UNL     1      -7.440   0.136   0.696  1.00  0.00     0.004 A 
ATOM     90  C   UNL     1      -7.157  -1.248   2.650  1.00  0.00     0.133 A 
ATOM     91  C   UNL     1      -7.991  -0.548   1.778  1.00  0.00     0.047 A 
BRANCH  90  92
ATOM     92  O   UNL     1      -7.800  -1.921   3.711  1.00  0.00    -0.410 OA
BRANCH  92  93
ATOM     93  C   UNL     1      -7.164  -2.514   4.799  1.00  0.00     0.412 C 
ATOM     94  O   UNL     1      -5.967  -2.518   5.047  1.00  0.00    -0.224 OA
ATOM     95  N   UNL     1      -8.039  -3.126   5.650  1.00  0.00    -0.321 N 
ATOM     96  H   UNL     1      -7.657  -3.656   6.387  1.00  0.00     0.167 HD
BRANCH  95  97
ATOM     97  C   UNL     1      -9.475  -3.061   5.559  1.00  0.00     0.120 C 
BRANCH  97  98
ATOM     98  C   UNL     1     -10.190  -4.306   6.077  1.00  0.00     0.026 C 
BRANCH  98  99
ATOM     99  C   UNL     1      -9.649  -4.978   7.345  1.00  0.00     0.037 C 
BRANCH  99 100
ATOM    100  C   UNL     1      -9.790  -4.310   8.694  1.00  0.00    -0.048 A 
ATOM    101  C   UNL     1      -9.993  -2.940   8.888  1.00  0.00     0.004 A 
ATOM    102  C   UNL     1      -9.639  -5.118   9.835  1.00  0.00     0.004 A 
ATOM    103  C   UNL     1     -10.032  -2.393  10.175  1.00  0.00     0.000 A 
ATOM    104  C   UNL     1      -9.690  -4.576  11.121  1.00  0.00     0.000 A 
ATOM    105  C   UNL     1      -9.880  -3.209  11.290  1.00  0.00     0.000 A 
ENDBRANCH  99 100
ENDBRANCH  98  99
ENDBRANCH  97  98
ENDBRANCH  95  97
ENDBRANCH  92  93
ENDBRANCH  90  92
ENDBRANCH  84  86
ENDBRANCH   2  79
TORSDOF 21
