REMARK SMILES Cc1nc(/C=C/C(=O)N2CCC[C@@H]2C(=O)NCCCNC(=O)c2ccc(-c3c4nc(c(-c5cccc(S(=O)(=O)[O-])c5F)c5ccc([nH]5)c(-c5cccc(S(=O)(=O)[O-])c5F)c5nc(c(-c6cccc(S(=O)(=O)[O-])c6F)c6ccc3[nH]6)C=C5)C=C4)cc2)cs1
REMARK SMILES IDX 18 1 17 2 16 3 14 4 15 5 13 7 9 8 10 9 11 10 12 11 7 12 8 13
REMARK SMILES IDX 6 14 5 15 4 16 1 17 2 18 3 19 87 20 86 21 19 22 20 23 21 24
REMARK SMILES IDX 22 26 23 27 24 28 85 29 25 30 84 31 26 32 27 33 28 34 78 35
REMARK SMILES IDX 29 36 83 37 77 38 79 39 30 40 82 41 76 42 75 43 31 45 63 46
REMARK SMILES IDX 43 47 62 48 44 49 47 50 61 51 80 52 45 53 46 54 60 56 81 57
REMARK SMILES IDX 48 58 32 59 33 60 41 61 34 62 36 63 42 64 35 65 37 66 38 67
REMARK SMILES IDX 39 68 40 69 64 70 65 71 73 72 66 73 68 74 74 75 67 76 69 77
REMARK SMILES IDX 70 78 71 79 72 80 49 81 50 82 58 83 51 84 53 85 59 86 52 87
REMARK SMILES IDX 54 88 55 89 56 90 57 91
REMARK H PARENT 16 6 20 25 79 44 47 55
REMARK Flexibility Score: inf
ROOT
ATOM      1  C   UNL     1       1.145  -5.598   3.122  1.00  0.00     0.042 C 
ENDROOT
BRANCH   1   2
ATOM      2  C   UNL     1       2.255  -4.754   2.526  1.00  0.00     0.117 C 
BRANCH   2   3
ATOM      3  N   UNL     1       3.568  -5.300   2.785  1.00  0.00    -0.354 N 
ATOM      4  C   UNL     1       4.474  -5.857   1.933  1.00  0.00     0.242 C 
ATOM      5  O   UNL     1       5.444  -6.426   2.448  1.00  0.00    -0.273 OA
ATOM      6  H   UNL     1       3.852  -5.265   3.727  1.00  0.00     0.163 HD
BRANCH   4   7
ATOM      7  C   UNL     1       4.227  -5.967   0.410  1.00  0.00     0.174 C 
ATOM      8  N   UNL     1       3.592  -4.823  -0.248  1.00  0.00    -0.327 N 
ATOM      9  C   UNL     1       2.611  -5.280  -1.218  1.00  0.00     0.121 C 
ATOM     10  C   UNL     1       2.094  -6.575  -0.624  1.00  0.00     0.024 C 
ATOM     11  C   UNL     1       3.308  -7.162   0.096  1.00  0.00     0.037 C 
BRANCH   8  12
ATOM     12  C   UNL     1       4.177  -3.583  -0.179  1.00  0.00     0.247 C 
ATOM     13  O   UNL     1       5.335  -3.414   0.199  1.00  0.00    -0.270 OA
BRANCH  12  14
ATOM     14  C   UNL     1       3.362  -2.368  -0.455  1.00  0.00     0.073 C 
ATOM     15  C   UNL     1       2.062  -2.266  -0.141  1.00  0.00     0.035 C 
BRANCH  15  16
ATOM     16  C   UNL     1       1.246  -1.101  -0.160  1.00  0.00     0.074 A 
ATOM     17  C   UNL     1      -2.219   0.002   0.001  1.00  0.00     0.079 C 
ATOM     18  C   UNL     1      -0.740  -0.149  -0.064  1.00  0.00     0.090 A 
ATOM     19  N   UNL     1      -0.116  -1.306  -0.117  1.00  0.00    -0.242 NA
ATOM     20  S   UNL     1       0.277   1.238  -0.071  1.00  0.00    -0.127 S 
ATOM     21  C   UNL     1       1.655   0.213  -0.136  1.00  0.00     0.095 A 
ENDBRANCH  15  16
ENDBRANCH  12  14
ENDBRANCH   8  12
ENDBRANCH   4   7
ENDBRANCH   2   3
ENDBRANCH   1   2
BRANCH   1  22
ATOM     22  C   UNL     1       1.048  -5.476   4.631  1.00  0.00     0.118 C 
BRANCH  22  23
ATOM     23  N   UNL     1       0.684  -4.127   5.051  1.00  0.00    -0.352 N 
ATOM     24  C   UNL     1      -0.394  -3.696   5.777  1.00  0.00     0.251 C 
ATOM     25  H   UNL     1       1.308  -3.419   4.770  1.00  0.00     0.163 HD
ATOM     26  O   UNL     1      -0.634  -2.488   5.846  1.00  0.00    -0.269 OA
BRANCH  24  27
ATOM     27  C   UNL     1      -1.267  -4.665   6.471  1.00  0.00     0.039 A 
ATOM     28  C   UNL     1      -2.644  -4.430   6.515  1.00  0.00     0.014 A 
ATOM     29  C   UNL     1      -0.729  -5.787   7.106  1.00  0.00     0.014 A 
ATOM     30  C   UNL     1      -3.480  -5.338   7.167  1.00  0.00     0.010 A 
ATOM     31  C   UNL     1      -1.571  -6.742   7.660  1.00  0.00     0.010 A 
ATOM     32  C   UNL     1      -2.951  -6.511   7.729  1.00  0.00    -0.014 A 
BRANCH  32  33
ATOM     33  C   UNL     1      -3.812  -7.486   8.441  1.00  0.00     0.031 A 
ATOM     34  C   UNL     1      -3.573  -7.768   9.902  1.00  0.00     0.074 A 
ATOM     35  C   UNL     1      -4.750  -8.174   7.761  1.00  0.00     0.049 A 
ATOM     36  N   UNL     1      -4.175  -8.623  10.686  1.00  0.00    -0.248 NA
ATOM     37  C   UNL     1      -2.491  -7.014  10.559  1.00  0.00     0.031 C 
ATOM     38  C   UNL     1      -5.018  -8.049   6.327  1.00  0.00     0.029 A 
ATOM     39  N   UNL     1      -5.634  -9.133   8.183  1.00  0.00    -0.354 N 
ATOM     40  C   UNL     1      -3.518  -8.543  11.909  1.00  0.00     0.074 A 
ATOM     41  C   UNL     1      -2.444  -7.588  11.752  1.00  0.00     0.031 C 
ATOM     42  C   UNL     1      -6.006  -8.894   5.990  1.00  0.00     0.029 A 
ATOM     43  C   UNL     1      -6.421  -9.639   7.175  1.00  0.00     0.049 A 
ATOM     44  H   UNL     1      -5.699  -9.432   9.118  1.00  0.00     0.167 HD
ATOM     45  C   UNL     1      -3.802  -9.179  13.070  1.00  0.00     0.034 A 
ATOM     46  C   UNL     1      -7.369 -10.595   7.204  1.00  0.00     0.034 A 
ATOM     47  C   UNL     1      -4.904 -10.087  13.233  1.00  0.00     0.049 A 
ATOM     48  C   UNL     1      -7.711 -11.240   8.519  1.00  0.00     0.074 A 
ATOM     49  C   UNL     1      -5.337 -10.718  14.385  1.00  0.00     0.029 A 
ATOM     50  N   UNL     1      -5.748 -10.495  12.212  1.00  0.00    -0.354 N 
ATOM     51  N   UNL     1      -7.178 -11.039   9.701  1.00  0.00    -0.248 NA
ATOM     52  C   UNL     1      -8.815 -12.210   8.516  1.00  0.00     0.031 C 
ATOM     53  C   UNL     1      -6.430 -11.527  14.055  1.00  0.00     0.029 A 
ATOM     54  C   UNL     1      -6.699 -11.370  12.704  1.00  0.00     0.049 A 
ATOM     55  H   UNL     1      -5.681 -10.204  11.274  1.00  0.00     0.167 HD
ATOM     56  C   UNL     1      -7.911 -11.820  10.588  1.00  0.00     0.074 A 
ATOM     57  C   UNL     1      -8.934 -12.486   9.808  1.00  0.00     0.031 C 
ATOM     58  C   UNL     1      -7.747 -11.977  11.925  1.00  0.00     0.034 A 
BRANCH  45  59
ATOM     59  C   UNL     1      -2.935  -8.874  14.265  1.00  0.00     0.023 A 
ATOM     60  C   UNL     1      -3.000  -7.601  14.869  1.00  0.00     0.012 A 
ATOM     61  C   UNL     1      -2.086  -9.854  14.814  1.00  0.00     0.148 A 
ATOM     62  C   UNL     1      -2.202  -7.294  15.971  1.00  0.00     0.002 A 
ATOM     63  C   UNL     1      -1.332  -9.557  15.943  1.00  0.00     0.091 A 
ATOM     64  F   UNL     1      -2.019 -11.052  14.215  1.00  0.00    -0.205 F 
ATOM     65  C   UNL     1      -1.377  -8.274  16.513  1.00  0.00     0.022 A 
BRANCH  63  66
ATOM     66  S   UNL     1      -0.304 -10.777  16.769  1.00  0.00     0.127 S 
ATOM     67  O   UNL     1       1.040 -10.308  16.432  1.00  0.00    -0.237 OA
ATOM     68  O   UNL     1      -0.678 -10.596  18.172  1.00  0.00    -0.237 OA
ATOM     69  O   UNL     1      -0.677 -12.065  16.203  1.00  0.00    -0.744 OA
ENDBRANCH  63  66
ENDBRANCH  45  59
BRANCH  46  70
ATOM     70  C   UNL     1      -8.116 -10.938   5.961  1.00  0.00     0.023 A 
ATOM     71  C   UNL     1      -9.469 -10.561   5.842  1.00  0.00     0.012 A 
ATOM     72  C   UNL     1      -7.491 -11.600   4.888  1.00  0.00     0.148 A 
ATOM     73  C   UNL     1     -10.195 -10.869   4.691  1.00  0.00     0.002 A 
ATOM     74  C   UNL     1      -8.204 -11.854   3.722  1.00  0.00     0.091 A 
ATOM     75  F   UNL     1      -6.205 -11.954   5.023  1.00  0.00    -0.205 F 
ATOM     76  C   UNL     1      -9.561 -11.507   3.629  1.00  0.00     0.022 A 
BRANCH  74  77
ATOM     77  S   UNL     1      -7.437 -12.551   2.254  1.00  0.00     0.127 S 
ATOM     78  O   UNL     1      -8.058 -13.872   2.191  1.00  0.00    -0.237 OA
ATOM     79  O   UNL     1      -7.872 -11.615   1.216  1.00  0.00    -0.237 OA
ATOM     80  O   UNL     1      -6.005 -12.537   2.513  1.00  0.00    -0.744 OA
ENDBRANCH  74  77
ENDBRANCH  46  70
BRANCH  58  81
ATOM     81  C   UNL     1      -8.731 -12.858  12.649  1.00  0.00     0.023 A 
ATOM     82  C   UNL     1      -8.694 -14.255  12.475  1.00  0.00     0.012 A 
ATOM     83  C   UNL     1      -9.649 -12.298  13.560  1.00  0.00     0.148 A 
ATOM     84  C   UNL     1      -9.583 -15.078  13.166  1.00  0.00     0.002 A 
ATOM     85  C   UNL     1     -10.494 -13.128  14.285  1.00  0.00     0.091 A 
ATOM     86  F   UNL     1      -9.682 -10.964  13.698  1.00  0.00    -0.205 F 
ATOM     87  C   UNL     1     -10.473 -14.517  14.079  1.00  0.00     0.022 A 
BRANCH  85  88
ATOM     88  S   UNL     1     -11.598 -12.498  15.554  1.00  0.00     0.127 S 
ATOM     89  O   UNL     1     -12.896 -12.577  14.887  1.00  0.00    -0.237 OA
ATOM     90  O   UNL     1     -11.409 -13.462  16.639  1.00  0.00    -0.237 OA
ATOM     91  O   UNL     1     -11.130 -11.152  15.858  1.00  0.00    -0.744 OA
ENDBRANCH  85  88
ENDBRANCH  58  81
ENDBRANCH  32  33
ENDBRANCH  24  27
ENDBRANCH  22  23
ENDBRANCH   1  22
TORSDOF 16
