REMARK SMILES CC(C)(C)OC(=O)[C@]1(C(=O)NCCCNC(=O)c2ccc(-c3c4nc(c(-c5cccc(S(=O)(=O)[O-])c5F)c5ccc([nH]5)c(-c5cccc(S(=O)(=O)[O-])c5F)c5nc(c(-c6cccc(S(=O)(=O)[O-])c6F)c6ccc3[nH]6)C=C5)C=C4)cc2)CC=CC[C@@H]1[NH3+]
REMARK SMILES IDX 13 1 12 2 11 3 9 4 10 5 8 7 81 8 85 9 82 10 84 11 83 12 6 13
REMARK SMILES IDX 7 14 5 15 2 16 1 17 3 18 4 19 86 20 14 24 15 25 16 26 17 28
REMARK SMILES IDX 18 29 19 30 80 31 20 32 79 33 21 34 22 35 23 36 73 37 24 38
REMARK SMILES IDX 78 39 72 40 74 41 25 42 77 43 71 44 70 45 26 47 58 48 38 49
REMARK SMILES IDX 57 50 39 51 42 52 56 53 75 54 40 55 41 56 55 58 76 59 43 60
REMARK SMILES IDX 27 61 28 62 36 63 29 64 31 65 37 66 30 67 32 68 33 69 34 70
REMARK SMILES IDX 35 71 59 72 60 73 68 74 61 75 63 76 69 77 62 78 64 79 65 80
REMARK SMILES IDX 66 81 67 82 44 83 45 84 53 85 46 86 48 87 54 88 47 89 49 90
REMARK SMILES IDX 50 91 51 92 52 93
REMARK H PARENT 11 6 86 21 86 22 86 23 15 27 74 46 42 57
REMARK Flexibility Score: inf
ROOT
ATOM      1  C   UNL     1       1.862   0.481   4.243  1.00  0.00     0.042 C 
ENDROOT
BRANCH   1   2
ATOM      2  C   UNL     1       1.271  -0.883   4.564  1.00  0.00     0.117 C 
BRANCH   2   3
ATOM      3  N   UNL     1       0.281  -1.323   3.593  1.00  0.00    -0.355 N 
ATOM      4  C   UNL     1       0.006  -2.575   3.116  1.00  0.00     0.244 C 
ATOM      5  O   UNL     1      -0.970  -2.655   2.361  1.00  0.00    -0.274 OA
ATOM      6  H   UNL     1      -0.281  -0.606   3.220  1.00  0.00     0.163 HD
BRANCH   4   7
ATOM      7  C   UNL     1       0.946  -3.781   3.378  1.00  0.00     0.201 C 
ATOM      8  C   UNL     1       0.135  -5.093   3.090  1.00  0.00     0.062 C 
ATOM      9  C   UNL     1       2.181  -3.525   2.435  1.00  0.00     0.212 C 
ATOM     10  C   UNL     1       0.736  -6.112   2.183  1.00  0.00    -0.029 C 
ATOM     11  C   UNL     1       2.531  -4.599   1.373  1.00  0.00     0.093 C 
ATOM     12  C   UNL     1       1.800  -5.891   1.416  1.00  0.00    -0.025 C 
BRANCH   7  13
ATOM     13  C   UNL     1       1.177  -3.900   4.884  1.00  0.00     0.328 C 
ATOM     14  O   UNL     1       0.307  -3.605   5.701  1.00  0.00    -0.251 OA
BRANCH  13  15
ATOM     15  O   UNL     1       2.348  -4.505   5.223  1.00  0.00    -0.459 OA
BRANCH  15  16
ATOM     16  C   UNL     1       2.591  -4.871   6.611  1.00  0.00     0.104 C 
ATOM     17  C   UNL     1       4.057  -5.325   6.664  1.00  0.00     0.056 C 
ATOM     18  C   UNL     1       1.691  -6.055   6.982  1.00  0.00     0.056 C 
ATOM     19  C   UNL     1       2.429  -3.701   7.596  1.00  0.00     0.056 C 
ENDBRANCH  15  16
ENDBRANCH  13  15
ENDBRANCH   7  13
BRANCH   9  20
ATOM     20  N   UNL     1       3.430  -3.088   3.098  1.00  0.00    -0.353 N 
ATOM     21  H   UNL     1       3.836  -3.872   3.609  1.00  0.00     0.344 HD
ATOM     22  H   UNL     1       3.223  -2.330   3.748  1.00  0.00     0.344 HD
ATOM     23  H   UNL     1       4.093  -2.762   2.395  1.00  0.00     0.344 HD
ENDBRANCH   9  20
ENDBRANCH   4   7
ENDBRANCH   2   3
ENDBRANCH   1   2
BRANCH   1  24
ATOM     24  C   UNL     1       0.864   1.631   4.254  1.00  0.00     0.118 C 
BRANCH  24  25
ATOM     25  N   UNL     1       0.230   1.837   5.549  1.00  0.00    -0.352 N 
ATOM     26  C   UNL     1       0.085   2.989   6.283  1.00  0.00     0.251 C 
ATOM     27  H   UNL     1      -0.152   1.028   5.961  1.00  0.00     0.163 HD
ATOM     28  O   UNL     1      -0.379   2.928   7.421  1.00  0.00    -0.269 OA
BRANCH  26  29
ATOM     29  C   UNL     1       0.509   4.295   5.730  1.00  0.00     0.039 A 
ATOM     30  C   UNL     1       1.192   5.186   6.563  1.00  0.00     0.014 A 
ATOM     31  C   UNL     1       0.238   4.650   4.407  1.00  0.00     0.014 A 
ATOM     32  C   UNL     1       1.664   6.397   6.049  1.00  0.00     0.010 A 
ATOM     33  C   UNL     1       0.781   5.818   3.875  1.00  0.00     0.010 A 
ATOM     34  C   UNL     1       1.499   6.707   4.689  1.00  0.00    -0.014 A 
BRANCH  34  35
ATOM     35  C   UNL     1       2.088   7.939   4.101  1.00  0.00     0.031 A 
ATOM     36  C   UNL     1       1.206   8.988   3.479  1.00  0.00     0.074 A 
ATOM     37  C   UNL     1       3.429   8.076   4.050  1.00  0.00     0.049 A 
ATOM     38  N   UNL     1       1.545  10.096   2.871  1.00  0.00    -0.248 NA
ATOM     39  C   UNL     1      -0.246   8.752   3.522  1.00  0.00     0.031 C 
ATOM     40  C   UNL     1       4.399   7.098   4.549  1.00  0.00     0.029 A 
ATOM     41  N   UNL     1       4.210   9.080   3.531  1.00  0.00    -0.354 N 
ATOM     42  C   UNL     1       0.358  10.670   2.431  1.00  0.00     0.074 A 
ATOM     43  C   UNL     1      -0.709   9.770   2.812  1.00  0.00     0.031 C 
ATOM     44  C   UNL     1       5.641   7.551   4.316  1.00  0.00     0.029 A 
ATOM     45  C   UNL     1       5.560   8.830   3.619  1.00  0.00     0.049 A 
ATOM     46  H   UNL     1       3.838   9.900   3.133  1.00  0.00     0.167 HD
ATOM     47  C   UNL     1       0.168  11.849   1.792  1.00  0.00     0.034 A 
ATOM     48  C   UNL     1       6.616   9.542   3.176  1.00  0.00     0.034 A 
ATOM     49  C   UNL     1       1.228  12.757   1.441  1.00  0.00     0.049 A 
ATOM     50  C   UNL     1       6.377  10.859   2.490  1.00  0.00     0.074 A 
ATOM     51  C   UNL     1       1.128  14.013   0.869  1.00  0.00     0.029 A 
ATOM     52  N   UNL     1       2.579  12.504   1.614  1.00  0.00    -0.354 N 
ATOM     53  N   UNL     1       5.242  11.457   2.222  1.00  0.00    -0.248 NA
ATOM     54  C   UNL     1       7.567  11.617   2.075  1.00  0.00     0.031 C 
ATOM     55  C   UNL     1       2.421  14.504   0.663  1.00  0.00     0.029 A 
ATOM     56  C   UNL     1       3.326  13.573   1.146  1.00  0.00     0.049 A 
ATOM     57  H   UNL     1       2.954  11.685   2.012  1.00  0.00     0.167 HD
ATOM     58  C   UNL     1       5.579  12.676   1.644  1.00  0.00     0.074 A 
ATOM     59  C   UNL     1       7.026  12.739   1.619  1.00  0.00     0.031 C 
ATOM     60  C   UNL     1       4.764  13.649   1.168  1.00  0.00     0.034 A 
BRANCH  47  61
ATOM     61  C   UNL     1      -1.248  12.249   1.465  1.00  0.00     0.023 A 
ATOM     62  C   UNL     1      -2.130  12.612   2.504  1.00  0.00     0.012 A 
ATOM     63  C   UNL     1      -1.689  12.325   0.129  1.00  0.00     0.148 A 
ATOM     64  C   UNL     1      -3.438  13.005   2.223  1.00  0.00     0.002 A 
ATOM     65  C   UNL     1      -2.979  12.765  -0.146  1.00  0.00     0.091 A 
ATOM     66  F   UNL     1      -0.844  11.960  -0.846  1.00  0.00    -0.205 F 
ATOM     67  C   UNL     1      -3.858  13.092   0.899  1.00  0.00     0.022 A 
BRANCH  65  68
ATOM     68  S   UNL     1      -3.590  12.993  -1.820  1.00  0.00     0.127 S 
ATOM     69  O   UNL     1      -4.573  11.916  -1.924  1.00  0.00    -0.237 OA
ATOM     70  O   UNL     1      -4.163  14.338  -1.757  1.00  0.00    -0.237 OA
ATOM     71  O   UNL     1      -2.431  12.867  -2.693  1.00  0.00    -0.744 OA
ENDBRANCH  65  68
ENDBRANCH  47  61
BRANCH  48  72
ATOM     72  C   UNL     1       8.001   9.045   3.415  1.00  0.00     0.023 A 
ATOM     73  C   UNL     1       8.835   9.726   4.324  1.00  0.00     0.012 A 
ATOM     74  C   UNL     1       8.488   7.894   2.766  1.00  0.00     0.148 A 
ATOM     75  C   UNL     1      10.141   9.291   4.553  1.00  0.00     0.002 A 
ATOM     76  C   UNL     1       9.769   7.433   3.043  1.00  0.00     0.091 A 
ATOM     77  F   UNL     1       7.681   7.266   1.899  1.00  0.00    -0.205 F 
ATOM     78  C   UNL     1      10.604   8.140   3.921  1.00  0.00     0.022 A 
BRANCH  76  79
ATOM     79  S   UNL     1      10.403   5.889   2.378  1.00  0.00     0.127 S 
ATOM     80  O   UNL     1      11.445   6.360   1.470  1.00  0.00    -0.237 OA
ATOM     81  O   UNL     1      10.892   5.221   3.585  1.00  0.00    -0.237 OA
ATOM     82  O   UNL     1       9.265   5.233   1.748  1.00  0.00    -0.744 OA
ENDBRANCH  76  79
ENDBRANCH  48  72
BRANCH  60  83
ATOM     83  C   UNL     1       5.408  14.895   0.615  1.00  0.00     0.023 A 
ATOM     84  C   UNL     1       6.095  14.850  -0.614  1.00  0.00     0.012 A 
ATOM     85  C   UNL     1       5.269  16.128   1.284  1.00  0.00     0.148 A 
ATOM     86  C   UNL     1       6.665  16.005  -1.150  1.00  0.00     0.002 A 
ATOM     87  C   UNL     1       5.792  17.284   0.717  1.00  0.00     0.091 A 
ATOM     88  F   UNL     1       4.626  16.148   2.461  1.00  0.00    -0.205 F 
ATOM     89  C   UNL     1       6.502  17.222  -0.492  1.00  0.00     0.022 A 
BRANCH  87  90
ATOM     90  S   UNL     1       5.548  18.909   1.441  1.00  0.00     0.127 S 
ATOM     91  O   UNL     1       6.894  19.230   1.913  1.00  0.00    -0.237 OA
ATOM     92  O   UNL     1       5.102  19.696   0.291  1.00  0.00    -0.237 OA
ATOM     93  O   UNL     1       4.546  18.740   2.484  1.00  0.00    -0.744 OA
ENDBRANCH  87  90
ENDBRANCH  60  83
ENDBRANCH  34  35
ENDBRANCH  26  29
ENDBRANCH  24  25
ENDBRANCH   1  24
TORSDOF 17
