REMARK SMILES CCC([NH3+])(CC)C(=O)N1CCC[N@H+](CC(=O)NCCCNC(=O)c2ccc(-c3c4nc(c(-c5cccc(S(=O)(=O)[O-])c5F)c5ccc([nH]5)c(-c5cccc(S(=O)(=O)[O-])c5F)c5nc(c(-c6cccc(S(=O)(=O)[O-])c6F)c6ccc3[nH]6)C=C5)C=C4)cc2)CC1
REMARK SMILES IDX 15 1 16 2 17 3 14 5 13 6 87 8 88 9 9 10 7 11 8 12 3 13 2 14
REMARK SMILES IDX 1 15 4 16 5 20 6 21 10 22 11 23 12 25 18 27 19 28 20 29
REMARK SMILES IDX 21 30 22 31 23 33 24 34 25 35 86 36 26 37 85 38 27 39 28 40
REMARK SMILES IDX 29 41 79 42 30 43 84 44 78 45 80 46 31 47 83 48 77 49 76 50
REMARK SMILES IDX 32 52 64 53 44 54 63 55 45 56 48 57 62 58 81 59 46 60 47 61
REMARK SMILES IDX 61 63 82 64 49 65 33 66 34 67 42 68 35 69 37 70 43 71 36 72
REMARK SMILES IDX 38 73 39 74 40 75 41 76 65 77 66 78 74 79 67 80 69 81 75 82
REMARK SMILES IDX 68 83 70 84 71 85 72 86 73 87 50 88 51 89 59 90 52 91 54 92
REMARK SMILES IDX 60 93 53 94 55 95 56 96 57 97 58 98
REMARK H PARENT 17 4 13 7 4 17 4 18 4 19 21 32 80 51 48 62
REMARK Flexibility Score: 90.00
ROOT
ATOM      1  C   UNL     1       3.888  -4.074   4.146  1.00  0.00     0.275 C 
ATOM      2  O   UNL     1       2.943  -4.819   4.427  1.00  0.00    -0.269 OA
ATOM      3  N   UNL     1       3.633  -2.729   4.108  1.00  0.00    -0.351 N 
ATOM      4  H   UNL     1       2.696  -2.487   3.927  1.00  0.00     0.163 HD
ENDROOT
BRANCH   1   5
ATOM      5  C   UNL     1       5.276  -4.642   3.854  1.00  0.00     0.363 C 
BRANCH   5   6
ATOM      6  N   UNL     1       5.526  -5.017   2.463  1.00  0.00    -0.326 N 
ATOM      7  H   UNL     1       6.505  -5.172   2.703  1.00  0.00     0.348 HD
BRANCH   6   8
ATOM      8  C   UNL     1       5.662  -4.007   1.439  1.00  0.00     0.284 C 
BRANCH   8   9
ATOM      9  C   UNL     1       4.416  -3.319   0.872  1.00  0.00     0.181 C 
BRANCH   9  10
ATOM     10  N   UNL     1       3.134  -3.984   0.621  1.00  0.00    -0.331 N 
BRANCH  10  11
ATOM     11  C   UNL     1       2.182  -3.107   0.053  1.00  0.00     0.284 C 
ATOM     12  O   UNL     1       2.596  -2.065  -0.478  1.00  0.00    -0.268 OA
BRANCH  11  13
ATOM     13  C   UNL     1       0.607  -3.263   0.276  1.00  0.00     0.173 C 
BRANCH  13  14
ATOM     14  C   UNL     1      -0.171  -2.249  -0.637  1.00  0.00     0.075 C 
ATOM     15  C   UNL     1      -0.071  -0.774  -0.303  1.00  0.00     0.011 C 
ENDBRANCH  13  14
BRANCH  13  16
ATOM     16  N   UNL     1       0.331  -2.936   1.706  1.00  0.00    -0.345 N 
ATOM     17  H   UNL     1      -0.668  -3.025   1.889  1.00  0.00     0.345 HD
ATOM     18  H   UNL     1       0.629  -1.980   1.900  1.00  0.00     0.345 HD
ATOM     19  H   UNL     1       0.845  -3.581   2.307  1.00  0.00     0.345 HD
ENDBRANCH  13  16
BRANCH  13  20
ATOM     20  C   UNL     1      -0.029  -4.636  -0.026  1.00  0.00     0.075 C 
ATOM     21  C   UNL     1       0.386  -5.213  -1.375  1.00  0.00     0.011 C 
ENDBRANCH  13  20
ENDBRANCH  11  13
ENDBRANCH  10  11
BRANCH  10  22
ATOM     22  C   UNL     1       2.821  -5.264   1.242  1.00  0.00     0.126 C 
BRANCH  22  23
ATOM     23  C   UNL     1       3.835  -6.390   1.151  1.00  0.00     0.083 CG0
ATOM     24  G   UNL     1       5.106  -6.310   1.983  1.00  0.00     0.000 G0
ENDBRANCH  22  23
ENDBRANCH  10  22
ENDBRANCH   9  10
ENDBRANCH   8   9
ENDBRANCH   6   8
BRANCH   6  25
ATOM     25  C   UNL     1       5.106  -6.310   1.983  1.00  0.00     0.264 CG0
ATOM     26  G   UNL     1       3.835  -6.390   1.151  1.00  0.00     0.000 G0
ENDBRANCH   6  25
ENDBRANCH   5   6
ENDBRANCH   1   5
BRANCH   3  27
ATOM     27  C   UNL     1       4.536  -1.602   4.296  1.00  0.00     0.118 C 
BRANCH  27  28
ATOM     28  C   UNL     1       4.587  -0.549   3.177  1.00  0.00     0.042 C 
BRANCH  28  29
ATOM     29  C   UNL     1       3.247  -0.036   2.628  1.00  0.00     0.118 C 
BRANCH  29  30
ATOM     30  N   UNL     1       2.865   1.235   3.237  1.00  0.00    -0.352 N 
ATOM     31  C   UNL     1       2.792   2.504   2.696  1.00  0.00     0.251 C 
ATOM     32  H   UNL     1       2.620   1.178   4.189  1.00  0.00     0.163 HD
ATOM     33  O   UNL     1       2.751   3.465   3.463  1.00  0.00    -0.269 OA
BRANCH  31  34
ATOM     34  C   UNL     1       2.725   2.742   1.228  1.00  0.00     0.039 A 
ATOM     35  C   UNL     1       3.355   3.850   0.655  1.00  0.00     0.014 A 
ATOM     36  C   UNL     1       1.934   1.940   0.414  1.00  0.00     0.014 A 
ATOM     37  C   UNL     1       3.229   4.107  -0.725  1.00  0.00     0.010 A 
ATOM     38  C   UNL     1       1.871   2.150  -0.973  1.00  0.00     0.010 A 
ATOM     39  C   UNL     1       2.505   3.244  -1.570  1.00  0.00    -0.014 A 
BRANCH  39  40
ATOM     40  C   UNL     1       2.465   3.443  -3.057  1.00  0.00     0.031 A 
ATOM     41  C   UNL     1       1.168   3.607  -3.828  1.00  0.00     0.074 A 
ATOM     42  C   UNL     1       3.616   3.383  -3.761  1.00  0.00     0.049 A 
ATOM     43  N   UNL     1       0.993   3.868  -5.103  1.00  0.00    -0.248 NA
ATOM     44  C   UNL     1      -0.091   3.422  -3.090  1.00  0.00     0.031 C 
ATOM     45  C   UNL     1       4.930   3.067  -3.198  1.00  0.00     0.029 A 
ATOM     46  N   UNL     1       3.869   3.562  -5.101  1.00  0.00    -0.354 N 
ATOM     47  C   UNL     1      -0.382   3.854  -5.323  1.00  0.00     0.074 A 
ATOM     48  C   UNL     1      -0.996   3.513  -4.057  1.00  0.00     0.031 C 
ATOM     49  C   UNL     1       5.849   3.100  -4.175  1.00  0.00     0.029 A 
ATOM     50  C   UNL     1       5.196   3.427  -5.439  1.00  0.00     0.049 A 
ATOM     51  H   UNL     1       3.165   3.769  -5.758  1.00  0.00     0.167 HD
ATOM     52  C   UNL     1      -1.078   4.133  -6.456  1.00  0.00     0.034 A 
ATOM     53  C   UNL     1       5.830   3.563  -6.622  1.00  0.00     0.034 A 
ATOM     54  C   UNL     1      -0.475   4.513  -7.708  1.00  0.00     0.049 A 
ATOM     55  C   UNL     1       5.051   3.976  -7.841  1.00  0.00     0.074 A 
ATOM     56  C   UNL     1      -1.097   4.956  -8.865  1.00  0.00     0.029 A 
ATOM     57  N   UNL     1       0.883   4.481  -7.979  1.00  0.00    -0.354 N 
ATOM     58  N   UNL     1       3.766   4.201  -7.963  1.00  0.00    -0.248 NA
ATOM     59  C   UNL     1       5.818   4.204  -9.076  1.00  0.00     0.031 C 
ATOM     60  C   UNL     1      -0.117   5.162  -9.843  1.00  0.00     0.029 A 
ATOM     61  C   UNL     1       1.118   4.880  -9.285  1.00  0.00     0.049 A 
ATOM     62  H   UNL     1       1.580   4.213  -7.337  1.00  0.00     0.167 HD
ATOM     63  C   UNL     1       3.576   4.629  -9.272  1.00  0.00     0.074 A 
ATOM     64  C   UNL     1       4.880   4.657  -9.898  1.00  0.00     0.031 C 
ATOM     65  C   UNL     1       2.419   4.957  -9.899  1.00  0.00     0.034 A 
BRANCH  52  66
ATOM     66  C   UNL     1      -2.590   4.130  -6.386  1.00  0.00     0.023 A 
ATOM     67  C   UNL     1      -3.246   5.143  -5.655  1.00  0.00     0.012 A 
ATOM     68  C   UNL     1      -3.362   3.207  -7.121  1.00  0.00     0.148 A 
ATOM     69  C   UNL     1      -4.638   5.215  -5.624  1.00  0.00     0.002 A 
ATOM     70  C   UNL     1      -4.750   3.313  -7.122  1.00  0.00     0.091 A 
ATOM     71  F   UNL     1      -2.729   2.245  -7.809  1.00  0.00    -0.205 F 
ATOM     72  C   UNL     1      -5.389   4.308  -6.365  1.00  0.00     0.022 A 
BRANCH  70  73
ATOM     73  S   UNL     1      -5.811   2.253  -8.115  1.00  0.00     0.127 S 
ATOM     74  O   UNL     1      -6.449   1.429  -7.088  1.00  0.00    -0.237 OA
ATOM     75  O   UNL     1      -6.701   3.220  -8.757  1.00  0.00    -0.237 OA
ATOM     76  O   UNL     1      -4.928   1.541  -9.027  1.00  0.00    -0.744 OA
ENDBRANCH  70  73
ENDBRANCH  52  66
BRANCH  53  77
ATOM     77  C   UNL     1       7.312   3.413  -6.684  1.00  0.00     0.023 A 
ATOM     78  C   UNL     1       8.114   4.557  -6.869  1.00  0.00     0.012 A 
ATOM     79  C   UNL     1       7.932   2.159  -6.520  1.00  0.00     0.148 A 
ATOM     80  C   UNL     1       9.504   4.452  -6.923  1.00  0.00     0.002 A 
ATOM     81  C   UNL     1       9.319   2.070  -6.517  1.00  0.00     0.091 A 
ATOM     82  F   UNL     1       7.152   1.082  -6.354  1.00  0.00    -0.205 F 
ATOM     83  C   UNL     1      10.106   3.211  -6.736  1.00  0.00     0.022 A 
BRANCH  81  84
ATOM     84  S   UNL     1      10.183   0.539  -6.144  1.00  0.00     0.127 S 
ATOM     85  O   UNL     1      10.756   0.195  -7.446  1.00  0.00    -0.237 OA
ATOM     86  O   UNL     1      11.158   0.980  -5.143  1.00  0.00    -0.237 OA
ATOM     87  O   UNL     1       9.173  -0.372  -5.636  1.00  0.00    -0.744 OA
ENDBRANCH  81  84
ENDBRANCH  53  77
BRANCH  65  88
ATOM     88  C   UNL     1       2.499   5.408 -11.336  1.00  0.00     0.023 A 
ATOM     89  C   UNL     1       2.806   4.479 -12.350  1.00  0.00     0.012 A 
ATOM     90  C   UNL     1       2.207   6.741 -11.690  1.00  0.00     0.148 A 
ATOM     91  C   UNL     1       2.858   4.875 -13.686  1.00  0.00     0.002 A 
ATOM     92  C   UNL     1       2.213   7.118 -13.029  1.00  0.00     0.091 A 
ATOM     93  F   UNL     1       1.934   7.618 -10.713  1.00  0.00    -0.205 F 
ATOM     94  C   UNL     1       2.551   6.190 -14.027  1.00  0.00     0.022 A 
BRANCH  92  95
ATOM     95  S   UNL     1       1.742   8.766 -13.570  1.00  0.00     0.127 S 
ATOM     96  O   UNL     1       3.029   9.324 -13.982  1.00  0.00    -0.237 OA
ATOM     97  O   UNL     1       0.822   8.479 -14.672  1.00  0.00    -0.237 OA
ATOM     98  O   UNL     1       1.123   9.407 -12.418  1.00  0.00    -0.744 OA
ENDBRANCH  92  95
ENDBRANCH  65  88
ENDBRANCH  39  40
ENDBRANCH  31  34
ENDBRANCH  29  30
ENDBRANCH  28  29
ENDBRANCH  27  28
ENDBRANCH   3  27
TORSDOF 19
