REMARK SMILES C[N@H+]1CCO[C@H](c2noc(-c3ccccc3C(=O)NCCCNC(=O)c3ccc(-c4c5nc(c(-c6cccc(S(=O)(=O)[O-])c6F)c6ccc([nH]6)c(-c6cccc(S(=O)(=O)[O-])c6F)c6nc(c(-c7cccc(S(=O)(=O)[O-])c7F)c7ccc4[nH]7)C=C6)C=C5)cc3)n2)C1
REMARK SMILES IDX 21 1 20 2 19 3 17 4 18 5 16 7 11 8 12 9 13 10 15 11 14 12
REMARK SMILES IDX 10 13 7 14 8 15 89 16 9 17 6 18 1 19 2 20 3 21 90 22 4 24
REMARK SMILES IDX 5 25 22 26 23 27 24 28 25 30 26 31 27 32 88 33 28 34 87 35
REMARK SMILES IDX 29 36 30 37 31 38 81 39 32 40 86 41 80 42 82 43 33 44 85 45
REMARK SMILES IDX 79 46 78 47 34 49 66 50 46 51 65 52 47 53 50 54 64 55 83 56
REMARK SMILES IDX 48 57 49 58 63 60 84 61 51 62 35 63 36 64 44 65 37 66 39 67
REMARK SMILES IDX 45 68 38 69 40 70 41 71 42 72 43 73 67 74 68 75 76 76 69 77
REMARK SMILES IDX 71 78 77 79 70 80 72 81 73 82 74 83 75 84 52 85 53 86 61 87
REMARK SMILES IDX 54 88 56 89 62 90 55 91 57 92 58 93 59 94 60 95
REMARK H PARENT 19 6 2 23 23 29 82 48 50 59
REMARK Flexibility Score: inf
ROOT
ATOM      1  C   UNL     1       1.818   5.749  -2.154  1.00  0.00     0.042 C 
ENDROOT
BRANCH   1   2
ATOM      2  C   UNL     1       1.786   4.628  -3.185  1.00  0.00     0.118 C 
BRANCH   2   3
ATOM      3  N   UNL     1       2.161   5.000  -4.523  1.00  0.00    -0.352 N 
ATOM      4  C   UNL     1       3.331   5.005  -5.223  1.00  0.00     0.252 C 
ATOM      5  O   UNL     1       3.184   5.030  -6.452  1.00  0.00    -0.269 OA
ATOM      6  H   UNL     1       1.399   5.324  -5.055  1.00  0.00     0.163 HD
BRANCH   4   7
ATOM      7  C   UNL     1       4.731   5.115  -4.696  1.00  0.00     0.052 A 
ATOM      8  C   UNL     1       5.362   4.564  -3.565  1.00  0.00     0.053 A 
ATOM      9  C   UNL     1       6.753   4.799  -3.381  1.00  0.00     0.015 A 
ATOM     10  C   UNL     1       7.513   5.556  -4.271  1.00  0.00     0.001 A 
ATOM     11  C   UNL     1       5.535   5.896  -5.575  1.00  0.00     0.014 A 
ATOM     12  C   UNL     1       6.898   6.115  -5.373  1.00  0.00     0.001 A 
BRANCH   8  13
ATOM     13  C   UNL     1       4.757   3.764  -2.517  1.00  0.00     0.258 A 
ATOM     14  C   UNL     1       3.815   2.436  -1.180  1.00  0.00     0.206 A 
ATOM     15  N   UNL     1       4.239   3.429  -0.385  1.00  0.00    -0.059 NA
ATOM     16  N   UNL     1       4.206   2.568  -2.506  1.00  0.00    -0.189 NA
ATOM     17  O   UNL     1       4.845   4.316  -1.266  1.00  0.00    -0.334 OA
BRANCH  14  18
ATOM     18  C   UNL     1       2.908   1.344  -0.664  1.00  0.00     0.245 C 
ATOM     19  C   UNL     1       1.927  -1.666  -0.761  1.00  0.00     0.332 C 
ATOM     20  N   UNL     1       1.314  -0.525  -1.435  1.00  0.00    -0.333 N 
ATOM     21  C   UNL     1       0.303   0.127  -0.576  1.00  0.00     0.290 C 
ATOM     22  C   UNL     1       2.312   0.503  -1.827  1.00  0.00     0.303 C 
ATOM     23  H   UNL     1       0.875  -0.903  -2.273  1.00  0.00     0.348 HD
ATOM     24  C   UNL     1       0.928   0.893   0.596  1.00  0.00     0.222 C 
ATOM     25  O   UNL     1       1.835   1.902   0.138  1.00  0.00    -0.358 OA
ENDBRANCH  14  18
ENDBRANCH   8  13
ENDBRANCH   4   7
ENDBRANCH   2   3
ENDBRANCH   1   2
BRANCH   1  26
ATOM     26  C   UNL     1       0.477   6.481  -2.014  1.00  0.00     0.118 C 
BRANCH  26  27
ATOM     27  N   UNL     1      -0.637   5.548  -1.937  1.00  0.00    -0.352 N 
ATOM     28  C   UNL     1      -0.814   4.650  -0.913  1.00  0.00     0.251 C 
ATOM     29  H   UNL     1      -1.303   5.561  -2.662  1.00  0.00     0.163 HD
ATOM     30  O   UNL     1      -1.017   3.466  -1.163  1.00  0.00    -0.269 OA
BRANCH  28  31
ATOM     31  C   UNL     1      -0.886   5.148   0.475  1.00  0.00     0.039 A 
ATOM     32  C   UNL     1      -0.517   4.299   1.518  1.00  0.00     0.014 A 
ATOM     33  C   UNL     1      -1.536   6.350   0.748  1.00  0.00     0.014 A 
ATOM     34  C   UNL     1      -0.894   4.585   2.827  1.00  0.00     0.010 A 
ATOM     35  C   UNL     1      -1.851   6.673   2.064  1.00  0.00     0.010 A 
ATOM     36  C   UNL     1      -1.584   5.769   3.107  1.00  0.00    -0.014 A 
BRANCH  36  37
ATOM     37  C   UNL     1      -2.091   6.083   4.464  1.00  0.00     0.031 A 
ATOM     38  C   UNL     1      -3.565   6.327   4.649  1.00  0.00     0.074 A 
ATOM     39  C   UNL     1      -1.225   6.274   5.475  1.00  0.00     0.049 A 
ATOM     40  N   UNL     1      -4.187   6.949   5.613  1.00  0.00    -0.248 NA
ATOM     41  C   UNL     1      -4.454   5.850   3.573  1.00  0.00     0.031 C 
ATOM     42  C   UNL     1       0.223   6.074   5.399  1.00  0.00     0.029 A 
ATOM     43  N   UNL     1      -1.432   6.738   6.749  1.00  0.00    -0.354 N 
ATOM     44  C   UNL     1      -5.515   7.043   5.209  1.00  0.00     0.074 A 
ATOM     45  C   UNL     1      -5.617   6.380   3.928  1.00  0.00     0.031 C 
ATOM     46  C   UNL     1       0.780   6.445   6.561  1.00  0.00     0.029 A 
ATOM     47  C   UNL     1      -0.262   6.971   7.433  1.00  0.00     0.049 A 
ATOM     48  H   UNL     1      -2.326   6.889   7.133  1.00  0.00     0.167 HD
ATOM     49  C   UNL     1      -6.546   7.640   5.853  1.00  0.00     0.034 A 
ATOM     50  C   UNL     1      -0.048   7.594   8.607  1.00  0.00     0.034 A 
ATOM     51  C   UNL     1      -6.433   8.197   7.175  1.00  0.00     0.049 A 
ATOM     52  C   UNL     1      -1.232   8.136   9.355  1.00  0.00     0.074 A 
ATOM     53  C   UNL     1      -7.426   8.737   7.972  1.00  0.00     0.029 A 
ATOM     54  N   UNL     1      -5.253   8.264   7.902  1.00  0.00    -0.354 N 
ATOM     55  N   UNL     1      -2.494   8.157   8.996  1.00  0.00    -0.248 NA
ATOM     56  C   UNL     1      -0.972   8.716  10.678  1.00  0.00     0.031 C 
ATOM     57  C   UNL     1      -6.845   9.132   9.183  1.00  0.00     0.029 A 
ATOM     58  C   UNL     1      -5.493   8.826   9.143  1.00  0.00     0.049 A 
ATOM     59  H   UNL     1      -4.374   7.957   7.582  1.00  0.00     0.167 HD
ATOM     60  C   UNL     1      -3.181   8.737  10.054  1.00  0.00     0.074 A 
ATOM     61  C   UNL     1      -2.198   9.016  11.083  1.00  0.00     0.031 C 
ATOM     62  C   UNL     1      -4.498   9.041  10.161  1.00  0.00     0.034 A 
BRANCH  49  63
ATOM     63  C   UNL     1      -7.885   7.701   5.164  1.00  0.00     0.023 A 
ATOM     64  C   UNL     1      -8.669   6.538   5.037  1.00  0.00     0.012 A 
ATOM     65  C   UNL     1      -8.401   8.933   4.709  1.00  0.00     0.148 A 
ATOM     66  C   UNL     1      -9.932   6.593   4.445  1.00  0.00     0.002 A 
ATOM     67  C   UNL     1      -9.678   8.987   4.159  1.00  0.00     0.091 A 
ATOM     68  F   UNL     1      -7.635  10.027   4.821  1.00  0.00    -0.205 F 
ATOM     69  C   UNL     1     -10.440   7.816   4.017  1.00  0.00     0.022 A 
BRANCH  67  70
ATOM     70  S   UNL     1     -10.457  10.525   3.648  1.00  0.00     0.127 S 
ATOM     71  O   UNL     1     -10.533  10.350   2.198  1.00  0.00    -0.237 OA
ATOM     72  O   UNL     1     -11.745  10.459   4.338  1.00  0.00    -0.237 OA
ATOM     73  O   UNL     1      -9.577  11.594   4.100  1.00  0.00    -0.744 OA
ENDBRANCH  67  70
ENDBRANCH  49  63
BRANCH  50  74
ATOM     74  C   UNL     1       1.337   7.710   9.143  1.00  0.00     0.023 A 
ATOM     75  C   UNL     1       1.705   6.947  10.267  1.00  0.00     0.012 A 
ATOM     76  C   UNL     1       2.308   8.514   8.514  1.00  0.00     0.148 A 
ATOM     77  C   UNL     1       3.005   7.003  10.772  1.00  0.00     0.002 A 
ATOM     78  C   UNL     1       3.617   8.518   8.984  1.00  0.00     0.091 A 
ATOM     79  F   UNL     1       1.941   9.249   7.453  1.00  0.00    -0.205 F 
ATOM     80  C   UNL     1       3.964   7.777  10.123  1.00  0.00     0.022 A 
BRANCH  78  81
ATOM     81  S   UNL     1       4.936   9.363   8.103  1.00  0.00     0.127 S 
ATOM     82  O   UNL     1       5.045  10.613   8.848  1.00  0.00    -0.237 OA
ATOM     83  O   UNL     1       6.064   8.445   8.273  1.00  0.00    -0.237 OA
ATOM     84  O   UNL     1       4.464   9.472   6.727  1.00  0.00    -0.744 OA
ENDBRANCH  78  81
ENDBRANCH  50  74
BRANCH  62  85
ATOM     85  C   UNL     1      -4.945   9.686  11.444  1.00  0.00     0.023 A 
ATOM     86  C   UNL     1      -4.632  11.037  11.687  1.00  0.00     0.012 A 
ATOM     87  C   UNL     1      -5.710   8.969  12.382  1.00  0.00     0.148 A 
ATOM     88  C   UNL     1      -5.042  11.655  12.867  1.00  0.00     0.002 A 
ATOM     89  C   UNL     1      -6.154   9.605  13.534  1.00  0.00     0.091 A 
ATOM     90  F   UNL     1      -5.977   7.676  12.142  1.00  0.00    -0.205 F 
ATOM     91  C   UNL     1      -5.811  10.944  13.784  1.00  0.00     0.022 A 
BRANCH  89  92
ATOM     92  S   UNL     1      -7.223   8.779  14.717  1.00  0.00     0.127 S 
ATOM     93  O   UNL     1      -6.268   8.355  15.739  1.00  0.00    -0.237 OA
ATOM     94  O   UNL     1      -8.125   9.853  15.134  1.00  0.00    -0.237 OA
ATOM     95  O   UNL     1      -7.874   7.707  13.974  1.00  0.00    -0.744 OA
ENDBRANCH  89  92
ENDBRANCH  62  85
ENDBRANCH  36  37
ENDBRANCH  28  31
ENDBRANCH  26  27
ENDBRANCH   1  26
TORSDOF 15
