REMARK SMILES CC[NH2+]C(C)(C)C(=O)N[C@@](C)(C(=O)NCCCNC(=O)c1ccc(-c2c3nc(c(-c4cccc(S(=O)(=O)[O-])c4F)c4ccc([nH]4)c(-c4cccc(S(=O)(=O)[O-])c4F)c4nc(c(-c5cccc(S(=O)(=O)[O-])c5F)c5ccc2[nH]5)C=C4)C=C3)cc1)C(F)(F)F
REMARK SMILES IDX 15 1 14 2 12 3 13 4 10 6 11 7 9 8 7 9 8 10 4 12 5 13 6 14
REMARK SMILES IDX 3 15 2 18 1 19 84 20 85 21 86 22 87 23 16 24 17 25 18 26
REMARK SMILES IDX 19 27 20 29 21 30 22 31 83 32 23 33 82 34 24 35 25 36 26 37
REMARK SMILES IDX 76 38 27 39 81 40 75 41 77 42 28 43 80 44 74 45 73 46 29 48
REMARK SMILES IDX 61 49 41 50 60 51 42 52 45 53 59 54 78 55 43 56 44 57 58 59
REMARK SMILES IDX 79 60 46 61 30 62 31 63 39 64 32 65 34 66 40 67 33 68 35 69
REMARK SMILES IDX 36 70 37 71 38 72 62 73 63 74 71 75 64 76 66 77 72 78 65 79
REMARK SMILES IDX 67 80 68 81 69 82 70 83 47 84 48 85 56 86 49 87 51 88 57 89
REMARK SMILES IDX 50 90 52 91 53 92 54 93 55 94
REMARK H PARENT 14 5 9 11 3 16 3 17 18 28 77 47 45 58
REMARK Flexibility Score: inf
ROOT
ATOM      1  C   UNL     1      -3.974   6.909   0.948  1.00  0.00     0.117 C 
ENDROOT
BRANCH   1   2
ATOM      2  N   UNL     1      -2.824   7.065   1.824  1.00  0.00    -0.354 N 
ATOM      3  C   UNL     1      -1.475   6.990   1.640  1.00  0.00     0.254 C 
ATOM      4  O   UNL     1      -0.806   7.201   2.656  1.00  0.00    -0.272 OA
ATOM      5  H   UNL     1      -3.074   7.269   2.754  1.00  0.00     0.163 HD
BRANCH   3   6
ATOM      6  C   UNL     1      -0.823   6.631   0.285  1.00  0.00     0.212 C 
ATOM      7  C   UNL     1      -1.310   7.554  -0.857  1.00  0.00     0.056 C 
BRANCH   6   8
ATOM      8  N   UNL     1      -1.306   5.221  -0.028  1.00  0.00    -0.329 N 
ATOM      9  C   UNL     1      -0.899   3.925  -0.126  1.00  0.00     0.281 C 
ATOM     10  O   UNL     1      -1.841   3.131  -0.240  1.00  0.00    -0.268 OA
ATOM     11  H   UNL     1      -2.267   5.262  -0.236  1.00  0.00     0.165 HD
BRANCH   9  12
ATOM     12  C   UNL     1       0.581   3.468  -0.134  1.00  0.00     0.169 C 
ATOM     13  C   UNL     1       1.209   3.759   1.233  1.00  0.00     0.090 C 
ATOM     14  C   UNL     1       1.258   4.201  -1.313  1.00  0.00     0.090 C 
BRANCH  12  15
ATOM     15  N   UNL     1       0.793   2.038  -0.508  1.00  0.00    -0.334 N 
ATOM     16  H   UNL     1       0.384   1.906  -1.433  1.00  0.00     0.347 HD
ATOM     17  H   UNL     1       1.803   1.912  -0.436  1.00  0.00     0.347 HD
BRANCH  15  18
ATOM     18  C   UNL     1       0.245   0.996   0.357  1.00  0.00     0.257 C 
ATOM     19  C   UNL     1       0.771  -0.355  -0.127  1.00  0.00     0.071 C 
ENDBRANCH  15  18
ENDBRANCH  12  15
ENDBRANCH   9  12
ENDBRANCH   6   8
BRANCH   6  20
ATOM     20  C   UNL     1       0.678   7.031   0.458  1.00  0.00     0.420 C 
ATOM     21  F   UNL     1       1.365   6.364   1.396  1.00  0.00    -0.168 F 
ATOM     22  F   UNL     1       1.369   6.894  -0.702  1.00  0.00    -0.168 F 
ATOM     23  F   UNL     1       0.790   8.355   0.764  1.00  0.00    -0.168 F 
ENDBRANCH   6  20
ENDBRANCH   3   6
ENDBRANCH   1   2
BRANCH   1  24
ATOM     24  C   UNL     1      -4.978   5.900   1.480  1.00  0.00     0.042 C 
BRANCH  24  25
ATOM     25  C   UNL     1      -5.591   6.273   2.820  1.00  0.00     0.118 C 
BRANCH  25  26
ATOM     26  N   UNL     1      -6.311   7.540   2.780  1.00  0.00    -0.352 N 
ATOM     27  C   UNL     1      -7.639   7.800   3.008  1.00  0.00     0.251 C 
ATOM     28  H   UNL     1      -5.762   8.326   2.556  1.00  0.00     0.163 HD
ATOM     29  O   UNL     1      -8.092   8.913   2.739  1.00  0.00    -0.269 OA
BRANCH  27  30
ATOM     30  C   UNL     1      -8.520   6.750   3.559  1.00  0.00     0.039 A 
ATOM     31  C   UNL     1      -9.815   6.610   3.052  1.00  0.00     0.014 A 
ATOM     32  C   UNL     1      -8.074   5.907   4.579  1.00  0.00     0.014 A 
ATOM     33  C   UNL     1     -10.638   5.589   3.533  1.00  0.00     0.010 A 
ATOM     34  C   UNL     1      -8.852   4.827   4.976  1.00  0.00     0.010 A 
ATOM     35  C   UNL     1     -10.153   4.671   4.478  1.00  0.00    -0.014 A 
BRANCH  35  36
ATOM     36  C   UNL     1     -10.997   3.561   4.990  1.00  0.00     0.031 A 
ATOM     37  C   UNL     1     -11.311   3.474   6.461  1.00  0.00     0.074 A 
ATOM     38  C   UNL     1     -11.409   2.590   4.153  1.00  0.00     0.049 A 
ATOM     39  N   UNL     1     -11.968   2.550   7.111  1.00  0.00    -0.248 NA
ATOM     40  C   UNL     1     -10.787   4.550   7.320  1.00  0.00     0.031 C 
ATOM     41  C   UNL     1     -11.099   2.514   2.724  1.00  0.00     0.029 A 
ATOM     42  N   UNL     1     -12.155   1.463   4.391  1.00  0.00    -0.354 N 
ATOM     43  C   UNL     1     -11.903   2.910   8.452  1.00  0.00     0.074 A 
ATOM     44  C   UNL     1     -11.099   4.109   8.529  1.00  0.00     0.031 C 
ATOM     45  C   UNL     1     -11.654   1.404   2.212  1.00  0.00     0.029 A 
ATOM     46  C   UNL     1     -12.330   0.673   3.279  1.00  0.00     0.049 A 
ATOM     47  H   UNL     1     -12.530   1.240   5.274  1.00  0.00     0.167 HD
ATOM     48  C   UNL     1     -12.488   2.321   9.522  1.00  0.00     0.034 A 
ATOM     49  C   UNL     1     -12.956  -0.511   3.136  1.00  0.00     0.034 A 
ATOM     50  C   UNL     1     -13.318   1.151   9.437  1.00  0.00     0.049 A 
ATOM     51  C   UNL     1     -13.637  -1.126   4.329  1.00  0.00     0.074 A 
ATOM     52  C   UNL     1     -14.021   0.518  10.446  1.00  0.00     0.029 A 
ATOM     53  N   UNL     1     -13.553   0.432   8.274  1.00  0.00    -0.354 N 
ATOM     54  N   UNL     1     -13.685  -0.693   5.566  1.00  0.00    -0.248 NA
ATOM     55  C   UNL     1     -14.388  -2.368   4.098  1.00  0.00     0.031 C 
ATOM     56  C   UNL     1     -14.658  -0.601   9.899  1.00  0.00     0.029 A 
ATOM     57  C   UNL     1     -14.387  -0.639   8.540  1.00  0.00     0.049 A 
ATOM     58  H   UNL     1     -13.181   0.652   7.390  1.00  0.00     0.167 HD
ATOM     59  C   UNL     1     -14.504  -1.583   6.251  1.00  0.00     0.074 A 
ATOM     60  C   UNL     1     -14.941  -2.572   5.286  1.00  0.00     0.031 C 
ATOM     61  C   UNL     1     -14.856  -1.586   7.560  1.00  0.00     0.034 A 
BRANCH  48  62
ATOM     62  C   UNL     1     -12.285   2.969  10.869  1.00  0.00     0.023 A 
ATOM     63  C   UNL     1     -12.865   4.228  11.134  1.00  0.00     0.012 A 
ATOM     64  C   UNL     1     -11.548   2.324  11.881  1.00  0.00     0.148 A 
ATOM     65  C   UNL     1     -12.672   4.857  12.363  1.00  0.00     0.002 A 
ATOM     66  C   UNL     1     -11.404   2.934  13.122  1.00  0.00     0.091 A 
ATOM     67  F   UNL     1     -10.986   1.138  11.608  1.00  0.00    -0.205 F 
ATOM     68  C   UNL     1     -11.950   4.207  13.359  1.00  0.00     0.022 A 
BRANCH  66  69
ATOM     69  S   UNL     1     -10.567   2.142  14.500  1.00  0.00     0.127 S 
ATOM     70  O   UNL     1      -9.343   2.937  14.597  1.00  0.00    -0.237 OA
ATOM     71  O   UNL     1     -11.515   2.347  15.595  1.00  0.00    -0.237 OA
ATOM     72  O   UNL     1     -10.380   0.752  14.110  1.00  0.00    -0.744 OA
ENDBRANCH  66  69
ENDBRANCH  48  62
BRANCH  49  73
ATOM     73  C   UNL     1     -13.020  -1.158   1.796  1.00  0.00     0.023 A 
ATOM     74  C   UNL     1     -14.245  -1.204   1.103  1.00  0.00     0.012 A 
ATOM     75  C   UNL     1     -11.867  -1.691   1.189  1.00  0.00     0.148 A 
ATOM     76  C   UNL     1     -14.328  -1.797  -0.157  1.00  0.00     0.002 A 
ATOM     77  C   UNL     1     -11.944  -2.230  -0.089  1.00  0.00     0.091 A 
ATOM     78  F   UNL     1     -10.712  -1.640   1.869  1.00  0.00    -0.205 F 
ATOM     79  C   UNL     1     -13.177  -2.301  -0.757  1.00  0.00     0.022 A 
BRANCH  77  80
ATOM     80  S   UNL     1     -10.495  -2.783  -0.995  1.00  0.00     0.127 S 
ATOM     81  O   UNL     1     -10.731  -4.221  -1.087  1.00  0.00    -0.237 OA
ATOM     82  O   UNL     1     -10.634  -2.052  -2.255  1.00  0.00    -0.237 OA
ATOM     83  O   UNL     1      -9.350  -2.383  -0.189  1.00  0.00    -0.744 OA
ENDBRANCH  77  80
ENDBRANCH  49  73
BRANCH  61  84
ATOM     84  C   UNL     1     -15.810  -2.655   8.027  1.00  0.00     0.023 A 
ATOM     85  C   UNL     1     -15.382  -3.993   8.131  1.00  0.00     0.012 A 
ATOM     86  C   UNL     1     -17.116  -2.312   8.431  1.00  0.00     0.148 A 
ATOM     87  C   UNL     1     -16.253  -4.979   8.594  1.00  0.00     0.002 A 
ATOM     88  C   UNL     1     -17.959  -3.291   8.942  1.00  0.00     0.091 A 
ATOM     89  F   UNL     1     -17.511  -1.036   8.306  1.00  0.00    -0.205 F 
ATOM     90  C   UNL     1     -17.534  -4.627   9.011  1.00  0.00     0.022 A 
BRANCH  88  91
ATOM     91  S   UNL     1     -19.587  -2.909   9.597  1.00  0.00     0.127 S 
ATOM     92  O   UNL     1     -20.461  -3.465   8.565  1.00  0.00    -0.237 OA
ATOM     93  O   UNL     1     -19.593  -3.645  10.862  1.00  0.00    -0.237 OA
ATOM     94  O   UNL     1     -19.633  -1.461   9.742  1.00  0.00    -0.744 OA
ENDBRANCH  88  91
ENDBRANCH  61  84
ENDBRANCH  35  36
ENDBRANCH  27  30
ENDBRANCH  25  26
ENDBRANCH  24  25
ENDBRANCH   1  24
TORSDOF 18
