REMARK SMILES O=C(NCCCNC(=O)c1ccc(CNC(=O)c2cnns2)o1)c1ccc(-c2c3nc(c(-c4cccc(S(=O)(=O)[O-])c4F)c4ccc([nH]4)c(-c4cccc(S(=O)(=O)[O-])c4F)c4nc(c(-c5cccc(S(=O)(=O)[O-])c5F)c5ccc2[nH]5)C=C4)C=C3)cc1
REMARK SMILES IDX 5 1 4 2 3 3 1 4 2 5 24 7 25 8 86 9 26 10 85 11 27 12 28 13
REMARK SMILES IDX 29 14 79 15 30 16 84 17 78 18 80 19 31 20 83 21 77 22 76 23
REMARK SMILES IDX 32 25 64 26 44 27 63 28 45 29 48 30 62 31 81 32 46 33 47 34
REMARK SMILES IDX 61 36 82 37 49 38 33 39 34 40 42 41 35 42 37 43 43 44 36 45
REMARK SMILES IDX 38 46 39 47 40 48 41 49 65 50 66 51 74 52 67 53 69 54 75 55
REMARK SMILES IDX 68 56 70 57 71 58 72 59 73 60 50 61 51 62 59 63 52 64 54 65
REMARK SMILES IDX 60 66 53 67 55 68 56 69 57 70 58 71 6 72 7 73 8 74 9 76
REMARK SMILES IDX 10 77 11 78 23 79 12 80 13 81 14 82 15 83 16 84 17 86 18 87
REMARK SMILES IDX 19 88 22 89 20 90 21 91
REMARK H PARENT 3 6 80 24 48 35 7 75 15 85
REMARK Flexibility Score: inf
ROOT
ATOM      1  C   UNL     1       4.869  -1.292  -2.294  1.00  0.00     0.042 C 
ENDROOT
BRANCH   1   2
ATOM      2  C   UNL     1       4.557  -0.018  -1.520  1.00  0.00     0.118 C 
BRANCH   2   3
ATOM      3  N   UNL     1       3.132   0.147  -1.267  1.00  0.00    -0.352 N 
ATOM      4  O   UNL     1       1.199   0.058  -0.131  1.00  0.00    -0.269 OA
ATOM      5  C   UNL     1       2.426   0.112  -0.089  1.00  0.00     0.251 C 
ATOM      6  H   UNL     1       2.587   0.309  -2.071  1.00  0.00     0.163 HD
BRANCH   5   7
ATOM      7  C   UNL     1       3.129   0.118   1.214  1.00  0.00     0.039 A 
ATOM      8  C   UNL     1       4.249   0.926   1.421  1.00  0.00     0.014 A 
ATOM      9  C   UNL     1       2.637  -0.667   2.261  1.00  0.00     0.014 A 
ATOM     10  C   UNL     1       4.966   0.829   2.607  1.00  0.00     0.010 A 
ATOM     11  C   UNL     1       3.304  -0.688   3.490  1.00  0.00     0.010 A 
ATOM     12  C   UNL     1       4.494   0.034   3.664  1.00  0.00    -0.014 A 
BRANCH  12  13
ATOM     13  C   UNL     1       5.221   0.043   4.960  1.00  0.00     0.031 A 
ATOM     14  C   UNL     1       5.852  -1.203   5.515  1.00  0.00     0.074 A 
ATOM     15  C   UNL     1       5.309   1.204   5.638  1.00  0.00     0.049 A 
ATOM     16  N   UNL     1       6.548  -1.350   6.614  1.00  0.00    -0.248 NA
ATOM     17  C   UNL     1       5.676  -2.448   4.750  1.00  0.00     0.031 C 
ATOM     18  C   UNL     1       4.692   2.468   5.225  1.00  0.00     0.029 A 
ATOM     19  N   UNL     1       5.947   1.516   6.811  1.00  0.00    -0.354 N 
ATOM     20  C   UNL     1       6.859  -2.701   6.695  1.00  0.00     0.074 A 
ATOM     21  C   UNL     1       6.270  -3.337   5.536  1.00  0.00     0.031 C 
ATOM     22  C   UNL     1       5.003   3.422   6.113  1.00  0.00     0.029 A 
ATOM     23  C   UNL     1       5.795   2.831   7.185  1.00  0.00     0.049 A 
ATOM     24  H   UNL     1       6.463   0.862   7.336  1.00  0.00     0.167 HD
ATOM     25  C   UNL     1       7.583  -3.349   7.639  1.00  0.00     0.034 A 
ATOM     26  C   UNL     1       6.230   3.490   8.275  1.00  0.00     0.034 A 
ATOM     27  C   UNL     1       8.201  -2.704   8.769  1.00  0.00     0.049 A 
ATOM     28  C   UNL     1       7.058   2.753   9.287  1.00  0.00     0.074 A 
ATOM     29  C   UNL     1       9.015  -3.263   9.738  1.00  0.00     0.029 A 
ATOM     30  N   UNL     1       8.067  -1.361   9.087  1.00  0.00    -0.354 N 
ATOM     31  N   UNL     1       7.456   1.504   9.272  1.00  0.00    -0.248 NA
ATOM     32  C   UNL     1       7.520   3.519  10.452  1.00  0.00     0.031 C 
ATOM     33  C   UNL     1       9.357  -2.263  10.655  1.00  0.00     0.029 A 
ATOM     34  C   UNL     1       8.773  -1.075  10.244  1.00  0.00     0.049 A 
ATOM     35  H   UNL     1       7.547  -0.707   8.567  1.00  0.00     0.167 HD
ATOM     36  C   UNL     1       8.233   1.339  10.411  1.00  0.00     0.074 A 
ATOM     37  C   UNL     1       8.274   2.625  11.078  1.00  0.00     0.031 C 
ATOM     38  C   UNL     1       8.841   0.219  10.873  1.00  0.00     0.034 A 
BRANCH  25  39
ATOM     39  C   UNL     1       7.788  -4.834   7.477  1.00  0.00     0.023 A 
ATOM     40  C   UNL     1       8.684  -5.309   6.498  1.00  0.00     0.012 A 
ATOM     41  C   UNL     1       7.158  -5.752   8.340  1.00  0.00     0.148 A 
ATOM     42  C   UNL     1       8.931  -6.675   6.364  1.00  0.00     0.002 A 
ATOM     43  C   UNL     1       7.438  -7.109   8.226  1.00  0.00     0.091 A 
ATOM     44  F   UNL     1       6.293  -5.283   9.251  1.00  0.00    -0.205 F 
ATOM     45  C   UNL     1       8.317  -7.573   7.233  1.00  0.00     0.022 A 
BRANCH  43  46
ATOM     46  S   UNL     1       6.754  -8.337   9.346  1.00  0.00     0.127 S 
ATOM     47  O   UNL     1       5.774  -9.002   8.489  1.00  0.00    -0.237 OA
ATOM     48  O   UNL     1       7.928  -9.148   9.671  1.00  0.00    -0.237 OA
ATOM     49  O   UNL     1       6.203  -7.591  10.468  1.00  0.00    -0.744 OA
ENDBRANCH  43  46
ENDBRANCH  25  39
BRANCH  26  50
ATOM     50  C   UNL     1       5.923   4.939   8.430  1.00  0.00     0.023 A 
ATOM     51  C   UNL     1       6.957   5.886   8.307  1.00  0.00     0.012 A 
ATOM     52  C   UNL     1       4.603   5.385   8.635  1.00  0.00     0.148 A 
ATOM     53  C   UNL     1       6.685   7.250   8.407  1.00  0.00     0.002 A 
ATOM     54  C   UNL     1       4.330   6.747   8.674  1.00  0.00     0.091 A 
ATOM     55  F   UNL     1       3.634   4.467   8.766  1.00  0.00    -0.205 F 
ATOM     56  C   UNL     1       5.372   7.681   8.576  1.00  0.00     0.022 A 
BRANCH  54  57
ATOM     57  S   UNL     1       2.652   7.384   8.738  1.00  0.00     0.127 S 
ATOM     58  O   UNL     1       2.564   7.858  10.116  1.00  0.00    -0.237 OA
ATOM     59  O   UNL     1       2.688   8.440   7.724  1.00  0.00    -0.237 OA
ATOM     60  O   UNL     1       1.794   6.258   8.395  1.00  0.00    -0.744 OA
ENDBRANCH  54  57
ENDBRANCH  26  50
BRANCH  38  61
ATOM     61  C   UNL     1       9.621   0.335  12.156  1.00  0.00     0.023 A 
ATOM     62  C   UNL     1       8.934   0.458  13.380  1.00  0.00     0.012 A 
ATOM     63  C   UNL     1      11.027   0.258  12.156  1.00  0.00     0.148 A 
ATOM     64  C   UNL     1       9.636   0.535  14.582  1.00  0.00     0.002 A 
ATOM     65  C   UNL     1      11.718   0.288  13.361  1.00  0.00     0.091 A 
ATOM     66  F   UNL     1      11.663   0.162  10.979  1.00  0.00    -0.205 F 
ATOM     67  C   UNL     1      11.026   0.439  14.573  1.00  0.00     0.022 A 
BRANCH  65  68
ATOM     68  S   UNL     1      13.500   0.078  13.451  1.00  0.00     0.127 S 
ATOM     69  O   UNL     1      13.947   1.441  13.732  1.00  0.00    -0.237 OA
ATOM     70  O   UNL     1      13.648  -0.855  14.569  1.00  0.00    -0.237 OA
ATOM     71  O   UNL     1      13.904  -0.462  12.160  1.00  0.00    -0.744 OA
ENDBRANCH  65  68
ENDBRANCH  38  61
ENDBRANCH  12  13
ENDBRANCH   5   7
ENDBRANCH   2   3
ENDBRANCH   1   2
BRANCH   1  72
ATOM     72  C   UNL     1       4.290  -1.311  -3.704  1.00  0.00     0.118 C 
BRANCH  72  73
ATOM     73  N   UNL     1       4.905  -0.308  -4.559  1.00  0.00    -0.349 N 
ATOM     74  C   UNL     1       5.840  -0.476  -5.553  1.00  0.00     0.286 C 
ATOM     75  H   UNL     1       4.611   0.619  -4.405  1.00  0.00     0.163 HD
ATOM     76  O   UNL     1       6.406   0.532  -5.984  1.00  0.00    -0.266 OA
BRANCH  74  77
ATOM     77  C   UNL     1       6.101  -1.808  -6.043  1.00  0.00     0.191 A 
ATOM     78  C   UNL     1       5.265  -2.824  -6.472  1.00  0.00     0.056 A 
ATOM     79  O   UNL     1       7.400  -2.223  -6.138  1.00  0.00    -0.454 OA
ATOM     80  C   UNL     1       6.091  -3.925  -6.800  1.00  0.00     0.048 A 
ATOM     81  C   UNL     1       7.386  -3.515  -6.572  1.00  0.00     0.124 A 
BRANCH  81  82
ATOM     82  C   UNL     1       8.703  -4.186  -6.667  1.00  0.00     0.191 C 
BRANCH  82  83
ATOM     83  N   UNL     1       9.449  -3.608  -7.763  1.00  0.00    -0.344 N 
ATOM     84  C   UNL     1      10.705  -3.054  -7.761  1.00  0.00     0.265 C 
ATOM     85  H   UNL     1       8.991  -3.612  -8.635  1.00  0.00     0.164 HD
ATOM     86  O   UNL     1      11.050  -2.442  -8.773  1.00  0.00    -0.268 OA
BRANCH  84  87
ATOM     87  C   UNL     1      11.555  -3.224  -6.617  1.00  0.00     0.133 A 
ATOM     88  C   UNL     1      11.821  -4.306  -5.801  1.00  0.00     0.163 A 
ATOM     89  S   UNL     1      12.546  -1.936  -6.072  1.00  0.00    -0.007 S 
ATOM     90  N   UNL     1      12.726  -4.075  -4.779  1.00  0.00    -0.146 NA
ATOM     91  N   UNL     1      13.185  -2.835  -4.811  1.00  0.00    -0.090 NA
ENDBRANCH  84  87
ENDBRANCH  82  83
ENDBRANCH  81  82
ENDBRANCH  74  77
ENDBRANCH  72  73
ENDBRANCH   1  72
TORSDOF 16
