REMARK SMILES C[C@@H](C(=O)NCCCNC(=O)c1ccc(-c2c3nc(c(-c4cccc(S(=O)(=O)[O-])c4F)c4ccc([nH]4)c(-c4cccc(S(=O)(=O)[O-])c4F)c4nc(c(-c5cccc(S(=O)(=O)[O-])c5F)c5ccc2[nH]5)C=C4)C=C3)cc1)c1cccn(C(F)F)c1=O
REMARK SMILES IDX 7 1 6 2 5 3 3 4 4 5 2 7 1 8 75 9 76 10 83 11 77 12 79 13
REMARK SMILES IDX 84 14 78 15 80 16 81 17 82 18 8 19 9 20 10 21 11 23 12 24
REMARK SMILES IDX 13 25 74 26 14 27 73 28 15 29 16 30 17 31 67 32 18 33 72 34
REMARK SMILES IDX 66 35 68 36 19 37 71 38 65 39 64 40 20 42 52 43 32 44 51 45
REMARK SMILES IDX 33 46 36 47 50 48 69 49 34 50 35 51 49 53 70 54 37 55 21 56
REMARK SMILES IDX 22 57 30 58 23 59 25 60 31 61 24 62 26 63 27 64 28 65 29 66
REMARK SMILES IDX 53 67 54 68 62 69 55 70 57 71 63 72 56 73 58 74 59 75 60 76
REMARK SMILES IDX 61 77 38 78 39 79 47 80 40 81 42 82 48 83 41 84 43 85 44 86
REMARK SMILES IDX 45 87 46 88
REMARK H PARENT 5 6 9 22 68 41 36 52
REMARK Flexibility Score: inf
ROOT
ATOM      1  C   UNL     1       4.253  -0.088   1.332  1.00  0.00     0.042 C 
ENDROOT
BRANCH   1   2
ATOM      2  C   UNL     1       3.370  -1.309   1.570  1.00  0.00     0.117 C 
BRANCH   2   3
ATOM      3  N   UNL     1       2.290  -1.021   2.495  1.00  0.00    -0.356 N 
ATOM      4  C   UNL     1       0.961  -0.809   2.266  1.00  0.00     0.227 C 
ATOM      5  O   UNL     1       0.256  -0.590   3.254  1.00  0.00    -0.274 OA
ATOM      6  H   UNL     1       2.560  -0.970   3.441  1.00  0.00     0.163 HD
BRANCH   4   7
ATOM      7  C   UNL     1       0.398  -0.955   0.844  1.00  0.00     0.111 C 
ATOM      8  C   UNL     1       0.908   0.113  -0.128  1.00  0.00     0.023 C 
BRANCH   7   9
ATOM      9  C   UNL     1      -1.116  -1.027   0.921  1.00  0.00     0.030 A 
ATOM     10  C   UNL     1      -1.787  -2.195   0.902  1.00  0.00     0.012 A 
ATOM     11  C   UNL     1      -1.904   0.250   1.050  1.00  0.00     0.258 A 
ATOM     12  C   UNL     1      -3.223  -2.242   0.992  1.00  0.00     0.019 A 
ATOM     13  N   UNL     1      -3.283   0.118   1.070  1.00  0.00    -0.258 N 
ATOM     14  O   UNL     1      -1.338   1.339   1.093  1.00  0.00    -0.269 OA
ATOM     15  C   UNL     1      -3.921  -1.105   1.059  1.00  0.00     0.095 A 
BRANCH  13  16
ATOM     16  C   UNL     1      -4.064   1.328   1.099  1.00  0.00     0.451 C 
ATOM     17  F   UNL     1      -4.885   1.355   0.012  1.00  0.00    -0.185 F 
ATOM     18  F   UNL     1      -4.886   1.318   2.184  1.00  0.00    -0.185 F 
ENDBRANCH  13  16
ENDBRANCH   7   9
ENDBRANCH   4   7
ENDBRANCH   2   3
ENDBRANCH   1   2
BRANCH   1  19
ATOM     19  C   UNL     1       5.017   0.375   2.571  1.00  0.00     0.118 C 
BRANCH  19  20
ATOM     20  N   UNL     1       5.967  -0.622   3.047  1.00  0.00    -0.352 N 
ATOM     21  C   UNL     1       7.323  -0.528   3.241  1.00  0.00     0.251 C 
ATOM     22  H   UNL     1       5.576  -1.500   3.263  1.00  0.00     0.163 HD
ATOM     23  O   UNL     1       7.969  -1.549   3.468  1.00  0.00    -0.269 OA
BRANCH  21  24
ATOM     24  C   UNL     1       8.009   0.781   3.167  1.00  0.00     0.039 A 
ATOM     25  C   UNL     1       9.248   0.857   2.523  1.00  0.00     0.014 A 
ATOM     26  C   UNL     1       7.458   1.921   3.756  1.00  0.00     0.014 A 
ATOM     27  C   UNL     1       9.903   2.087   2.420  1.00  0.00     0.010 A 
ATOM     28  C   UNL     1       8.077   3.158   3.589  1.00  0.00     0.010 A 
ATOM     29  C   UNL     1       9.309   3.254   2.925  1.00  0.00    -0.014 A 
BRANCH  29  30
ATOM     30  C   UNL     1       9.952   4.583   2.758  1.00  0.00     0.031 A 
ATOM     31  C   UNL     1      10.384   5.378   3.961  1.00  0.00     0.074 A 
ATOM     32  C   UNL     1      10.063   5.116   1.525  1.00  0.00     0.049 A 
ATOM     33  N   UNL     1      10.902   6.578   4.014  1.00  0.00    -0.248 NA
ATOM     34  C   UNL     1      10.185   4.753   5.280  1.00  0.00     0.031 C 
ATOM     35  C   UNL     1       9.611   4.480   0.286  1.00  0.00     0.029 A 
ATOM     36  N   UNL     1      10.564   6.326   1.113  1.00  0.00    -0.354 N 
ATOM     37  C   UNL     1      11.054   6.868   5.365  1.00  0.00     0.074 A 
ATOM     38  C   UNL     1      10.546   5.730   6.100  1.00  0.00     0.031 C 
ATOM     39  C   UNL     1       9.854   5.304  -0.746  1.00  0.00     0.029 A 
ATOM     40  C   UNL     1      10.451   6.537  -0.242  1.00  0.00     0.049 A 
ATOM     41  H   UNL     1      10.966   6.980   1.729  1.00  0.00     0.167 HD
ATOM     42  C   UNL     1      11.594   7.968   5.942  1.00  0.00     0.034 A 
ATOM     43  C   UNL     1      10.781   7.606  -0.993  1.00  0.00     0.034 A 
ATOM     44  C   UNL     1      12.138   9.079   5.208  1.00  0.00     0.049 A 
ATOM     45  C   UNL     1      11.416   8.798  -0.331  1.00  0.00     0.074 A 
ATOM     46  C   UNL     1      12.790  10.197   5.698  1.00  0.00     0.029 A 
ATOM     47  N   UNL     1      12.087   9.218   3.830  1.00  0.00    -0.354 N 
ATOM     48  N   UNL     1      11.703   8.984   0.935  1.00  0.00    -0.248 NA
ATOM     49  C   UNL     1      11.807   9.914  -1.205  1.00  0.00     0.031 C 
ATOM     50  C   UNL     1      13.114  11.023   4.616  1.00  0.00     0.029 A 
ATOM     51  C   UNL     1      12.686  10.408   3.451  1.00  0.00     0.049 A 
ATOM     52  H   UNL     1      11.684   8.567   3.211  1.00  0.00     0.167 HD
ATOM     53  C   UNL     1      12.338  10.219   1.005  1.00  0.00     0.074 A 
ATOM     54  C   UNL     1      12.413  10.727  -0.349  1.00  0.00     0.031 C 
ATOM     55  C   UNL     1      12.803  10.879   2.094  1.00  0.00     0.034 A 
BRANCH  42  56
ATOM     56  C   UNL     1      11.672   8.002   7.447  1.00  0.00     0.023 A 
ATOM     57  C   UNL     1      12.586   7.161   8.114  1.00  0.00     0.012 A 
ATOM     58  C   UNL     1      10.889   8.902   8.197  1.00  0.00     0.148 A 
ATOM     59  C   UNL     1      12.694   7.187   9.504  1.00  0.00     0.002 A 
ATOM     60  C   UNL     1      11.035   8.954   9.579  1.00  0.00     0.091 A 
ATOM     61  F   UNL     1      10.011   9.681   7.549  1.00  0.00    -0.205 F 
ATOM     62  C   UNL     1      11.927   8.089  10.234  1.00  0.00     0.022 A 
BRANCH  60  63
ATOM     63  S   UNL     1      10.151  10.137  10.602  1.00  0.00     0.127 S 
ATOM     64  O   UNL     1       9.190   9.275  11.287  1.00  0.00    -0.237 OA
ATOM     65  O   UNL     1      11.217  10.661  11.458  1.00  0.00    -0.237 OA
ATOM     66  O   UNL     1       9.577  11.111   9.685  1.00  0.00    -0.744 OA
ENDBRANCH  60  63
ENDBRANCH  42  56
BRANCH  43  67
ATOM     67  C   UNL     1      10.579   7.566  -2.469  1.00  0.00     0.023 A 
ATOM     68  C   UNL     1      11.701   7.491  -3.317  1.00  0.00     0.012 A 
ATOM     69  C   UNL     1       9.289   7.569  -3.035  1.00  0.00     0.148 A 
ATOM     70  C   UNL     1      11.544   7.450  -4.703  1.00  0.00     0.002 A 
ATOM     71  C   UNL     1       9.138   7.471  -4.413  1.00  0.00     0.091 A 
ATOM     72  F   UNL     1       8.235   7.652  -2.211  1.00  0.00    -0.205 F 
ATOM     73  C   UNL     1      10.264   7.429  -5.250  1.00  0.00     0.022 A 
BRANCH  71  74
ATOM     74  S   UNL     1       7.530   7.303  -5.197  1.00  0.00     0.127 S 
ATOM     75  O   UNL     1       7.384   8.596  -5.861  1.00  0.00    -0.237 OA
ATOM     76  O   UNL     1       7.750   6.169  -6.097  1.00  0.00    -0.237 OA
ATOM     77  O   UNL     1       6.592   7.035  -4.116  1.00  0.00    -0.744 OA
ENDBRANCH  71  74
ENDBRANCH  43  67
BRANCH  55  78
ATOM     78  C   UNL     1      13.469  12.212   1.873  1.00  0.00     0.023 A 
ATOM     79  C   UNL     1      12.691  13.335   1.529  1.00  0.00     0.012 A 
ATOM     80  C   UNL     1      14.854  12.367   2.080  1.00  0.00     0.148 A 
ATOM     81  C   UNL     1      13.286  14.585   1.363  1.00  0.00     0.002 A 
ATOM     82  C   UNL     1      15.432  13.625   1.961  1.00  0.00     0.091 A 
ATOM     83  F   UNL     1      15.580  11.282   2.388  1.00  0.00    -0.205 F 
ATOM     84  C   UNL     1      14.652  14.733   1.591  1.00  0.00     0.022 A 
BRANCH  82  85
ATOM     85  S   UNL     1      17.165  13.927   2.329  1.00  0.00     0.127 S 
ATOM     86  O   UNL     1      17.722  14.131   0.993  1.00  0.00    -0.237 OA
ATOM     87  O   UNL     1      17.101  15.133   3.155  1.00  0.00    -0.237 OA
ATOM     88  O   UNL     1      17.638  12.740   3.030  1.00  0.00    -0.744 OA
ENDBRANCH  82  85
ENDBRANCH  55  78
ENDBRANCH  29  30
ENDBRANCH  21  24
ENDBRANCH  19  20
ENDBRANCH   1  19
TORSDOF 15
