REMARK SMILES Cc1nc2ncnn2c(O)c1CCC(=O)NCCCNC(=O)c1ccc(-c2c3nc(c(-c4cccc(S(=O)(=O)[O-])c4F)c4ccc([nH]4)c(-c4cccc(S(=O)(=O)[O-])c4F)c4nc(c(-c5cccc(S(=O)(=O)[O-])c5F)c5ccc2[nH]5)C=C4)C=C3)cc1
REMARK SMILES IDX 18 1 17 2 16 3 14 4 15 5 13 7 12 8 11 9 1 10 2 11 3 12 4 13
REMARK SMILES IDX 9 14 5 15 8 16 6 17 7 18 10 19 19 21 20 22 21 23 22 25 23 26
REMARK SMILES IDX 24 27 85 28 25 29 84 30 26 31 27 32 28 33 78 34 29 35 83 36
REMARK SMILES IDX 77 37 79 38 30 39 82 40 76 41 75 42 31 44 63 45 43 46 62 47
REMARK SMILES IDX 44 48 47 49 61 50 80 51 45 52 46 53 60 55 81 56 48 57 32 58
REMARK SMILES IDX 33 59 41 60 34 61 36 62 42 63 35 64 37 65 38 66 39 67 40 68
REMARK SMILES IDX 64 69 65 70 73 71 66 72 68 73 74 74 67 75 69 76 70 77 71 78
REMARK SMILES IDX 72 79 49 80 50 81 58 82 51 83 53 84 59 85 52 86 54 87 55 88
REMARK SMILES IDX 56 89 57 90
REMARK H PARENT 16 6 10 20 20 24 79 43 47 54
REMARK Flexibility Score: inf
ROOT
ATOM      1  C   UNL     1       0.041   5.184  -0.624  1.00  0.00     0.042 C 
ENDROOT
BRANCH   1   2
ATOM      2  C   UNL     1      -0.106   4.685  -2.044  1.00  0.00     0.117 C 
BRANCH   2   3
ATOM      3  N   UNL     1       1.210   4.645  -2.667  1.00  0.00    -0.356 N 
ATOM      4  C   UNL     1       2.173   3.685  -2.589  1.00  0.00     0.220 C 
ATOM      5  O   UNL     1       3.341   3.992  -2.821  1.00  0.00    -0.275 OA
ATOM      6  H   UNL     1       1.437   5.425  -3.224  1.00  0.00     0.163 HD
BRANCH   4   7
ATOM      7  C   UNL     1       1.809   2.243  -2.301  1.00  0.00     0.105 C 
BRANCH   7   8
ATOM      8  C   UNL     1       2.465   1.690  -1.023  1.00  0.00     0.053 C 
BRANCH   8   9
ATOM      9  C   UNL     1       1.478   1.589   0.115  1.00  0.00     0.036 A 
ATOM     10  C   UNL     1       1.046  -0.936  -0.345  1.00  0.00     0.067 C 
ATOM     11  C   UNL     1       0.572   0.379   0.233  1.00  0.00     0.050 A 
ATOM     12  N   UNL     1      -0.568   0.348   0.855  1.00  0.00    -0.216 NA
ATOM     13  C   UNL     1      -0.913   1.475   1.533  1.00  0.00     0.255 A 
ATOM     14  C   UNL     1       1.237   2.541   1.044  1.00  0.00     0.220 A 
ATOM     15  N   UNL     1      -2.074   1.811   2.052  1.00  0.00    -0.197 NA
ATOM     16  N   UNL     1       0.012   2.502   1.753  1.00  0.00    -0.163 N 
ATOM     17  C   UNL     1      -1.825   3.026   2.614  1.00  0.00     0.249 A 
ATOM     18  N   UNL     1      -0.570   3.460   2.524  1.00  0.00    -0.150 NA
BRANCH  14  19
ATOM     19  O   UNL     1       2.020   3.675   1.188  1.00  0.00    -0.493 OA
ATOM     20  H   UNL     1       1.812   4.307   1.848  1.00  0.00     0.295 HD
ENDBRANCH  14  19
ENDBRANCH   8   9
ENDBRANCH   7   8
ENDBRANCH   4   7
ENDBRANCH   2   3
ENDBRANCH   1   2
BRANCH   1  21
ATOM     21  C   UNL     1      -0.837   6.332  -0.209  1.00  0.00     0.118 C 
BRANCH  21  22
ATOM     22  N   UNL     1      -2.220   6.044   0.196  1.00  0.00    -0.352 N 
ATOM     23  C   UNL     1      -2.985   6.605   1.242  1.00  0.00     0.251 C 
ATOM     24  H   UNL     1      -2.680   5.359  -0.341  1.00  0.00     0.163 HD
ATOM     25  O   UNL     1      -4.083   6.167   1.501  1.00  0.00    -0.269 OA
BRANCH  23  26
ATOM     26  C   UNL     1      -2.418   7.733   2.044  1.00  0.00     0.039 A 
ATOM     27  C   UNL     1      -2.645   7.976   3.408  1.00  0.00     0.014 A 
ATOM     28  C   UNL     1      -1.472   8.492   1.429  1.00  0.00     0.014 A 
ATOM     29  C   UNL     1      -1.791   8.884   4.071  1.00  0.00     0.010 A 
ATOM     30  C   UNL     1      -0.388   8.656   2.216  1.00  0.00     0.010 A 
ATOM     31  C   UNL     1      -0.617   9.251   3.416  1.00  0.00    -0.014 A 
BRANCH  31  32
ATOM     32  C   UNL     1       0.488  10.089   3.865  1.00  0.00     0.031 A 
ATOM     33  C   UNL     1       1.003   9.784   5.210  1.00  0.00     0.074 A 
ATOM     34  C   UNL     1       1.188  10.902   3.026  1.00  0.00     0.049 A 
ATOM     35  N   UNL     1       0.770  10.446   6.291  1.00  0.00    -0.248 NA
ATOM     36  C   UNL     1       1.746   8.534   5.412  1.00  0.00     0.031 C 
ATOM     37  C   UNL     1       1.064  11.070   1.562  1.00  0.00     0.029 A 
ATOM     38  N   UNL     1       2.274  11.675   3.299  1.00  0.00    -0.354 N 
ATOM     39  C   UNL     1       1.556   9.845   7.264  1.00  0.00     0.074 A 
ATOM     40  C   UNL     1       1.938   8.560   6.734  1.00  0.00     0.031 C 
ATOM     41  C   UNL     1       2.165  11.676   1.066  1.00  0.00     0.029 A 
ATOM     42  C   UNL     1       2.967  12.130   2.180  1.00  0.00     0.049 A 
ATOM     43  H   UNL     1       2.549  11.897   4.218  1.00  0.00     0.167 HD
ATOM     44  C   UNL     1       2.047  10.565   8.310  1.00  0.00     0.034 A 
ATOM     45  C   UNL     1       4.123  12.833   2.171  1.00  0.00     0.034 A 
ATOM     46  C   UNL     1       1.471  11.889   8.354  1.00  0.00     0.049 A 
ATOM     47  C   UNL     1       4.220  13.491   3.494  1.00  0.00     0.074 A 
ATOM     48  C   UNL     1       0.188  12.393   8.435  1.00  0.00     0.029 A 
ATOM     49  N   UNL     1       2.248  12.915   7.866  1.00  0.00    -0.354 N 
ATOM     50  N   UNL     1       3.381  14.401   3.905  1.00  0.00    -0.248 NA
ATOM     51  C   UNL     1       4.974  12.814   4.534  1.00  0.00     0.031 C 
ATOM     52  C   UNL     1       0.177  13.507   7.543  1.00  0.00     0.029 A 
ATOM     53  C   UNL     1       1.467  13.667   7.027  1.00  0.00     0.049 A 
ATOM     54  H   UNL     1       3.195  13.079   8.081  1.00  0.00     0.167 HD
ATOM     55  C   UNL     1       3.159  14.084   5.240  1.00  0.00     0.074 A 
ATOM     56  C   UNL     1       4.251  13.179   5.597  1.00  0.00     0.031 C 
ATOM     57  C   UNL     1       1.959  14.344   5.843  1.00  0.00     0.034 A 
BRANCH  44  58
ATOM     58  C   UNL     1       3.289  10.232   9.092  1.00  0.00     0.023 A 
ATOM     59  C   UNL     1       3.484  10.913  10.313  1.00  0.00     0.012 A 
ATOM     60  C   UNL     1       4.375   9.480   8.593  1.00  0.00     0.148 A 
ATOM     61  C   UNL     1       4.707  10.871  10.989  1.00  0.00     0.002 A 
ATOM     62  C   UNL     1       5.559   9.369   9.313  1.00  0.00     0.091 A 
ATOM     63  F   UNL     1       4.328   8.978   7.354  1.00  0.00    -0.205 F 
ATOM     64  C   UNL     1       5.741  10.086  10.497  1.00  0.00     0.022 A 
BRANCH  62  65
ATOM     65  S   UNL     1       6.903   8.314   8.756  1.00  0.00     0.127 S 
ATOM     66  O   UNL     1       7.853   9.296   8.243  1.00  0.00    -0.237 OA
ATOM     67  O   UNL     1       7.303   7.656  10.000  1.00  0.00    -0.237 OA
ATOM     68  O   UNL     1       6.306   7.418   7.774  1.00  0.00    -0.744 OA
ENDBRANCH  62  65
ENDBRANCH  44  58
BRANCH  45  69
ATOM     69  C   UNL     1       5.268  12.754   1.234  1.00  0.00     0.023 A 
ATOM     70  C   UNL     1       6.203  13.806   1.188  1.00  0.00     0.012 A 
ATOM     71  C   UNL     1       5.614  11.525   0.626  1.00  0.00     0.148 A 
ATOM     72  C   UNL     1       7.464  13.625   0.608  1.00  0.00     0.002 A 
ATOM     73  C   UNL     1       6.872  11.347   0.057  1.00  0.00     0.091 A 
ATOM     74  F   UNL     1       4.745  10.508   0.689  1.00  0.00    -0.205 F 
ATOM     75  C   UNL     1       7.806  12.392   0.059  1.00  0.00     0.022 A 
BRANCH  73  76
ATOM     76  S   UNL     1       7.406   9.772  -0.629  1.00  0.00     0.127 S 
ATOM     77  O   UNL     1       7.915  10.171  -1.941  1.00  0.00    -0.237 OA
ATOM     78  O   UNL     1       8.430   9.359   0.326  1.00  0.00    -0.237 OA
ATOM     79  O   UNL     1       6.213   8.935  -0.677  1.00  0.00    -0.744 OA
ENDBRANCH  73  76
ENDBRANCH  45  69
BRANCH  57  80
ATOM     80  C   UNL     1       0.950  15.195   5.099  1.00  0.00     0.023 A 
ATOM     81  C   UNL     1       0.370  14.785   3.879  1.00  0.00     0.012 A 
ATOM     82  C   UNL     1       0.429  16.331   5.742  1.00  0.00     0.148 A 
ATOM     83  C   UNL     1      -0.693  15.494   3.310  1.00  0.00     0.002 A 
ATOM     84  C   UNL     1      -0.658  17.007   5.197  1.00  0.00     0.091 A 
ATOM     85  F   UNL     1       0.985  16.712   6.902  1.00  0.00    -0.205 F 
ATOM     86  C   UNL     1      -1.218  16.597   3.977  1.00  0.00     0.022 A 
BRANCH  84  87
ATOM     87  S   UNL     1      -1.464  18.351   6.072  1.00  0.00     0.127 S 
ATOM     88  O   UNL     1      -1.020  19.519   5.314  1.00  0.00    -0.237 OA
ATOM     89  O   UNL     1      -2.883  18.024   5.915  1.00  0.00    -0.237 OA
ATOM     90  O   UNL     1      -0.987  18.278   7.448  1.00  0.00    -0.744 OA
ENDBRANCH  84  87
ENDBRANCH  57  80
ENDBRANCH  31  32
ENDBRANCH  23  26
ENDBRANCH  21  22
ENDBRANCH   1  21
TORSDOF 16
