REMARK SMILES CC(C)(C)N(CC(=O)NCCCNC(=O)c1ccc(-c2c3nc(c(-c4cccc(S(=O)(=O)[O-])c4F)c4ccc([nH]4)c(-c4cccc(S(=O)(=O)[O-])c4F)c4nc(c(-c5cccc(S(=O)(=O)[O-])c5F)c5ccc2[nH]5)C=C4)C=C3)cc1)C(=O)NCCc1cnc[nH]1
REMARK SMILES IDX 10 1 9 2 7 3 8 4 6 6 5 7 2 8 1 9 3 10 4 11 79 12 80 13 81 14
REMARK SMILES IDX 82 16 83 17 84 18 85 19 88 20 86 21 87 22 11 24 12 25 13 26
REMARK SMILES IDX 14 27 15 29 16 30 17 31 78 32 18 33 77 34 19 35 20 36 21 37
REMARK SMILES IDX 71 38 22 39 76 40 70 41 72 42 23 43 75 44 69 45 68 46 24 48
REMARK SMILES IDX 56 49 36 50 55 51 37 52 40 53 54 54 73 55 38 56 39 57 53 59
REMARK SMILES IDX 74 60 41 61 25 62 26 63 34 64 27 65 29 66 35 67 28 68 30 69
REMARK SMILES IDX 31 70 32 71 33 72 57 73 58 74 66 75 59 76 61 77 67 78 60 79
REMARK SMILES IDX 62 80 63 81 64 82 65 83 42 84 43 85 51 86 44 87 46 88 52 89
REMARK SMILES IDX 45 90 47 91 48 92 49 93 50 94
REMARK H PARENT 9 5 81 15 88 23 13 28 72 47 40 58
REMARK Flexibility Score: inf
ROOT
ATOM      1  C   UNL     1       4.026   1.465  -0.481  1.00  0.00     0.117 C 
ENDROOT
BRANCH   1   2
ATOM      2  N   UNL     1       4.237   1.867   0.892  1.00  0.00    -0.354 N 
ATOM      3  C   UNL     1       3.410   1.697   1.960  1.00  0.00     0.239 C 
ATOM      4  O   UNL     1       3.933   1.749   3.080  1.00  0.00    -0.273 OA
ATOM      5  H   UNL     1       5.089   2.322   1.079  1.00  0.00     0.163 HD
BRANCH   3   6
ATOM      6  C   UNL     1       1.937   1.274   1.801  1.00  0.00     0.221 C 
BRANCH   6   7
ATOM      7  N   UNL     1       1.101   2.020   0.850  1.00  0.00    -0.311 N 
BRANCH   7   8
ATOM      8  C   UNL     1       0.253   1.248  -0.167  1.00  0.00     0.037 C 
ATOM      9  C   UNL     1       0.496  -0.287  -0.183  1.00  0.00     0.034 C 
ATOM     10  C   UNL     1       0.502   1.719  -1.622  1.00  0.00     0.034 C 
ATOM     11  C   UNL     1      -1.252   1.409   0.163  1.00  0.00     0.034 C 
ENDBRANCH   7   8
BRANCH   7  12
ATOM     12  C   UNL     1       0.836   3.367   0.985  1.00  0.00     0.318 C 
ATOM     13  O   UNL     1       0.197   4.004   0.144  1.00  0.00    -0.249 OA
ATOM     14  N   UNL     1       1.214   4.131   2.020  1.00  0.00    -0.338 N 
ATOM     15  H   UNL     1       1.028   5.077   1.819  1.00  0.00     0.165 HD
BRANCH  14  16
ATOM     16  C   UNL     1       1.808   4.020   3.346  1.00  0.00     0.124 C 
BRANCH  16  17
ATOM     17  C   UNL     1       3.173   4.718   3.416  1.00  0.00     0.077 C 
BRANCH  17  18
ATOM     18  C   UNL     1       3.066   6.187   3.663  1.00  0.00     0.036 A 
ATOM     19  C   UNL     1       2.604   6.901   4.748  1.00  0.00     0.134 A 
ATOM     20  N   UNL     1       3.494   7.146   2.777  1.00  0.00    -0.348 N 
ATOM     21  N   UNL     1       2.754   8.247   4.553  1.00  0.00    -0.245 NA
ATOM     22  C   UNL     1       3.294   8.365   3.361  1.00  0.00     0.196 A 
ATOM     23  H   UNL     1       3.876   6.984   1.884  1.00  0.00     0.167 HD
ENDBRANCH  17  18
ENDBRANCH  16  17
ENDBRANCH  14  16
ENDBRANCH   7  12
ENDBRANCH   6   7
ENDBRANCH   3   6
ENDBRANCH   1   2
BRANCH   1  24
ATOM     24  C   UNL     1       3.943   2.636  -1.449  1.00  0.00     0.042 C 
BRANCH  24  25
ATOM     25  C   UNL     1       5.247   3.409  -1.601  1.00  0.00     0.118 C 
BRANCH  25  26
ATOM     26  N   UNL     1       6.331   2.583  -2.126  1.00  0.00    -0.352 N 
ATOM     27  C   UNL     1       6.878   2.505  -3.384  1.00  0.00     0.251 C 
ATOM     28  H   UNL     1       6.739   1.978  -1.465  1.00  0.00     0.163 HD
ATOM     29  O   UNL     1       7.618   1.562  -3.655  1.00  0.00    -0.269 OA
BRANCH  27  30
ATOM     30  C   UNL     1       6.581   3.528  -4.412  1.00  0.00     0.039 A 
ATOM     31  C   UNL     1       6.390   3.124  -5.738  1.00  0.00     0.014 A 
ATOM     32  C   UNL     1       6.528   4.884  -4.086  1.00  0.00     0.014 A 
ATOM     33  C   UNL     1       6.057   4.069  -6.714  1.00  0.00     0.010 A 
ATOM     34  C   UNL     1       6.115   5.811  -5.039  1.00  0.00     0.010 A 
ATOM     35  C   UNL     1       5.866   5.414  -6.361  1.00  0.00    -0.014 A 
BRANCH  35  36
ATOM     36  C   UNL     1       5.360   6.418  -7.333  1.00  0.00     0.031 A 
ATOM     37  C   UNL     1       6.181   7.633  -7.674  1.00  0.00     0.074 A 
ATOM     38  C   UNL     1       4.103   6.300  -7.807  1.00  0.00     0.049 A 
ATOM     39  N   UNL     1       5.850   8.678  -8.387  1.00  0.00    -0.248 NA
ATOM     40  C   UNL     1       7.542   7.695  -7.116  1.00  0.00     0.031 C 
ATOM     41  C   UNL     1       3.181   5.207  -7.494  1.00  0.00     0.029 A 
ATOM     42  N   UNL     1       3.369   7.129  -8.619  1.00  0.00    -0.354 N 
ATOM     43  C   UNL     1       6.940   9.538  -8.331  1.00  0.00     0.074 A 
ATOM     44  C   UNL     1       7.935   8.904  -7.494  1.00  0.00     0.031 C 
ATOM     45  C   UNL     1       2.004   5.435  -8.097  1.00  0.00     0.029 A 
ATOM     46  C   UNL     1       2.071   6.709  -8.804  1.00  0.00     0.049 A 
ATOM     47  H   UNL     1       3.735   7.946  -9.029  1.00  0.00     0.167 HD
ATOM     48  C   UNL     1       7.107  10.736  -8.941  1.00  0.00     0.034 A 
ATOM     49  C   UNL     1       1.041   7.294  -9.446  1.00  0.00     0.034 A 
ATOM     50  C   UNL     1       6.133  11.343  -9.807  1.00  0.00     0.049 A 
ATOM     51  C   UNL     1       1.257   8.621 -10.121  1.00  0.00     0.074 A 
ATOM     52  C   UNL     1       6.251  12.501 -10.556  1.00  0.00     0.029 A 
ATOM     53  N   UNL     1       4.856  10.852 -10.030  1.00  0.00    -0.354 N 
ATOM     54  N   UNL     1       2.352   9.338 -10.197  1.00  0.00    -0.248 NA
ATOM     55  C   UNL     1       0.104   9.209 -10.818  1.00  0.00     0.031 C 
ATOM     56  C   UNL     1       5.034  12.726 -11.208  1.00  0.00     0.029 A 
ATOM     57  C   UNL     1       4.166  11.697 -10.883  1.00  0.00     0.049 A 
ATOM     58  H   UNL     1       4.492  10.025  -9.639  1.00  0.00     0.167 HD
ATOM     59  C   UNL     1       2.026  10.450 -10.965  1.00  0.00     0.074 A 
ATOM     60  C   UNL     1       0.640  10.296 -11.357  1.00  0.00     0.031 C 
ATOM     61  C   UNL     1       2.799  11.513 -11.299  1.00  0.00     0.034 A 
BRANCH  48  62
ATOM     62  C   UNL     1       8.417  11.452  -8.736  1.00  0.00     0.023 A 
ATOM     63  C   UNL     1       9.585  10.954  -9.349  1.00  0.00     0.012 A 
ATOM     64  C   UNL     1       8.482  12.650  -7.996  1.00  0.00     0.148 A 
ATOM     65  C   UNL     1      10.803  11.617  -9.202  1.00  0.00     0.002 A 
ATOM     66  C   UNL     1       9.692  13.328  -7.890  1.00  0.00     0.091 A 
ATOM     67  F   UNL     1       7.366  13.098  -7.404  1.00  0.00    -0.205 F 
ATOM     68  C   UNL     1      10.854  12.807  -8.482  1.00  0.00     0.022 A 
BRANCH  66  69
ATOM     69  S   UNL     1       9.848  14.907  -7.048  1.00  0.00     0.127 S 
ATOM     70  O   UNL     1      10.607  14.530  -5.856  1.00  0.00    -0.237 OA
ATOM     71  O   UNL     1      10.598  15.701  -8.021  1.00  0.00    -0.237 OA
ATOM     72  O   UNL     1       8.489  15.368  -6.803  1.00  0.00    -0.744 OA
ENDBRANCH  66  69
ENDBRANCH  48  62
BRANCH  49  73
ATOM     73  C   UNL     1      -0.280   6.607  -9.514  1.00  0.00     0.023 A 
ATOM     74  C   UNL     1      -0.726   6.091 -10.746  1.00  0.00     0.012 A 
ATOM     75  C   UNL     1      -1.080   6.434  -8.367  1.00  0.00     0.148 A 
ATOM     76  C   UNL     1      -1.956   5.439 -10.842  1.00  0.00     0.002 A 
ATOM     77  C   UNL     1      -2.277   5.733  -8.459  1.00  0.00     0.091 A 
ATOM     78  F   UNL     1      -0.644   6.944  -7.207  1.00  0.00    -0.205 F 
ATOM     79  C   UNL     1      -2.725   5.251  -9.698  1.00  0.00     0.022 A 
BRANCH  77  80
ATOM     80  S   UNL     1      -3.266   5.325  -7.016  1.00  0.00     0.127 S 
ATOM     81  O   UNL     1      -4.440   6.176  -7.209  1.00  0.00    -0.237 OA
ATOM     82  O   UNL     1      -3.506   3.893  -7.212  1.00  0.00    -0.237 OA
ATOM     83  O   UNL     1      -2.435   5.642  -5.868  1.00  0.00    -0.744 OA
ENDBRANCH  77  80
ENDBRANCH  49  73
BRANCH  61  84
ATOM     84  C   UNL     1       2.171  12.597 -12.136  1.00  0.00     0.023 A 
ATOM     85  C   UNL     1       1.236  13.473 -11.549  1.00  0.00     0.012 A 
ATOM     86  C   UNL     1       2.566  12.800 -13.473  1.00  0.00     0.148 A 
ATOM     87  C   UNL     1       0.684  14.518 -12.287  1.00  0.00     0.002 A 
ATOM     88  C   UNL     1       2.048  13.873 -14.188  1.00  0.00     0.091 A 
ATOM     89  F   UNL     1       3.446  11.947 -14.015  1.00  0.00    -0.205 F 
ATOM     90  C   UNL     1       1.098  14.726 -13.600  1.00  0.00     0.022 A 
BRANCH  88  91
ATOM     91  S   UNL     1       2.586  14.278 -15.853  1.00  0.00     0.127 S 
ATOM     92  O   UNL     1       1.385  13.984 -16.634  1.00  0.00    -0.237 OA
ATOM     93  O   UNL     1       2.905  15.701 -15.737  1.00  0.00    -0.237 OA
ATOM     94  O   UNL     1       3.730  13.420 -16.128  1.00  0.00    -0.744 OA
ENDBRANCH  88  91
ENDBRANCH  61  84
ENDBRANCH  35  36
ENDBRANCH  27  30
ENDBRANCH  25  26
ENDBRANCH  24  25
ENDBRANCH   1  24
TORSDOF 19
