REMARK SMILES O=C(NCCCNC(=O)c1ccc([S@@](=O)[C@H]2CCOC3(CCCC3)C2)cc1)c1ccc(-c2c3nc(c(-c4cccc(S(=O)(=O)[O-])c4F)c4ccc([nH]4)c(-c4cccc(S(=O)(=O)[O-])c4F)c4nc(c(-c5cccc(S(=O)(=O)[O-])c5F)c5ccc2[nH]5)C=C4)C=C3)cc1
REMARK SMILES IDX 4 1 3 2 1 3 2 4 28 6 29 7 90 8 30 9 89 10 31 11 32 12 33 13
REMARK SMILES IDX 83 14 34 15 88 16 82 17 84 18 35 19 87 20 81 21 80 22 36 24
REMARK SMILES IDX 68 25 48 26 67 27 49 28 52 29 66 30 85 31 50 32 51 33 65 35
REMARK SMILES IDX 86 36 53 37 37 38 38 39 46 40 39 41 41 42 47 43 40 44 42 45
REMARK SMILES IDX 43 46 44 47 45 48 69 49 70 50 78 51 71 52 73 53 79 54 72 55
REMARK SMILES IDX 74 56 75 57 76 58 77 59 54 60 55 61 63 62 56 63 58 64 64 65
REMARK SMILES IDX 57 66 59 67 60 68 61 69 62 70 5 71 6 72 7 73 8 74 9 76 10 77
REMARK SMILES IDX 11 78 27 79 12 80 26 81 13 82 14 83 15 84 16 85 17 86 25 87
REMARK SMILES IDX 18 88 20 89 19 90 21 91 24 92 22 93 23 94
REMARK H PARENT 3 5 84 23 52 34 7 75
REMARK Flexibility Score: inf
ROOT
ATOM      1  C   UNL     1       4.223  -4.118 -19.150  1.00  0.00     0.118 C 
ENDROOT
BRANCH   1   2
ATOM      2  N   UNL     1       5.096  -3.813 -20.278  1.00  0.00    -0.352 N 
ATOM      3  O   UNL     1       6.475  -4.193 -22.011  1.00  0.00    -0.269 OA
ATOM      4  C   UNL     1       5.607  -4.630 -21.260  1.00  0.00     0.251 C 
ATOM      5  H   UNL     1       5.364  -2.868 -20.348  1.00  0.00     0.163 HD
BRANCH   4   6
ATOM      6  C   UNL     1       5.137  -6.028 -21.395  1.00  0.00     0.039 A 
ATOM      7  C   UNL     1       3.792  -6.345 -21.219  1.00  0.00     0.014 A 
ATOM      8  C   UNL     1       6.050  -7.037 -21.720  1.00  0.00     0.014 A 
ATOM      9  C   UNL     1       3.395  -7.674 -21.172  1.00  0.00     0.010 A 
ATOM     10  C   UNL     1       5.622  -8.369 -21.794  1.00  0.00     0.010 A 
ATOM     11  C   UNL     1       4.298  -8.705 -21.480  1.00  0.00    -0.014 A 
BRANCH  11  12
ATOM     12  C   UNL     1       3.784 -10.100 -21.536  1.00  0.00     0.031 A 
ATOM     13  C   UNL     1       4.298 -11.176 -20.619  1.00  0.00     0.074 A 
ATOM     14  C   UNL     1       2.786 -10.372 -22.401  1.00  0.00     0.049 A 
ATOM     15  N   UNL     1       3.865 -12.403 -20.476  1.00  0.00    -0.248 NA
ATOM     16  C   UNL     1       5.448 -10.846 -19.761  1.00  0.00     0.031 C 
ATOM     17  C   UNL     1       2.251  -9.428 -23.387  1.00  0.00     0.029 A 
ATOM     18  N   UNL     1       2.027 -11.500 -22.579  1.00  0.00    -0.354 N 
ATOM     19  C   UNL     1       4.700 -13.001 -19.540  1.00  0.00     0.074 A 
ATOM     20  C   UNL     1       5.680 -12.006 -19.158  1.00  0.00     0.031 C 
ATOM     21  C   UNL     1       1.217  -9.993 -24.024  1.00  0.00     0.029 A 
ATOM     22  C   UNL     1       1.048 -11.356 -23.535  1.00  0.00     0.049 A 
ATOM     23  H   UNL     1       2.169 -12.332 -22.073  1.00  0.00     0.167 HD
ATOM     24  C   UNL     1       4.643 -14.255 -19.030  1.00  0.00     0.034 A 
ATOM     25  C   UNL     1       0.114 -12.221 -23.974  1.00  0.00     0.034 A 
ATOM     26  C   UNL     1       3.645 -15.230 -19.388  1.00  0.00     0.049 A 
ATOM     27  C   UNL     1       0.034 -13.579 -23.342  1.00  0.00     0.074 A 
ATOM     28  C   UNL     1       3.483 -16.516 -18.900  1.00  0.00     0.029 A 
ATOM     29  N   UNL     1       2.637 -15.029 -20.319  1.00  0.00    -0.354 N 
ATOM     30  N   UNL     1       0.760 -14.079 -22.372  1.00  0.00    -0.248 NA
ATOM     31  C   UNL     1      -1.010 -14.482 -23.843  1.00  0.00     0.031 C 
ATOM     32  C   UNL     1       2.380 -17.093 -19.540  1.00  0.00     0.029 A 
ATOM     33  C   UNL     1       1.847 -16.163 -20.418  1.00  0.00     0.049 A 
ATOM     34  H   UNL     1       2.502 -14.201 -20.834  1.00  0.00     0.167 HD
ATOM     35  C   UNL     1       0.260 -15.353 -22.142  1.00  0.00     0.074 A 
ATOM     36  C   UNL     1      -0.864 -15.528 -23.041  1.00  0.00     0.031 C 
ATOM     37  C   UNL     1       0.709 -16.306 -21.288  1.00  0.00     0.034 A 
BRANCH  24  38
ATOM     38  C   UNL     1       5.654 -14.636 -17.979  1.00  0.00     0.023 A 
ATOM     39  C   UNL     1       5.510 -14.130 -16.671  1.00  0.00     0.012 A 
ATOM     40  C   UNL     1       6.690 -15.551 -18.255  1.00  0.00     0.148 A 
ATOM     41  C   UNL     1       6.390 -14.512 -15.659  1.00  0.00     0.002 A 
ATOM     42  C   UNL     1       7.542 -15.955 -17.232  1.00  0.00     0.091 A 
ATOM     43  F   UNL     1       6.824 -16.006 -19.508  1.00  0.00    -0.205 F 
ATOM     44  C   UNL     1       7.398 -15.431 -15.937  1.00  0.00     0.022 A 
BRANCH  42  45
ATOM     45  S   UNL     1       8.828 -17.189 -17.468  1.00  0.00     0.127 S 
ATOM     46  O   UNL     1      10.037 -16.371 -17.397  1.00  0.00    -0.237 OA
ATOM     47  O   UNL     1       8.622 -18.073 -16.321  1.00  0.00    -0.237 OA
ATOM     48  O   UNL     1       8.562 -17.802 -18.762  1.00  0.00    -0.744 OA
ENDBRANCH  42  45
ENDBRANCH  24  38
BRANCH  25  49
ATOM     49  C   UNL     1      -0.842 -11.796 -25.033  1.00  0.00     0.023 A 
ATOM     50  C   UNL     1      -2.201 -11.610 -24.716  1.00  0.00     0.012 A 
ATOM     51  C   UNL     1      -0.398 -11.514 -26.340  1.00  0.00     0.148 A 
ATOM     52  C   UNL     1      -3.103 -11.173 -25.688  1.00  0.00     0.002 A 
ATOM     53  C   UNL     1      -1.288 -11.016 -27.283  1.00  0.00     0.091 A 
ATOM     54  F   UNL     1       0.894 -11.718 -26.633  1.00  0.00    -0.205 F 
ATOM     55  C   UNL     1      -2.645 -10.861 -26.965  1.00  0.00     0.022 A 
BRANCH  53  56
ATOM     56  S   UNL     1      -0.725 -10.437 -28.887  1.00  0.00     0.127 S 
ATOM     57  O   UNL     1      -0.997 -11.592 -29.737  1.00  0.00    -0.237 OA
ATOM     58  O   UNL     1      -1.589  -9.280 -29.124  1.00  0.00    -0.237 OA
ATOM     59  O   UNL     1       0.679 -10.096 -28.693  1.00  0.00    -0.744 OA
ENDBRANCH  53  56
ENDBRANCH  25  49
BRANCH  37  60
ATOM     60  C   UNL     1      -0.016 -17.624 -21.294  1.00  0.00     0.023 A 
ATOM     61  C   UNL     1       0.160 -18.504 -22.381  1.00  0.00     0.012 A 
ATOM     62  C   UNL     1      -0.839 -18.008 -20.219  1.00  0.00     0.148 A 
ATOM     63  C   UNL     1      -0.501 -19.731 -22.415  1.00  0.00     0.002 A 
ATOM     64  C   UNL     1      -1.462 -19.250 -20.240  1.00  0.00     0.091 A 
ATOM     65  F   UNL     1      -1.014 -17.147 -19.205  1.00  0.00    -0.205 F 
ATOM     66  C   UNL     1      -1.303 -20.108 -21.341  1.00  0.00     0.022 A 
BRANCH  64  67
ATOM     67  S   UNL     1      -2.446 -19.845 -18.860  1.00  0.00     0.127 S 
ATOM     68  O   UNL     1      -3.806 -19.590 -19.331  1.00  0.00    -0.237 OA
ATOM     69  O   UNL     1      -2.077 -21.260 -18.794  1.00  0.00    -0.237 OA
ATOM     70  O   UNL     1      -2.020 -19.061 -17.707  1.00  0.00    -0.744 OA
ENDBRANCH  64  67
ENDBRANCH  37  60
ENDBRANCH  11  12
ENDBRANCH   4   6
ENDBRANCH   1   2
BRANCH   1  71
ATOM     71  C   UNL     1       4.907  -3.929 -17.805  1.00  0.00     0.042 C 
BRANCH  71  72
ATOM     72  C   UNL     1       5.284  -2.485 -17.511  1.00  0.00     0.118 C 
BRANCH  72  73
ATOM     73  N   UNL     1       4.115  -1.622 -17.378  1.00  0.00    -0.352 N 
ATOM     74  C   UNL     1       3.525  -1.125 -16.244  1.00  0.00     0.251 C 
ATOM     75  H   UNL     1       3.687  -1.359 -18.225  1.00  0.00     0.163 HD
ATOM     76  O   UNL     1       2.436  -0.561 -16.294  1.00  0.00    -0.269 OA
BRANCH  74  77
ATOM     77  C   UNL     1       4.203  -1.289 -14.946  1.00  0.00     0.039 A 
ATOM     78  C   UNL     1       3.526  -1.924 -13.902  1.00  0.00     0.015 A 
ATOM     79  C   UNL     1       5.514  -0.836 -14.773  1.00  0.00     0.015 A 
ATOM     80  C   UNL     1       4.201  -2.192 -12.710  1.00  0.00     0.018 A 
ATOM     81  C   UNL     1       6.189  -1.117 -13.588  1.00  0.00     0.018 A 
ATOM     82  C   UNL     1       5.541  -1.808 -12.558  1.00  0.00     0.039 A 
BRANCH  82  83
ATOM     83  S   UNL     1       6.448  -2.310 -11.092  1.00  0.00     0.056 S 
ATOM     84  O   UNL     1       7.901  -2.173 -11.447  1.00  0.00    -0.254 OA
BRANCH  83  85
ATOM     85  C   UNL     1       6.073  -0.983  -9.896  1.00  0.00     0.089 C 
ATOM     86  C   UNL     1       5.094   0.096 -10.336  1.00  0.00     0.046 C 
ATOM     87  C   UNL     1       5.564  -1.634  -8.611  1.00  0.00     0.053 C 
ATOM     88  C   UNL     1       4.888   1.092  -9.203  1.00  0.00     0.162 C 
ATOM     89  C   UNL     1       5.342  -0.587  -7.515  1.00  0.00     0.069 C 
ATOM     90  O   UNL     1       4.476   0.450  -7.998  1.00  0.00    -0.375 OA
ATOM     91  C   UNL     1       4.641  -1.223  -6.290  1.00  0.00     0.035 C 
ATOM     92  C   UNL     1       6.666  -0.015  -6.960  1.00  0.00     0.035 C 
ATOM     93  C   UNL     1       5.628  -1.116  -5.134  1.00  0.00     0.003 C 
ATOM     94  C   UNL     1       6.432   0.125  -5.463  1.00  0.00     0.003 C 
ENDBRANCH  83  85
ENDBRANCH  82  83
ENDBRANCH  74  77
ENDBRANCH  72  73
ENDBRANCH  71  72
ENDBRANCH   1  71
TORSDOF 15
