REMARK SMILES CC[NH2+][C@]1(C(=O)NCCCNC(=O)c2ccc(-c3c4nc(c(-c5cccc(S(=O)(=O)[O-])c5F)c5ccc([nH]5)c(-c5cccc(S(=O)(=O)[O-])c5F)c5nc(c(-c6cccc(S(=O)(=O)[O-])c6F)c6ccc3[nH]6)C=C5)C=C4)cc2)CC[C@@H]([N@@H+](CC)[C@@H](C)CC)C1
REMARK SMILES IDX 9 1 8 2 7 3 5 4 6 5 4 7 77 8 87 9 78 10 79 11 3 12 2 15 1 16
REMARK SMILES IDX 80 17 81 19 82 20 83 21 84 22 85 23 86 24 10 25 11 26 12 27
REMARK SMILES IDX 13 29 14 30 15 31 76 32 16 33 75 34 17 35 18 36 19 37 69 38
REMARK SMILES IDX 20 39 74 40 68 41 70 42 21 43 73 44 67 45 66 46 22 48 54 49
REMARK SMILES IDX 34 50 53 51 35 52 38 53 52 54 71 55 36 56 37 57 51 59 72 60
REMARK SMILES IDX 39 61 23 62 24 63 32 64 25 65 27 66 33 67 26 68 28 69 29 70
REMARK SMILES IDX 30 71 31 72 55 73 56 74 64 75 57 76 59 77 65 78 58 79 60 80
REMARK SMILES IDX 61 81 62 82 63 83 40 84 41 85 49 86 42 87 44 88 50 89 43 90
REMARK SMILES IDX 45 91 46 92 47 93 48 94
REMARK H PARENT 7 6 3 13 3 14 80 18 11 28 70 47 38 58
REMARK Flexibility Score: inf
ROOT
ATOM      1  C   UNL     1       2.418   0.073  -2.682  1.00  0.00     0.042 C 
ENDROOT
BRANCH   1   2
ATOM      2  C   UNL     1       2.855  -1.182  -1.951  1.00  0.00     0.118 C 
BRANCH   2   3
ATOM      3  N   UNL     1       1.923  -1.598  -0.913  1.00  0.00    -0.351 N 
ATOM      4  C   UNL     1       0.965  -2.557  -0.786  1.00  0.00     0.281 C 
ATOM      5  O   UNL     1       0.498  -2.661   0.359  1.00  0.00    -0.268 OA
ATOM      6  H   UNL     1       2.007  -1.049  -0.100  1.00  0.00     0.163 HD
BRANCH   4   7
ATOM      7  C   UNL     1       0.382  -3.423  -1.965  1.00  0.00     0.181 C 
ATOM      8  C   UNL     1       1.264  -3.480  -3.199  1.00  0.00     0.085 C 
ATOM      9  C   UNL     1       0.363  -4.913  -1.506  1.00  0.00     0.144 C 
ATOM     10  C   UNL     1       1.083  -4.827  -3.845  1.00  0.00     0.072 C 
ATOM     11  C   UNL     1       0.936  -5.785  -2.660  1.00  0.00     0.191 C 
BRANCH   7  12
ATOM     12  N   UNL     1      -0.998  -2.919  -2.204  1.00  0.00    -0.334 N 
ATOM     13  H   UNL     1      -1.548  -3.127  -1.371  1.00  0.00     0.347 HD
ATOM     14  H   UNL     1      -0.880  -1.927  -2.412  1.00  0.00     0.347 HD
BRANCH  12  15
ATOM     15  C   UNL     1      -1.721  -3.454  -3.349  1.00  0.00     0.257 C 
ATOM     16  C   UNL     1      -3.165  -2.976  -3.348  1.00  0.00     0.071 C 
ENDBRANCH  12  15
ENDBRANCH   7  12
BRANCH  11  17
ATOM     17  N   UNL     1       2.078  -6.681  -2.389  1.00  0.00    -0.330 N 
ATOM     18  H   UNL     1       1.750  -6.901  -1.448  1.00  0.00     0.348 HD
BRANCH  17  19
ATOM     19  C   UNL     1       2.135  -7.843  -3.299  1.00  0.00     0.259 C 
ATOM     20  C   UNL     1       2.263  -7.582  -4.799  1.00  0.00     0.071 C 
ENDBRANCH  17  19
BRANCH  17  21
ATOM     21  C   UNL     1       3.405  -6.254  -1.897  1.00  0.00     0.180 C 
ATOM     22  C   UNL     1       4.318  -5.527  -2.895  1.00  0.00     0.075 C 
BRANCH  21  23
ATOM     23  C   UNL     1       3.438  -5.528  -0.533  1.00  0.00     0.061 C 
ATOM     24  C   UNL     1       2.891  -6.375   0.612  1.00  0.00     0.010 C 
ENDBRANCH  21  23
ENDBRANCH  17  21
ENDBRANCH  11  17
ENDBRANCH   4   7
ENDBRANCH   2   3
ENDBRANCH   1   2
BRANCH   1  25
ATOM     25  C   UNL     1       2.784   1.333  -1.916  1.00  0.00     0.118 C 
BRANCH  25  26
ATOM     26  N   UNL     1       4.230   1.463  -1.736  1.00  0.00    -0.352 N 
ATOM     27  C   UNL     1       5.104   2.413  -2.196  1.00  0.00     0.251 C 
ATOM     28  H   UNL     1       4.643   0.752  -1.194  1.00  0.00     0.163 HD
ATOM     29  O   UNL     1       6.311   2.201  -2.138  1.00  0.00    -0.269 OA
BRANCH  27  30
ATOM     30  C   UNL     1       4.594   3.683  -2.749  1.00  0.00     0.039 A 
ATOM     31  C   UNL     1       5.268   4.285  -3.814  1.00  0.00     0.014 A 
ATOM     32  C   UNL     1       3.472   4.297  -2.190  1.00  0.00     0.014 A 
ATOM     33  C   UNL     1       4.788   5.486  -4.340  1.00  0.00     0.010 A 
ATOM     34  C   UNL     1       2.929   5.422  -2.788  1.00  0.00     0.010 A 
ATOM     35  C   UNL     1       3.602   6.051  -3.843  1.00  0.00    -0.014 A 
BRANCH  35  36
ATOM     36  C   UNL     1       3.070   7.332  -4.364  1.00  0.00     0.031 A 
ATOM     37  C   UNL     1       2.920   8.507  -3.434  1.00  0.00     0.074 A 
ATOM     38  C   UNL     1       2.641   7.408  -5.638  1.00  0.00     0.049 A 
ATOM     39  N   UNL     1       2.400   9.682  -3.668  1.00  0.00    -0.248 NA
ATOM     40  C   UNL     1       3.379   8.324  -2.045  1.00  0.00     0.031 C 
ATOM     41  C   UNL     1       2.659   6.309  -6.607  1.00  0.00     0.029 A 
ATOM     42  N   UNL     1       2.081   8.451  -6.329  1.00  0.00    -0.354 N 
ATOM     43  C   UNL     1       2.425  10.356  -2.452  1.00  0.00     0.074 A 
ATOM     44  C   UNL     1       2.967   9.444  -1.471  1.00  0.00     0.031 C 
ATOM     45  C   UNL     1       2.144   6.740  -7.770  1.00  0.00     0.029 A 
ATOM     46  C   UNL     1       1.729   8.131  -7.620  1.00  0.00     0.049 A 
ATOM     47  H   UNL     1       1.943   9.344  -5.939  1.00  0.00     0.167 HD
ATOM     48  C   UNL     1       2.065  11.632  -2.182  1.00  0.00     0.034 A 
ATOM     49  C   UNL     1       1.135   8.877  -8.570  1.00  0.00     0.034 A 
ATOM     50  C   UNL     1       1.582  12.550  -3.176  1.00  0.00     0.049 A 
ATOM     51  C   UNL     1       0.799  10.311  -8.262  1.00  0.00     0.074 A 
ATOM     52  C   UNL     1       1.274  13.890  -3.033  1.00  0.00     0.029 A 
ATOM     53  N   UNL     1       1.336  12.219  -4.499  1.00  0.00    -0.354 N 
ATOM     54  N   UNL     1       0.970  10.977  -7.145  1.00  0.00    -0.248 NA
ATOM     55  C   UNL     1       0.229  11.110  -9.355  1.00  0.00     0.031 C 
ATOM     56  C   UNL     1       0.818  14.364  -4.266  1.00  0.00     0.029 A 
ATOM     57  C   UNL     1       0.877  13.329  -5.186  1.00  0.00     0.049 A 
ATOM     58  H   UNL     1       1.468  11.326  -4.893  1.00  0.00     0.167 HD
ATOM     59  C   UNL     1       0.572  12.281  -7.414  1.00  0.00     0.074 A 
ATOM     60  C   UNL     1       0.166  12.314  -8.804  1.00  0.00     0.031 C 
ATOM     61  C   UNL     1       0.536  13.354  -6.585  1.00  0.00     0.034 A 
BRANCH  48  62
ATOM     62  C   UNL     1       2.231  12.123  -0.766  1.00  0.00     0.023 A 
ATOM     63  C   UNL     1       3.526  12.308  -0.237  1.00  0.00     0.012 A 
ATOM     64  C   UNL     1       1.111  12.445   0.024  1.00  0.00     0.148 A 
ATOM     65  C   UNL     1       3.703  12.764   1.068  1.00  0.00     0.002 A 
ATOM     66  C   UNL     1       1.297  12.948   1.307  1.00  0.00     0.091 A 
ATOM     67  F   UNL     1      -0.112  12.242  -0.486  1.00  0.00    -0.205 F 
ATOM     68  C   UNL     1       2.590  13.094   1.835  1.00  0.00     0.022 A 
BRANCH  66  69
ATOM     69  S   UNL     1      -0.068  13.483   2.345  1.00  0.00     0.127 S 
ATOM     70  O   UNL     1      -0.064  12.459   3.389  1.00  0.00    -0.237 OA
ATOM     71  O   UNL     1       0.382  14.804   2.785  1.00  0.00    -0.237 OA
ATOM     72  O   UNL     1      -1.245  13.496   1.488  1.00  0.00    -0.744 OA
ENDBRANCH  66  69
ENDBRANCH  48  62
BRANCH  49  73
ATOM     73  C   UNL     1       0.891   8.304  -9.924  1.00  0.00     0.023 A 
ATOM     74  C   UNL     1       1.647   8.769 -11.018  1.00  0.00     0.012 A 
ATOM     75  C   UNL     1      -0.061   7.288 -10.130  1.00  0.00     0.148 A 
ATOM     76  C   UNL     1       1.432   8.262 -12.299  1.00  0.00     0.002 A 
ATOM     77  C   UNL     1      -0.231   6.747 -11.399  1.00  0.00     0.091 A 
ATOM     78  F   UNL     1      -0.773   6.862  -9.077  1.00  0.00    -0.205 F 
ATOM     79  C   UNL     1       0.500   7.245 -12.489  1.00  0.00     0.022 A 
BRANCH  77  80
ATOM     80  S   UNL     1      -1.313   5.348 -11.713  1.00  0.00     0.127 S 
ATOM     81  O   UNL     1      -2.386   5.966 -12.487  1.00  0.00    -0.237 OA
ATOM     82  O   UNL     1      -0.438   4.456 -12.475  1.00  0.00    -0.237 OA
ATOM     83  O   UNL     1      -1.690   4.840 -10.401  1.00  0.00    -0.744 OA
ENDBRANCH  77  80
ENDBRANCH  49  73
BRANCH  61  84
ATOM     84  C   UNL     1       0.100  14.672  -7.166  1.00  0.00     0.023 A 
ATOM     85  C   UNL     1      -1.251  14.886  -7.500  1.00  0.00     0.012 A 
ATOM     86  C   UNL     1       1.025  15.726  -7.304  1.00  0.00     0.148 A 
ATOM     87  C   UNL     1      -1.668  16.120  -7.999  1.00  0.00     0.002 A 
ATOM     88  C   UNL     1       0.591  16.968  -7.750  1.00  0.00     0.091 A 
ATOM     89  F   UNL     1       2.310  15.496  -6.997  1.00  0.00    -0.205 F 
ATOM     90  C   UNL     1      -0.752  17.163  -8.111  1.00  0.00     0.022 A 
BRANCH  88  91
ATOM     91  S   UNL     1       1.680  18.395  -7.826  1.00  0.00     0.127 S 
ATOM     92  O   UNL     1       1.874  18.544  -9.267  1.00  0.00    -0.237 OA
ATOM     93  O   UNL     1       0.864  19.441  -7.208  1.00  0.00    -0.237 OA
ATOM     94  O   UNL     1       2.870  18.032  -7.069  1.00  0.00    -0.744 OA
ENDBRANCH  88  91
ENDBRANCH  61  84
ENDBRANCH  35  36
ENDBRANCH  27  30
ENDBRANCH  25  26
ENDBRANCH   1  25
TORSDOF 19
