REMARK SMILES COc1ccc2c(c1OC)C(=O)O[C@@H]2Nc1nonc1C(=O)NCCCNC(=O)c1ccc(-c2c3nc(c(-c4cccc(S(=O)(=O)[O-])c4F)c4ccc([nH]4)c(-c4cccc(S(=O)(=O)[O-])c4F)c4nc(c(-c5cccc(S(=O)(=O)[O-])c5F)c5ccc2[nH]5)C=C4)C=C3)cc1
REMARK SMILES IDX 25 1 24 2 23 3 21 4 22 5 20 7 16 8 17 9 18 10 19 11 15 12
REMARK SMILES IDX 14 14 3 15 4 16 8 17 5 18 7 19 6 20 11 21 12 22 13 23 2 24
REMARK SMILES IDX 1 25 9 26 10 27 26 28 27 29 28 30 29 32 30 33 31 34 92 35
REMARK SMILES IDX 32 36 91 37 33 38 34 39 35 40 85 41 36 42 90 43 84 44 86 45
REMARK SMILES IDX 37 46 89 47 83 48 82 49 38 51 70 52 50 53 69 54 51 55 54 56
REMARK SMILES IDX 68 57 87 58 52 59 53 60 67 62 88 63 55 64 39 65 40 66 48 67
REMARK SMILES IDX 41 68 43 69 49 70 42 71 44 72 45 73 46 74 47 75 71 76 72 77
REMARK SMILES IDX 80 78 73 79 75 80 81 81 74 82 76 83 77 84 78 85 79 86 56 87
REMARK SMILES IDX 57 88 65 89 58 90 60 91 66 92 59 93 61 94 62 95 63 96 64 97
REMARK H PARENT 23 6 15 13 27 31 86 50 54 61
REMARK Flexibility Score: inf
ROOT
ATOM      1  C   UNL     1      -0.175  -3.253   4.096  1.00  0.00     0.042 C 
ENDROOT
BRANCH   1   2
ATOM      2  C   UNL     1      -0.646  -3.751   5.473  1.00  0.00     0.118 C 
BRANCH   2   3
ATOM      3  N   UNL     1      -1.075  -2.712   6.393  1.00  0.00    -0.350 N 
ATOM      4  C   UNL     1      -0.686  -2.498   7.696  1.00  0.00     0.277 C 
ATOM      5  O   UNL     1      -1.228  -1.599   8.337  1.00  0.00    -0.267 OA
ATOM      6  H   UNL     1      -1.734  -2.074   6.036  1.00  0.00     0.163 HD
BRANCH   4   7
ATOM      7  C   UNL     1       0.305  -3.375   8.275  1.00  0.00     0.216 A 
ATOM      8  C   UNL     1       1.601  -3.738   7.833  1.00  0.00     0.207 A 
ATOM      9  N   UNL     1       2.010  -4.778   8.567  1.00  0.00    -0.031 NA
ATOM     10  O   UNL     1       1.014  -5.015   9.496  1.00  0.00    -0.242 OA
ATOM     11  N   UNL     1      -0.026  -4.119   9.343  1.00  0.00    -0.042 NA
BRANCH   8  12
ATOM     12  N   UNL     1       2.262  -3.403   6.697  1.00  0.00    -0.326 N 
ATOM     13  H   UNL     1       2.374  -4.161   6.079  1.00  0.00     0.166 HD
BRANCH  12  14
ATOM     14  C   UNL     1       2.842  -2.169   6.195  1.00  0.00     0.307 C 
ATOM     15  C   UNL     1       0.118  -0.543   2.272  1.00  0.00     0.161 A 
ATOM     16  C   UNL     1       0.194   0.551   3.728  1.00  0.00     0.051 A 
ATOM     17  C   UNL     1       1.183  -2.136   2.302  1.00  0.00     0.175 A 
ATOM     18  C   UNL     1       1.187   0.107   5.139  1.00  0.00     0.014 A 
ATOM     19  C   UNL     1       2.183  -2.433   3.789  1.00  0.00     0.114 A 
ATOM     20  C   UNL     1       2.083  -1.401   5.159  1.00  0.00     0.032 A 
ATOM     21  C   UNL     1       3.371  -3.228   4.128  1.00  0.00     0.344 C 
ATOM     22  O   UNL     1       3.910  -4.113   3.501  1.00  0.00    -0.246 OA
ATOM     23  O   UNL     1       3.869  -2.714   5.319  1.00  0.00    -0.434 OA
BRANCH  15  24
ATOM     24  O   UNL     1      -0.710   0.039   1.328  1.00  0.00    -0.493 OA
ATOM     25  C   UNL     1      -0.343   1.392   0.952  1.00  0.00     0.278 C 
ENDBRANCH  15  24
BRANCH  17  26
ATOM     26  O   UNL     1       1.675  -2.922   1.254  1.00  0.00    -0.492 OA
ATOM     27  C   UNL     1       3.132  -2.893   1.085  1.00  0.00     0.278 C 
ENDBRANCH  17  26
ENDBRANCH  12  14
ENDBRANCH   8  12
ENDBRANCH   4   7
ENDBRANCH   2   3
ENDBRANCH   1   2
BRANCH   1  28
ATOM     28  C   UNL     1       0.223  -1.574   4.025  1.00  0.00     0.118 C 
BRANCH  28  29
ATOM     29  N   UNL     1       1.827  -0.545   3.137  1.00  0.00    -0.352 N 
ATOM     30  C   UNL     1       2.320  -0.176   1.536  1.00  0.00     0.251 C 
ATOM     31  H   UNL     1       2.452  -0.184   3.807  1.00  0.00     0.163 HD
ATOM     32  O   UNL     1       3.340   0.527   1.497  1.00  0.00    -0.269 OA
BRANCH  30  33
ATOM     33  C   UNL     1       1.596  -0.671  -0.028  1.00  0.00     0.039 A 
ATOM     34  C   UNL     1       2.207  -0.456  -1.276  1.00  0.00     0.014 A 
ATOM     35  C   UNL     1       0.384  -1.422  -0.227  1.00  0.00     0.014 A 
ATOM     36  C   UNL     1       1.606  -0.932  -2.534  1.00  0.00     0.010 A 
ATOM     37  C   UNL     1      -0.266  -1.777  -1.391  1.00  0.00     0.010 A 
ATOM     38  C   UNL     1       0.344  -1.568  -2.592  1.00  0.00    -0.014 A 
BRANCH  38  39
ATOM     39  C   UNL     1      -0.480  -2.146  -3.703  1.00  0.00     0.031 A 
ATOM     40  C   UNL     1      -1.671  -1.365  -4.236  1.00  0.00     0.074 A 
ATOM     41  C   UNL     1      -0.519  -3.496  -3.844  1.00  0.00     0.049 A 
ATOM     42  N   UNL     1      -2.562  -1.707  -5.133  1.00  0.00    -0.248 NA
ATOM     43  C   UNL     1      -1.925  -0.045  -3.628  1.00  0.00     0.031 C 
ATOM     44  C   UNL     1       0.308  -4.445  -3.086  1.00  0.00     0.029 A 
ATOM     45  N   UNL     1      -1.355  -4.315  -4.573  1.00  0.00    -0.354 N 
ATOM     46  C   UNL     1      -3.448  -0.636  -5.232  1.00  0.00     0.074 A 
ATOM     47  C   UNL     1      -3.034   0.339  -4.247  1.00  0.00     0.031 C 
ATOM     48  C   UNL     1      -0.064  -5.702  -3.384  1.00  0.00     0.029 A 
ATOM     49  C   UNL     1      -1.133  -5.663  -4.376  1.00  0.00     0.049 A 
ATOM     50  H   UNL     1      -2.048  -3.970  -5.180  1.00  0.00     0.167 HD
ATOM     51  C   UNL     1      -4.486  -0.466  -6.092  1.00  0.00     0.034 A 
ATOM     52  C   UNL     1      -1.698  -6.746  -4.953  1.00  0.00     0.034 A 
ATOM     53  C   UNL     1      -4.919  -1.483  -7.015  1.00  0.00     0.049 A 
ATOM     54  C   UNL     1      -2.739  -6.533  -6.021  1.00  0.00     0.074 A 
ATOM     55  C   UNL     1      -5.826  -1.384  -8.056  1.00  0.00     0.029 A 
ATOM     56  N   UNL     1      -4.505  -2.805  -6.971  1.00  0.00    -0.354 N 
ATOM     57  N   UNL     1      -3.319  -5.417  -6.391  1.00  0.00    -0.248 NA
ATOM     58  C   UNL     1      -3.156  -7.710  -6.800  1.00  0.00     0.031 C 
ATOM     59  C   UNL     1      -5.981  -2.656  -8.621  1.00  0.00     0.029 A 
ATOM     60  C   UNL     1      -5.141  -3.536  -7.959  1.00  0.00     0.049 A 
ATOM     61  H   UNL     1      -3.853  -3.171  -6.330  1.00  0.00     0.167 HD
ATOM     62  C   UNL     1      -4.126  -5.744  -7.474  1.00  0.00     0.074 A 
ATOM     63  C   UNL     1      -3.957  -7.164  -7.707  1.00  0.00     0.031 C 
ATOM     64  C   UNL     1      -4.933  -4.939  -8.209  1.00  0.00     0.034 A 
BRANCH  51  65
ATOM     65  C   UNL     1      -5.145   0.896  -6.168  1.00  0.00     0.023 A 
ATOM     66  C   UNL     1      -4.380   1.986  -6.638  1.00  0.00     0.012 A 
ATOM     67  C   UNL     1      -6.517   1.092  -5.907  1.00  0.00     0.148 A 
ATOM     68  C   UNL     1      -4.951   3.247  -6.810  1.00  0.00     0.002 A 
ATOM     69  C   UNL     1      -7.090   2.345  -6.120  1.00  0.00     0.091 A 
ATOM     70  F   UNL     1      -7.239   0.054  -5.461  1.00  0.00    -0.205 F 
ATOM     71  C   UNL     1      -6.306   3.424  -6.560  1.00  0.00     0.022 A 
BRANCH  69  72
ATOM     72  S   UNL     1      -8.846   2.672  -5.907  1.00  0.00     0.127 S 
ATOM     73  O   UNL     1      -8.841   3.566  -4.749  1.00  0.00    -0.237 OA
ATOM     74  O   UNL     1      -9.194   3.321  -7.172  1.00  0.00    -0.237 OA
ATOM     75  O   UNL     1      -9.476   1.378  -5.691  1.00  0.00    -0.744 OA
ENDBRANCH  69  72
ENDBRANCH  51  65
BRANCH  52  76
ATOM     76  C   UNL     1      -1.160  -8.111  -4.670  1.00  0.00     0.023 A 
ATOM     77  C   UNL     1      -0.342  -8.732  -5.638  1.00  0.00     0.012 A 
ATOM     78  C   UNL     1      -1.399  -8.777  -3.454  1.00  0.00     0.148 A 
ATOM     79  C   UNL     1       0.200  -9.999  -5.416  1.00  0.00     0.002 A 
ATOM     80  C   UNL     1      -0.815 -10.020  -3.217  1.00  0.00     0.091 A 
ATOM     81  F   UNL     1      -2.183  -8.178  -2.546  1.00  0.00    -0.205 F 
ATOM     82  C   UNL     1      -0.028 -10.638  -4.202  1.00  0.00     0.022 A 
BRANCH  80  83
ATOM     83  S   UNL     1      -0.947 -10.869  -1.638  1.00  0.00     0.127 S 
ATOM     84  O   UNL     1      -1.798 -12.006  -1.979  1.00  0.00    -0.237 OA
ATOM     85  O   UNL     1       0.450 -11.207  -1.360  1.00  0.00    -0.237 OA
ATOM     86  O   UNL     1      -1.525  -9.899  -0.718  1.00  0.00    -0.744 OA
ENDBRANCH  80  83
ENDBRANCH  52  76
BRANCH  64  87
ATOM     87  C   UNL     1      -5.668  -5.551  -9.372  1.00  0.00     0.023 A 
ATOM     88  C   UNL     1      -6.757  -6.415  -9.148  1.00  0.00     0.012 A 
ATOM     89  C   UNL     1      -5.330  -5.188 -10.691  1.00  0.00     0.148 A 
ATOM     90  C   UNL     1      -7.482  -6.931 -10.221  1.00  0.00     0.002 A 
ATOM     91  C   UNL     1      -6.089  -5.664 -11.752  1.00  0.00     0.091 A 
ATOM     92  F   UNL     1      -4.278  -4.378 -10.881  1.00  0.00    -0.205 F 
ATOM     93  C   UNL     1      -7.157  -6.545 -11.520  1.00  0.00     0.022 A 
BRANCH  91  94
ATOM     94  S   UNL     1      -5.810  -5.144 -13.448  1.00  0.00     0.127 S 
ATOM     95  O   UNL     1      -5.329  -6.380 -14.063  1.00  0.00    -0.237 OA
ATOM     96  O   UNL     1      -7.150  -4.734 -13.868  1.00  0.00    -0.237 OA
ATOM     97  O   UNL     1      -4.835  -4.063 -13.386  1.00  0.00    -0.744 OA
ENDBRANCH  91  94
ENDBRANCH  64  87
ENDBRANCH  38  39
ENDBRANCH  30  33
ENDBRANCH  28  29
ENDBRANCH   1  28
TORSDOF 17
