REMARK SMILES O=C(CSc1ccc2ccccc2n1)NCc1ccc(C(=O)NCCCNC(=O)c2ccc(-c3c4nc(c(-c5cccc(S(=O)(=O)[O-])c5F)c5ccc([nH]5)c(-c5cccc(S(=O)(=O)[O-])c5F)c5nc(c(-c6cccc(S(=O)(=O)[O-])c6F)c6ccc3[nH]6)C=C5)C=C4)cc2)cc1
REMARK SMILES IDX 24 1 23 2 21 3 22 4 20 6 17 7 18 8 94 9 19 10 93 11 16 12
REMARK SMILES IDX 15 13 1 14 2 15 3 17 4 18 5 19 6 20 14 21 7 22 13 23 8 24
REMARK SMILES IDX 12 25 9 26 11 27 10 28 25 29 26 30 27 31 28 32 29 34 30 35
REMARK SMILES IDX 31 36 92 37 32 38 91 39 33 40 34 41 35 42 85 43 36 44 90 45
REMARK SMILES IDX 84 46 86 47 37 48 89 49 83 50 82 51 38 53 70 54 50 55 69 56
REMARK SMILES IDX 51 57 54 58 68 59 87 60 52 61 53 62 67 64 88 65 55 66 39 67
REMARK SMILES IDX 40 68 48 69 41 70 43 71 49 72 42 73 44 74 45 75 46 76 47 77
REMARK SMILES IDX 71 78 72 79 80 80 73 81 75 82 81 83 74 84 76 85 77 86 78 87
REMARK SMILES IDX 79 88 56 89 57 90 65 91 58 92 60 93 66 94 59 95 61 96 62 97
REMARK SMILES IDX 63 98 64 99
REMARK H PARENT 23 5 15 16 27 33 86 52 54 63
REMARK Flexibility Score: inf
ROOT
ATOM      1  C   UNL     1       3.720  -2.799   8.086  1.00  0.00     0.118 C 
ENDROOT
BRANCH   1   2
ATOM      2  N   UNL     1       3.310  -3.929   7.274  1.00  0.00    -0.352 N 
ATOM      3  C   UNL     1       2.913  -4.028   5.965  1.00  0.00     0.251 C 
ATOM      4  O   UNL     1       2.734  -5.159   5.511  1.00  0.00    -0.269 OA
ATOM      5  H   UNL     1       3.318  -4.789   7.753  1.00  0.00     0.163 HD
BRANCH   3   6
ATOM      6  C   UNL     1       2.743  -2.851   5.066  1.00  0.00     0.039 A 
ATOM      7  C   UNL     1       2.441  -0.730   3.208  1.00  0.00    -0.029 A 
ATOM      8  C   UNL     1       2.745  -2.024   2.770  1.00  0.00     0.006 A 
ATOM      9  C   UNL     1       2.240  -0.526   4.580  1.00  0.00     0.006 A 
ATOM     10  C   UNL     1       2.905  -3.068   3.689  1.00  0.00     0.014 A 
ATOM     11  C   UNL     1       2.367  -1.578   5.495  1.00  0.00     0.014 A 
BRANCH   7  12
ATOM     12  C   UNL     1       2.207   0.425   2.265  1.00  0.00     0.151 C 
BRANCH  12  13
ATOM     13  N   UNL     1       2.883   0.302   0.995  1.00  0.00    -0.351 N 
ATOM     14  O   UNL     1       0.993  -0.156  -0.217  1.00  0.00    -0.274 OA
ATOM     15  C   UNL     1       2.195   0.104  -0.183  1.00  0.00     0.230 C 
ATOM     16  H   UNL     1       3.866   0.361   0.969  1.00  0.00     0.163 HD
BRANCH  15  17
ATOM     17  C   UNL     1       3.047   0.090  -1.442  1.00  0.00     0.176 C 
BRANCH  17  18
ATOM     18  S   UNL     1       4.296   1.425  -1.482  1.00  0.00    -0.096 SA
BRANCH  18  19
ATOM     19  C   UNL     1       3.248   2.868  -1.575  1.00  0.00     0.097 A 
ATOM     20  C   UNL     1       3.833   4.125  -1.552  1.00  0.00     0.036 A 
ATOM     21  N   UNL     1       1.915   2.687  -1.652  1.00  0.00    -0.241 NA
ATOM     22  C   UNL     1       3.007   5.245  -1.596  1.00  0.00     0.013 A 
ATOM     23  C   UNL     1       1.113   3.765  -1.677  1.00  0.00     0.072 A 
ATOM     24  C   UNL     1       1.619   5.081  -1.654  1.00  0.00     0.000 A 
ATOM     25  C   UNL     1      -0.264   3.594  -1.719  1.00  0.00     0.029 A 
ATOM     26  C   UNL     1       0.742   6.180  -1.680  1.00  0.00     0.010 A 
ATOM     27  C   UNL     1      -1.140   4.683  -1.741  1.00  0.00     0.002 A 
ATOM     28  C   UNL     1      -0.636   5.979  -1.723  1.00  0.00     0.001 A 
ENDBRANCH  18  19
ENDBRANCH  17  18
ENDBRANCH  15  17
ENDBRANCH  12  13
ENDBRANCH   7  12
ENDBRANCH   3   6
ENDBRANCH   1   2
BRANCH   1  29
ATOM     29  C   UNL     1       2.613  -2.367   9.047  1.00  0.00     0.042 C 
BRANCH  29  30
ATOM     30  C   UNL     1       2.419  -3.319  10.224  1.00  0.00     0.118 C 
BRANCH  30  31
ATOM     31  N   UNL     1       3.554  -3.294  11.138  1.00  0.00    -0.352 N 
ATOM     32  C   UNL     1       3.600  -3.005  12.479  1.00  0.00     0.251 C 
ATOM     33  H   UNL     1       4.421  -3.519  10.731  1.00  0.00     0.163 HD
ATOM     34  O   UNL     1       4.689  -2.819  13.015  1.00  0.00    -0.269 OA
BRANCH  32  35
ATOM     35  C   UNL     1       2.357  -2.915  13.278  1.00  0.00     0.039 A 
ATOM     36  C   UNL     1       2.255  -1.920  14.256  1.00  0.00     0.014 A 
ATOM     37  C   UNL     1       1.318  -3.833  13.106  1.00  0.00     0.014 A 
ATOM     38  C   UNL     1       1.094  -1.818  15.027  1.00  0.00     0.010 A 
ATOM     39  C   UNL     1       0.134  -3.686  13.825  1.00  0.00     0.010 A 
ATOM     40  C   UNL     1       0.014  -2.686  14.801  1.00  0.00    -0.014 A 
BRANCH  40  41
ATOM     41  C   UNL     1      -1.250  -2.564  15.571  1.00  0.00     0.031 A 
ATOM     42  C   UNL     1      -1.700  -3.679  16.476  1.00  0.00     0.074 A 
ATOM     43  C   UNL     1      -2.037  -1.486  15.385  1.00  0.00     0.049 A 
ATOM     44  N   UNL     1      -2.793  -3.773  17.188  1.00  0.00    -0.248 NA
ATOM     45  C   UNL     1      -0.819  -4.854  16.573  1.00  0.00     0.031 C 
ATOM     46  C   UNL     1      -1.745  -0.372  14.480  1.00  0.00     0.029 A 
ATOM     47  N   UNL     1      -3.255  -1.161  15.927  1.00  0.00    -0.354 N 
ATOM     48  C   UNL     1      -2.754  -5.030  17.781  1.00  0.00     0.074 A 
ATOM     49  C   UNL     1      -1.543  -5.674  17.322  1.00  0.00     0.031 C 
ATOM     50  C   UNL     1      -2.747   0.518  14.540  1.00  0.00     0.029 A 
ATOM     51  C   UNL     1      -3.767   0.028  15.462  1.00  0.00     0.049 A 
ATOM     52  H   UNL     1      -3.719  -1.726  16.587  1.00  0.00     0.167 HD
ATOM     53  C   UNL     1      -3.632  -5.588  18.650  1.00  0.00     0.034 A 
ATOM     54  C   UNL     1      -4.926   0.652  15.747  1.00  0.00     0.034 A 
ATOM     55  C   UNL     1      -4.809  -4.922  19.140  1.00  0.00     0.049 A 
ATOM     56  C   UNL     1      -5.867   0.027  16.741  1.00  0.00     0.074 A 
ATOM     57  C   UNL     1      -5.706  -5.355  20.101  1.00  0.00     0.029 A 
ATOM     58  N   UNL     1      -5.260  -3.687  18.699  1.00  0.00    -0.354 N 
ATOM     59  N   UNL     1      -5.729  -1.085  17.422  1.00  0.00    -0.248 NA
ATOM     60  C   UNL     1      -7.107   0.760  17.032  1.00  0.00     0.031 C 
ATOM     61  C   UNL     1      -6.713  -4.391  20.223  1.00  0.00     0.029 A 
ATOM     62  C   UNL     1      -6.430  -3.347  19.356  1.00  0.00     0.049 A 
ATOM     63  H   UNL     1      -4.813  -3.133  18.019  1.00  0.00     0.167 HD
ATOM     64  C   UNL     1      -6.843  -1.166  18.250  1.00  0.00     0.074 A 
ATOM     65  C   UNL     1      -7.637   0.019  17.996  1.00  0.00     0.031 C 
ATOM     66  C   UNL     1      -7.183  -2.139  19.131  1.00  0.00     0.034 A 
BRANCH  53  67
ATOM     67  C   UNL     1      -3.323  -6.972  19.161  1.00  0.00     0.023 A 
ATOM     68  C   UNL     1      -2.246  -7.162  20.053  1.00  0.00     0.012 A 
ATOM     69  C   UNL     1      -4.114  -8.077  18.792  1.00  0.00     0.148 A 
ATOM     70  C   UNL     1      -1.934  -8.433  20.532  1.00  0.00     0.002 A 
ATOM     71  C   UNL     1      -3.824  -9.335  19.310  1.00  0.00     0.091 A 
ATOM     72  F   UNL     1      -5.119  -7.886  17.926  1.00  0.00    -0.205 F 
ATOM     73  C   UNL     1      -2.727  -9.517  20.168  1.00  0.00     0.022 A 
BRANCH  71  74
ATOM     74  S   UNL     1      -4.838 -10.777  18.962  1.00  0.00     0.127 S 
ATOM     75  O   UNL     1      -4.011 -11.494  17.994  1.00  0.00    -0.237 OA
ATOM     76  O   UNL     1      -4.931 -11.416  20.276  1.00  0.00    -0.237 OA
ATOM     77  O   UNL     1      -6.101 -10.260  18.454  1.00  0.00    -0.744 OA
ENDBRANCH  71  74
ENDBRANCH  53  67
BRANCH  54  78
ATOM     78  C   UNL     1      -5.215   1.988  15.153  1.00  0.00     0.023 A 
ATOM     79  C   UNL     1      -5.176   3.125  15.983  1.00  0.00     0.012 A 
ATOM     80  C   UNL     1      -5.484   2.148  13.780  1.00  0.00     0.148 A 
ATOM     81  C   UNL     1      -5.426   4.395  15.463  1.00  0.00     0.002 A 
ATOM     82  C   UNL     1      -5.680   3.422  13.258  1.00  0.00     0.091 A 
ATOM     83  F   UNL     1      -5.525   1.052  13.009  1.00  0.00    -0.205 F 
ATOM     84  C   UNL     1      -5.668   4.545  14.101  1.00  0.00     0.022 A 
BRANCH  82  85
ATOM     85  S   UNL     1      -5.871   3.728  11.498  1.00  0.00     0.127 S 
ATOM     86  O   UNL     1      -7.266   4.150  11.417  1.00  0.00    -0.237 OA
ATOM     87  O   UNL     1      -4.890   4.790  11.270  1.00  0.00    -0.237 OA
ATOM     88  O   UNL     1      -5.552   2.466  10.843  1.00  0.00    -0.744 OA
ENDBRANCH  82  85
ENDBRANCH  54  78
BRANCH  66  89
ATOM     89  C   UNL     1      -8.455  -1.953  19.918  1.00  0.00     0.023 A 
ATOM     90  C   UNL     1      -9.702  -2.105  19.280  1.00  0.00     0.012 A 
ATOM     91  C   UNL     1      -8.412  -1.702  21.304  1.00  0.00     0.148 A 
ATOM     92  C   UNL     1     -10.887  -1.978  20.003  1.00  0.00     0.002 A 
ATOM     93  C   UNL     1      -9.597  -1.626  22.027  1.00  0.00     0.091 A 
ATOM     94  F   UNL     1      -7.216  -1.540  21.889  1.00  0.00    -0.205 F 
ATOM     95  C   UNL     1     -10.835  -1.752  21.377  1.00  0.00     0.022 A 
BRANCH  93  96
ATOM     96  S   UNL     1      -9.621  -1.433  23.813  1.00  0.00     0.127 S 
ATOM     97  O   UNL     1     -10.048  -0.043  23.958  1.00  0.00    -0.237 OA
ATOM     98  O   UNL     1     -10.619  -2.424  24.219  1.00  0.00    -0.237 OA
ATOM     99  O   UNL     1      -8.267  -1.723  24.265  1.00  0.00    -0.744 OA
ENDBRANCH  93  96
ENDBRANCH  66  89
ENDBRANCH  40  41
ENDBRANCH  32  35
ENDBRANCH  30  31
ENDBRANCH  29  30
ENDBRANCH   1  29
TORSDOF 18
