REMARK SMILES CCN(C(=O)N[C@@H]1CCOC1)[C@H]1COC[C@H]1C(=O)NCCCNC(=O)c1ccc(-c2c3nc(c(-c4cccc(S(=O)(=O)[O-])c4F)c4ccc([nH]4)c(-c4cccc(S(=O)(=O)[O-])c4F)c4nc(c(-c5cccc(S(=O)(=O)[O-])c5F)c5ccc2[nH]5)C=C4)C=C3)cc1
REMARK SMILES IDX 21 1 20 2 19 3 17 4 18 5 16 7 12 8 13 9 14 10 15 11 3 12
REMARK SMILES IDX 2 13 1 14 4 15 5 16 6 17 7 19 8 20 11 21 9 22 10 23 22 24
REMARK SMILES IDX 23 25 24 26 25 28 26 29 27 30 88 31 28 32 87 33 29 34 30 35
REMARK SMILES IDX 31 36 81 37 32 38 86 39 80 40 82 41 33 42 85 43 79 44 78 45
REMARK SMILES IDX 34 47 66 48 46 49 65 50 47 51 50 52 64 53 83 54 48 55 49 56
REMARK SMILES IDX 63 58 84 59 51 60 35 61 36 62 44 63 37 64 39 65 45 66 38 67
REMARK SMILES IDX 40 68 41 69 42 70 43 71 67 72 68 73 76 74 69 75 71 76 77 77
REMARK SMILES IDX 70 78 72 79 73 80 74 81 75 82 52 83 53 84 61 85 54 86 56 87
REMARK SMILES IDX 62 88 55 89 57 90 58 91 59 92 60 93
REMARK H PARENT 19 6 6 18 23 27 82 46 50 57
REMARK Flexibility Score: inf
ROOT
ATOM      1  C   UNL     1       5.222   3.930  -0.675  1.00  0.00     0.042 C 
ENDROOT
BRANCH   1   2
ATOM      2  C   UNL     1       5.075   4.456   0.746  1.00  0.00     0.117 C 
BRANCH   2   3
ATOM      3  N   UNL     1       3.757   4.982   1.050  1.00  0.00    -0.356 N 
ATOM      4  C   UNL     1       2.703   4.506   1.755  1.00  0.00     0.227 C 
ATOM      5  O   UNL     1       1.709   5.244   1.787  1.00  0.00    -0.275 OA
ATOM      6  H   UNL     1       3.596   5.873   0.664  1.00  0.00     0.163 HD
BRANCH   4   7
ATOM      7  C   UNL     1       2.663   3.195   2.511  1.00  0.00     0.129 C 
ATOM      8  C   UNL     1       2.419   1.816   1.855  1.00  0.00     0.127 C 
ATOM      9  C   UNL     1       3.154   0.927   2.899  1.00  0.00     0.186 C 
ATOM     10  O   UNL     1       4.266   1.685   3.393  1.00  0.00    -0.378 OA
ATOM     11  C   UNL     1       3.813   3.029   3.496  1.00  0.00     0.176 C 
BRANCH   8  12
ATOM     12  N   UNL     1       2.725   1.608   0.400  1.00  0.00    -0.319 N 
BRANCH  12  13
ATOM     13  C   UNL     1       2.022   2.470  -0.568  1.00  0.00     0.118 C 
ATOM     14  C   UNL     1       0.533   2.689  -0.303  1.00  0.00     0.027 C 
ENDBRANCH  12  13
BRANCH  12  15
ATOM     15  C   UNL     1       3.077   0.325   0.019  1.00  0.00     0.318 C 
ATOM     16  O   UNL     1       2.805  -0.660   0.709  1.00  0.00    -0.249 OA
ATOM     17  N   UNL     1       3.940   0.083  -0.991  1.00  0.00    -0.333 N 
ATOM     18  H   UNL     1       4.706  -0.460  -0.693  1.00  0.00     0.165 HD
BRANCH  17  19
ATOM     19  C   UNL     1       4.034   0.420  -2.419  1.00  0.00     0.112 C 
ATOM     20  C   UNL     1       4.453  -0.826  -3.194  1.00  0.00     0.056 C 
ATOM     21  C   UNL     1       5.210   1.292  -2.821  1.00  0.00     0.185 C 
ATOM     22  C   UNL     1       5.968  -0.858  -3.041  1.00  0.00     0.162 C 
ATOM     23  O   UNL     1       6.395   0.490  -2.830  1.00  0.00    -0.379 OA
ENDBRANCH  17  19
ENDBRANCH  12  15
ENDBRANCH   8  12
ENDBRANCH   4   7
ENDBRANCH   2   3
ENDBRANCH   1   2
BRANCH   1  24
ATOM     24  C   UNL     1       4.761   4.806  -1.855  1.00  0.00     0.118 C 
BRANCH  24  25
ATOM     25  N   UNL     1       5.884   5.257  -2.671  1.00  0.00    -0.352 N 
ATOM     26  C   UNL     1       6.392   4.875  -3.893  1.00  0.00     0.251 C 
ATOM     27  H   UNL     1       6.388   5.994  -2.258  1.00  0.00     0.163 HD
ATOM     28  O   UNL     1       7.506   5.311  -4.194  1.00  0.00    -0.269 OA
BRANCH  26  29
ATOM     29  C   UNL     1       5.699   3.983  -4.869  1.00  0.00     0.039 A 
ATOM     30  C   UNL     1       6.487   3.098  -5.632  1.00  0.00     0.014 A 
ATOM     31  C   UNL     1       4.333   4.053  -5.147  1.00  0.00     0.014 A 
ATOM     32  C   UNL     1       5.922   2.277  -6.630  1.00  0.00     0.010 A 
ATOM     33  C   UNL     1       3.765   3.215  -6.131  1.00  0.00     0.010 A 
ATOM     34  C   UNL     1       4.549   2.324  -6.897  1.00  0.00    -0.014 A 
BRANCH  34  35
ATOM     35  C   UNL     1       3.918   1.553  -8.021  1.00  0.00     0.031 A 
ATOM     36  C   UNL     1       3.370   2.301  -9.211  1.00  0.00     0.074 A 
ATOM     37  C   UNL     1       3.752   0.213  -7.988  1.00  0.00     0.049 A 
ATOM     38  N   UNL     1       2.631   1.865 -10.199  1.00  0.00    -0.248 NA
ATOM     39  C   UNL     1       3.709   3.729  -9.296  1.00  0.00     0.031 C 
ATOM     40  C   UNL     1       4.281  -0.679  -6.966  1.00  0.00     0.029 A 
ATOM     41  N   UNL     1       3.036  -0.629  -8.816  1.00  0.00    -0.354 N 
ATOM     42  C   UNL     1       2.395   2.966 -11.012  1.00  0.00     0.074 A 
ATOM     43  C   UNL     1       3.045   4.097 -10.383  1.00  0.00     0.031 C 
ATOM     44  C   UNL     1       3.786  -1.916  -7.153  1.00  0.00     0.029 A 
ATOM     45  C   UNL     1       2.915  -1.913  -8.327  1.00  0.00     0.049 A 
ATOM     46  H   UNL     1       2.649  -0.340  -9.674  1.00  0.00     0.167 HD
ATOM     47  C   UNL     1       1.727   3.035 -12.189  1.00  0.00     0.034 A 
ATOM     48  C   UNL     1       2.179  -2.963  -8.754  1.00  0.00     0.034 A 
ATOM     49  C   UNL     1       1.098   1.920 -12.844  1.00  0.00     0.049 A 
ATOM     50  C   UNL     1       1.377  -2.850 -10.027  1.00  0.00     0.074 A 
ATOM     51  C   UNL     1       0.435   1.902 -14.060  1.00  0.00     0.029 A 
ATOM     52  N   UNL     1       1.042   0.630 -12.344  1.00  0.00    -0.354 N 
ATOM     53  N   UNL     1       1.251  -1.825 -10.833  1.00  0.00    -0.248 NA
ATOM     54  C   UNL     1       0.658  -4.054 -10.482  1.00  0.00     0.031 C 
ATOM     55  C   UNL     1      -0.050   0.610 -14.279  1.00  0.00     0.029 A 
ATOM     56  C   UNL     1       0.346  -0.187 -13.219  1.00  0.00     0.049 A 
ATOM     57  H   UNL     1       1.438   0.338 -11.491  1.00  0.00     0.167 HD
ATOM     58  C   UNL     1       0.496  -2.276 -11.912  1.00  0.00     0.074 A 
ATOM     59  C   UNL     1       0.190  -3.667 -11.661  1.00  0.00     0.031 C 
ATOM     60  C   UNL     1       0.096  -1.590 -13.011  1.00  0.00     0.034 A 
BRANCH  47  61
ATOM     61  C   UNL     1       1.665   4.376 -12.871  1.00  0.00     0.023 A 
ATOM     62  C   UNL     1       2.825   4.906 -13.472  1.00  0.00     0.012 A 
ATOM     63  C   UNL     1       0.451   5.083 -12.965  1.00  0.00     0.148 A 
ATOM     64  C   UNL     1       2.788   6.139 -14.120  1.00  0.00     0.002 A 
ATOM     65  C   UNL     1       0.411   6.289 -13.654  1.00  0.00     0.091 A 
ATOM     66  F   UNL     1      -0.636   4.568 -12.373  1.00  0.00    -0.205 F 
ATOM     67  C   UNL     1       1.580   6.825 -14.219  1.00  0.00     0.022 A 
BRANCH  65  68
ATOM     68  S   UNL     1      -1.109   7.209 -13.908  1.00  0.00     0.127 S 
ATOM     69  O   UNL     1      -0.892   8.377 -13.057  1.00  0.00    -0.237 OA
ATOM     70  O   UNL     1      -1.068   7.481 -15.343  1.00  0.00    -0.237 OA
ATOM     71  O   UNL     1      -2.190   6.324 -13.487  1.00  0.00    -0.744 OA
ENDBRANCH  65  68
ENDBRANCH  47  61
BRANCH  48  72
ATOM     72  C   UNL     1       2.178  -4.246  -7.989  1.00  0.00     0.023 A 
ATOM     73  C   UNL     1       2.788  -5.391  -8.538  1.00  0.00     0.012 A 
ATOM     74  C   UNL     1       1.548  -4.343  -6.732  1.00  0.00     0.148 A 
ATOM     75  C   UNL     1       2.735  -6.617  -7.872  1.00  0.00     0.002 A 
ATOM     76  C   UNL     1       1.543  -5.555  -6.050  1.00  0.00     0.091 A 
ATOM     77  F   UNL     1       0.960  -3.247  -6.232  1.00  0.00    -0.205 F 
ATOM     78  C   UNL     1       2.119  -6.698  -6.626  1.00  0.00     0.022 A 
BRANCH  76  79
ATOM     79  S   UNL     1       0.875  -5.728  -4.392  1.00  0.00     0.127 S 
ATOM     80  O   UNL     1      -0.291  -6.576  -4.626  1.00  0.00    -0.237 OA
ATOM     81  O   UNL     1       1.982  -6.380  -3.692  1.00  0.00    -0.237 OA
ATOM     82  O   UNL     1       0.592  -4.373  -3.941  1.00  0.00    -0.744 OA
ENDBRANCH  76  79
ENDBRANCH  48  72
BRANCH  60  83
ATOM     83  C   UNL     1      -0.665  -2.328 -14.084  1.00  0.00     0.023 A 
ATOM     84  C   UNL     1      -2.005  -2.705 -13.874  1.00  0.00     0.012 A 
ATOM     85  C   UNL     1      -0.076  -2.548 -15.348  1.00  0.00     0.148 A 
ATOM     86  C   UNL     1      -2.742  -3.306 -14.896  1.00  0.00     0.002 A 
ATOM     87  C   UNL     1      -0.831  -3.100 -16.376  1.00  0.00     0.091 A 
ATOM     88  F   UNL     1       1.206  -2.198 -15.523  1.00  0.00    -0.205 F 
ATOM     89  C   UNL     1      -2.160  -3.490 -16.149  1.00  0.00     0.022 A 
BRANCH  87  90
ATOM     90  S   UNL     1      -0.201  -3.285 -18.049  1.00  0.00     0.127 S 
ATOM     91  O   UNL     1      -0.128  -4.739 -18.182  1.00  0.00    -0.237 OA
ATOM     92  O   UNL     1      -1.253  -2.652 -18.845  1.00  0.00    -0.237 OA
ATOM     93  O   UNL     1       1.081  -2.594 -18.077  1.00  0.00    -0.744 OA
ENDBRANCH  87  90
ENDBRANCH  60  83
ENDBRANCH  34  35
ENDBRANCH  26  29
ENDBRANCH  24  25
ENDBRANCH   1  24
TORSDOF 17
