REMARK SMILES O=C(NCCCNC(=O)[C@H](CO)NC(=O)[C@H](CS)NC(=O)[C@H](Cc1c[nH]c2ccccc12)NC(=O)c1ccc(F)cc1)c1ccc(-c2c3nc(c(-c4cccc(S(=O)(=O)[O-])c4F)c4ccc([nH]4)c(-c4cccc(S(=O)(=O)[O-])c4F)c4nc(c(-c5cccc(S(=O)(=O)[O-])c5F)c5ccc2[nH]5)C=C4)C=C3)cc1
REMARK SMILES IDX 7 1 8 2 9 3 6 5 5 6 4 7 3 8 1 9 2 10 43 12 44 13 105 14
REMARK SMILES IDX 45 15 104 16 46 17 47 18 48 19 98 20 49 21 103 22 97 23
REMARK SMILES IDX 99 24 50 25 102 26 96 27 95 28 51 30 83 31 63 32 82 33 64 34
REMARK SMILES IDX 67 35 81 36 100 37 65 38 66 39 80 41 101 42 68 43 52 44
REMARK SMILES IDX 53 45 61 46 54 47 56 48 62 49 55 50 57 51 58 52 59 53 60 54
REMARK SMILES IDX 84 55 85 56 93 57 86 58 88 59 94 60 87 61 89 62 90 63 91 64
REMARK SMILES IDX 92 65 69 66 70 67 78 68 71 69 73 70 79 71 72 72 74 73 75 74
REMARK SMILES IDX 76 75 77 76 10 77 13 78 14 79 15 81 16 82 19 83 20 84 21 86
REMARK SMILES IDX 22 87 33 88 34 89 35 91 36 92 37 93 42 94 38 95 41 96 39 97
REMARK SMILES IDX 40 98 23 99 24 100 25 101 32 102 26 103 27 104 31 105 28 107
REMARK SMILES IDX 30 108 29 109 17 110 18 111 11 113 12 114
REMARK H PARENT 7 4 3 11 99 29 67 40 13 80 19 85 33 90 26 106 18 112 12 115
REMARK Flexibility Score: inf
ROOT
ATOM      1  N   UNL     1       8.344  -8.299 -13.042  1.00  0.00    -0.354 N 
ATOM      2  C   UNL     1       7.492  -9.491 -12.869  1.00  0.00     0.244 C 
ATOM      3  O   UNL     1       6.752  -9.734 -13.838  1.00  0.00    -0.273 OA
ATOM      4  H   UNL     1       8.172  -7.971 -13.954  1.00  0.00     0.163 HD
ENDROOT
BRANCH   1   5
ATOM      5  C   UNL     1       9.757  -6.989 -12.211  1.00  0.00     0.117 C 
BRANCH   5   6
ATOM      6  C   UNL     1      11.430  -6.930 -12.174  1.00  0.00     0.042 C 
BRANCH   6   7
ATOM      7  C   UNL     1      11.948  -5.667 -12.835  1.00  0.00     0.118 C 
BRANCH   7   8
ATOM      8  N   UNL     1      11.448  -4.402 -12.295  1.00  0.00    -0.352 N 
ATOM      9  O   UNL     1      11.519  -2.132 -12.083  1.00  0.00    -0.269 OA
ATOM     10  C   UNL     1      11.976  -3.156 -12.569  1.00  0.00     0.251 C 
ATOM     11  H   UNL     1      10.675  -4.443 -11.687  1.00  0.00     0.163 HD
BRANCH  10  12
ATOM     12  C   UNL     1      13.177  -3.154 -13.421  1.00  0.00     0.039 A 
ATOM     13  C   UNL     1      13.090  -3.766 -14.671  1.00  0.00     0.014 A 
ATOM     14  C   UNL     1      14.406  -2.872 -12.827  1.00  0.00     0.014 A 
ATOM     15  C   UNL     1      14.239  -4.298 -15.226  1.00  0.00     0.010 A 
ATOM     16  C   UNL     1      15.572  -3.257 -13.483  1.00  0.00     0.010 A 
ATOM     17  C   UNL     1      15.497  -4.003 -14.670  1.00  0.00    -0.014 A 
BRANCH  17  18
ATOM     18  C   UNL     1      16.716  -4.364 -15.431  1.00  0.00     0.031 A 
ATOM     19  C   UNL     1      17.809  -5.207 -14.842  1.00  0.00     0.074 A 
ATOM     20  C   UNL     1      16.828  -3.863 -16.677  1.00  0.00     0.049 A 
ATOM     21  N   UNL     1      18.960  -5.530 -15.373  1.00  0.00    -0.248 NA
ATOM     22  C   UNL     1      17.605  -5.749 -13.488  1.00  0.00     0.031 C 
ATOM     23  C   UNL     1      15.835  -2.999 -17.327  1.00  0.00     0.029 A 
ATOM     24  N   UNL     1      17.814  -3.991 -17.618  1.00  0.00    -0.354 N 
ATOM     25  C   UNL     1      19.639  -6.263 -14.409  1.00  0.00     0.074 A 
ATOM     26  C   UNL     1      18.769  -6.345 -13.255  1.00  0.00     0.031 C 
ATOM     27  C   UNL     1      16.238  -2.712 -18.567  1.00  0.00     0.029 A 
ATOM     28  C   UNL     1      17.566  -3.271 -18.762  1.00  0.00     0.049 A 
ATOM     29  H   UNL     1      18.619  -4.543 -17.488  1.00  0.00     0.167 HD
ATOM     30  C   UNL     1      20.874  -6.812 -14.489  1.00  0.00     0.034 A 
ATOM     31  C   UNL     1      18.337  -3.029 -19.836  1.00  0.00     0.034 A 
ATOM     32  C   UNL     1      21.713  -6.732 -15.657  1.00  0.00     0.049 A 
ATOM     33  C   UNL     1      19.700  -3.641 -19.887  1.00  0.00     0.074 A 
ATOM     34  C   UNL     1      22.952  -7.313 -15.860  1.00  0.00     0.029 A 
ATOM     35  N   UNL     1      21.415  -6.015 -16.807  1.00  0.00    -0.354 N 
ATOM     36  N   UNL     1      20.283  -4.414 -19.004  1.00  0.00    -0.248 NA
ATOM     37  C   UNL     1      20.503  -3.371 -21.084  1.00  0.00     0.031 C 
ATOM     38  C   UNL     1      23.429  -6.900 -17.106  1.00  0.00     0.029 A 
ATOM     39  C   UNL     1      22.459  -6.118 -17.711  1.00  0.00     0.049 A 
ATOM     40  H   UNL     1      20.585  -5.508 -16.957  1.00  0.00     0.167 HD
ATOM     41  C   UNL     1      21.513  -4.748 -19.550  1.00  0.00     0.074 A 
ATOM     42  C   UNL     1      21.580  -4.109 -20.849  1.00  0.00     0.031 C 
ATOM     43  C   UNL     1      22.498  -5.508 -19.017  1.00  0.00     0.034 A 
BRANCH  30  44
ATOM     44  C   UNL     1      21.412  -7.565 -13.298  1.00  0.00     0.023 A 
ATOM     45  C   UNL     1      20.878  -8.824 -12.960  1.00  0.00     0.012 A 
ATOM     46  C   UNL     1      22.536  -7.081 -12.596  1.00  0.00     0.148 A 
ATOM     47  C   UNL     1      21.443  -9.583 -11.934  1.00  0.00     0.002 A 
ATOM     48  C   UNL     1      23.123  -7.864 -11.610  1.00  0.00     0.091 A 
ATOM     49  F   UNL     1      23.020  -5.875 -12.921  1.00  0.00    -0.205 F 
ATOM     50  C   UNL     1      22.573  -9.111 -11.271  1.00  0.00     0.022 A 
BRANCH  48  51
ATOM     51  S   UNL     1      24.634  -7.389 -10.761  1.00  0.00     0.127 S 
ATOM     52  O   UNL     1      24.160  -7.226  -9.387  1.00  0.00    -0.237 OA
ATOM     53  O   UNL     1      25.486  -8.559 -10.977  1.00  0.00    -0.237 OA
ATOM     54  O   UNL     1      25.094  -6.168 -11.406  1.00  0.00    -0.744 OA
ENDBRANCH  48  51
ENDBRANCH  30  44
BRANCH  31  55
ATOM     55  C   UNL     1      17.810  -2.173 -20.932  1.00  0.00     0.023 A 
ATOM     56  C   UNL     1      17.492  -2.753 -22.172  1.00  0.00     0.012 A 
ATOM     57  C   UNL     1      17.535  -0.807 -20.715  1.00  0.00     0.148 A 
ATOM     58  C   UNL     1      16.928  -1.982 -23.189  1.00  0.00     0.002 A 
ATOM     59  C   UNL     1      16.913  -0.062 -21.707  1.00  0.00     0.091 A 
ATOM     60  F   UNL     1      17.843  -0.279 -19.522  1.00  0.00    -0.205 F 
ATOM     61  C   UNL     1      16.626  -0.643 -22.952  1.00  0.00     0.022 A 
BRANCH  59  62
ATOM     62  S   UNL     1      16.348   1.621 -21.439  1.00  0.00     0.127 S 
ATOM     63  O   UNL     1      17.200   2.370 -22.359  1.00  0.00    -0.237 OA
ATOM     64  O   UNL     1      14.942   1.529 -21.834  1.00  0.00    -0.237 OA
ATOM     65  O   UNL     1      16.561   1.891 -20.024  1.00  0.00    -0.744 OA
ENDBRANCH  59  62
ENDBRANCH  31  55
BRANCH  43  66
ATOM     66  C   UNL     1      23.732  -5.738 -19.846  1.00  0.00     0.023 A 
ATOM     67  C   UNL     1      24.651  -4.691 -20.052  1.00  0.00     0.012 A 
ATOM     68  C   UNL     1      24.030  -7.029 -20.324  1.00  0.00     0.148 A 
ATOM     69  C   UNL     1      25.841  -4.923 -20.739  1.00  0.00     0.002 A 
ATOM     70  C   UNL     1      25.244  -7.266 -20.953  1.00  0.00     0.091 A 
ATOM     71  F   UNL     1      23.130  -8.005 -20.132  1.00  0.00    -0.205 F 
ATOM     72  C   UNL     1      26.145  -6.212 -21.173  1.00  0.00     0.022 A 
BRANCH  70  73
ATOM     73  S   UNL     1      25.770  -8.910 -21.447  1.00  0.00     0.127 S 
ATOM     74  O   UNL     1      25.814  -8.783 -22.903  1.00  0.00    -0.237 OA
ATOM     75  O   UNL     1      27.078  -9.019 -20.802  1.00  0.00    -0.237 OA
ATOM     76  O   UNL     1      24.761  -9.829 -20.938  1.00  0.00    -0.744 OA
ENDBRANCH  70  73
ENDBRANCH  43  66
ENDBRANCH  17  18
ENDBRANCH  10  12
ENDBRANCH   7   8
ENDBRANCH   6   7
ENDBRANCH   5   6
ENDBRANCH   1   5
BRANCH   2  77
ATOM     77  C   UNL     1       7.411 -10.508 -11.575  1.00  0.00     0.197 C 
BRANCH  77  78
ATOM     78  N   UNL     1       6.021 -10.725 -11.095  1.00  0.00    -0.340 N 
ATOM     79  C   UNL     1       5.343 -10.390  -9.947  1.00  0.00     0.244 C 
ATOM     80  H   UNL     1       5.463 -11.215 -11.742  1.00  0.00     0.164 HD
ATOM     81  O   UNL     1       4.175 -10.787  -9.872  1.00  0.00    -0.273 OA
BRANCH  79  82
ATOM     82  C   UNL     1       5.929  -9.481  -8.819  1.00  0.00     0.181 C 
BRANCH  82  83
ATOM     83  N   UNL     1       5.165  -8.212  -8.723  1.00  0.00    -0.342 N 
ATOM     84  C   UNL     1       5.515  -6.904  -8.508  1.00  0.00     0.243 C 
ATOM     85  H   UNL     1       4.195  -8.337  -8.838  1.00  0.00     0.164 HD
ATOM     86  O   UNL     1       4.617  -6.124  -8.172  1.00  0.00    -0.273 OA
BRANCH  84  87
ATOM     87  C   UNL     1       6.916  -6.364  -8.859  1.00  0.00     0.176 C 
BRANCH  87  88
ATOM     88  N   UNL     1       6.710  -5.446 -10.016  1.00  0.00    -0.340 N 
ATOM     89  C   UNL     1       6.881  -5.533 -11.383  1.00  0.00     0.251 C 
ATOM     90  H   UNL     1       6.369  -4.566  -9.738  1.00  0.00     0.164 HD
ATOM     91  O   UNL     1       6.491  -4.604 -12.088  1.00  0.00    -0.269 OA
BRANCH  89  92
ATOM     92  C   UNL     1       7.635  -6.620 -12.058  1.00  0.00     0.040 A 
ATOM     93  C   UNL     1       8.296  -7.984 -11.097  1.00  0.00     0.017 A 
ATOM     94  C   UNL     1       8.322  -6.295 -13.699  1.00  0.00     0.017 A 
ATOM     95  C   UNL     1       9.687  -9.014 -11.726  1.00  0.00     0.040 A 
ATOM     96  C   UNL     1       9.650  -7.332 -14.351  1.00  0.00     0.040 A 
ATOM     97  C   UNL     1      10.273  -8.723 -13.403  1.00  0.00     0.123 A 
ATOM     98  F   UNL     1      11.232  -9.509 -13.907  1.00  0.00    -0.207 F 
ENDBRANCH  89  92
ENDBRANCH  87  88
BRANCH  87  99
ATOM     99  C   UNL     1       7.720  -5.734  -7.709  1.00  0.00     0.072 C 
BRANCH  99 100
ATOM    100  C   UNL     1       8.460  -6.709  -6.783  1.00  0.00    -0.020 A 
ATOM    101  C   UNL     1       8.704  -6.449  -5.445  1.00  0.00     0.087 A 
ATOM    102  C   UNL     1       9.071  -8.002  -7.018  1.00  0.00     0.003 A 
ATOM    103  N   UNL     1       9.298  -7.541  -4.870  1.00  0.00    -0.361 N 
ATOM    104  C   UNL     1       9.415  -8.554  -5.786  1.00  0.00     0.046 A 
ATOM    105  C   UNL     1       9.365  -8.803  -8.133  1.00  0.00     0.010 A 
ATOM    106  H   UNL     1       9.598  -7.591  -3.933  1.00  0.00     0.166 HD
ATOM    107  C   UNL     1       9.837  -9.886  -5.629  1.00  0.00     0.026 A 
ATOM    108  C   UNL     1       9.690 -10.157  -8.014  1.00  0.00     0.001 A 
ATOM    109  C   UNL     1       9.895 -10.702  -6.762  1.00  0.00     0.002 A 
ENDBRANCH  99 100
ENDBRANCH  87  99
ENDBRANCH  84  87
ENDBRANCH  82  83
BRANCH  82 110
ATOM    110  C   UNL     1       6.001 -10.188  -7.449  1.00  0.00     0.101 C 
BRANCH 110 111
ATOM    111  S   UNL     1       4.429 -10.359  -6.542  1.00  0.00    -0.177 SA
ATOM    112  H   UNL     1       3.951  -9.126  -6.228  1.00  0.00     0.102 HD
ENDBRANCH 110 111
ENDBRANCH  82 110
ENDBRANCH  79  82
ENDBRANCH  77  78
BRANCH  77 113
ATOM    113  C   UNL     1       8.110 -11.851 -11.921  1.00  0.00     0.191 C 
BRANCH 113 114
ATOM    114  O   UNL     1       9.256 -12.043 -11.071  1.00  0.00    -0.394 OA
ATOM    115  H   UNL     1       9.884 -11.316 -11.206  1.00  0.00     0.210 HD
ENDBRANCH 113 114
ENDBRANCH  77 113
ENDBRANCH   2  77
TORSDOF 25
