REMARK SMILES O=C(CNc1cc(N2CCCC2)c2noc3c2c1C(=O)c1ccccc1-3)NCCCNC(=O)c1ccc(-c2c3nc(c(-c4cccc(S(=O)(=O)[O-])c4F)c4ccc([nH]4)c(-c4cccc(S(=O)(=O)[O-])c4F)c4nc(c(-c5cccc(S(=O)(=O)[O-])c5F)c5ccc2[nH]5)C=C4)C=C3)cc1
REMARK SMILES IDX 29 1 28 2 27 3 1 4 2 5 3 7 4 8 5 10 6 11 18 12 7 13 17 14
REMARK SMILES IDX 19 15 13 16 16 17 20 18 21 19 14 20 15 21 26 22 22 23 25 24
REMARK SMILES IDX 23 25 24 26 8 27 9 28 12 29 10 30 11 31 30 32 31 33 32 34
REMARK SMILES IDX 33 36 34 37 35 38 96 39 36 40 95 41 37 42 38 43 39 44 89 45
REMARK SMILES IDX 40 46 94 47 88 48 90 49 41 50 93 51 87 52 86 53 42 55 74 56
REMARK SMILES IDX 54 57 73 58 55 59 58 60 72 61 91 62 56 63 57 64 71 66 92 67
REMARK SMILES IDX 59 68 43 69 44 70 52 71 45 72 47 73 53 74 46 75 48 76 49 77
REMARK SMILES IDX 50 78 51 79 75 80 76 81 84 82 77 83 79 84 85 85 78 86 80 87
REMARK SMILES IDX 81 88 82 89 83 90 60 91 61 92 69 93 62 94 64 95 70 96 63 97
REMARK SMILES IDX 65 98 66 99 67 100 68 101
REMARK H PARENT 27 6 4 9 31 35 90 54 58 65
REMARK Flexibility Score: inf
ROOT
ATOM      1  C   UNL     1       2.693   2.958   1.600  1.00  0.00     0.042 C 
ENDROOT
BRANCH   1   2
ATOM      2  C   UNL     1       2.258   2.553   0.194  1.00  0.00     0.117 C 
BRANCH   2   3
ATOM      3  N   UNL     1       2.776   1.245  -0.165  1.00  0.00    -0.355 N 
ATOM      4  O   UNL     1       0.909  -0.015   0.331  1.00  0.00    -0.273 OA
ATOM      5  C   UNL     1       2.080   0.061  -0.022  1.00  0.00     0.239 C 
ATOM      6  H   UNL     1       3.687   1.200  -0.536  1.00  0.00     0.163 HD
BRANCH   5   7
ATOM      7  C   UNL     1       2.963  -1.177  -0.266  1.00  0.00     0.213 C 
BRANCH   7   8
ATOM      8  N   UNL     1       4.022  -0.854  -1.231  1.00  0.00    -0.375 N 
ATOM      9  H   UNL     1       3.764  -0.295  -2.000  1.00  0.00     0.161 HD
BRANCH   8  10
ATOM     10  C   UNL     1       5.348  -1.256  -1.170  1.00  0.00     0.049 A 
ATOM     11  C   UNL     1       6.274  -0.319  -1.802  1.00  0.00     0.054 A 
ATOM     12  C   UNL     1       5.848  -2.392  -0.496  1.00  0.00     0.059 A 
ATOM     13  C   UNL     1       7.703  -0.401  -1.866  1.00  0.00     0.069 A 
ATOM     14  C   UNL     1       7.231  -2.428  -0.565  1.00  0.00     0.065 A 
ATOM     15  C   UNL     1       5.167  -3.550   0.165  1.00  0.00     0.196 C 
ATOM     16  C   UNL     1       8.164  -1.556  -1.189  1.00  0.00     0.138 A 
ATOM     17  C   UNL     1       7.939  -3.401   0.054  1.00  0.00     0.176 A 
ATOM     18  O   UNL     1       3.961  -3.740   0.081  1.00  0.00    -0.288 OA
ATOM     19  C   UNL     1       6.010  -4.555   0.913  1.00  0.00     0.034 A 
ATOM     20  N   UNL     1       9.406  -2.053  -0.967  1.00  0.00    -0.077 NA
ATOM     21  O   UNL     1       9.256  -3.199  -0.174  1.00  0.00    -0.355 OA
ATOM     22  C   UNL     1       7.419  -4.479   0.850  1.00  0.00     0.032 A 
ATOM     23  C   UNL     1       5.397  -5.564   1.660  1.00  0.00     0.013 A 
ATOM     24  C   UNL     1       8.202  -5.400   1.545  1.00  0.00     0.013 A 
ATOM     25  C   UNL     1       6.185  -6.484   2.353  1.00  0.00     0.001 A 
ATOM     26  C   UNL     1       7.580  -6.401   2.298  1.00  0.00     0.001 A 
BRANCH  13  27
ATOM     27  N   UNL     1       8.459   0.528  -2.525  1.00  0.00    -0.370 N 
ATOM     28  C   UNL     1       8.262   1.967  -2.449  1.00  0.00     0.116 C 
ATOM     29  C   UNL     1       9.463   0.153  -3.510  1.00  0.00     0.116 C 
ATOM     30  C   UNL     1       8.755   2.443  -3.808  1.00  0.00     0.023 C 
ATOM     31  C   UNL     1       9.904   1.490  -4.115  1.00  0.00     0.023 C 
ENDBRANCH  13  27
ENDBRANCH   8  10
ENDBRANCH   7   8
ENDBRANCH   5   7
ENDBRANCH   2   3
ENDBRANCH   1   2
BRANCH   1  32
ATOM     32  C   UNL     1       4.210   2.948   1.787  1.00  0.00     0.118 C 
BRANCH  32  33
ATOM     33  N   UNL     1       4.883   4.127   1.263  1.00  0.00    -0.352 N 
ATOM     34  C   UNL     1       5.089   5.353   1.859  1.00  0.00     0.251 C 
ATOM     35  H   UNL     1       5.244   4.036   0.352  1.00  0.00     0.163 HD
ATOM     36  O   UNL     1       5.657   6.244   1.247  1.00  0.00    -0.269 OA
BRANCH  34  37
ATOM     37  C   UNL     1       4.588   5.573   3.229  1.00  0.00     0.039 A 
ATOM     38  C   UNL     1       4.990   4.730   4.269  1.00  0.00     0.014 A 
ATOM     39  C   UNL     1       3.679   6.608   3.458  1.00  0.00     0.014 A 
ATOM     40  C   UNL     1       4.382   4.835   5.510  1.00  0.00     0.010 A 
ATOM     41  C   UNL     1       3.102   6.744   4.720  1.00  0.00     0.010 A 
ATOM     42  C   UNL     1       3.433   5.839   5.736  1.00  0.00    -0.014 A 
BRANCH  42  43
ATOM     43  C   UNL     1       2.909   5.949   7.101  1.00  0.00     0.031 A 
ATOM     44  C   UNL     1       3.273   7.218   7.792  1.00  0.00     0.074 A 
ATOM     45  C   UNL     1       1.792   5.302   7.487  1.00  0.00     0.049 A 
ATOM     46  N   UNL     1       2.620   8.324   7.596  1.00  0.00    -0.248 NA
ATOM     47  C   UNL     1       4.537   7.391   8.505  1.00  0.00     0.031 C 
ATOM     48  C   UNL     1       0.655   5.018   6.601  1.00  0.00     0.029 A 
ATOM     49  N   UNL     1       1.330   5.006   8.746  1.00  0.00    -0.354 N 
ATOM     50  C   UNL     1       3.408   9.352   8.074  1.00  0.00     0.074 A 
ATOM     51  C   UNL     1       4.575   8.724   8.655  1.00  0.00     0.031 C 
ATOM     52  C   UNL     1      -0.432   4.782   7.365  1.00  0.00     0.029 A 
ATOM     53  C   UNL     1      -0.035   4.734   8.767  1.00  0.00     0.049 A 
ATOM     54  H   UNL     1       1.902   4.988   9.547  1.00  0.00     0.167 HD
ATOM     55  C   UNL     1       3.068  10.661   7.943  1.00  0.00     0.034 A 
ATOM     56  C   UNL     1      -0.838   4.955   9.844  1.00  0.00     0.034 A 
ATOM     57  C   UNL     1       1.816  10.909   7.289  1.00  0.00     0.049 A 
ATOM     58  C   UNL     1      -0.968   6.462   9.769  1.00  0.00     0.074 A 
ATOM     59  C   UNL     1       1.397  11.187   6.006  1.00  0.00     0.029 A 
ATOM     60  N   UNL     1       0.657  10.714   8.004  1.00  0.00    -0.354 N 
ATOM     61  N   UNL     1      -1.705   7.129   8.915  1.00  0.00    -0.248 NA
ATOM     62  C   UNL     1       0.074   7.260  10.419  1.00  0.00     0.031 C 
ATOM     63  C   UNL     1       0.053  10.701   5.926  1.00  0.00     0.029 A 
ATOM     64  C   UNL     1      -0.255  10.129   7.159  1.00  0.00     0.049 A 
ATOM     65  H   UNL     1       0.508  10.950   8.948  1.00  0.00     0.167 HD
ATOM     66  C   UNL     1      -1.006   8.317   8.678  1.00  0.00     0.074 A 
ATOM     67  C   UNL     1       0.055   8.349   9.664  1.00  0.00     0.031 C 
ATOM     68  C   UNL     1      -1.201   9.119   7.590  1.00  0.00     0.034 A 
BRANCH  55  69
ATOM     69  C   UNL     1       3.829  11.767   8.562  1.00  0.00     0.023 A 
ATOM     70  C   UNL     1       3.469  12.127   9.874  1.00  0.00     0.012 A 
ATOM     71  C   UNL     1       4.759  12.546   7.854  1.00  0.00     0.148 A 
ATOM     72  C   UNL     1       3.998  13.268  10.469  1.00  0.00     0.002 A 
ATOM     73  C   UNL     1       5.288  13.686   8.456  1.00  0.00     0.091 A 
ATOM     74  F   UNL     1       5.087  12.181   6.606  1.00  0.00    -0.205 F 
ATOM     75  C   UNL     1       4.901  14.051   9.757  1.00  0.00     0.022 A 
BRANCH  73  76
ATOM     76  S   UNL     1       6.455  14.783   7.640  1.00  0.00     0.127 S 
ATOM     77  O   UNL     1       5.692  16.027   7.553  1.00  0.00    -0.237 OA
ATOM     78  O   UNL     1       7.561  14.812   8.599  1.00  0.00    -0.237 OA
ATOM     79  O   UNL     1       6.774  14.157   6.364  1.00  0.00    -0.744 OA
ENDBRANCH  73  76
ENDBRANCH  55  69
BRANCH  56  80
ATOM     80  C   UNL     1      -0.406   4.196  11.074  1.00  0.00     0.023 A 
ATOM     81  C   UNL     1      -0.083   2.825  10.895  1.00  0.00     0.012 A 
ATOM     82  C   UNL     1      -0.255   4.727  12.366  1.00  0.00     0.148 A 
ATOM     83  C   UNL     1       0.493   2.058  11.909  1.00  0.00     0.002 A 
ATOM     84  C   UNL     1       0.369   3.975  13.364  1.00  0.00     0.091 A 
ATOM     85  F   UNL     1      -0.693   5.967  12.616  1.00  0.00    -0.205 F 
ATOM     86  C   UNL     1       0.751   2.646  13.136  1.00  0.00     0.022 A 
BRANCH  84  87
ATOM     87  S   UNL     1       0.810   4.677  14.960  1.00  0.00     0.127 S 
ATOM     88  O   UNL     1       0.434   3.607  15.884  1.00  0.00    -0.237 OA
ATOM     89  O   UNL     1       2.248   4.874  14.798  1.00  0.00    -0.237 OA
ATOM     90  O   UNL     1       0.018   5.893  15.085  1.00  0.00    -0.744 OA
ENDBRANCH  84  87
ENDBRANCH  56  80
BRANCH  68  91
ATOM     91  C   UNL     1      -2.367   8.788   6.710  1.00  0.00     0.023 A 
ATOM     92  C   UNL     1      -3.657   9.108   7.171  1.00  0.00     0.012 A 
ATOM     93  C   UNL     1      -2.209   8.265   5.410  1.00  0.00     0.148 A 
ATOM     94  C   UNL     1      -4.769   8.940   6.348  1.00  0.00     0.002 A 
ATOM     95  C   UNL     1      -3.320   8.125   4.583  1.00  0.00     0.091 A 
ATOM     96  F   UNL     1      -0.977   7.946   4.986  1.00  0.00    -0.205 F 
ATOM     97  C   UNL     1      -4.600   8.462   5.052  1.00  0.00     0.022 A 
BRANCH  95  98
ATOM     98  S   UNL     1      -3.208   7.567   2.878  1.00  0.00     0.127 S 
ATOM     99  O   UNL     1      -4.192   6.484   2.844  1.00  0.00    -0.237 OA
ATOM    100  O   UNL     1      -3.604   8.768   2.142  1.00  0.00    -0.237 OA
ATOM    101  O   UNL     1      -1.830   7.142   2.673  1.00  0.00    -0.744 OA
ENDBRANCH  95  98
ENDBRANCH  68  91
ENDBRANCH  42  43
ENDBRANCH  34  37
ENDBRANCH  32  33
ENDBRANCH   1  32
TORSDOF 16
