REMARK SMILES CCc1cc(C(=O)c2[nH]c3cc(Cl)ccc3c2CC(=O)NCCCNC(=O)c2ccc(-c3c4nc(c(-c5cccc(S(=O)(=O)[O-])c5F)c5ccc([nH]5)c(-c5cccc(S(=O)(=O)[O-])c5F)c5nc(c(-c6cccc(S(=O)(=O)[O-])c6F)c6ccc3[nH]6)C=C5)C=C4)cc2)ncc1Cl
REMARK SMILES IDX 22 1 21 2 19 3 20 4 18 6 17 7 8 8 9 9 10 10 16 12 11 13
REMARK SMILES IDX 15 14 12 15 14 16 13 17 6 18 7 19 5 20 3 21 4 22 93 23 92 24
REMARK SMILES IDX 94 25 91 26 2 27 1 28 23 29 24 30 25 31 26 32 27 34 28 35
REMARK SMILES IDX 29 36 90 37 30 38 89 39 31 40 32 41 33 42 83 43 34 44 88 45
REMARK SMILES IDX 82 46 84 47 35 48 87 49 81 50 80 51 36 53 68 54 48 55 67 56
REMARK SMILES IDX 49 57 52 58 66 59 85 60 50 61 51 62 65 64 86 65 53 66 37 67
REMARK SMILES IDX 38 68 46 69 39 70 41 71 47 72 40 73 42 74 43 75 44 76 45 77
REMARK SMILES IDX 69 78 70 79 78 80 71 81 73 82 79 83 72 84 74 85 75 86 76 87
REMARK SMILES IDX 77 88 54 89 55 90 63 91 56 92 58 93 64 94 57 95 59 96 60 97
REMARK SMILES IDX 61 98 62 99
REMARK H PARENT 21 5 9 11 25 33 84 52 52 63
REMARK Flexibility Score: inf
ROOT
ATOM      1  C   UNL     1       0.553   9.656  -4.492  1.00  0.00     0.117 C 
ENDROOT
BRANCH   1   2
ATOM      2  N   UNL     1       0.427   8.527  -5.393  1.00  0.00    -0.356 N 
ATOM      3  C   UNL     1      -0.250   7.353  -5.228  1.00  0.00     0.224 C 
ATOM      4  O   UNL     1      -0.372   6.612  -6.208  1.00  0.00    -0.275 OA
ATOM      5  H   UNL     1       0.902   8.620  -6.250  1.00  0.00     0.163 HD
BRANCH   3   6
ATOM      6  C   UNL     1      -0.958   7.030  -3.923  1.00  0.00     0.138 C 
BRANCH   6   7
ATOM      7  C   UNL     1      -0.081   6.937  -2.705  1.00  0.00    -0.002 A 
ATOM      8  C   UNL     1       1.000   6.083  -2.494  1.00  0.00     0.093 A 
ATOM      9  N   UNL     1       1.543   6.403  -1.269  1.00  0.00    -0.351 N 
ATOM     10  C   UNL     1       0.795   7.371  -0.643  1.00  0.00     0.048 A 
ATOM     11  H   UNL     1       2.355   5.993  -0.892  1.00  0.00     0.167 HD
ATOM     12  C   UNL     1      -0.237   7.720  -1.512  1.00  0.00     0.004 A 
ATOM     13  C   UNL     1       0.975   7.980   0.606  1.00  0.00     0.047 A 
ATOM     14  C   UNL     1      -1.145   8.722  -1.108  1.00  0.00     0.012 A 
ATOM     15  C   UNL     1       0.063   8.973   0.974  1.00  0.00     0.043 A 
ATOM     16  C   UNL     1      -0.983   9.343   0.135  1.00  0.00     0.021 A 
ATOM     17  Cl  UNL     1       0.232   9.758   2.497  1.00  0.00    -0.084 Cl
BRANCH   8  18
ATOM     18  C   UNL     1       1.596   5.123  -3.409  1.00  0.00     0.227 C 
ATOM     19  O   UNL     1       2.120   5.502  -4.453  1.00  0.00    -0.285 OA
BRANCH  18  20
ATOM     20  C   UNL     1       1.558   3.649  -3.075  1.00  0.00     0.113 A 
ATOM     21  C   UNL     1       1.006   1.755  -1.631  1.00  0.00    -0.026 A 
ATOM     22  C   UNL     1       1.034   3.150  -1.879  1.00  0.00     0.037 A 
ATOM     23  C   UNL     1       1.463   0.914  -2.654  1.00  0.00     0.062 A 
ATOM     24  C   UNL     1       1.978   1.496  -3.808  1.00  0.00     0.132 A 
ATOM     25  Cl  UNL     1       1.379  -0.804  -2.614  1.00  0.00    -0.082 Cl
ATOM     26  N   UNL     1       2.043   2.827  -4.035  1.00  0.00    -0.251 NA
BRANCH  21  27
ATOM     27  C   UNL     1       0.407   1.308  -0.312  1.00  0.00     0.034 C 
ATOM     28  C   UNL     1       1.026   0.109   0.398  1.00  0.00     0.009 C 
ENDBRANCH  21  27
ENDBRANCH  18  20
ENDBRANCH   8  18
ENDBRANCH   6   7
ENDBRANCH   3   6
ENDBRANCH   1   2
BRANCH   1  29
ATOM     29  C   UNL     1       1.895   9.713  -3.769  1.00  0.00     0.042 C 
BRANCH  29  30
ATOM     30  C   UNL     1       3.102   9.951  -4.674  1.00  0.00     0.118 C 
BRANCH  30  31
ATOM     31  N   UNL     1       3.067  11.250  -5.332  1.00  0.00    -0.352 N 
ATOM     32  C   UNL     1       3.953  12.299  -5.298  1.00  0.00     0.251 C 
ATOM     33  H   UNL     1       2.275  11.402  -5.896  1.00  0.00     0.163 HD
ATOM     34  O   UNL     1       3.623  13.369  -5.805  1.00  0.00    -0.269 OA
BRANCH  32  35
ATOM     35  C   UNL     1       5.284  12.173  -4.656  1.00  0.00     0.039 A 
ATOM     36  C   UNL     1       5.783  13.265  -3.936  1.00  0.00     0.014 A 
ATOM     37  C   UNL     1       6.071  11.028  -4.804  1.00  0.00     0.014 A 
ATOM     38  C   UNL     1       7.037  13.189  -3.320  1.00  0.00     0.010 A 
ATOM     39  C   UNL     1       7.294  10.929  -4.139  1.00  0.00     0.010 A 
ATOM     40  C   UNL     1       7.792  12.008  -3.394  1.00  0.00    -0.014 A 
BRANCH  40  41
ATOM     41  C   UNL     1       9.092  11.877  -2.686  1.00  0.00     0.031 A 
ATOM     42  C   UNL     1      10.371  11.704  -3.460  1.00  0.00     0.074 A 
ATOM     43  C   UNL     1       9.111  11.819  -1.339  1.00  0.00     0.049 A 
ATOM     44  N   UNL     1      11.584  11.504  -3.012  1.00  0.00    -0.248 NA
ATOM     45  C   UNL     1      10.272  11.736  -4.928  1.00  0.00     0.031 C 
ATOM     46  C   UNL     1       7.933  11.896  -0.474  1.00  0.00     0.029 A 
ATOM     47  N   UNL     1      10.155  11.650  -0.464  1.00  0.00    -0.354 N 
ATOM     48  C   UNL     1      12.385  11.348  -4.137  1.00  0.00     0.074 A 
ATOM     49  C   UNL     1      11.517  11.456  -5.290  1.00  0.00     0.031 C 
ATOM     50  C   UNL     1       8.318  11.769   0.806  1.00  0.00     0.029 A 
ATOM     51  C   UNL     1       9.765  11.582   0.853  1.00  0.00     0.049 A 
ATOM     52  H   UNL     1      11.094  11.584  -0.751  1.00  0.00     0.167 HD
ATOM     53  C   UNL     1      13.725  11.160  -4.207  1.00  0.00     0.034 A 
ATOM     54  C   UNL     1      10.488  11.387   1.974  1.00  0.00     0.034 A 
ATOM     55  C   UNL     1      14.598  11.115  -3.065  1.00  0.00     0.049 A 
ATOM     56  C   UNL     1      11.982  11.249   1.871  1.00  0.00     0.074 A 
ATOM     57  C   UNL     1      15.979  11.025  -3.040  1.00  0.00     0.029 A 
ATOM     58  N   UNL     1      14.177  11.161  -1.746  1.00  0.00    -0.354 N 
ATOM     59  N   UNL     1      12.739  11.269   0.800  1.00  0.00    -0.248 NA
ATOM     60  C   UNL     1      12.727  11.099   3.130  1.00  0.00     0.031 C 
ATOM     61  C   UNL     1      16.393  11.016  -1.704  1.00  0.00     0.029 A 
ATOM     62  C   UNL     1      15.269  11.100  -0.897  1.00  0.00     0.049 A 
ATOM     63  H   UNL     1      13.239  11.226  -1.454  1.00  0.00     0.167 HD
ATOM     64  C   UNL     1      14.047  11.164   1.256  1.00  0.00     0.074 A 
ATOM     65  C   UNL     1      13.983  11.102   2.702  1.00  0.00     0.031 C 
ATOM     66  C   UNL     1      15.197  11.102   0.541  1.00  0.00     0.034 A 
BRANCH  53  67
ATOM     67  C   UNL     1      14.345  11.066  -5.575  1.00  0.00     0.023 A 
ATOM     68  C   UNL     1      14.503  12.241  -6.339  1.00  0.00     0.012 A 
ATOM     69  C   UNL     1      14.825   9.842  -6.081  1.00  0.00     0.148 A 
ATOM     70  C   UNL     1      15.105  12.196  -7.595  1.00  0.00     0.002 A 
ATOM     71  C   UNL     1      15.455   9.811  -7.320  1.00  0.00     0.091 A 
ATOM     72  F   UNL     1      14.643   8.732  -5.353  1.00  0.00    -0.205 F 
ATOM     73  C   UNL     1      15.590  10.984  -8.081  1.00  0.00     0.022 A 
BRANCH  71  74
ATOM     74  S   UNL     1      16.172   8.307  -7.994  1.00  0.00     0.127 S 
ATOM     75  O   UNL     1      15.153   7.901  -8.960  1.00  0.00    -0.237 OA
ATOM     76  O   UNL     1      17.417   8.792  -8.591  1.00  0.00    -0.237 OA
ATOM     77  O   UNL     1      16.358   7.416  -6.857  1.00  0.00    -0.744 OA
ENDBRANCH  71  74
ENDBRANCH  53  67
BRANCH  54  78
ATOM     78  C   UNL     1       9.809  11.402   3.299  1.00  0.00     0.023 A 
ATOM     79  C   UNL     1       9.980  12.514   4.144  1.00  0.00     0.012 A 
ATOM     80  C   UNL     1       8.959  10.355   3.705  1.00  0.00     0.148 A 
ATOM     81  C   UNL     1       9.335  12.575   5.380  1.00  0.00     0.002 A 
ATOM     82  C   UNL     1       8.280  10.444   4.915  1.00  0.00     0.091 A 
ATOM     83  F   UNL     1       8.823   9.293   2.897  1.00  0.00    -0.205 F 
ATOM     84  C   UNL     1       8.475  11.548   5.760  1.00  0.00     0.022 A 
BRANCH  82  85
ATOM     85  S   UNL     1       7.056   9.221   5.402  1.00  0.00     0.127 S 
ATOM     86  O   UNL     1       7.826   8.366   6.302  1.00  0.00    -0.237 OA
ATOM     87  O   UNL     1       6.036  10.042   6.058  1.00  0.00    -0.237 OA
ATOM     88  O   UNL     1       6.612   8.609   4.158  1.00  0.00    -0.744 OA
ENDBRANCH  82  85
ENDBRANCH  54  78
BRANCH  66  89
ATOM     89  C   UNL     1      16.488  10.976   1.303  1.00  0.00     0.023 A 
ATOM     90  C   UNL     1      16.842   9.731   1.859  1.00  0.00     0.012 A 
ATOM     91  C   UNL     1      17.384  12.058   1.399  1.00  0.00     0.148 A 
ATOM     92  C   UNL     1      18.059   9.570   2.520  1.00  0.00     0.002 A 
ATOM     93  C   UNL     1      18.613  11.880   2.027  1.00  0.00     0.091 A 
ATOM     94  F   UNL     1      17.020  13.242   0.885  1.00  0.00    -0.205 F 
ATOM     95  C   UNL     1      18.949  10.640   2.593  1.00  0.00     0.022 A 
BRANCH  93  96
ATOM     96  S   UNL     1      19.846  13.186   2.087  1.00  0.00     0.127 S 
ATOM     97  O   UNL     1      19.645  13.726   3.430  1.00  0.00    -0.237 OA
ATOM     98  O   UNL     1      21.098  12.450   1.908  1.00  0.00    -0.237 OA
ATOM     99  O   UNL     1      19.519  14.084   0.988  1.00  0.00    -0.744 OA
ENDBRANCH  93  96
ENDBRANCH  66  89
ENDBRANCH  40  41
ENDBRANCH  32  35
ENDBRANCH  30  31
ENDBRANCH  29  30
ENDBRANCH   1  29
TORSDOF 17
