REMARK SMILES C[C@@H]1CCCN(c2ccc(NC(=O)Cc3cccs3)c(C(=O)NCCCNC(=O)c3ccc(-c4c5nc(c(-c6cccc(S(=O)(=O)[O-])c6F)c6ccc([nH]6)c(-c6cccc(S(=O)(=O)[O-])c6F)c6nc(c(-c7cccc(S(=O)(=O)[O-])c7F)c7ccc4[nH]7)C=C6)C=C5)cc3)c2)C1
REMARK SMILES IDX 25 1 24 2 23 3 21 4 22 5 20 7 7 8 8 9 93 10 9 11 10 12 6 13
REMARK SMILES IDX 1 14 2 15 3 16 94 17 4 18 5 19 11 20 12 21 13 23 14 24 15 25
REMARK SMILES IDX 16 26 19 27 17 28 18 29 26 30 27 31 28 32 29 34 30 35 31 36
REMARK SMILES IDX 92 37 32 38 91 39 33 40 34 41 35 42 85 43 36 44 90 45 84 46
REMARK SMILES IDX 86 47 37 48 89 49 83 50 82 51 38 53 70 54 50 55 69 56 51 57
REMARK SMILES IDX 54 58 68 59 87 60 52 61 53 62 67 64 88 65 55 66 39 67 40 68
REMARK SMILES IDX 48 69 41 70 43 71 49 72 42 73 44 74 45 75 46 76 47 77 71 78
REMARK SMILES IDX 72 79 80 80 73 81 75 82 81 83 74 84 76 85 77 86 78 87 79 88
REMARK SMILES IDX 56 89 57 90 65 91 58 92 60 93 66 94 59 95 61 96 62 97 63 98
REMARK SMILES IDX 64 99
REMARK H PARENT 23 6 11 22 27 33 86 52 54 63
REMARK Flexibility Score: inf
ROOT
ATOM      1  C   UNL     1       1.724  -0.869  -4.412  1.00  0.00     0.042 C 
ENDROOT
BRANCH   1   2
ATOM      2  C   UNL     1       3.085  -0.299  -4.013  1.00  0.00     0.118 C 
BRANCH   2   3
ATOM      3  N   UNL     1       3.297   1.007  -4.609  1.00  0.00    -0.352 N 
ATOM      4  C   UNL     1       3.247   2.288  -4.124  1.00  0.00     0.253 C 
ATOM      5  O   UNL     1       3.594   3.172  -4.911  1.00  0.00    -0.269 OA
ATOM      6  H   UNL     1       3.525   0.964  -5.566  1.00  0.00     0.163 HD
BRANCH   4   7
ATOM      7  C   UNL     1       2.879   2.654  -2.716  1.00  0.00     0.065 A 
ATOM      8  C   UNL     1       1.845   2.076  -0.573  1.00  0.00     0.038 A 
ATOM      9  C   UNL     1       2.327   3.265  -0.037  1.00  0.00     0.028 A 
ATOM     10  C   UNL     1       2.102   1.804  -1.918  1.00  0.00     0.042 A 
ATOM     11  C   UNL     1       3.014   4.181  -0.834  1.00  0.00     0.029 A 
ATOM     12  C   UNL     1       3.248   3.919  -2.186  1.00  0.00     0.054 A 
BRANCH   8  13
ATOM     13  N   UNL     1       1.171   1.179   0.226  1.00  0.00    -0.371 N 
ATOM     14  C   UNL     1      -2.495   0.163   0.056  1.00  0.00     0.009 C 
ATOM     15  C   UNL     1      -1.000   0.123  -0.257  1.00  0.00     0.005 C 
ATOM     16  C   UNL     1      -0.395  -1.215   0.196  1.00  0.00     0.007 C 
ATOM     17  C   UNL     1      -0.274   1.307   0.403  1.00  0.00     0.119 C 
ATOM     18  C   UNL     1       1.108  -1.252  -0.075  1.00  0.00     0.022 C 
ATOM     19  C   UNL     1       1.812  -0.077   0.594  1.00  0.00     0.116 C 
ENDBRANCH   8  13
BRANCH  12  20
ATOM     20  N   UNL     1       3.794   4.896  -3.049  1.00  0.00    -0.325 N 
ATOM     21  C   UNL     1       3.722   6.259  -3.087  1.00  0.00     0.229 C 
ATOM     22  H   UNL     1       4.341   4.514  -3.773  1.00  0.00     0.169 HD
ATOM     23  O   UNL     1       4.339   6.832  -3.996  1.00  0.00    -0.274 OA
BRANCH  21  24
ATOM     24  C   UNL     1       2.937   7.091  -2.093  1.00  0.00     0.147 C 
BRANCH  24  25
ATOM     25  C   UNL     1       1.439   6.936  -2.159  1.00  0.00     0.014 A 
ATOM     26  C   UNL     1       0.632   5.920  -2.641  1.00  0.00     0.016 A 
ATOM     27  S   UNL     1       0.473   8.202  -1.494  1.00  0.00    -0.148 S 
ATOM     28  C   UNL     1      -0.755   6.147  -2.402  1.00  0.00     0.012 A 
ATOM     29  C   UNL     1      -0.981   7.364  -1.807  1.00  0.00     0.065 A 
ENDBRANCH  24  25
ENDBRANCH  21  24
ENDBRANCH  12  20
ENDBRANCH   4   7
ENDBRANCH   2   3
ENDBRANCH   1   2
BRANCH   1  30
ATOM     30  C   UNL     1       1.724  -1.478  -5.813  1.00  0.00     0.118 C 
BRANCH  30  31
ATOM     31  N   UNL     1       2.564  -2.669  -5.878  1.00  0.00    -0.352 N 
ATOM     32  C   UNL     1       2.230  -3.976  -6.124  1.00  0.00     0.251 C 
ATOM     33  H   UNL     1       3.523  -2.509  -5.721  1.00  0.00     0.163 HD
ATOM     34  O   UNL     1       3.037  -4.862  -5.855  1.00  0.00    -0.269 OA
BRANCH  32  35
ATOM     35  C   UNL     1       0.918  -4.322  -6.713  1.00  0.00     0.039 A 
ATOM     36  C   UNL     1       0.263  -5.477  -6.275  1.00  0.00     0.014 A 
ATOM     37  C   UNL     1       0.363  -3.547  -7.734  1.00  0.00     0.014 A 
ATOM     38  C   UNL     1      -0.971  -5.827  -6.829  1.00  0.00     0.010 A 
ATOM     39  C   UNL     1      -0.901  -3.855  -8.230  1.00  0.00     0.010 A 
ATOM     40  C   UNL     1      -1.575  -5.005  -7.793  1.00  0.00    -0.014 A 
BRANCH  40  41
ATOM     41  C   UNL     1      -2.910  -5.323  -8.361  1.00  0.00     0.031 A 
ATOM     42  C   UNL     1      -3.061  -5.592  -9.834  1.00  0.00     0.074 A 
ATOM     43  C   UNL     1      -3.997  -5.272  -7.566  1.00  0.00     0.049 A 
ATOM     44  N   UNL     1      -4.151  -5.797 -10.528  1.00  0.00    -0.248 NA
ATOM     45  C   UNL     1      -1.829  -5.600 -10.641  1.00  0.00     0.031 C 
ATOM     46  C   UNL     1      -3.986  -4.944  -6.138  1.00  0.00     0.029 A 
ATOM     47  N   UNL     1      -5.326  -5.462  -7.851  1.00  0.00    -0.354 N 
ATOM     48  C   UNL     1      -3.743  -5.914 -11.851  1.00  0.00     0.074 A 
ATOM     49  C   UNL     1      -2.309  -5.726 -11.870  1.00  0.00     0.031 C 
ATOM     50  C   UNL     1      -5.245  -4.955  -5.674  1.00  0.00     0.029 A 
ATOM     51  C   UNL     1      -6.155  -5.260  -6.773  1.00  0.00     0.049 A 
ATOM     52  H   UNL     1      -5.654  -5.719  -8.743  1.00  0.00     0.167 HD
ATOM     53  C   UNL     1      -4.490  -6.182 -12.949  1.00  0.00     0.034 A 
ATOM     54  C   UNL     1      -7.499  -5.305  -6.682  1.00  0.00     0.034 A 
ATOM     55  C   UNL     1      -5.907  -6.422 -12.915  1.00  0.00     0.049 A 
ATOM     56  C   UNL     1      -8.299  -5.660  -7.905  1.00  0.00     0.074 A 
ATOM     57  C   UNL     1      -6.742  -6.795 -13.953  1.00  0.00     0.029 A 
ATOM     58  N   UNL     1      -6.701  -6.310 -11.784  1.00  0.00    -0.354 N 
ATOM     59  N   UNL     1      -7.878  -5.923  -9.119  1.00  0.00    -0.248 NA
ATOM     60  C   UNL     1      -9.756  -5.762  -7.741  1.00  0.00     0.031 C 
ATOM     61  C   UNL     1      -8.045  -6.891 -13.453  1.00  0.00     0.029 A 
ATOM     62  C   UNL     1      -8.017  -6.601 -12.098  1.00  0.00     0.049 A 
ATOM     63  H   UNL     1      -6.376  -6.060 -10.889  1.00  0.00     0.167 HD
ATOM     64  C   UNL     1      -9.010  -6.257  -9.852  1.00  0.00     0.074 A 
ATOM     65  C   UNL     1     -10.134  -6.184  -8.941  1.00  0.00     0.031 C 
ATOM     66  C   UNL     1      -9.114  -6.580 -11.165  1.00  0.00     0.034 A 
BRANCH  53  67
ATOM     67  C   UNL     1      -3.780  -6.291 -14.274  1.00  0.00     0.023 A 
ATOM     68  C   UNL     1      -2.947  -7.401 -14.526  1.00  0.00     0.012 A 
ATOM     69  C   UNL     1      -3.981  -5.335 -15.289  1.00  0.00     0.148 A 
ATOM     70  C   UNL     1      -2.297  -7.540 -15.752  1.00  0.00     0.002 A 
ATOM     71  C   UNL     1      -3.365  -5.504 -16.524  1.00  0.00     0.091 A 
ATOM     72  F   UNL     1      -4.760  -4.277 -15.025  1.00  0.00    -0.205 F 
ATOM     73  C   UNL     1      -2.515  -6.598 -16.753  1.00  0.00     0.022 A 
BRANCH  71  74
ATOM     74  S   UNL     1      -3.643  -4.391 -17.907  1.00  0.00     0.127 S 
ATOM     75  O   UNL     1      -2.352  -3.711 -18.002  1.00  0.00    -0.237 OA
ATOM     76  O   UNL     1      -3.923  -5.322 -19.000  1.00  0.00    -0.237 OA
ATOM     77  O   UNL     1      -4.767  -3.547 -17.524  1.00  0.00    -0.744 OA
ENDBRANCH  71  74
ENDBRANCH  53  67
BRANCH  54  78
ATOM     78  C   UNL     1      -8.164  -5.078  -5.367  1.00  0.00     0.023 A 
ATOM     79  C   UNL     1      -8.777  -6.162  -4.709  1.00  0.00     0.012 A 
ATOM     80  C   UNL     1      -8.166  -3.812  -4.751  1.00  0.00     0.148 A 
ATOM     81  C   UNL     1      -9.409  -5.983  -3.478  1.00  0.00     0.002 A 
ATOM     82  C   UNL     1      -8.747  -3.652  -3.498  1.00  0.00     0.091 A 
ATOM     83  F   UNL     1      -7.587  -2.790  -5.397  1.00  0.00    -0.205 F 
ATOM     84  C   UNL     1      -9.385  -4.732  -2.868  1.00  0.00     0.022 A 
BRANCH  82  85
ATOM     85  S   UNL     1      -8.641  -2.113  -2.578  1.00  0.00     0.127 S 
ATOM     86  O   UNL     1     -10.009  -1.612  -2.671  1.00  0.00    -0.237 OA
ATOM     87  O   UNL     1      -8.243  -2.579  -1.249  1.00  0.00    -0.237 OA
ATOM     88  O   UNL     1      -7.625  -1.319  -3.259  1.00  0.00    -0.744 OA
ENDBRANCH  82  85
ENDBRANCH  54  78
BRANCH  66  89
ATOM     89  C   UNL     1     -10.482  -6.920 -11.695  1.00  0.00     0.023 A 
ATOM     90  C   UNL     1     -11.433  -5.899 -11.885  1.00  0.00     0.012 A 
ATOM     91  C   UNL     1     -10.794  -8.239 -12.079  1.00  0.00     0.148 A 
ATOM     92  C   UNL     1     -12.686  -6.191 -12.422  1.00  0.00     0.002 A 
ATOM     93  C   UNL     1     -12.026  -8.513 -12.660  1.00  0.00     0.091 A 
ATOM     94  F   UNL     1      -9.881  -9.199 -11.872  1.00  0.00    -0.205 F 
ATOM     95  C   UNL     1     -12.977  -7.493 -12.821  1.00  0.00     0.022 A 
BRANCH  93  96
ATOM     96  S   UNL     1     -12.450 -10.140 -13.292  1.00  0.00     0.127 S 
ATOM     97  O   UNL     1     -13.415 -10.604 -12.297  1.00  0.00    -0.237 OA
ATOM     98  O   UNL     1     -13.025  -9.825 -14.600  1.00  0.00    -0.237 OA
ATOM     99  O   UNL     1     -11.200 -10.887 -13.347  1.00  0.00    -0.744 OA
ENDBRANCH  93  96
ENDBRANCH  66  89
ENDBRANCH  40  41
ENDBRANCH  32  35
ENDBRANCH  30  31
ENDBRANCH   1  30
TORSDOF 17
