REMARK SMILES C[N@H+]1[C@H]2CC[C@@H]1c1sc(=O)n(CCCC(=O)NCCCNC(=O)c3ccc(-c4c5nc(c(-c6cccc(S(=O)(=O)[O-])c6F)c6ccc([nH]6)c(-c6cccc(S(=O)(=O)[O-])c6F)c6nc(c(-c7cccc(S(=O)(=O)[O-])c7F)c7ccc4[nH]7)C=C6)C=C5)cc3)c1C2
REMARK SMILES IDX 19 1 18 2 17 3 15 4 16 5 14 7 13 8 12 9 11 10 1 11 2 12 3 13
REMARK SMILES IDX 6 14 4 16 88 17 5 18 7 19 87 20 8 21 9 22 10 23 20 24 21 25
REMARK SMILES IDX 22 26 23 28 24 29 25 30 86 31 26 32 85 33 27 34 28 35 29 36
REMARK SMILES IDX 79 37 30 38 84 39 78 40 80 41 31 42 83 43 77 44 76 45 32 47
REMARK SMILES IDX 64 48 44 49 63 50 45 51 48 52 62 53 81 54 46 55 47 56 61 58
REMARK SMILES IDX 82 59 49 60 33 61 34 62 42 63 35 64 37 65 43 66 36 67 38 68
REMARK SMILES IDX 39 69 40 70 41 71 65 72 66 73 74 74 67 75 69 76 75 77 68 78
REMARK SMILES IDX 70 79 71 80 72 81 73 82 50 83 51 84 59 85 52 86 54 87 60 88
REMARK SMILES IDX 53 89 55 90 56 91 57 92 58 93
REMARK H PARENT 17 6 2 15 21 27 80 46 48 57
REMARK Flexibility Score: inf
ROOT
ATOM      1  C   UNL     1      -0.575   4.466   0.004  1.00  0.00     0.042 C 
ENDROOT
BRANCH   1   2
ATOM      2  C   UNL     1      -0.299   5.942  -0.312  1.00  0.00     0.117 C 
BRANCH   2   3
ATOM      3  N   UNL     1      -0.012   6.741   0.865  1.00  0.00    -0.356 N 
ATOM      4  C   UNL     1       1.112   7.412   1.232  1.00  0.00     0.220 C 
ATOM      5  O   UNL     1       1.002   8.232   2.145  1.00  0.00    -0.275 OA
ATOM      6  H   UNL     1      -0.757   6.808   1.505  1.00  0.00     0.163 HD
BRANCH   4   7
ATOM      7  C   UNL     1       2.442   7.266   0.516  1.00  0.00     0.102 C 
BRANCH   7   8
ATOM      8  C   UNL     1       3.281   6.007   0.715  1.00  0.00     0.032 C 
BRANCH   8   9
ATOM      9  C   UNL     1       2.895   4.664   0.111  1.00  0.00     0.127 C 
BRANCH   9  10
ATOM     10  N   UNL     1       2.719   4.408  -1.327  1.00  0.00    -0.302 N 
ATOM     11  C   UNL     1      -0.202   0.147  -1.814  1.00  0.00     0.333 C 
ATOM     12  N   UNL     1       0.961   0.940  -2.067  1.00  0.00    -0.328 N 
ATOM     13  C   UNL     1       2.263   0.556  -1.555  1.00  0.00     0.190 C 
ATOM     14  C   UNL     1       1.197   1.681  -3.309  1.00  0.00     0.227 C 
ATOM     15  H   UNL     1       0.472   1.569  -1.430  1.00  0.00     0.348 HD
ATOM     16  C   UNL     1       2.947   0.073  -2.840  1.00  0.00     0.072 C 
ATOM     17  C   UNL     1       2.857   1.865  -0.951  1.00  0.00     0.120 C 
ATOM     18  C   UNL     1       2.356   0.926  -3.970  1.00  0.00     0.077 C 
ATOM     19  C   UNL     1       1.750   3.006  -2.867  1.00  0.00     0.087 A 
ATOM     20  C   UNL     1       2.456   3.105  -1.728  1.00  0.00     0.047 A 
ATOM     21  S   UNL     1       1.544   4.524  -3.638  1.00  0.00    -0.073 S 
ATOM     22  C   UNL     1       2.442   5.350  -2.324  1.00  0.00     0.307 A 
ATOM     23  O   UNL     1       2.680   6.528  -2.374  1.00  0.00    -0.257 OA
ENDBRANCH   9  10
ENDBRANCH   8   9
ENDBRANCH   7   8
ENDBRANCH   4   7
ENDBRANCH   2   3
ENDBRANCH   1   2
BRANCH   1  24
ATOM     24  C   UNL     1      -2.024   4.180   0.338  1.00  0.00     0.118 C 
BRANCH  24  25
ATOM     25  N   UNL     1      -2.927   4.168  -0.829  1.00  0.00    -0.352 N 
ATOM     26  C   UNL     1      -4.315   4.021  -0.839  1.00  0.00     0.251 C 
ATOM     27  H   UNL     1      -2.498   4.278  -1.708  1.00  0.00     0.163 HD
ATOM     28  O   UNL     1      -4.904   3.625  -1.837  1.00  0.00    -0.269 OA
BRANCH  26  29
ATOM     29  C   UNL     1      -5.059   4.378   0.386  1.00  0.00     0.039 A 
ATOM     30  C   UNL     1      -6.170   3.696   0.891  1.00  0.00     0.014 A 
ATOM     31  C   UNL     1      -4.490   5.394   1.120  1.00  0.00     0.014 A 
ATOM     32  C   UNL     1      -6.628   4.050   2.164  1.00  0.00     0.010 A 
ATOM     33  C   UNL     1      -4.596   5.275   2.463  1.00  0.00     0.010 A 
ATOM     34  C   UNL     1      -5.811   4.873   2.950  1.00  0.00    -0.014 A 
BRANCH  34  35
ATOM     35  C   UNL     1      -6.046   5.242   4.335  1.00  0.00     0.031 A 
ATOM     36  C   UNL     1      -6.179   4.062   5.207  1.00  0.00     0.074 A 
ATOM     37  C   UNL     1      -5.872   6.503   4.804  1.00  0.00     0.049 A 
ATOM     38  N   UNL     1      -7.281   3.492   5.563  1.00  0.00    -0.248 NA
ATOM     39  C   UNL     1      -4.975   3.265   5.491  1.00  0.00     0.031 C 
ATOM     40  C   UNL     1      -5.372   7.694   4.092  1.00  0.00     0.029 A 
ATOM     41  N   UNL     1      -6.002   6.971   6.075  1.00  0.00    -0.354 N 
ATOM     42  C   UNL     1      -6.882   2.465   6.406  1.00  0.00     0.074 A 
ATOM     43  C   UNL     1      -5.519   2.180   6.049  1.00  0.00     0.031 C 
ATOM     44  C   UNL     1      -5.040   8.660   4.981  1.00  0.00     0.029 A 
ATOM     45  C   UNL     1      -5.458   8.236   6.301  1.00  0.00     0.049 A 
ATOM     46  H   UNL     1      -6.447   6.454   6.784  1.00  0.00     0.167 HD
ATOM     47  C   UNL     1      -7.567   2.223   7.558  1.00  0.00     0.034 A 
ATOM     48  C   UNL     1      -5.349   8.870   7.498  1.00  0.00     0.034 A 
ATOM     49  C   UNL     1      -8.813   2.964   7.568  1.00  0.00     0.049 A 
ATOM     50  C   UNL     1      -6.338   8.236   8.400  1.00  0.00     0.074 A 
ATOM     51  C   UNL     1      -9.923   3.043   6.750  1.00  0.00     0.029 A 
ATOM     52  N   UNL     1      -8.814   4.113   8.325  1.00  0.00    -0.354 N 
ATOM     53  N   UNL     1      -7.625   8.312   8.214  1.00  0.00    -0.248 NA
ATOM     54  C   UNL     1      -5.887   7.136   9.234  1.00  0.00     0.031 C 
ATOM     55  C   UNL     1     -10.286   4.424   6.748  1.00  0.00     0.029 A 
ATOM     56  C   UNL     1      -9.445   5.107   7.629  1.00  0.00     0.049 A 
ATOM     57  H   UNL     1      -8.422   4.205   9.223  1.00  0.00     0.167 HD
ATOM     58  C   UNL     1      -8.080   7.027   8.477  1.00  0.00     0.074 A 
ATOM     59  C   UNL     1      -6.995   6.389   9.223  1.00  0.00     0.031 C 
ATOM     60  C   UNL     1      -9.151   6.516   7.798  1.00  0.00     0.034 A 
BRANCH  47  61
ATOM     61  C   UNL     1      -6.959   1.729   8.860  1.00  0.00     0.023 A 
ATOM     62  C   UNL     1      -7.866   1.483   9.917  1.00  0.00     0.012 A 
ATOM     63  C   UNL     1      -5.587   1.760   9.199  1.00  0.00     0.148 A 
ATOM     64  C   UNL     1      -7.440   1.369  11.244  1.00  0.00     0.002 A 
ATOM     65  C   UNL     1      -5.161   1.578  10.510  1.00  0.00     0.091 A 
ATOM     66  F   UNL     1      -4.668   2.085   8.291  1.00  0.00    -0.205 F 
ATOM     67  C   UNL     1      -6.085   1.419  11.542  1.00  0.00     0.022 A 
BRANCH  65  68
ATOM     68  S   UNL     1      -3.415   1.601  10.948  1.00  0.00     0.127 S 
ATOM     69  O   UNL     1      -3.321   2.855  11.690  1.00  0.00    -0.237 OA
ATOM     70  O   UNL     1      -3.300   0.388  11.758  1.00  0.00    -0.237 OA
ATOM     71  O   UNL     1      -2.687   1.548   9.687  1.00  0.00    -0.744 OA
ENDBRANCH  65  68
ENDBRANCH  47  61
BRANCH  48  72
ATOM     72  C   UNL     1      -4.315   9.795   8.025  1.00  0.00     0.023 A 
ATOM     73  C   UNL     1      -4.600  10.605   9.146  1.00  0.00     0.012 A 
ATOM     74  C   UNL     1      -2.964   9.645   7.642  1.00  0.00     0.148 A 
ATOM     75  C   UNL     1      -3.573  11.206   9.887  1.00  0.00     0.002 A 
ATOM     76  C   UNL     1      -1.947  10.239   8.387  1.00  0.00     0.091 A 
ATOM     77  F   UNL     1      -2.679   8.844   6.607  1.00  0.00    -0.205 F 
ATOM     78  C   UNL     1      -2.247  11.010   9.517  1.00  0.00     0.022 A 
BRANCH  76  79
ATOM     79  S   UNL     1      -0.205   9.987   8.015  1.00  0.00     0.127 S 
ATOM     80  O   UNL     1       0.284  11.363   7.928  1.00  0.00    -0.237 OA
ATOM     81  O   UNL     1       0.251   9.250   9.192  1.00  0.00    -0.237 OA
ATOM     82  O   UNL     1      -0.172   9.247   6.761  1.00  0.00    -0.744 OA
ENDBRANCH  76  79
ENDBRANCH  48  72
BRANCH  60  83
ATOM     83  C   UNL     1      -9.988   7.477   6.988  1.00  0.00     0.023 A 
ATOM     84  C   UNL     1      -9.502   8.153   5.848  1.00  0.00     0.012 A 
ATOM     85  C   UNL     1     -11.351   7.584   7.307  1.00  0.00     0.148 A 
ATOM     86  C   UNL     1     -10.354   8.933   5.058  1.00  0.00     0.002 A 
ATOM     87  C   UNL     1     -12.203   8.322   6.496  1.00  0.00     0.091 A 
ATOM     88  F   UNL     1     -11.797   6.933   8.391  1.00  0.00    -0.205 F 
ATOM     89  C   UNL     1     -11.708   9.007   5.375  1.00  0.00     0.022 A 
BRANCH  87  90
ATOM     90  S   UNL     1     -13.972   8.359   6.788  1.00  0.00     0.127 S 
ATOM     91  O   UNL     1     -14.169   9.713   7.301  1.00  0.00    -0.237 OA
ATOM     92  O   UNL     1     -14.515   8.125   5.449  1.00  0.00    -0.237 OA
ATOM     93  O   UNL     1     -14.245   7.285   7.736  1.00  0.00    -0.744 OA
ENDBRANCH  87  90
ENDBRANCH  60  83
ENDBRANCH  34  35
ENDBRANCH  26  29
ENDBRANCH  24  25
ENDBRANCH   1  24
TORSDOF 16
