REMARK SMILES Cc1nn(-c2cccc(C(=O)NCCCNC(=O)c3ccc(-c4c5nc(c(-c6cccc(S(=O)(=O)[O-])c6F)c6ccc([nH]6)c(-c6cccc(S(=O)(=O)[O-])c6F)c6nc(c(-c7cccc(S(=O)(=O)[O-])c7F)c7ccc4[nH]7)C=C6)C=C5)cc3)c2)c(C)c1Cl
REMARK SMILES IDX 15 1 14 2 13 3 12 4 10 5 11 6 9 8 5 9 6 10 82 11 7 12 8 13
REMARK SMILES IDX 4 14 1 15 2 16 3 17 85 18 83 19 86 20 84 21 16 22 17 23
REMARK SMILES IDX 18 25 19 26 20 27 81 28 21 29 80 30 22 31 23 32 24 33 74 34
REMARK SMILES IDX 25 35 79 36 73 37 75 38 26 39 78 40 72 41 71 42 27 44 59 45
REMARK SMILES IDX 39 46 58 47 40 48 43 49 57 50 76 51 41 52 42 53 56 55 77 56
REMARK SMILES IDX 44 57 28 58 29 59 37 60 30 61 32 62 38 63 31 64 33 65 34 66
REMARK SMILES IDX 35 67 36 68 60 69 61 70 69 71 62 72 64 73 70 74 63 75 65 76
REMARK SMILES IDX 66 77 67 78 68 79 45 80 46 81 54 82 47 83 49 84 55 85 48 86
REMARK SMILES IDX 50 87 51 88 52 89 53 90
REMARK H PARENT 12 7 16 24 75 43 43 54
REMARK Flexibility Score: inf
ROOT
ATOM      1  C   UNL     1       3.993  -2.811  -6.515  1.00  0.00     0.118 C 
ENDROOT
BRANCH   1   2
ATOM      2  C   UNL     1       2.841  -3.262  -5.632  1.00  0.00     0.042 C 
BRANCH   2   3
ATOM      3  C   UNL     1       1.765  -4.031  -6.415  1.00  0.00     0.118 C 
BRANCH   3   4
ATOM      4  N   UNL     1       1.861  -5.475  -6.273  1.00  0.00    -0.352 N 
ATOM      5  C   UNL     1       1.348  -6.380  -5.373  1.00  0.00     0.251 C 
ATOM      6  O   UNL     1       1.445  -7.572  -5.667  1.00  0.00    -0.269 OA
ATOM      7  H   UNL     1       2.412  -5.896  -6.972  1.00  0.00     0.163 HD
BRANCH   5   8
ATOM      8  C   UNL     1       0.679  -6.024  -4.084  1.00  0.00     0.041 A 
ATOM      9  C   UNL     1      -0.085  -4.464  -2.375  1.00  0.00     0.066 A 
ATOM     10  C   UNL     1      -0.519  -5.504  -1.560  1.00  0.00     0.028 A 
ATOM     11  C   UNL     1       0.547  -4.731  -3.597  1.00  0.00     0.042 A 
ATOM     12  C   UNL     1      -0.407  -6.811  -2.035  1.00  0.00     0.003 A 
ATOM     13  C   UNL     1       0.174  -7.066  -3.288  1.00  0.00     0.014 A 
BRANCH   9  14
ATOM     14  N   UNL     1      -0.250  -3.110  -2.001  1.00  0.00    -0.236 N 
ATOM     15  C   UNL     1       0.827  -0.538   0.175  1.00  0.00     0.070 C 
ATOM     16  C   UNL     1       0.226  -1.352  -0.908  1.00  0.00     0.079 A 
ATOM     17  N   UNL     1       0.105  -2.682  -0.767  1.00  0.00    -0.171 NA
ATOM     18  C   UNL     1      -0.266  -0.918  -2.158  1.00  0.00     0.085 A 
ATOM     19  C   UNL     1      -0.632  -2.063  -2.825  1.00  0.00     0.060 A 
ATOM     20  Cl  UNL     1      -0.388   0.681  -2.709  1.00  0.00    -0.080 Cl
ATOM     21  C   UNL     1      -1.315  -2.243  -4.133  1.00  0.00     0.068 C 
ENDBRANCH   9  14
ENDBRANCH   5   8
ENDBRANCH   3   4
ENDBRANCH   2   3
ENDBRANCH   1   2
BRANCH   1  22
ATOM     22  N   UNL     1       3.575  -1.778  -7.474  1.00  0.00    -0.352 N 
ATOM     23  C   UNL     1       4.236  -1.305  -8.597  1.00  0.00     0.251 C 
ATOM     24  H   UNL     1       2.700  -1.364  -7.293  1.00  0.00     0.163 HD
ATOM     25  O   UNL     1       3.921  -0.250  -9.110  1.00  0.00    -0.269 OA
BRANCH  23  26
ATOM     26  C   UNL     1       5.338  -2.116  -9.144  1.00  0.00     0.039 A 
ATOM     27  C   UNL     1       6.550  -1.537  -9.530  1.00  0.00     0.014 A 
ATOM     28  C   UNL     1       5.159  -3.492  -9.171  1.00  0.00     0.014 A 
ATOM     29  C   UNL     1       7.622  -2.373  -9.837  1.00  0.00     0.010 A 
ATOM     30  C   UNL     1       6.259  -4.298  -9.272  1.00  0.00     0.010 A 
ATOM     31  C   UNL     1       7.476  -3.757  -9.674  1.00  0.00    -0.014 A 
BRANCH  31  32
ATOM     32  C   UNL     1       8.604  -4.671  -9.818  1.00  0.00     0.031 A 
ATOM     33  C   UNL     1       9.783  -4.362  -8.965  1.00  0.00     0.074 A 
ATOM     34  C   UNL     1       8.490  -5.846 -10.478  1.00  0.00     0.049 A 
ATOM     35  N   UNL     1      10.938  -3.925  -9.347  1.00  0.00    -0.248 NA
ATOM     36  C   UNL     1       9.619  -4.402  -7.504  1.00  0.00     0.031 C 
ATOM     37  C   UNL     1       7.280  -6.419 -11.093  1.00  0.00     0.029 A 
ATOM     38  N   UNL     1       9.393  -6.854 -10.606  1.00  0.00    -0.354 N 
ATOM     39  C   UNL     1      11.724  -3.883  -8.194  1.00  0.00     0.074 A 
ATOM     40  C   UNL     1      10.808  -3.959  -7.089  1.00  0.00     0.031 C 
ATOM     41  C   UNL     1       7.450  -7.745 -11.276  1.00  0.00     0.029 A 
ATOM     42  C   UNL     1       8.833  -8.066 -10.998  1.00  0.00     0.049 A 
ATOM     43  H   UNL     1      10.356  -6.737 -10.437  1.00  0.00     0.167 HD
ATOM     44  C   UNL     1      13.073  -4.077  -8.256  1.00  0.00     0.034 A 
ATOM     45  C   UNL     1       9.460  -9.260 -11.090  1.00  0.00     0.034 A 
ATOM     46  C   UNL     1      13.525  -4.064  -9.626  1.00  0.00     0.049 A 
ATOM     47  C   UNL     1      10.904  -8.975 -11.206  1.00  0.00     0.074 A 
ATOM     48  C   UNL     1      13.605  -3.142 -10.646  1.00  0.00     0.029 A 
ATOM     49  N   UNL     1      13.644  -5.307 -10.196  1.00  0.00    -0.354 N 
ATOM     50  N   UNL     1      11.432  -8.376 -12.236  1.00  0.00    -0.248 NA
ATOM     51  C   UNL     1      11.736  -9.022 -10.014  1.00  0.00     0.031 C 
ATOM     52  C   UNL     1      13.427  -3.892 -11.846  1.00  0.00     0.029 A 
ATOM     53  C   UNL     1      13.289  -5.242 -11.513  1.00  0.00     0.049 A 
ATOM     54  H   UNL     1      13.940  -6.121  -9.727  1.00  0.00     0.167 HD
ATOM     55  C   UNL     1      12.430  -7.584 -11.692  1.00  0.00     0.074 A 
ATOM     56  C   UNL     1      12.690  -8.159 -10.376  1.00  0.00     0.031 C 
ATOM     57  C   UNL     1      12.723  -6.365 -12.234  1.00  0.00     0.034 A 
BRANCH  44  58
ATOM     58  C   UNL     1      13.948  -4.718  -7.188  1.00  0.00     0.023 A 
ATOM     59  C   UNL     1      15.339  -4.777  -7.460  1.00  0.00     0.012 A 
ATOM     60  C   UNL     1      13.484  -5.511  -6.115  1.00  0.00     0.148 A 
ATOM     61  C   UNL     1      16.197  -5.637  -6.766  1.00  0.00     0.002 A 
ATOM     62  C   UNL     1      14.354  -6.314  -5.381  1.00  0.00     0.091 A 
ATOM     63  F   UNL     1      12.178  -5.605  -5.862  1.00  0.00    -0.205 F 
ATOM     64  C   UNL     1      15.704  -6.409  -5.725  1.00  0.00     0.022 A 
BRANCH  62  65
ATOM     65  S   UNL     1      13.778  -7.308  -3.997  1.00  0.00     0.127 S 
ATOM     66  O   UNL     1      13.794  -8.648  -4.574  1.00  0.00    -0.237 OA
ATOM     67  O   UNL     1      14.811  -7.051  -2.993  1.00  0.00    -0.237 OA
ATOM     68  O   UNL     1      12.467  -6.773  -3.652  1.00  0.00    -0.744 OA
ENDBRANCH  62  65
ENDBRANCH  44  58
BRANCH  45  69
ATOM     69  C   UNL     1       8.935 -10.633 -10.972  1.00  0.00     0.023 A 
ATOM     70  C   UNL     1       9.576 -11.688 -11.648  1.00  0.00     0.012 A 
ATOM     71  C   UNL     1       7.983 -10.947  -9.978  1.00  0.00     0.148 A 
ATOM     72  C   UNL     1       9.312 -13.019 -11.313  1.00  0.00     0.002 A 
ATOM     73  C   UNL     1       7.729 -12.273  -9.643  1.00  0.00     0.091 A 
ATOM     74  F   UNL     1       7.398  -9.941  -9.312  1.00  0.00    -0.205 F 
ATOM     75  C   UNL     1       8.402 -13.312 -10.301  1.00  0.00     0.022 A 
BRANCH  73  76
ATOM     76  S   UNL     1       6.611 -12.740  -8.315  1.00  0.00     0.127 S 
ATOM     77  O   UNL     1       5.715 -13.677  -8.993  1.00  0.00    -0.237 OA
ATOM     78  O   UNL     1       7.525 -13.354  -7.355  1.00  0.00    -0.237 OA
ATOM     79  O   UNL     1       5.977 -11.505  -7.877  1.00  0.00    -0.744 OA
ENDBRANCH  73  76
ENDBRANCH  45  69
BRANCH  57  80
ATOM     80  C   UNL     1      12.207  -6.081 -13.621  1.00  0.00     0.023 A 
ATOM     81  C   UNL     1      10.833  -5.945 -13.906  1.00  0.00     0.012 A 
ATOM     82  C   UNL     1      13.142  -5.798 -14.630  1.00  0.00     0.148 A 
ATOM     83  C   UNL     1      10.400  -5.557 -15.177  1.00  0.00     0.002 A 
ATOM     84  C   UNL     1      12.710  -5.366 -15.877  1.00  0.00     0.091 A 
ATOM     85  F   UNL     1      14.445  -5.931 -14.340  1.00  0.00    -0.205 F 
ATOM     86  C   UNL     1      11.340  -5.254 -16.159  1.00  0.00     0.022 A 
BRANCH  84  87
ATOM     87  S   UNL     1      13.872  -4.838 -17.137  1.00  0.00     0.127 S 
ATOM     88  O   UNL     1      13.842  -5.962 -18.071  1.00  0.00    -0.237 OA
ATOM     89  O   UNL     1      13.254  -3.609 -17.639  1.00  0.00    -0.237 OA
ATOM     90  O   UNL     1      15.139  -4.626 -16.449  1.00  0.00    -0.744 OA
ENDBRANCH  84  87
ENDBRANCH  57  80
ENDBRANCH  31  32
ENDBRANCH  23  26
ENDBRANCH   1  22
TORSDOF 14
