REMARK SMILES O=C(C[NH+]1CCN(c2ncc(C(F)(F)F)cc2Cl)CC1)NCCCNC(=O)c1ccc(-c2c3nc(c(-c4cccc(S(=O)(=O)[O-])c4F)c4ccc([nH]4)c(-c4cccc(S(=O)(=O)[O-])c4F)c4nc(c(-c5cccc(S(=O)(=O)[O-])c5F)c5ccc2[nH]5)C=C4)C=C3)cc1
REMARK SMILES IDX 23 1 22 2 21 3 1 4 2 5 3 7 4 8 5 9 20 10 6 12 19 13 7 14
REMARK SMILES IDX 8 15 9 16 17 17 10 18 16 19 18 20 11 21 12 22 13 23 14 24
REMARK SMILES IDX 15 25 24 26 25 27 26 28 27 30 28 31 29 32 90 33 30 34 89 35
REMARK SMILES IDX 31 36 32 37 33 38 83 39 34 40 88 41 82 42 84 43 35 44 87 45
REMARK SMILES IDX 81 46 80 47 36 49 68 50 48 51 67 52 49 53 52 54 66 55 85 56
REMARK SMILES IDX 50 57 51 58 65 60 86 61 53 62 37 63 38 64 46 65 39 66 41 67
REMARK SMILES IDX 47 68 40 69 42 70 43 71 44 72 45 73 69 74 70 75 78 76 71 77
REMARK SMILES IDX 73 78 79 79 72 80 74 81 75 82 76 83 77 84 54 85 55 86 63 87
REMARK SMILES IDX 56 88 58 89 64 90 57 91 59 92 60 93 61 94 62 95
REMARK H PARENT 21 6 4 11 25 29 84 48 52 59
REMARK Flexibility Score: inf
ROOT
ATOM      1  C   UNL     1       2.415   1.186  -3.151  1.00  0.00     0.042 C 
ENDROOT
BRANCH   1   2
ATOM      2  C   UNL     1       2.114  -0.071  -2.350  1.00  0.00     0.118 C 
BRANCH   2   3
ATOM      3  N   UNL     1       2.663  -0.050  -1.009  1.00  0.00    -0.351 N 
ATOM      4  O   UNL     1       0.772  -0.889  -0.009  1.00  0.00    -0.269 OA
ATOM      5  C   UNL     1       1.948  -0.535   0.065  1.00  0.00     0.275 C 
ATOM      6  H   UNL     1       3.564   0.318  -0.862  1.00  0.00     0.163 HD
BRANCH   5   7
ATOM      7  C   UNL     1       2.706  -0.598   1.391  1.00  0.00     0.363 C 
BRANCH   7   8
ATOM      8  N   UNL     1       4.070  -1.166   1.295  1.00  0.00    -0.324 N 
ATOM      9  C   UNL     1       4.589  -1.425   2.674  1.00  0.00     0.284 C 
ATOM     10  C   UNL     1       4.194  -2.407   0.486  1.00  0.00     0.284 C 
ATOM     11  H   UNL     1       4.622  -0.465   0.799  1.00  0.00     0.348 HD
ATOM     12  C   UNL     1       4.070  -2.723   3.361  1.00  0.00     0.179 C 
ATOM     13  C   UNL     1       3.766  -3.742   1.138  1.00  0.00     0.179 C 
ATOM     14  N   UNL     1       4.334  -3.846   2.474  1.00  0.00    -0.344 N 
BRANCH  14  15
ATOM     15  C   UNL     1       5.057  -4.921   2.920  1.00  0.00     0.147 A 
ATOM     16  N   UNL     1       4.600  -5.526   4.046  1.00  0.00    -0.237 NA
ATOM     17  C   UNL     1       6.237  -5.376   2.307  1.00  0.00     0.084 A 
ATOM     18  C   UNL     1       5.278  -6.591   4.542  1.00  0.00     0.126 A 
ATOM     19  C   UNL     1       6.931  -6.460   2.853  1.00  0.00     0.039 A 
ATOM     20  Cl  UNL     1       6.968  -4.603   0.946  1.00  0.00    -0.080 Cl
ATOM     21  C   UNL     1       6.446  -7.092   3.995  1.00  0.00     0.075 A 
BRANCH  21  22
ATOM     22  C   UNL     1       7.136  -8.259   4.624  1.00  0.00     0.417 C 
ATOM     23  F   UNL     1       7.387  -8.069   5.949  1.00  0.00    -0.166 F 
ATOM     24  F   UNL     1       6.404  -9.403   4.543  1.00  0.00    -0.166 F 
ATOM     25  F   UNL     1       8.341  -8.548   4.057  1.00  0.00    -0.166 F 
ENDBRANCH  21  22
ENDBRANCH  14  15
ENDBRANCH   7   8
ENDBRANCH   5   7
ENDBRANCH   2   3
ENDBRANCH   1   2
BRANCH   1  26
ATOM     26  C   UNL     1       3.884   1.375  -3.511  1.00  0.00     0.118 C 
BRANCH  26  27
ATOM     27  N   UNL     1       4.392   0.355  -4.423  1.00  0.00    -0.352 N 
ATOM     28  C   UNL     1       5.050   0.500  -5.621  1.00  0.00     0.251 C 
ATOM     29  H   UNL     1       4.241  -0.575  -4.137  1.00  0.00     0.163 HD
ATOM     30  O   UNL     1       5.288  -0.491  -6.309  1.00  0.00    -0.269 OA
BRANCH  28  31
ATOM     31  C   UNL     1       5.449   1.844  -6.098  1.00  0.00     0.039 A 
ATOM     32  C   UNL     1       5.219   2.187  -7.434  1.00  0.00     0.014 A 
ATOM     33  C   UNL     1       6.041   2.766  -5.233  1.00  0.00     0.014 A 
ATOM     34  C   UNL     1       5.512   3.479  -7.882  1.00  0.00     0.010 A 
ATOM     35  C   UNL     1       6.258   4.073  -5.659  1.00  0.00     0.010 A 
ATOM     36  C   UNL     1       5.997   4.445  -6.987  1.00  0.00    -0.014 A 
BRANCH  36  37
ATOM     37  C   UNL     1       6.237   5.853  -7.400  1.00  0.00     0.031 A 
ATOM     38  C   UNL     1       7.622   6.438  -7.306  1.00  0.00     0.074 A 
ATOM     39  C   UNL     1       5.197   6.639  -7.743  1.00  0.00     0.049 A 
ATOM     40  N   UNL     1       8.010   7.675  -7.477  1.00  0.00    -0.248 NA
ATOM     41  C   UNL     1       8.708   5.514  -6.938  1.00  0.00     0.031 C 
ATOM     42  C   UNL     1       3.798   6.213  -7.811  1.00  0.00     0.029 A 
ATOM     43  N   UNL     1       5.151   7.975  -8.061  1.00  0.00    -0.354 N 
ATOM     44  C   UNL     1       9.370   7.689  -7.193  1.00  0.00     0.074 A 
ATOM     45  C   UNL     1       9.736   6.341  -6.812  1.00  0.00     0.031 C 
ATOM     46  C   UNL     1       3.032   7.265  -8.140  1.00  0.00     0.029 A 
ATOM     47  C   UNL     1       3.876   8.449  -8.269  1.00  0.00     0.049 A 
ATOM     48  H   UNL     1       5.954   8.540  -8.133  1.00  0.00     0.167 HD
ATOM     49  C   UNL     1      10.243   8.722  -7.265  1.00  0.00     0.034 A 
ATOM     50  C   UNL     1       3.432   9.698  -8.515  1.00  0.00     0.034 A 
ATOM     51  C   UNL     1       9.887  10.048  -7.691  1.00  0.00     0.049 A 
ATOM     52  C   UNL     1       4.428  10.821  -8.625  1.00  0.00     0.074 A 
ATOM     53  C   UNL     1      10.714  11.141  -7.879  1.00  0.00     0.029 A 
ATOM     54  N   UNL     1       8.600  10.464  -7.992  1.00  0.00    -0.354 N 
ATOM     55  N   UNL     1       5.731  10.785  -8.491  1.00  0.00    -0.248 NA
ATOM     56  C   UNL     1       3.897  12.152  -8.955  1.00  0.00     0.031 C 
ATOM     57  C   UNL     1       9.923  12.225  -8.273  1.00  0.00     0.029 A 
ATOM     58  C   UNL     1       8.608  11.799  -8.360  1.00  0.00     0.049 A 
ATOM     59  H   UNL     1       7.798   9.895  -7.950  1.00  0.00     0.167 HD
ATOM     60  C   UNL     1       6.179  12.073  -8.763  1.00  0.00     0.074 A 
ATOM     61  C   UNL     1       5.009  12.863  -9.083  1.00  0.00     0.031 C 
ATOM     62  C   UNL     1       7.445  12.559  -8.740  1.00  0.00     0.034 A 
BRANCH  49  63
ATOM     63  C   UNL     1      11.684   8.448  -6.920  1.00  0.00     0.023 A 
ATOM     64  C   UNL     1      12.474   7.671  -7.793  1.00  0.00     0.012 A 
ATOM     65  C   UNL     1      12.272   9.004  -5.767  1.00  0.00     0.148 A 
ATOM     66  C   UNL     1      13.815   7.421  -7.505  1.00  0.00     0.002 A 
ATOM     67  C   UNL     1      13.622   8.789  -5.511  1.00  0.00     0.091 A 
ATOM     68  F   UNL     1      11.501   9.723  -4.939  1.00  0.00    -0.205 F 
ATOM     69  C   UNL     1      14.390   7.988  -6.372  1.00  0.00     0.022 A 
BRANCH  67  70
ATOM     70  S   UNL     1      14.477   9.542  -4.123  1.00  0.00     0.127 S 
ATOM     71  O   UNL     1      14.708   8.387  -3.257  1.00  0.00    -0.237 OA
ATOM     72  O   UNL     1      15.681  10.080  -4.757  1.00  0.00    -0.237 OA
ATOM     73  O   UNL     1      13.570  10.550  -3.591  1.00  0.00    -0.744 OA
ENDBRANCH  67  70
ENDBRANCH  49  63
BRANCH  50  74
ATOM     74  C   UNL     1       1.978   9.944  -8.734  1.00  0.00     0.023 A 
ATOM     75  C   UNL     1       1.523  10.280 -10.024  1.00  0.00     0.012 A 
ATOM     76  C   UNL     1       1.046   9.829  -7.685  1.00  0.00     0.148 A 
ATOM     77  C   UNL     1       0.171  10.532 -10.259  1.00  0.00     0.002 A 
ATOM     78  C   UNL     1      -0.307  10.027  -7.938  1.00  0.00     0.091 A 
ATOM     79  F   UNL     1       1.500   9.518  -6.463  1.00  0.00    -0.205 F 
ATOM     80  C   UNL     1      -0.745  10.396  -9.219  1.00  0.00     0.022 A 
BRANCH  78  81
ATOM     81  S   UNL     1      -1.571   9.749  -6.692  1.00  0.00     0.127 S 
ATOM     82  O   UNL     1      -2.030  11.110  -6.423  1.00  0.00    -0.237 OA
ATOM     83  O   UNL     1      -2.526   8.908  -7.414  1.00  0.00    -0.237 OA
ATOM     84  O   UNL     1      -0.896   9.079  -5.589  1.00  0.00    -0.744 OA
ENDBRANCH  78  81
ENDBRANCH  50  74
BRANCH  62  85
ATOM     85  C   UNL     1       7.654  14.000  -9.126  1.00  0.00     0.023 A 
ATOM     86  C   UNL     1       7.265  15.029  -8.247  1.00  0.00     0.012 A 
ATOM     87  C   UNL     1       8.319  14.327 -10.324  1.00  0.00     0.148 A 
ATOM     88  C   UNL     1       7.509  16.364  -8.569  1.00  0.00     0.002 A 
ATOM     89  C   UNL     1       8.604  15.655 -10.615  1.00  0.00     0.091 A 
ATOM     90  F   UNL     1       8.664  13.332 -11.156  1.00  0.00    -0.205 F 
ATOM     91  C   UNL     1       8.189  16.676  -9.744  1.00  0.00     0.022 A 
BRANCH  89  92
ATOM     92  S   UNL     1       9.563  16.142 -12.054  1.00  0.00     0.127 S 
ATOM     93  O   UNL     1       8.541  16.759 -12.898  1.00  0.00    -0.237 OA
ATOM     94  O   UNL     1      10.528  17.080 -11.480  1.00  0.00    -0.237 OA
ATOM     95  O   UNL     1      10.150  14.917 -12.579  1.00  0.00    -0.744 OA
ENDBRANCH  89  92
ENDBRANCH  62  85
ENDBRANCH  36  37
ENDBRANCH  28  31
ENDBRANCH  26  27
ENDBRANCH   1  26
TORSDOF 16
