REMARK SMILES CC[C@@H](C)[C@@H](NC(=O)C(F)(F)F)C(=O)NCCCNC(=O)c1ccc(-c2c3nc(c(-c4cccc(S(=O)(=O)[O-])c4F)c4ccc([nH]4)c(-c4cccc(S(=O)(=O)[O-])c4F)c4nc(c(-c5cccc(S(=O)(=O)[O-])c5F)c5ccc2[nH]5)C=C4)C=C3)cc1
REMARK SMILES IDX 17 1 16 2 15 3 13 4 14 5 5 7 3 8 4 9 2 10 1 11 6 12 7 13
REMARK SMILES IDX 8 15 9 16 10 17 11 18 12 19 18 20 19 21 20 22 21 24 22 25
REMARK SMILES IDX 23 26 84 27 24 28 83 29 25 30 26 31 27 32 77 33 28 34 82 35
REMARK SMILES IDX 76 36 78 37 29 38 81 39 75 40 74 41 30 43 62 44 42 45 61 46
REMARK SMILES IDX 43 47 46 48 60 49 79 50 44 51 45 52 59 54 80 55 47 56 31 57
REMARK SMILES IDX 32 58 40 59 33 60 35 61 41 62 34 63 36 64 37 65 38 66 39 67
REMARK SMILES IDX 63 68 64 69 72 70 65 71 67 72 73 73 66 74 68 75 69 76 70 77
REMARK SMILES IDX 71 78 48 79 49 80 57 81 50 82 52 83 58 84 51 85 53 86 54 87
REMARK SMILES IDX 55 88 56 89
REMARK H PARENT 15 6 6 14 19 23 78 42 46 53
REMARK Flexibility Score: inf
ROOT
ATOM      1  C   UNL     1       4.559  -1.444  -3.348  1.00  0.00     0.042 C 
ENDROOT
BRANCH   1   2
ATOM      2  C   UNL     1       3.637  -0.556  -4.160  1.00  0.00     0.117 C 
BRANCH   2   3
ATOM      3  N   UNL     1       2.581  -1.328  -4.796  1.00  0.00    -0.354 N 
ATOM      4  C   UNL     1       1.230  -1.175  -4.733  1.00  0.00     0.242 C 
ATOM      5  O   UNL     1       0.516  -1.998  -5.308  1.00  0.00    -0.273 OA
ATOM      6  H   UNL     1       2.890  -2.076  -5.357  1.00  0.00     0.163 HD
BRANCH   4   7
ATOM      7  C   UNL     1       0.620  -0.055  -3.872  1.00  0.00     0.174 C 
BRANCH   7   8
ATOM      8  C   UNL     1       0.795  -0.470  -2.363  1.00  0.00     0.018 C 
ATOM      9  C   UNL     1       0.163  -1.845  -2.075  1.00  0.00     0.010 C 
BRANCH   8  10
ATOM     10  C   UNL     1       0.270   0.574  -1.353  1.00  0.00     0.002 C 
ATOM     11  C   UNL     1       0.786   0.320   0.064  1.00  0.00     0.004 C 
ENDBRANCH   8  10
ENDBRANCH   7   8
BRANCH   7  12
ATOM     12  N   UNL     1       1.247   1.256  -4.170  1.00  0.00    -0.336 N 
ATOM     13  C   UNL     1       1.495   1.898  -5.363  1.00  0.00     0.326 C 
ATOM     14  H   UNL     1       1.537   1.756  -3.373  1.00  0.00     0.164 HD
ATOM     15  O   UNL     1       1.786   3.099  -5.260  1.00  0.00    -0.265 OA
BRANCH  13  16
ATOM     16  C   UNL     1       1.530   1.170  -6.733  1.00  0.00     0.471 C 
ATOM     17  F   UNL     1       2.646   0.401  -6.886  1.00  0.00    -0.162 F 
ATOM     18  F   UNL     1       0.458   0.361  -6.930  1.00  0.00    -0.162 F 
ATOM     19  F   UNL     1       1.545   2.040  -7.784  1.00  0.00    -0.162 F 
ENDBRANCH  13  16
ENDBRANCH   7  12
ENDBRANCH   4   7
ENDBRANCH   2   3
ENDBRANCH   1   2
BRANCH   1  20
ATOM     20  C   UNL     1       5.309  -2.449  -4.203  1.00  0.00     0.118 C 
BRANCH  20  21
ATOM     21  N   UNL     1       6.093  -1.808  -5.251  1.00  0.00    -0.352 N 
ATOM     22  C   UNL     1       7.439  -1.886  -5.504  1.00  0.00     0.251 C 
ATOM     23  H   UNL     1       5.583  -1.235  -5.868  1.00  0.00     0.163 HD
ATOM     24  O   UNL     1       7.961  -1.103  -6.288  1.00  0.00    -0.269 OA
BRANCH  22  25
ATOM     25  C   UNL     1       8.246  -2.910  -4.812  1.00  0.00     0.039 A 
ATOM     26  C   UNL     1       9.510  -2.564  -4.336  1.00  0.00     0.014 A 
ATOM     27  C   UNL     1       7.748  -4.202  -4.623  1.00  0.00     0.014 A 
ATOM     28  C   UNL     1      10.248  -3.503  -3.618  1.00  0.00     0.010 A 
ATOM     29  C   UNL     1       8.434  -5.095  -3.812  1.00  0.00     0.010 A 
ATOM     30  C   UNL     1       9.700  -4.762  -3.316  1.00  0.00    -0.014 A 
BRANCH  30  31
ATOM     31  C   UNL     1      10.442  -5.725  -2.467  1.00  0.00     0.031 A 
ATOM     32  C   UNL     1      10.837  -7.074  -3.002  1.00  0.00     0.074 A 
ATOM     33  C   UNL     1      10.716  -5.394  -1.190  1.00  0.00     0.049 A 
ATOM     34  N   UNL     1      11.524  -8.019  -2.416  1.00  0.00    -0.248 NA
ATOM     35  C   UNL     1      10.381  -7.423  -4.359  1.00  0.00     0.031 C 
ATOM     36  C   UNL     1      10.289  -4.159  -0.526  1.00  0.00     0.029 A 
ATOM     37  N   UNL     1      11.410  -6.069  -0.219  1.00  0.00    -0.354 N 
ATOM     38  C   UNL     1      11.564  -9.076  -3.317  1.00  0.00     0.074 A 
ATOM     39  C   UNL     1      10.787  -8.679  -4.469  1.00  0.00     0.031 C 
ATOM     40  C   UNL     1      10.756  -4.152   0.732  1.00  0.00     0.029 A 
ATOM     41  C   UNL     1      11.487  -5.391   0.974  1.00  0.00     0.049 A 
ATOM     42  H   UNL     1      11.815  -6.954  -0.363  1.00  0.00     0.167 HD
ATOM     43  C   UNL     1      12.218 -10.257  -3.212  1.00  0.00     0.034 A 
ATOM     44  C   UNL     1      12.083  -5.728   2.134  1.00  0.00     0.034 A 
ATOM     45  C   UNL     1      13.012 -10.634  -2.074  1.00  0.00     0.049 A 
ATOM     46  C   UNL     1      12.845  -7.021   2.206  1.00  0.00     0.074 A 
ATOM     47  C   UNL     1      13.783 -11.769  -1.900  1.00  0.00     0.029 A 
ATOM     48  N   UNL     1      13.129  -9.891  -0.909  1.00  0.00    -0.354 N 
ATOM     49  N   UNL     1      13.015  -7.933   1.279  1.00  0.00    -0.248 NA
ATOM     50  C   UNL     1      13.532  -7.313   3.471  1.00  0.00     0.031 C 
ATOM     51  C   UNL     1      14.339 -11.728  -0.617  1.00  0.00     0.029 A 
ATOM     52  C   UNL     1      13.947 -10.548  -0.005  1.00  0.00     0.049 A 
ATOM     53  H   UNL     1      12.693  -9.023  -0.747  1.00  0.00     0.167 HD
ATOM     54  C   UNL     1      13.848  -8.893   1.838  1.00  0.00     0.074 A 
ATOM     55  C   UNL     1      14.178  -8.431   3.172  1.00  0.00     0.031 C 
ATOM     56  C   UNL     1      14.289 -10.061   1.306  1.00  0.00     0.034 A 
BRANCH  43  57
ATOM     57  C   UNL     1      12.143 -11.204  -4.382  1.00  0.00     0.023 A 
ATOM     58  C   UNL     1      12.797 -10.875  -5.588  1.00  0.00     0.012 A 
ATOM     59  C   UNL     1      11.476 -12.440  -4.276  1.00  0.00     0.148 A 
ATOM     60  C   UNL     1      12.757 -11.741  -6.680  1.00  0.00     0.002 A 
ATOM     61  C   UNL     1      11.482 -13.320  -5.352  1.00  0.00     0.091 A 
ATOM     62  F   UNL     1      10.841 -12.727  -3.130  1.00  0.00    -0.205 F 
ATOM     63  C   UNL     1      12.110 -12.967  -6.558  1.00  0.00     0.022 A 
BRANCH  61  64
ATOM     64  S   UNL     1      10.749 -14.958  -5.271  1.00  0.00     0.127 S 
ATOM     65  O   UNL     1       9.614 -14.818  -6.181  1.00  0.00    -0.237 OA
ATOM     66  O   UNL     1      11.833 -15.803  -5.773  1.00  0.00    -0.237 OA
ATOM     67  O   UNL     1      10.404 -15.176  -3.873  1.00  0.00    -0.744 OA
ENDBRANCH  61  64
ENDBRANCH  43  57
BRANCH  44  68
ATOM     68  C   UNL     1      12.033  -4.795   3.294  1.00  0.00     0.023 A 
ATOM     69  C   UNL     1      13.207  -4.140   3.715  1.00  0.00     0.012 A 
ATOM     70  C   UNL     1      10.822  -4.532   3.963  1.00  0.00     0.148 A 
ATOM     71  C   UNL     1      13.183  -3.269   4.804  1.00  0.00     0.002 A 
ATOM     72  C   UNL     1      10.793  -3.617   5.008  1.00  0.00     0.091 A 
ATOM     73  F   UNL     1       9.718  -5.171   3.552  1.00  0.00    -0.205 F 
ATOM     74  C   UNL     1      11.976  -2.999   5.444  1.00  0.00     0.022 A 
BRANCH  72  75
ATOM     75  S   UNL     1       9.262  -3.104   5.794  1.00  0.00     0.127 S 
ATOM     76  O   UNL     1       9.389  -3.707   7.118  1.00  0.00    -0.237 OA
ATOM     77  O   UNL     1       9.382  -1.646   5.765  1.00  0.00    -0.237 OA
ATOM     78  O   UNL     1       8.194  -3.633   4.957  1.00  0.00    -0.744 OA
ENDBRANCH  72  75
ENDBRANCH  44  68
BRANCH  56  79
ATOM     79  C   UNL     1      15.191 -10.911   2.163  1.00  0.00     0.023 A 
ATOM     80  C   UNL     1      14.673 -11.558   3.303  1.00  0.00     0.012 A 
ATOM     81  C   UNL     1      16.545 -11.096   1.820  1.00  0.00     0.148 A 
ATOM     82  C   UNL     1      15.499 -12.333   4.116  1.00  0.00     0.002 A 
ATOM     83  C   UNL     1      17.348 -11.915   2.604  1.00  0.00     0.091 A 
ATOM     84  F   UNL     1      17.025 -10.460   0.742  1.00  0.00    -0.205 F 
ATOM     85  C   UNL     1      16.832 -12.519   3.761  1.00  0.00     0.022 A 
BRANCH  83  86
ATOM     86  S   UNL     1      19.050 -12.291   2.170  1.00  0.00     0.127 S 
ATOM     87  O   UNL     1      19.789 -11.502   3.154  1.00  0.00    -0.237 OA
ATOM     88  O   UNL     1      19.111 -13.738   2.378  1.00  0.00    -0.237 OA
ATOM     89  O   UNL     1      19.211 -11.874   0.784  1.00  0.00    -0.744 OA
ENDBRANCH  83  86
ENDBRANCH  56  79
ENDBRANCH  30  31
ENDBRANCH  22  25
ENDBRANCH  20  21
ENDBRANCH   1  20
TORSDOF 17
