REMARK SMILES Cc1c[nH]c(C[N@@H+](C)[C@@H](C(=O)NCCCNC(=O)c2ccc(-c3c4nc(c(-c5cccc(S(=O)(=O)[O-])c5F)c5ccc([nH]5)c(-c5cccc(S(=O)(=O)[O-])c5F)c5nc(c(-c6cccc(S(=O)(=O)[O-])c6F)c6ccc3[nH]6)C=C5)C=C4)cc2)c2ccc(NC(=O)N3CCCC3)cc2)n1
REMARK SMILES IDX 14 1 13 2 12 3 10 4 11 5 9 7 7 8 8 9 6 11 5 12 1 13 2 14
REMARK SMILES IDX 3 15 96 16 4 17 82 19 83 20 95 21 84 22 94 23 85 24 86 25
REMARK SMILES IDX 87 26 88 28 89 29 90 30 93 31 91 32 92 33 15 34 16 35 17 36
REMARK SMILES IDX 18 38 19 39 20 40 81 41 21 42 80 43 22 44 23 45 24 46 74 47
REMARK SMILES IDX 25 48 79 49 73 50 75 51 26 52 78 53 72 54 71 55 27 57 59 58
REMARK SMILES IDX 39 59 58 60 40 61 43 62 57 63 76 64 41 65 42 66 56 68 77 69
REMARK SMILES IDX 44 70 28 71 29 72 37 73 30 74 32 75 38 76 31 77 33 78 34 79
REMARK SMILES IDX 35 80 36 81 60 82 61 83 69 84 62 85 64 86 70 87 63 88 65 89
REMARK SMILES IDX 66 90 67 91 68 92 45 93 46 94 54 95 47 96 49 97 55 98 48 99
REMARK SMILES IDX 50 100 51 101 52 102 53 103
REMARK H PARENT 12 6 7 10 4 18 86 27 16 37 75 56 43 67
REMARK Flexibility Score: inf
ROOT
ATOM      1  C   UNL     1      -6.042   3.644   1.645  1.00  0.00     0.042 C 
ENDROOT
BRANCH   1   2
ATOM      2  C   UNL     1      -5.282   3.060   2.834  1.00  0.00     0.118 C 
BRANCH   2   3
ATOM      3  N   UNL     1      -4.955   1.667   2.595  1.00  0.00    -0.351 N 
ATOM      4  C   UNL     1      -3.788   1.107   2.155  1.00  0.00     0.283 C 
ATOM      5  O   UNL     1      -3.882  -0.032   1.679  1.00  0.00    -0.268 OA
ATOM      6  H   UNL     1      -5.683   1.029   2.776  1.00  0.00     0.163 HD
BRANCH   4   7
ATOM      7  C   UNL     1      -2.425   1.859   2.305  1.00  0.00     0.305 C 
BRANCH   7   8
ATOM      8  N   UNL     1      -2.021   2.524   1.037  1.00  0.00    -0.317 N 
ATOM      9  C   UNL     1      -2.492   3.884   0.863  1.00  0.00     0.334 C 
ATOM     10  H   UNL     1      -1.017   2.579   1.208  1.00  0.00     0.349 HD
BRANCH   8  11
ATOM     11  C   UNL     1      -2.129   1.746  -0.210  1.00  0.00     0.339 C 
BRANCH  11  12
ATOM     12  C   UNL     1      -0.977   0.815  -0.431  1.00  0.00     0.161 A 
ATOM     13  C   UNL     1       2.454  -0.079  -0.647  1.00  0.00     0.068 C 
ATOM     14  C   UNL     1       0.977  -0.055  -0.668  1.00  0.00     0.056 A 
ATOM     15  C   UNL     1       0.085  -1.094  -0.804  1.00  0.00     0.107 A 
ATOM     16  N   UNL     1       0.304   1.128  -0.499  1.00  0.00    -0.233 NA
ATOM     17  N   UNL     1      -1.151  -0.533  -0.623  1.00  0.00    -0.344 N 
ATOM     18  H   UNL     1      -2.011  -1.012  -0.629  1.00  0.00     0.167 HD
ENDBRANCH  11  12
ENDBRANCH   8  11
ENDBRANCH   7   8
BRANCH   7  19
ATOM     19  C   UNL     1      -1.308   0.943   2.845  1.00  0.00     0.019 A 
ATOM     20  C   UNL     1      -1.575  -0.255   3.519  1.00  0.00     0.012 A 
ATOM     21  C   UNL     1       0.041   1.277   2.642  1.00  0.00     0.012 A 
ATOM     22  C   UNL     1      -0.563  -1.197   3.711  1.00  0.00     0.027 A 
ATOM     23  C   UNL     1       1.046   0.321   2.809  1.00  0.00     0.027 A 
ATOM     24  C   UNL     1       0.712  -0.970   3.203  1.00  0.00     0.042 A 
BRANCH  24  25
ATOM     25  N   UNL     1       1.668  -1.986   3.030  1.00  0.00    -0.308 N 
ATOM     26  C   UNL     1       1.543  -3.343   3.054  1.00  0.00     0.321 C 
ATOM     27  H   UNL     1       2.583  -1.663   2.863  1.00  0.00     0.171 HD
ATOM     28  O   UNL     1       2.540  -4.022   3.315  1.00  0.00    -0.248 OA
ATOM     29  N   UNL     1       0.337  -3.926   2.790  1.00  0.00    -0.325 N 
ATOM     30  C   UNL     1      -0.602  -3.579   1.737  1.00  0.00     0.121 C 
ATOM     31  C   UNL     1       0.005  -5.229   3.315  1.00  0.00     0.121 C 
ATOM     32  C   UNL     1      -1.909  -4.164   2.238  1.00  0.00     0.023 C 
ATOM     33  C   UNL     1      -1.482  -5.416   3.009  1.00  0.00     0.023 C 
ENDBRANCH  24  25
ENDBRANCH   7  19
ENDBRANCH   4   7
ENDBRANCH   2   3
ENDBRANCH   1   2
BRANCH   1  34
ATOM     34  C   UNL     1      -7.428   3.048   1.437  1.00  0.00     0.118 C 
BRANCH  34  35
ATOM     35  N   UNL     1      -8.382   3.491   2.441  1.00  0.00    -0.352 N 
ATOM     36  C   UNL     1      -9.492   4.286   2.297  1.00  0.00     0.251 C 
ATOM     37  H   UNL     1      -8.207   3.175   3.356  1.00  0.00     0.163 HD
ATOM     38  O   UNL     1     -10.059   4.717   3.304  1.00  0.00    -0.269 OA
BRANCH  36  39
ATOM     39  C   UNL     1      -9.997   4.646   0.953  1.00  0.00     0.039 A 
ATOM     40  C   UNL     1     -10.411   5.959   0.714  1.00  0.00     0.014 A 
ATOM     41  C   UNL     1     -10.081   3.695  -0.068  1.00  0.00     0.014 A 
ATOM     42  C   UNL     1     -10.846   6.331  -0.561  1.00  0.00     0.010 A 
ATOM     43  C   UNL     1     -10.431   4.087  -1.358  1.00  0.00     0.010 A 
ATOM     44  C   UNL     1     -10.826   5.407  -1.619  1.00  0.00    -0.014 A 
BRANCH  44  45
ATOM     45  C   UNL     1     -11.208   5.799  -3.001  1.00  0.00     0.031 A 
ATOM     46  C   UNL     1     -12.374   5.134  -3.684  1.00  0.00     0.074 A 
ATOM     47  C   UNL     1     -10.451   6.687  -3.678  1.00  0.00     0.049 A 
ATOM     48  N   UNL     1     -12.807   5.282  -4.910  1.00  0.00    -0.248 NA
ATOM     49  C   UNL     1     -13.140   4.155  -2.895  1.00  0.00     0.031 C 
ATOM     50  C   UNL     1      -9.255   7.350  -3.155  1.00  0.00     0.029 A 
ATOM     51  N   UNL     1     -10.558   7.162  -4.962  1.00  0.00    -0.354 N 
ATOM     52  C   UNL     1     -13.864   4.391  -5.051  1.00  0.00     0.074 A 
ATOM     53  C   UNL     1     -13.989   3.683  -3.796  1.00  0.00     0.031 C 
ATOM     54  C   UNL     1      -8.740   8.145  -4.106  1.00  0.00     0.029 A 
ATOM     55  C   UNL     1      -9.543   8.021  -5.318  1.00  0.00     0.049 A 
ATOM     56  H   UNL     1     -11.290   6.911  -5.570  1.00  0.00     0.167 HD
ATOM     57  C   UNL     1     -14.677   4.199  -6.118  1.00  0.00     0.034 A 
ATOM     58  C   UNL     1      -9.278   8.627  -6.493  1.00  0.00     0.034 A 
ATOM     59  C   UNL     1     -14.577   4.934  -7.350  1.00  0.00     0.049 A 
ATOM     60  C   UNL     1     -10.207   8.410  -7.656  1.00  0.00     0.074 A 
ATOM     61  C   UNL     1     -15.409   4.876  -8.454  1.00  0.00     0.029 A 
ATOM     62  N   UNL     1     -13.581   5.850  -7.647  1.00  0.00    -0.354 N 
ATOM     63  N   UNL     1     -11.294   7.680  -7.718  1.00  0.00    -0.248 NA
ATOM     64  C   UNL     1      -9.891   9.123  -8.903  1.00  0.00     0.031 C 
ATOM     65  C   UNL     1     -14.896   5.734  -9.432  1.00  0.00     0.029 A 
ATOM     66  C   UNL     1     -13.765   6.353  -8.923  1.00  0.00     0.049 A 
ATOM     67  H   UNL     1     -12.849   6.106  -7.039  1.00  0.00     0.167 HD
ATOM     68  C   UNL     1     -11.811   7.873  -8.995  1.00  0.00     0.074 A 
ATOM     69  C   UNL     1     -10.928   8.804  -9.666  1.00  0.00     0.031 C 
ATOM     70  C   UNL     1     -12.909   7.317  -9.563  1.00  0.00     0.034 A 
BRANCH  57  71
ATOM     71  C   UNL     1     -15.780   3.180  -5.986  1.00  0.00     0.023 A 
ATOM     72  C   UNL     1     -16.882   3.449  -5.148  1.00  0.00     0.012 A 
ATOM     73  C   UNL     1     -15.758   1.987  -6.735  1.00  0.00     0.148 A 
ATOM     74  C   UNL     1     -17.926   2.533  -5.030  1.00  0.00     0.002 A 
ATOM     75  C   UNL     1     -16.825   1.101  -6.648  1.00  0.00     0.091 A 
ATOM     76  F   UNL     1     -14.694   1.739  -7.512  1.00  0.00    -0.205 F 
ATOM     77  C   UNL     1     -17.903   1.366  -5.787  1.00  0.00     0.022 A 
BRANCH  75  78
ATOM     78  S   UNL     1     -16.930  -0.393  -7.641  1.00  0.00     0.127 S 
ATOM     79  O   UNL     1     -16.743  -1.432  -6.630  1.00  0.00    -0.237 OA
ATOM     80  O   UNL     1     -18.286  -0.306  -8.184  1.00  0.00    -0.237 OA
ATOM     81  O   UNL     1     -15.869  -0.291  -8.634  1.00  0.00    -0.744 OA
ENDBRANCH  75  78
ENDBRANCH  57  71
BRANCH  58  82
ATOM     82  C   UNL     1      -8.103   9.537  -6.613  1.00  0.00     0.023 A 
ATOM     83  C   UNL     1      -8.311  10.921  -6.764  1.00  0.00     0.012 A 
ATOM     84  C   UNL     1      -6.786   9.043  -6.553  1.00  0.00     0.148 A 
ATOM     85  C   UNL     1      -7.230  11.794  -6.887  1.00  0.00     0.002 A 
ATOM     86  C   UNL     1      -5.713   9.924  -6.617  1.00  0.00     0.091 A 
ATOM     87  F   UNL     1      -6.609   7.721  -6.420  1.00  0.00    -0.205 F 
ATOM     88  C   UNL     1      -5.932  11.298  -6.803  1.00  0.00     0.022 A 
BRANCH  86  89
ATOM     89  S   UNL     1      -4.014   9.391  -6.382  1.00  0.00     0.127 S 
ATOM     90  O   UNL     1      -3.459   9.561  -7.722  1.00  0.00    -0.237 OA
ATOM     91  O   UNL     1      -3.533  10.351  -5.387  1.00  0.00    -0.237 OA
ATOM     92  O   UNL     1      -4.097   8.019  -5.899  1.00  0.00    -0.744 OA
ENDBRANCH  86  89
ENDBRANCH  58  82
BRANCH  70  93
ATOM     93  C   UNL     1     -13.251   7.723 -10.974  1.00  0.00     0.023 A 
ATOM     94  C   UNL     1     -12.469   7.256 -12.048  1.00  0.00     0.012 A 
ATOM     95  C   UNL     1     -14.399   8.496 -11.238  1.00  0.00     0.148 A 
ATOM     96  C   UNL     1     -12.808   7.575 -13.362  1.00  0.00     0.002 A 
ATOM     97  C   UNL     1     -14.760   8.767 -12.552  1.00  0.00     0.091 A 
ATOM     98  F   UNL     1     -15.120   8.944 -10.200  1.00  0.00    -0.205 F 
ATOM     99  C   UNL     1     -13.960   8.318 -13.614  1.00  0.00     0.022 A 
BRANCH  97 100
ATOM    100  S   UNL     1     -16.276   9.631 -12.979  1.00  0.00     0.127 S 
ATOM    101  O   UNL     1     -15.761  10.894 -13.504  1.00  0.00    -0.237 OA
ATOM    102  O   UNL     1     -16.863   8.745 -13.985  1.00  0.00    -0.237 OA
ATOM    103  O   UNL     1     -17.042   9.737 -11.744  1.00  0.00    -0.744 OA
ENDBRANCH  97 100
ENDBRANCH  70  93
ENDBRANCH  44  45
ENDBRANCH  36  39
ENDBRANCH  34  35
ENDBRANCH   1  34
TORSDOF 18
