REMARK SMILES COc1ccc(/C=C2/C(=O)N(c3ccccc3)C(=O)[NH+]=C2NCCCNC(=O)c2ccc(-c3c4nc(c(-c5cccc(S(=O)(=O)[O-])c5F)c5ccc([nH]5)c(-c5cccc(S(=O)(=O)[O-])c5F)c5nc(c(-c6cccc(S(=O)(=O)[O-])c6F)c6ccc3[nH]6)C=C5)C=C4)cc2)cc1C(=O)[O-]
REMARK SMILES IDX 25 1 24 2 23 3 22 4 7 5 8 6 9 7 21 8 10 9 11 10 20 11 18 12
REMARK SMILES IDX 19 15 6 16 3 17 4 18 93 19 5 20 92 21 2 22 1 23 94 24 95 25
REMARK SMILES IDX 96 26 12 27 13 28 17 29 14 30 16 31 15 32 26 33 27 34 28 36
REMARK SMILES IDX 29 37 30 38 91 39 31 40 90 41 32 42 33 43 34 44 84 45 35 46
REMARK SMILES IDX 89 47 83 48 85 49 36 50 88 51 82 52 81 53 37 55 69 56 49 57
REMARK SMILES IDX 68 58 50 59 53 60 67 61 86 62 51 63 52 64 66 66 87 67 54 68
REMARK SMILES IDX 38 69 39 70 47 71 40 72 42 73 48 74 41 75 43 76 44 77 45 78
REMARK SMILES IDX 46 79 70 80 71 81 79 82 72 83 74 84 80 85 73 86 75 87 76 88
REMARK SMILES IDX 77 89 78 90 55 91 56 92 64 93 57 94 59 95 65 96 58 97 60 98
REMARK SMILES IDX 61 99 62 100 63 101
REMARK H PARENT 20 13 22 14 26 35 85 54 53 65
REMARK Flexibility Score: inf
ROOT
ATOM      1  C   UNL     1      -1.283  -1.645   2.487  1.00  0.00     0.119 C 
ENDROOT
BRANCH   1   2
ATOM      2  C   UNL     1       0.388  -2.057   2.862  1.00  0.00     0.059 C 
BRANCH   2   3
ATOM      3  C   UNL     1       1.716  -1.787   4.582  1.00  0.00     0.195 C 
BRANCH   3   4
ATOM      4  N   UNL     1       1.427  -2.003   6.160  1.00  0.00    -0.305 N 
ATOM      5  C   UNL     1       1.232  -4.808   4.999  1.00  0.00     0.030 C 
ATOM      6  C   UNL     1       1.452  -4.540   6.296  1.00  0.00     0.129 C 
ATOM      7  C   UNL     1       1.820  -5.581   7.277  1.00  0.00     0.328 C 
ATOM      8  C   UNL     1       1.240  -3.179   6.859  1.00  0.00     0.236 C 
ATOM      9  O   UNL     1       2.481  -6.562   6.949  1.00  0.00    -0.249 OA
ATOM     10  N   UNL     1       1.316  -5.308   8.538  1.00  0.00    -0.155 N 
ATOM     11  N   UNL     1       0.776  -3.063   8.070  1.00  0.00    -0.209 N 
ATOM     12  C   UNL     1       0.487  -4.213   8.770  1.00  0.00     0.448 C 
ATOM     13  H   UNL     1       0.636  -2.176   8.475  1.00  0.00     0.270 HD
ATOM     14  H   UNL     1       1.379  -1.180   6.698  1.00  0.00     0.256 HD
ATOM     15  O   UNL     1      -0.455  -4.244   9.559  1.00  0.00    -0.212 OA
BRANCH   5  16
ATOM     16  C   UNL     1       0.909  -3.667   4.145  1.00  0.00    -0.024 A 
ATOM     17  C   UNL     1       1.288  -0.197   3.211  1.00  0.00     0.127 A 
ATOM     18  C   UNL     1      -0.010  -0.680   4.370  1.00  0.00     0.048 A 
ATOM     19  C   UNL     1       2.433  -1.433   2.590  1.00  0.00     0.040 A 
ATOM     20  C   UNL     1      -0.283  -2.438   4.750  1.00  0.00     0.012 A 
ATOM     21  C   UNL     1       2.218  -3.162   3.010  1.00  0.00     0.022 A 
BRANCH  17  22
ATOM     22  O   UNL     1       1.367   1.122   2.882  1.00  0.00    -0.496 OA
ATOM     23  C   UNL     1       1.297   1.294   1.464  1.00  0.00     0.278 C 
ENDBRANCH  17  22
BRANCH  19  24
ATOM     24  C   UNL     1       3.592  -1.084   1.780  1.00  0.00     0.075 C 
ATOM     25  O   UNL     1       4.735  -1.002   2.178  1.00  0.00    -0.545 OA
ATOM     26  O   UNL     1       3.233  -0.991   0.493  1.00  0.00    -0.545 OA
ENDBRANCH  19  24
ENDBRANCH   5  16
BRANCH  10  27
ATOM     27  C   UNL     1       1.497  -6.254   9.569  1.00  0.00     0.111 A 
ATOM     28  C   UNL     1       0.498  -7.174   9.895  1.00  0.00     0.044 A 
ATOM     29  C   UNL     1       2.693  -6.223  10.295  1.00  0.00     0.044 A 
ATOM     30  C   UNL     1       0.705  -8.072  10.943  1.00  0.00     0.004 A 
ATOM     31  C   UNL     1       2.887  -7.109  11.353  1.00  0.00     0.004 A 
ATOM     32  C   UNL     1       1.895  -8.036  11.673  1.00  0.00     0.000 A 
ENDBRANCH  10  27
ENDBRANCH   3   4
ENDBRANCH   2   3
ENDBRANCH   1   2
BRANCH   1  33
ATOM     33  N   UNL     1      -1.715  -0.236   2.466  1.00  0.00    -0.352 N 
ATOM     34  C   UNL     1      -2.160   0.569   1.460  1.00  0.00     0.251 C 
ATOM     35  H   UNL     1      -1.675   0.207   3.344  1.00  0.00     0.163 HD
ATOM     36  O   UNL     1      -2.252   1.781   1.619  1.00  0.00    -0.269 OA
BRANCH  34  37
ATOM     37  C   UNL     1      -2.578  -0.047   0.206  1.00  0.00     0.039 A 
ATOM     38  C   UNL     1      -2.139   0.485  -1.008  1.00  0.00     0.014 A 
ATOM     39  C   UNL     1      -3.443  -1.140   0.268  1.00  0.00     0.014 A 
ATOM     40  C   UNL     1      -2.537  -0.127  -2.189  1.00  0.00     0.010 A 
ATOM     41  C   UNL     1      -3.790  -1.781  -0.900  1.00  0.00     0.010 A 
ATOM     42  C   UNL     1      -3.351  -1.266  -2.129  1.00  0.00    -0.014 A 
BRANCH  42  43
ATOM     43  C   UNL     1      -3.838  -1.951  -3.334  1.00  0.00     0.031 A 
ATOM     44  C   UNL     1      -5.304  -1.884  -3.630  1.00  0.00     0.074 A 
ATOM     45  C   UNL     1      -2.999  -2.773  -3.987  1.00  0.00     0.049 A 
ATOM     46  N   UNL     1      -6.011  -2.604  -4.453  1.00  0.00    -0.248 NA
ATOM     47  C   UNL     1      -6.089  -0.913  -2.843  1.00  0.00     0.031 C 
ATOM     48  C   UNL     1      -1.576  -2.943  -3.684  1.00  0.00     0.029 A 
ATOM     49  N   UNL     1      -3.239  -3.667  -4.993  1.00  0.00    -0.354 N 
ATOM     50  C   UNL     1      -7.329  -2.217  -4.245  1.00  0.00     0.074 A 
ATOM     51  C   UNL     1      -7.327  -1.216  -3.203  1.00  0.00     0.031 C 
ATOM     52  C   UNL     1      -1.075  -3.911  -4.468  1.00  0.00     0.029 A 
ATOM     53  C   UNL     1      -2.146  -4.442  -5.303  1.00  0.00     0.049 A 
ATOM     54  H   UNL     1      -4.106  -3.747  -5.451  1.00  0.00     0.167 HD
ATOM     55  C   UNL     1      -8.435  -2.654  -4.888  1.00  0.00     0.034 A 
ATOM     56  C   UNL     1      -2.042  -5.478  -6.155  1.00  0.00     0.034 A 
ATOM     57  C   UNL     1      -8.384  -3.616  -5.952  1.00  0.00     0.049 A 
ATOM     58  C   UNL     1      -3.270  -5.875  -6.929  1.00  0.00     0.074 A 
ATOM     59  C   UNL     1      -9.412  -4.077  -6.751  1.00  0.00     0.029 A 
ATOM     60  N   UNL     1      -7.226  -4.260  -6.366  1.00  0.00    -0.354 N 
ATOM     61  N   UNL     1      -4.491  -5.402  -6.830  1.00  0.00    -0.248 NA
ATOM     62  C   UNL     1      -3.107  -6.912  -7.955  1.00  0.00     0.031 C 
ATOM     63  C   UNL     1      -8.873  -5.002  -7.651  1.00  0.00     0.029 A 
ATOM     64  C   UNL     1      -7.508  -5.106  -7.420  1.00  0.00     0.049 A 
ATOM     65  H   UNL     1      -6.335  -4.133  -5.967  1.00  0.00     0.167 HD
ATOM     66  C   UNL     1      -5.231  -6.047  -7.811  1.00  0.00     0.074 A 
ATOM     67  C   UNL     1      -4.318  -6.943  -8.496  1.00  0.00     0.031 C 
ATOM     68  C   UNL     1      -6.546  -5.923  -8.116  1.00  0.00     0.034 A 
BRANCH  55  69
ATOM     69  C   UNL     1      -9.757  -2.051  -4.496  1.00  0.00     0.023 A 
ATOM     70  C   UNL     1     -10.027  -0.704  -4.816  1.00  0.00     0.012 A 
ATOM     71  C   UNL     1     -10.741  -2.811  -3.835  1.00  0.00     0.148 A 
ATOM     72  C   UNL     1     -11.234  -0.111  -4.450  1.00  0.00     0.002 A 
ATOM     73  C   UNL     1     -11.961  -2.226  -3.511  1.00  0.00     0.091 A 
ATOM     74  F   UNL     1     -10.460  -4.082  -3.514  1.00  0.00    -0.205 F 
ATOM     75  C   UNL     1     -12.204  -0.874  -3.806  1.00  0.00     0.022 A 
BRANCH  73  76
ATOM     76  S   UNL     1     -13.303  -3.142  -2.746  1.00  0.00     0.127 S 
ATOM     77  O   UNL     1     -13.300  -2.593  -1.391  1.00  0.00    -0.237 OA
ATOM     78  O   UNL     1     -14.452  -2.745  -3.562  1.00  0.00    -0.237 OA
ATOM     79  O   UNL     1     -12.941  -4.548  -2.853  1.00  0.00    -0.744 OA
ENDBRANCH  73  76
ENDBRANCH  55  69
BRANCH  56  80
ATOM     80  C   UNL     1      -0.719  -6.122  -6.381  1.00  0.00     0.023 A 
ATOM     81  C   UNL     1      -0.039  -5.871  -7.589  1.00  0.00     0.012 A 
ATOM     82  C   UNL     1      -0.094  -6.909  -5.394  1.00  0.00     0.148 A 
ATOM     83  C   UNL     1       1.224  -6.415  -7.823  1.00  0.00     0.002 A 
ATOM     84  C   UNL     1       1.187  -7.407  -5.613  1.00  0.00     0.091 A 
ATOM     85  F   UNL     1      -0.755  -7.139  -4.251  1.00  0.00    -0.205 F 
ATOM     86  C   UNL     1       1.841  -7.174  -6.833  1.00  0.00     0.022 A 
BRANCH  84  87
ATOM     87  S   UNL     1       2.112  -8.274  -4.339  1.00  0.00     0.127 S 
ATOM     88  O   UNL     1       2.035  -9.657  -4.802  1.00  0.00    -0.237 OA
ATOM     89  O   UNL     1       3.436  -7.659  -4.449  1.00  0.00    -0.237 OA
ATOM     90  O   UNL     1       1.422  -7.979  -3.090  1.00  0.00    -0.744 OA
ENDBRANCH  84  87
ENDBRANCH  56  80
BRANCH  68  91
ATOM     91  C   UNL     1      -7.070  -6.726  -9.272  1.00  0.00     0.023 A 
ATOM     92  C   UNL     1      -7.342  -8.096  -9.102  1.00  0.00     0.012 A 
ATOM     93  C   UNL     1      -7.416  -6.086 -10.477  1.00  0.00     0.148 A 
ATOM     94  C   UNL     1      -7.946  -8.823 -10.126  1.00  0.00     0.002 A 
ATOM     95  C   UNL     1      -8.058  -6.806 -11.474  1.00  0.00     0.091 A 
ATOM     96  F   UNL     1      -7.127  -4.784 -10.615  1.00  0.00    -0.205 F 
ATOM     97  C   UNL     1      -8.317  -8.176 -11.303  1.00  0.00     0.022 A 
BRANCH  95  98
ATOM     98  S   UNL     1      -8.664  -6.034 -12.977  1.00  0.00     0.127 S 
ATOM     99  O   UNL     1      -7.746  -6.573 -13.979  1.00  0.00    -0.237 OA
ATOM    100  O   UNL     1     -10.031  -6.550 -13.061  1.00  0.00    -0.237 OA
ATOM    101  O   UNL     1      -8.573  -4.597 -12.758  1.00  0.00    -0.744 OA
ENDBRANCH  95  98
ENDBRANCH  68  91
ENDBRANCH  42  43
ENDBRANCH  34  37
ENDBRANCH   1  33
TORSDOF 16
