REMARK SMILES C[C@@H]1[C@H](C)CCC[C@H]1NC(=O)C[N@@H+]1CCC[C@@H]1C(=O)NCCCNC(=O)c1ccc(-c2c3nc(c(-c4cccc(S(=O)(=O)[O-])c4F)c4ccc([nH]4)c(-c4cccc(S(=O)(=O)[O-])c4F)c4nc(c(-c5cccc(S(=O)(=O)[O-])c5F)c5ccc2[nH]5)C=C4)C=C3)cc1
REMARK SMILES IDX 22 1 21 2 20 3 18 4 19 5 17 7 13 8 14 9 15 11 16 12 12 13
REMARK SMILES IDX 10 14 9 15 11 17 8 18 1 19 2 20 3 21 4 22 5 23 7 24 6 25
REMARK SMILES IDX 23 26 24 27 25 28 26 30 27 31 28 32 89 33 29 34 88 35 30 36
REMARK SMILES IDX 31 37 32 38 82 39 33 40 87 41 81 42 83 43 34 44 86 45 80 46
REMARK SMILES IDX 79 47 35 49 67 50 47 51 66 52 48 53 51 54 65 55 84 56 49 57
REMARK SMILES IDX 50 58 64 60 85 61 52 62 36 63 37 64 45 65 38 66 40 67 46 68
REMARK SMILES IDX 39 69 41 70 42 71 43 72 44 73 68 74 69 75 77 76 70 77 72 78
REMARK SMILES IDX 78 79 71 80 73 81 74 82 75 83 76 84 53 85 54 86 62 87 55 88
REMARK SMILES IDX 57 89 63 90 56 91 58 92 59 93 60 94 61 95
REMARK H PARENT 20 6 13 10 9 16 24 29 83 48 51 59
REMARK Flexibility Score: inf
ROOT
ATOM      1  C   UNL     1      -3.552   1.521  -5.742  1.00  0.00     0.042 C 
ENDROOT
BRANCH   1   2
ATOM      2  C   UNL     1      -3.840   1.812  -4.290  1.00  0.00     0.118 C 
BRANCH   2   3
ATOM      3  N   UNL     1      -5.117   1.384  -3.788  1.00  0.00    -0.351 N 
ATOM      4  C   UNL     1      -5.331   0.858  -2.546  1.00  0.00     0.278 C 
ATOM      5  O   UNL     1      -6.448   1.020  -2.043  1.00  0.00    -0.268 OA
ATOM      6  H   UNL     1      -5.895   1.477  -4.384  1.00  0.00     0.163 HD
BRANCH   4   7
ATOM      7  C   UNL     1      -4.265   0.014  -1.844  1.00  0.00     0.274 C 
ATOM      8  N   UNL     1      -3.270   0.633  -0.937  1.00  0.00    -0.317 N 
ATOM      9  C   UNL     1      -2.235  -0.373  -0.785  1.00  0.00     0.263 C 
ATOM     10  H   UNL     1      -3.805   0.886  -0.107  1.00  0.00     0.349 HD
ATOM     11  C   UNL     1      -2.083  -0.948  -2.183  1.00  0.00     0.068 C 
ATOM     12  C   UNL     1      -3.515  -1.022  -2.691  1.00  0.00     0.081 C 
BRANCH   8  13
ATOM     13  C   UNL     1      -2.863   2.045  -0.918  1.00  0.00     0.364 C 
BRANCH  13  14
ATOM     14  C   UNL     1      -1.853   2.586  -1.951  1.00  0.00     0.275 C 
ATOM     15  N   UNL     1      -0.542   2.226  -2.024  1.00  0.00    -0.348 N 
ATOM     16  H   UNL     1      -0.171   2.172  -2.934  1.00  0.00     0.163 HD
ATOM     17  O   UNL     1      -2.190   3.469  -2.749  1.00  0.00    -0.268 OA
BRANCH  15  18
ATOM     18  C   UNL     1       0.392   1.907  -0.948  1.00  0.00     0.085 C 
ATOM     19  C   UNL     1       1.640  -0.003   0.130  1.00  0.00     0.010 C 
ATOM     20  C   UNL     1       1.102   0.553  -1.196  1.00  0.00     0.011 C 
ATOM     21  C   UNL     1       2.163   0.635  -2.319  1.00  0.00    -0.009 C 
ATOM     22  C   UNL     1       2.870  -0.703  -2.547  1.00  0.00     0.008 C 
ATOM     23  C   UNL     1       3.173   1.757  -2.068  1.00  0.00     0.004 C 
ATOM     24  C   UNL     1       1.409   3.054  -0.781  1.00  0.00     0.025 C 
ATOM     25  C   UNL     1       2.470   3.099  -1.884  1.00  0.00     0.002 C 
ENDBRANCH  15  18
ENDBRANCH  13  14
ENDBRANCH   8  13
ENDBRANCH   4   7
ENDBRANCH   2   3
ENDBRANCH   1   2
BRANCH   1  26
ATOM     26  C   UNL     1      -4.236   2.481  -6.698  1.00  0.00     0.118 C 
BRANCH  26  27
ATOM     27  N   UNL     1      -3.849   3.881  -6.515  1.00  0.00    -0.352 N 
ATOM     28  C   UNL     1      -3.313   4.789  -7.401  1.00  0.00     0.251 C 
ATOM     29  H   UNL     1      -3.997   4.233  -5.607  1.00  0.00     0.163 HD
ATOM     30  O   UNL     1      -2.993   5.908  -7.025  1.00  0.00    -0.269 OA
BRANCH  28  31
ATOM     31  C   UNL     1      -3.078   4.386  -8.803  1.00  0.00     0.039 A 
ATOM     32  C   UNL     1      -1.852   4.696  -9.399  1.00  0.00     0.014 A 
ATOM     33  C   UNL     1      -4.032   3.645  -9.498  1.00  0.00     0.014 A 
ATOM     34  C   UNL     1      -1.539   4.156 -10.647  1.00  0.00     0.010 A 
ATOM     35  C   UNL     1      -3.673   3.014 -10.679  1.00  0.00     0.010 A 
ATOM     36  C   UNL     1      -2.421   3.257 -11.264  1.00  0.00    -0.014 A 
BRANCH  36  37
ATOM     37  C   UNL     1      -2.069   2.530 -12.510  1.00  0.00     0.031 A 
ATOM     38  C   UNL     1      -2.947   2.669 -13.723  1.00  0.00     0.074 A 
ATOM     39  C   UNL     1      -1.050   1.647 -12.502  1.00  0.00     0.049 A 
ATOM     40  N   UNL     1      -2.916   1.998 -14.844  1.00  0.00    -0.248 NA
ATOM     41  C   UNL     1      -4.032   3.663 -13.649  1.00  0.00     0.031 C 
ATOM     42  C   UNL     1      -0.179   1.362 -11.358  1.00  0.00     0.029 A 
ATOM     43  N   UNL     1      -0.597   0.795 -13.479  1.00  0.00    -0.354 N 
ATOM     44  C   UNL     1      -4.002   2.449 -15.583  1.00  0.00     0.074 A 
ATOM     45  C   UNL     1      -4.696   3.423 -14.770  1.00  0.00     0.031 C 
ATOM     46  C   UNL     1       0.704   0.410 -11.700  1.00  0.00     0.029 A 
ATOM     47  C   UNL     1       0.439  -0.014 -13.070  1.00  0.00     0.049 A 
ATOM     48  H   UNL     1      -0.978   0.765 -14.386  1.00  0.00     0.167 HD
ATOM     49  C   UNL     1      -4.370   2.111 -16.840  1.00  0.00     0.034 A 
ATOM     50  C   UNL     1       1.092  -0.996 -13.722  1.00  0.00     0.034 A 
ATOM     51  C   UNL     1      -3.632   1.200 -17.670  1.00  0.00     0.049 A 
ATOM     52  C   UNL     1       0.694  -1.315 -15.138  1.00  0.00     0.074 A 
ATOM     53  C   UNL     1      -3.854   0.873 -18.995  1.00  0.00     0.029 A 
ATOM     54  N   UNL     1      -2.526   0.475 -17.256  1.00  0.00    -0.354 N 
ATOM     55  N   UNL     1      -0.239  -0.764 -15.876  1.00  0.00    -0.248 NA
ATOM     56  C   UNL     1       1.454  -2.373 -15.820  1.00  0.00     0.031 C 
ATOM     57  C   UNL     1      -2.884  -0.058 -19.381  1.00  0.00     0.029 A 
ATOM     58  C   UNL     1      -2.056  -0.305 -18.297  1.00  0.00     0.049 A 
ATOM     59  H   UNL     1      -2.133   0.510 -16.354  1.00  0.00     0.167 HD
ATOM     60  C   UNL     1      -0.162  -1.388 -17.116  1.00  0.00     0.074 A 
ATOM     61  C   UNL     1       0.926  -2.341 -17.037  1.00  0.00     0.031 C 
ATOM     62  C   UNL     1      -0.935  -1.205 -18.214  1.00  0.00     0.034 A 
BRANCH  49  63
ATOM     63  C   UNL     1      -5.581   2.790 -17.420  1.00  0.00     0.023 A 
ATOM     64  C   UNL     1      -5.501   4.149 -17.785  1.00  0.00     0.012 A 
ATOM     65  C   UNL     1      -6.776   2.081 -17.648  1.00  0.00     0.148 A 
ATOM     66  C   UNL     1      -6.601   4.803 -18.337  1.00  0.00     0.002 A 
ATOM     67  C   UNL     1      -7.856   2.729 -18.239  1.00  0.00     0.091 A 
ATOM     68  F   UNL     1      -6.841   0.796 -17.272  1.00  0.00    -0.205 F 
ATOM     69  C   UNL     1      -7.773   4.091 -18.574  1.00  0.00     0.022 A 
BRANCH  67  70
ATOM     70  S   UNL     1      -9.385   1.883 -18.652  1.00  0.00     0.127 S 
ATOM     71  O   UNL     1     -10.303   2.430 -17.654  1.00  0.00    -0.237 OA
ATOM     72  O   UNL     1      -9.631   2.340 -20.020  1.00  0.00    -0.237 OA
ATOM     73  O   UNL     1      -9.102   0.460 -18.530  1.00  0.00    -0.744 OA
ENDBRANCH  67  70
ENDBRANCH  49  63
BRANCH  50  74
ATOM     74  C   UNL     1       2.234  -1.698 -13.069  1.00  0.00     0.023 A 
ATOM     75  C   UNL     1       3.541  -1.457 -13.535  1.00  0.00     0.012 A 
ATOM     76  C   UNL     1       2.045  -2.571 -11.980  1.00  0.00     0.148 A 
ATOM     77  C   UNL     1       4.636  -2.094 -12.950  1.00  0.00     0.002 A 
ATOM     78  C   UNL     1       3.145  -3.162 -11.367  1.00  0.00     0.091 A 
ATOM     79  F   UNL     1       0.793  -2.802 -11.559  1.00  0.00    -0.205 F 
ATOM     80  C   UNL     1       4.439  -2.937 -11.860  1.00  0.00     0.022 A 
BRANCH  78  81
ATOM     81  S   UNL     1       2.992  -4.154  -9.876  1.00  0.00     0.127 S 
ATOM     82  O   UNL     1       3.156  -5.507 -10.398  1.00  0.00    -0.237 OA
ATOM     83  O   UNL     1       4.109  -3.666  -9.065  1.00  0.00    -0.237 OA
ATOM     84  O   UNL     1       1.679  -3.834  -9.331  1.00  0.00    -0.744 OA
ENDBRANCH  78  81
ENDBRANCH  50  74
BRANCH  62  85
ATOM     85  C   UNL     1      -0.629  -2.037 -19.430  1.00  0.00     0.023 A 
ATOM     86  C   UNL     1      -1.004  -3.394 -19.450  1.00  0.00     0.012 A 
ATOM     87  C   UNL     1      -0.065  -1.453 -20.581  1.00  0.00     0.148 A 
ATOM     88  C   UNL     1      -0.802  -4.166 -20.593  1.00  0.00     0.002 A 
ATOM     89  C   UNL     1       0.093  -2.217 -21.730  1.00  0.00     0.091 A 
ATOM     90  F   UNL     1       0.298  -0.164 -20.531  1.00  0.00    -0.205 F 
ATOM     91  C   UNL     1      -0.266  -3.575 -21.735  1.00  0.00     0.022 A 
BRANCH  89  92
ATOM     92  S   UNL     1       0.688  -1.522 -23.276  1.00  0.00     0.127 S 
ATOM     93  O   UNL     1       2.019  -2.119 -23.378  1.00  0.00    -0.237 OA
ATOM     94  O   UNL     1      -0.286  -2.033 -24.241  1.00  0.00    -0.237 OA
ATOM     95  O   UNL     1       0.665  -0.076 -23.102  1.00  0.00    -0.744 OA
ENDBRANCH  89  92
ENDBRANCH  62  85
ENDBRANCH  36  37
ENDBRANCH  28  31
ENDBRANCH  26  27
ENDBRANCH   1  26
TORSDOF 16
