REMARK SMILES NS(=O)(=O)c1ccc(N2N=C(C(=O)NCCCNC(=O)c3ccc(-c4c5nc(c(-c6cccc(S(=O)(=O)[O-])c6F)c6ccc([nH]6)c(-c6cccc(S(=O)(=O)[O-])c6F)c6nc(c(-c7cccc(S(=O)(=O)[O-])c7F)c7ccc4[nH]7)C=C6)C=C5)cc3)C[C@H]2c2ccco2)cc1
REMARK SMILES IDX 16 1 15 2 14 3 12 4 13 5 11 7 9 8 10 9 85 10 84 11 8 12 5 13
REMARK SMILES IDX 6 14 92 15 7 16 91 17 2 18 3 19 4 20 1 21 86 24 87 25 90 26
REMARK SMILES IDX 88 27 89 28 17 29 18 30 19 31 20 33 21 34 22 35 83 36 23 37
REMARK SMILES IDX 82 38 24 39 25 40 26 41 76 42 27 43 81 44 75 45 77 46 28 47
REMARK SMILES IDX 80 48 74 49 73 50 29 52 61 53 41 54 60 55 42 56 45 57 59 58
REMARK SMILES IDX 78 59 43 60 44 61 58 63 79 64 46 65 30 66 31 67 39 68 32 69
REMARK SMILES IDX 34 70 40 71 33 72 35 73 36 74 37 75 38 76 62 77 63 78 71 79
REMARK SMILES IDX 64 80 66 81 72 82 65 83 67 84 68 85 69 86 70 87 47 88 48 89
REMARK SMILES IDX 56 90 49 91 51 92 57 93 50 94 52 95 53 96 54 97 55 98
REMARK H PARENT 14 6 1 22 1 23 18 32 77 51 45 62
REMARK Flexibility Score: inf
ROOT
ATOM      1  C   UNL     1       1.235  -9.496   7.890  1.00  0.00     0.042 C 
ENDROOT
BRANCH   1   2
ATOM      2  C   UNL     1       2.344  -8.455   7.933  1.00  0.00     0.118 C 
BRANCH   2   3
ATOM      3  N   UNL     1       3.039  -8.359   6.660  1.00  0.00    -0.351 N 
ATOM      4  C   UNL     1       3.078  -7.433   5.648  1.00  0.00     0.267 C 
ATOM      5  O   UNL     1       3.740  -7.711   4.650  1.00  0.00    -0.268 OA
ATOM      6  H   UNL     1       3.615  -9.137   6.483  1.00  0.00     0.163 HD
BRANCH   4   7
ATOM      7  C   UNL     1       2.403  -6.073   5.715  1.00  0.00     0.128 C 
ATOM      8  N   UNL     1       1.998  -4.029   5.230  1.00  0.00    -0.254 N 
ATOM      9  N   UNL     1       2.605  -5.173   4.800  1.00  0.00    -0.171 NA
ATOM     10  C   UNL     1       1.156  -4.230   6.421  1.00  0.00     0.180 C 
ATOM     11  C   UNL     1       1.515  -5.659   6.832  1.00  0.00     0.099 C 
BRANCH   8  12
ATOM     12  C   UNL     1       1.686  -3.027   4.312  1.00  0.00     0.060 A 
ATOM     13  C   UNL     1       0.976  -0.958   2.551  1.00  0.00     0.082 A 
ATOM     14  C   UNL     1       0.754  -2.288   2.183  1.00  0.00     0.024 A 
ATOM     15  C   UNL     1       1.575  -0.652   3.771  1.00  0.00     0.024 A 
ATOM     16  C   UNL     1       1.121  -3.315   3.061  1.00  0.00     0.029 A 
ATOM     17  C   UNL     1       1.931  -1.686   4.636  1.00  0.00     0.029 A 
BRANCH  13  18
ATOM     18  S   UNL     1       0.512   0.352   1.464  1.00  0.00     0.238 S 
ATOM     19  O   UNL     1       1.151   1.579   1.894  1.00  0.00    -0.207 OA
ATOM     20  O   UNL     1      -0.903   0.269   1.207  1.00  0.00    -0.207 OA
BRANCH  18  21
ATOM     21  N   UNL     1       1.283  -0.056   0.030  1.00  0.00    -0.225 NA
ATOM     22  H   UNL     1       1.077   0.649  -0.679  1.00  0.00     0.137 HD
ATOM     23  H   UNL     1       0.950  -0.966  -0.288  1.00  0.00     0.137 HD
ENDBRANCH  18  21
ENDBRANCH  13  18
ENDBRANCH   8  12
BRANCH  10  24
ATOM     24  C   UNL     1       1.311  -3.257   7.560  1.00  0.00     0.128 A 
ATOM     25  C   UNL     1       0.821  -1.984   7.786  1.00  0.00     0.048 A 
ATOM     26  O   UNL     1       2.046  -3.649   8.647  1.00  0.00    -0.467 OA
ATOM     27  C   UNL     1       1.304  -1.578   9.054  1.00  0.00     0.042 A 
ATOM     28  C   UNL     1       2.024  -2.637   9.546  1.00  0.00     0.195 A 
ENDBRANCH  10  24
ENDBRANCH   4   7
ENDBRANCH   2   3
ENDBRANCH   1   2
BRANCH   1  29
ATOM     29  C   UNL     1       1.765 -10.923   7.886  1.00  0.00     0.118 C 
BRANCH  29  30
ATOM     30  N   UNL     1       2.492 -11.240   9.112  1.00  0.00    -0.352 N 
ATOM     31  C   UNL     1       2.185 -12.120  10.120  1.00  0.00     0.251 C 
ATOM     32  H   UNL     1       3.334 -10.745   9.235  1.00  0.00     0.163 HD
ATOM     33  O   UNL     1       2.799 -12.059  11.182  1.00  0.00    -0.269 OA
BRANCH  31  34
ATOM     34  C   UNL     1       1.123 -13.128   9.930  1.00  0.00     0.039 A 
ATOM     35  C   UNL     1       0.264 -13.423  10.992  1.00  0.00     0.014 A 
ATOM     36  C   UNL     1       0.987 -13.798   8.713  1.00  0.00     0.014 A 
ATOM     37  C   UNL     1      -0.770 -14.344  10.808  1.00  0.00     0.010 A 
ATOM     38  C   UNL     1      -0.100 -14.636   8.501  1.00  0.00     0.010 A 
ATOM     39  C   UNL     1      -0.982 -14.931   9.550  1.00  0.00    -0.014 A 
BRANCH  39  40
ATOM     40  C   UNL     1      -2.112 -15.861   9.305  1.00  0.00     0.031 A 
ATOM     41  C   UNL     1      -1.842 -17.276   8.865  1.00  0.00     0.074 A 
ATOM     42  C   UNL     1      -3.378 -15.407   9.387  1.00  0.00     0.049 A 
ATOM     43  N   UNL     1      -2.691 -18.209   8.525  1.00  0.00    -0.248 NA
ATOM     44  C   UNL     1      -0.430 -17.686   8.764  1.00  0.00     0.031 C 
ATOM     45  C   UNL     1      -3.766 -14.037   9.730  1.00  0.00     0.029 A 
ATOM     46  N   UNL     1      -4.573 -16.042   9.161  1.00  0.00    -0.354 N 
ATOM     47  C   UNL     1      -1.922 -19.299   8.134  1.00  0.00     0.074 A 
ATOM     48  C   UNL     1      -0.536 -18.898   8.240  1.00  0.00     0.031 C 
ATOM     49  C   UNL     1      -5.104 -13.937   9.699  1.00  0.00     0.029 A 
ATOM     50  C   UNL     1      -5.669 -15.221   9.297  1.00  0.00     0.049 A 
ATOM     51  H   UNL     1      -4.641 -16.995   8.923  1.00  0.00     0.167 HD
ATOM     52  C   UNL     1      -2.328 -20.532   7.751  1.00  0.00     0.034 A 
ATOM     53  C   UNL     1      -6.979 -15.471   9.108  1.00  0.00     0.034 A 
ATOM     54  C   UNL     1      -3.706 -20.937   7.685  1.00  0.00     0.049 A 
ATOM     55  C   UNL     1      -7.405 -16.858   8.707  1.00  0.00     0.074 A 
ATOM     56  C   UNL     1      -4.222 -22.186   7.390  1.00  0.00     0.029 A 
ATOM     57  N   UNL     1      -4.788 -20.100   7.909  1.00  0.00    -0.354 N 
ATOM     58  N   UNL     1      -6.665 -17.917   8.486  1.00  0.00    -0.248 NA
ATOM     59  C   UNL     1      -8.849 -17.093   8.563  1.00  0.00     0.031 C 
ATOM     60  C   UNL     1      -5.617 -22.096   7.403  1.00  0.00     0.029 A 
ATOM     61  C   UNL     1      -5.970 -20.801   7.747  1.00  0.00     0.049 A 
ATOM     62  H   UNL     1      -4.724 -19.147   8.148  1.00  0.00     0.167 HD
ATOM     63  C   UNL     1      -7.553 -18.953   8.220  1.00  0.00     0.074 A 
ATOM     64  C   UNL     1      -8.886 -18.397   8.325  1.00  0.00     0.031 C 
ATOM     65  C   UNL     1      -7.289 -20.246   7.908  1.00  0.00     0.034 A 
BRANCH  52  66
ATOM     66  C   UNL     1      -1.267 -21.549   7.417  1.00  0.00     0.023 A 
ATOM     67  C   UNL     1      -0.453 -22.073   8.443  1.00  0.00     0.012 A 
ATOM     68  C   UNL     1      -1.109 -22.025   6.101  1.00  0.00     0.148 A 
ATOM     69  C   UNL     1       0.525 -23.024   8.159  1.00  0.00     0.002 A 
ATOM     70  C   UNL     1      -0.166 -23.011   5.834  1.00  0.00     0.091 A 
ATOM     71  F   UNL     1      -1.877 -21.502   5.135  1.00  0.00    -0.205 F 
ATOM     72  C   UNL     1       0.661 -23.501   6.858  1.00  0.00     0.022 A 
BRANCH  70  73
ATOM     73  S   UNL     1       0.031 -23.752   4.210  1.00  0.00     0.127 S 
ATOM     74  O   UNL     1       1.341 -23.240   3.810  1.00  0.00    -0.237 OA
ATOM     75  O   UNL     1       0.004 -25.181   4.520  1.00  0.00    -0.237 OA
ATOM     76  O   UNL     1      -1.092 -23.280   3.413  1.00  0.00    -0.744 OA
ENDBRANCH  70  73
ENDBRANCH  52  66
BRANCH  53  77
ATOM     77  C   UNL     1      -7.988 -14.401   9.351  1.00  0.00     0.023 A 
ATOM     78  C   UNL     1      -8.864 -14.512  10.448  1.00  0.00     0.012 A 
ATOM     79  C   UNL     1      -8.073 -13.270   8.516  1.00  0.00     0.148 A 
ATOM     80  C   UNL     1      -9.833 -13.537  10.686  1.00  0.00     0.002 A 
ATOM     81  C   UNL     1      -9.002 -12.274   8.793  1.00  0.00     0.091 A 
ATOM     82  F   UNL     1      -7.235 -13.186   7.473  1.00  0.00    -0.205 F 
ATOM     83  C   UNL     1      -9.896 -12.415   9.865  1.00  0.00     0.022 A 
BRANCH  81  84
ATOM     84  S   UNL     1      -9.066 -10.734   7.872  1.00  0.00     0.127 S 
ATOM     85  O   UNL     1     -10.332 -10.867   7.155  1.00  0.00    -0.237 OA
ATOM     86  O   UNL     1      -9.066  -9.740   8.946  1.00  0.00    -0.237 OA
ATOM     87  O   UNL     1      -7.868 -10.720   7.043  1.00  0.00    -0.744 OA
ENDBRANCH  81  84
ENDBRANCH  53  77
BRANCH  65  88
ATOM     88  C   UNL     1      -8.461 -21.171   7.706  1.00  0.00     0.023 A 
ATOM     89  C   UNL     1      -9.268 -21.051   6.557  1.00  0.00     0.012 A 
ATOM     90  C   UNL     1      -8.714 -22.209   8.624  1.00  0.00     0.148 A 
ATOM     91  C   UNL     1     -10.329 -21.929   6.343  1.00  0.00     0.002 A 
ATOM     92  C   UNL     1      -9.739 -23.114   8.377  1.00  0.00     0.091 A 
ATOM     93  F   UNL     1      -7.945 -22.295   9.720  1.00  0.00    -0.205 F 
ATOM     94  C   UNL     1     -10.557 -22.967   7.245  1.00  0.00     0.022 A 
BRANCH  92  95
ATOM     95  S   UNL     1     -10.041 -24.539   9.427  1.00  0.00     0.127 S 
ATOM     96  O   UNL     1     -11.304 -24.175  10.066  1.00  0.00    -0.237 OA
ATOM     97  O   UNL     1     -10.140 -25.625   8.452  1.00  0.00    -0.237 OA
ATOM     98  O   UNL     1      -8.894 -24.631  10.321  1.00  0.00    -0.744 OA
ENDBRANCH  92  95
ENDBRANCH  65  88
ENDBRANCH  39  40
ENDBRANCH  31  34
ENDBRANCH  29  30
ENDBRANCH   1  29
TORSDOF 17
