REMARK SMILES O=C(CC1(CC(=O)NNC(=O)C2CC2)CCCCC1)NCCCNC(=O)c1ccc(-c2c3nc(c(-c4cccc(S(=O)(=O)[O-])c4F)c4ccc([nH]4)c(-c4cccc(S(=O)(=O)[O-])c4F)c4nc(c(-c5cccc(S(=O)(=O)[O-])c5F)c5ccc2[nH]5)C=C4)C=C3)cc1
REMARK SMILES IDX 21 1 20 2 1 3 2 4 3 6 4 7 15 8 19 9 16 10 18 11 17 12 5 13
REMARK SMILES IDX 6 14 7 15 8 16 9 18 10 19 11 21 12 22 13 23 14 24 22 25
REMARK SMILES IDX 23 26 24 27 25 28 26 30 27 31 28 32 89 33 29 34 88 35 30 36
REMARK SMILES IDX 31 37 32 38 82 39 33 40 87 41 81 42 83 43 34 44 86 45 80 46
REMARK SMILES IDX 79 47 35 49 67 50 47 51 66 52 48 53 51 54 65 55 84 56 49 57
REMARK SMILES IDX 50 58 64 60 85 61 52 62 36 63 37 64 45 65 38 66 40 67 46 68
REMARK SMILES IDX 39 69 41 70 42 71 43 72 44 73 68 74 69 75 77 76 70 77 72 78
REMARK SMILES IDX 78 79 71 80 73 81 74 82 75 83 76 84 53 85 54 86 62 87 55 88
REMARK SMILES IDX 57 89 63 90 56 91 58 92 59 93 60 94 61 95
REMARK H PARENT 20 5 8 17 9 20 24 29 83 48 51 59
REMARK Flexibility Score: inf
ROOT
ATOM      1  C   UNL     1       1.876   0.573  -2.397  1.00  0.00     0.117 C 
ENDROOT
BRANCH   1   2
ATOM      2  N   UNL     1       2.541   0.612  -1.109  1.00  0.00    -0.356 N 
ATOM      3  O   UNL     1       1.156  -0.899  -0.068  1.00  0.00    -0.275 OA
ATOM      4  C   UNL     1       2.157  -0.192  -0.060  1.00  0.00     0.220 C 
ATOM      5  H   UNL     1       3.293   1.235  -0.981  1.00  0.00     0.163 HD
BRANCH   4   6
ATOM      6  C   UNL     1       3.141  -0.173   1.098  1.00  0.00     0.107 C 
BRANCH   6   7
ATOM      7  C   UNL     1       4.035  -1.442   1.268  1.00  0.00    -0.012 C 
ATOM      8  C   UNL     1       5.035  -1.091   2.424  1.00  0.00     0.008 C 
ATOM      9  C   UNL     1       3.191  -2.634   1.782  1.00  0.00     0.008 C 
ATOM     10  C   UNL     1       5.906  -2.264   2.871  1.00  0.00     0.001 C 
ATOM     11  C   UNL     1       4.035  -3.838   2.215  1.00  0.00     0.001 C 
ATOM     12  C   UNL     1       5.068  -3.471   3.273  1.00  0.00     0.000 C 
BRANCH   7  13
ATOM     13  C   UNL     1       4.881  -1.788  -0.002  1.00  0.00     0.109 C 
BRANCH  13  14
ATOM     14  C   UNL     1       4.236  -1.873  -1.377  1.00  0.00     0.238 C 
ATOM     15  O   UNL     1       4.536  -1.048  -2.245  1.00  0.00    -0.273 OA
ATOM     16  N   UNL     1       3.360  -2.864  -1.710  1.00  0.00    -0.268 N 
ATOM     17  H   UNL     1       2.739  -2.696  -2.455  1.00  0.00     0.191 HD
BRANCH  16  18
ATOM     18  N   UNL     1       3.285  -4.086  -1.074  1.00  0.00    -0.267 N 
ATOM     19  C   UNL     1       2.208  -4.940  -1.127  1.00  0.00     0.241 C 
ATOM     20  H   UNL     1       4.063  -4.369  -0.541  1.00  0.00     0.191 HD
ATOM     21  O   UNL     1       2.204  -5.975  -0.468  1.00  0.00    -0.273 OA
BRANCH  19  22
ATOM     22  C   UNL     1       1.043  -4.618  -1.995  1.00  0.00     0.080 C 
ATOM     23  C   UNL     1       1.130  -4.271  -3.464  1.00  0.00     0.014 C 
ATOM     24  C   UNL     1       0.690  -5.642  -3.062  1.00  0.00     0.014 C 
ENDBRANCH  19  22
ENDBRANCH  16  18
ENDBRANCH  13  14
ENDBRANCH   7  13
ENDBRANCH   6   7
ENDBRANCH   4   6
ENDBRANCH   1   2
BRANCH   1  25
ATOM     25  C   UNL     1       2.315   1.683  -3.343  1.00  0.00     0.042 C 
BRANCH  25  26
ATOM     26  C   UNL     1       3.806   1.744  -3.678  1.00  0.00     0.118 C 
BRANCH  26  27
ATOM     27  N   UNL     1       4.295   0.626  -4.471  1.00  0.00    -0.352 N 
ATOM     28  C   UNL     1       5.026   0.640  -5.640  1.00  0.00     0.251 C 
ATOM     29  H   UNL     1       4.073  -0.268  -4.124  1.00  0.00     0.163 HD
ATOM     30  O   UNL     1       5.278  -0.401  -6.240  1.00  0.00    -0.269 OA
BRANCH  28  31
ATOM     31  C   UNL     1       5.507   1.935  -6.174  1.00  0.00     0.039 A 
ATOM     32  C   UNL     1       5.285   2.260  -7.514  1.00  0.00     0.014 A 
ATOM     33  C   UNL     1       6.149   2.845  -5.330  1.00  0.00     0.014 A 
ATOM     34  C   UNL     1       5.617   3.537  -7.981  1.00  0.00     0.010 A 
ATOM     35  C   UNL     1       6.402   4.138  -5.774  1.00  0.00     0.010 A 
ATOM     36  C   UNL     1       6.131   4.504  -7.101  1.00  0.00    -0.014 A 
BRANCH  36  37
ATOM     37  C   UNL     1       6.372   5.912  -7.521  1.00  0.00     0.031 A 
ATOM     38  C   UNL     1       7.755   6.501  -7.425  1.00  0.00     0.074 A 
ATOM     39  C   UNL     1       5.330   6.700  -7.857  1.00  0.00     0.049 A 
ATOM     40  N   UNL     1       8.139   7.740  -7.594  1.00  0.00    -0.248 NA
ATOM     41  C   UNL     1       8.844   5.581  -7.058  1.00  0.00     0.031 C 
ATOM     42  C   UNL     1       3.930   6.275  -7.918  1.00  0.00     0.029 A 
ATOM     43  N   UNL     1       5.282   8.037  -8.172  1.00  0.00    -0.354 N 
ATOM     44  C   UNL     1       9.498   7.758  -7.307  1.00  0.00     0.074 A 
ATOM     45  C   UNL     1       9.867   6.412  -6.927  1.00  0.00     0.031 C 
ATOM     46  C   UNL     1       3.162   7.328  -8.243  1.00  0.00     0.029 A 
ATOM     47  C   UNL     1       4.006   8.511  -8.376  1.00  0.00     0.049 A 
ATOM     48  H   UNL     1       6.085   8.602  -8.245  1.00  0.00     0.167 HD
ATOM     49  C   UNL     1      10.369   8.794  -7.378  1.00  0.00     0.034 A 
ATOM     50  C   UNL     1       3.562   9.760  -8.623  1.00  0.00     0.034 A 
ATOM     51  C   UNL     1      10.012  10.120  -7.806  1.00  0.00     0.049 A 
ATOM     52  C   UNL     1       4.555  10.885  -8.737  1.00  0.00     0.074 A 
ATOM     53  C   UNL     1      10.839  11.213  -7.996  1.00  0.00     0.029 A 
ATOM     54  N   UNL     1       8.725  10.535  -8.108  1.00  0.00    -0.354 N 
ATOM     55  N   UNL     1       5.859  10.851  -8.604  1.00  0.00    -0.248 NA
ATOM     56  C   UNL     1       4.021  12.215  -9.070  1.00  0.00     0.031 C 
ATOM     57  C   UNL     1      10.048  12.296  -8.393  1.00  0.00     0.029 A 
ATOM     58  C   UNL     1       8.732  11.868  -8.479  1.00  0.00     0.049 A 
ATOM     59  H   UNL     1       7.923   9.965  -8.065  1.00  0.00     0.167 HD
ATOM     60  C   UNL     1       6.304  12.139  -8.881  1.00  0.00     0.074 A 
ATOM     61  C   UNL     1       5.132  12.927  -9.201  1.00  0.00     0.031 C 
ATOM     62  C   UNL     1       7.569  12.627  -8.860  1.00  0.00     0.034 A 
BRANCH  49  63
ATOM     63  C   UNL     1      11.810   8.523  -7.033  1.00  0.00     0.023 A 
ATOM     64  C   UNL     1      12.601   7.749  -7.907  1.00  0.00     0.012 A 
ATOM     65  C   UNL     1      12.398   9.079  -5.880  1.00  0.00     0.148 A 
ATOM     66  C   UNL     1      13.943   7.501  -7.620  1.00  0.00     0.002 A 
ATOM     67  C   UNL     1      13.748   8.866  -5.625  1.00  0.00     0.091 A 
ATOM     68  F   UNL     1      11.626   9.796  -5.050  1.00  0.00    -0.205 F 
ATOM     69  C   UNL     1      14.518   8.068  -6.486  1.00  0.00     0.022 A 
BRANCH  67  70
ATOM     70  S   UNL     1      14.602   9.620  -4.235  1.00  0.00     0.127 S 
ATOM     71  O   UNL     1      14.830   8.464  -3.368  1.00  0.00    -0.237 OA
ATOM     72  O   UNL     1      15.808  10.154  -4.868  1.00  0.00    -0.237 OA
ATOM     73  O   UNL     1      13.696  10.629  -3.706  1.00  0.00    -0.744 OA
ENDBRANCH  67  70
ENDBRANCH  49  63
BRANCH  50  74
ATOM     74  C   UNL     1       2.107  10.005  -8.841  1.00  0.00     0.023 A 
ATOM     75  C   UNL     1       1.651  10.337 -10.132  1.00  0.00     0.012 A 
ATOM     76  C   UNL     1       1.175   9.894  -7.792  1.00  0.00     0.148 A 
ATOM     77  C   UNL     1       0.298  10.588 -10.367  1.00  0.00     0.002 A 
ATOM     78  C   UNL     1      -0.178  10.091  -8.044  1.00  0.00     0.091 A 
ATOM     79  F   UNL     1       1.629   9.587  -6.568  1.00  0.00    -0.205 F 
ATOM     80  C   UNL     1      -0.617  10.455  -9.327  1.00  0.00     0.022 A 
BRANCH  78  81
ATOM     81  S   UNL     1      -1.442   9.817  -6.797  1.00  0.00     0.127 S 
ATOM     82  O   UNL     1      -1.897  11.179  -6.529  1.00  0.00    -0.237 OA
ATOM     83  O   UNL     1      -2.400   8.977  -7.517  1.00  0.00    -0.237 OA
ATOM     84  O   UNL     1      -0.767   9.146  -5.694  1.00  0.00    -0.744 OA
ENDBRANCH  78  81
ENDBRANCH  50  74
BRANCH  62  85
ATOM     85  C   UNL     1       7.776  14.067  -9.249  1.00  0.00     0.023 A 
ATOM     86  C   UNL     1       7.389  15.098  -8.371  1.00  0.00     0.012 A 
ATOM     87  C   UNL     1       8.438  14.393 -10.450  1.00  0.00     0.148 A 
ATOM     88  C   UNL     1       7.633  16.433  -8.695  1.00  0.00     0.002 A 
ATOM     89  C   UNL     1       8.723  15.721 -10.742  1.00  0.00     0.091 A 
ATOM     90  F   UNL     1       8.781  13.398 -11.281  1.00  0.00    -0.205 F 
ATOM     91  C   UNL     1       8.311  16.743  -9.872  1.00  0.00     0.022 A 
BRANCH  89  92
ATOM     92  S   UNL     1       9.678  16.206 -12.185  1.00  0.00     0.127 S 
ATOM     93  O   UNL     1       8.653  16.818 -13.028  1.00  0.00    -0.237 OA
ATOM     94  O   UNL     1      10.642  17.148 -11.616  1.00  0.00    -0.237 OA
ATOM     95  O   UNL     1      10.267  14.981 -12.708  1.00  0.00    -0.744 OA
ENDBRANCH  89  92
ENDBRANCH  62  85
ENDBRANCH  36  37
ENDBRANCH  28  31
ENDBRANCH  26  27
ENDBRANCH  25  26
ENDBRANCH   1  25
TORSDOF 18
