REMARK SMILES CCCc1cc(OCC(=O)NCCCNC(=O)c2ccc(-c3c4nc(c(-c5cccc(S(=O)(=O)[O-])c5F)c5ccc([nH]5)c(-c5cccc(S(=O)(=O)[O-])c5F)c5nc(c(-c6cccc(S(=O)(=O)[O-])c6F)c6ccc3[nH]6)C=C5)C=C4)cc2)nc(Nc2cccc(Cl)c2Cl)n1
REMARK SMILES IDX 12 1 11 2 9 3 10 4 8 6 7 7 6 8 4 9 5 10 92 11 82 12 81 13
REMARK SMILES IDX 3 14 2 15 1 16 83 17 84 19 85 20 90 21 86 22 88 23 91 24
REMARK SMILES IDX 87 25 89 26 13 27 14 28 15 29 16 30 17 32 18 33 19 34 80 35
REMARK SMILES IDX 20 36 79 37 21 38 22 39 23 40 73 41 24 42 78 43 72 44 74 45
REMARK SMILES IDX 25 46 77 47 71 48 70 49 26 51 58 52 38 53 57 54 39 55 42 56
REMARK SMILES IDX 56 57 75 58 40 59 41 60 55 62 76 63 43 64 27 65 28 66 36 67
REMARK SMILES IDX 29 68 31 69 37 70 30 71 32 72 33 73 34 74 35 75 59 76 60 77
REMARK SMILES IDX 68 78 61 79 63 80 69 81 62 82 64 83 65 84 66 85 67 86 44 87
REMARK SMILES IDX 45 88 53 89 46 90 48 91 54 92 47 93 49 94 50 95 51 96 52 97
REMARK H PARENT 11 5 83 18 15 31 74 50 42 61
REMARK Flexibility Score: inf
ROOT
ATOM      1  C   UNL     1      -4.418   1.050   5.606  1.00  0.00     0.117 C 
ENDROOT
BRANCH   1   2
ATOM      2  N   UNL     1      -4.040  -0.293   5.204  1.00  0.00    -0.353 N 
ATOM      3  C   UNL     1      -2.875  -0.956   5.458  1.00  0.00     0.258 C 
ATOM      4  O   UNL     1      -2.746  -2.116   5.062  1.00  0.00    -0.271 OA
ATOM      5  H   UNL     1      -4.711  -0.790   4.681  1.00  0.00     0.163 HD
BRANCH   3   6
ATOM      6  C   UNL     1      -1.771  -0.264   6.260  1.00  0.00     0.331 C 
BRANCH   6   7
ATOM      7  O   UNL     1      -1.280   0.940   5.703  1.00  0.00    -0.467 OA
BRANCH   7   8
ATOM      8  C   UNL     1      -0.486   0.869   4.594  1.00  0.00     0.218 A 
ATOM      9  C   UNL     1       0.694  -0.148   2.847  1.00  0.00     0.050 A 
ATOM     10  C   UNL     1      -0.121  -0.291   3.947  1.00  0.00     0.092 A 
ATOM     11  N   UNL     1       1.128   1.055   2.445  1.00  0.00    -0.218 NA
ATOM     12  C   UNL     1       0.698   2.145   3.103  1.00  0.00     0.230 A 
ATOM     13  N   UNL     1      -0.089   2.086   4.183  1.00  0.00    -0.177 NA
BRANCH   9  14
ATOM     14  C   UNL     1       1.151  -1.346   2.054  1.00  0.00     0.056 C 
BRANCH  14  15
ATOM     15  C   UNL     1       0.502  -1.461   0.670  1.00  0.00     0.003 C 
ATOM     16  C   UNL     1       1.069  -0.487  -0.353  1.00  0.00     0.004 C 
ENDBRANCH  14  15
ENDBRANCH   9  14
BRANCH  12  17
ATOM     17  N   UNL     1       1.095   3.401   2.655  1.00  0.00    -0.323 N 
ATOM     18  H   UNL     1       0.945   4.163   3.260  1.00  0.00     0.170 HD
BRANCH  17  19
ATOM     19  C   UNL     1       1.694   3.673   1.413  1.00  0.00     0.061 A 
ATOM     20  C   UNL     1       3.006   4.171   1.413  1.00  0.00     0.028 A 
ATOM     21  C   UNL     1       1.025   3.507   0.182  1.00  0.00     0.083 A 
ATOM     22  C   UNL     1       3.687   4.394   0.217  1.00  0.00     0.004 A 
ATOM     23  C   UNL     1       1.724   3.707  -1.018  1.00  0.00     0.061 A 
ATOM     24  Cl  UNL     1      -0.660   3.069   0.164  1.00  0.00    -0.080 Cl
ATOM     25  C   UNL     1       3.054   4.138  -0.997  1.00  0.00     0.022 A 
ATOM     26  Cl  UNL     1       1.019   3.400  -2.569  1.00  0.00    -0.083 Cl
ENDBRANCH  17  19
ENDBRANCH  12  17
ENDBRANCH   7   8
ENDBRANCH   6   7
ENDBRANCH   3   6
ENDBRANCH   1   2
BRANCH   1  27
ATOM     27  C   UNL     1      -4.351   2.055   4.461  1.00  0.00     0.042 C 
BRANCH  27  28
ATOM     28  C   UNL     1      -5.277   1.744   3.288  1.00  0.00     0.118 C 
BRANCH  28  29
ATOM     29  N   UNL     1      -6.688   1.721   3.662  1.00  0.00    -0.352 N 
ATOM     30  C   UNL     1      -7.740   2.462   3.179  1.00  0.00     0.251 C 
ATOM     31  H   UNL     1      -6.921   1.076   4.368  1.00  0.00     0.163 HD
ATOM     32  O   UNL     1      -8.834   2.397   3.738  1.00  0.00    -0.269 OA
BRANCH  30  33
ATOM     33  C   UNL     1      -7.559   3.347   2.009  1.00  0.00     0.039 A 
ATOM     34  C   UNL     1      -8.077   4.646   2.051  1.00  0.00     0.014 A 
ATOM     35  C   UNL     1      -6.885   2.898   0.872  1.00  0.00     0.014 A 
ATOM     36  C   UNL     1      -7.846   5.522   0.986  1.00  0.00     0.010 A 
ATOM     37  C   UNL     1      -6.598   3.791  -0.156  1.00  0.00     0.010 A 
ATOM     38  C   UNL     1      -7.070   5.112  -0.109  1.00  0.00    -0.014 A 
BRANCH  38  39
ATOM     39  C   UNL     1      -6.706   6.036  -1.215  1.00  0.00     0.031 A 
ATOM     40  C   UNL     1      -7.153   5.731  -2.619  1.00  0.00     0.074 A 
ATOM     41  C   UNL     1      -5.851   7.052  -0.981  1.00  0.00     0.049 A 
ATOM     42  N   UNL     1      -6.783   6.287  -3.742  1.00  0.00    -0.248 NA
ATOM     43  C   UNL     1      -8.120   4.631  -2.783  1.00  0.00     0.031 C 
ATOM     44  C   UNL     1      -5.292   7.406   0.326  1.00  0.00     0.029 A 
ATOM     45  N   UNL     1      -5.255   7.938  -1.846  1.00  0.00    -0.354 N 
ATOM     46  C   UNL     1      -7.417   5.567  -4.748  1.00  0.00     0.074 A 
ATOM     47  C   UNL     1      -8.197   4.534  -4.103  1.00  0.00     0.031 C 
ATOM     48  C   UNL     1      -4.414   8.410   0.173  1.00  0.00     0.029 A 
ATOM     49  C   UNL     1      -4.317   8.747  -1.244  1.00  0.00     0.049 A 
ATOM     50  H   UNL     1      -5.477   7.990  -2.804  1.00  0.00     0.167 HD
ATOM     51  C   UNL     1      -7.366   5.762  -6.086  1.00  0.00     0.034 A 
ATOM     52  C   UNL     1      -3.453   9.636  -1.775  1.00  0.00     0.034 A 
ATOM     53  C   UNL     1      -6.645   6.834  -6.716  1.00  0.00     0.049 A 
ATOM     54  C   UNL     1      -3.470   9.876  -3.262  1.00  0.00     0.074 A 
ATOM     55  C   UNL     1      -6.626   7.184  -8.054  1.00  0.00     0.029 A 
ATOM     56  N   UNL     1      -5.814   7.724  -6.055  1.00  0.00    -0.354 N 
ATOM     57  N   UNL     1      -4.206   9.299  -4.180  1.00  0.00    -0.248 NA
ATOM     58  C   UNL     1      -2.564  10.910  -3.784  1.00  0.00     0.031 C 
ATOM     59  C   UNL     1      -5.770   8.278  -8.206  1.00  0.00     0.029 A 
ATOM     60  C   UNL     1      -5.274   8.621  -6.958  1.00  0.00     0.049 A 
ATOM     61  H   UNL     1      -5.636   7.718  -5.087  1.00  0.00     0.167 HD
ATOM     62  C   UNL     1      -3.884   9.927  -5.378  1.00  0.00     0.074 A 
ATOM     63  C   UNL     1      -2.896  10.938  -5.069  1.00  0.00     0.031 C 
ATOM     64  C   UNL     1      -4.354   9.677  -6.624  1.00  0.00     0.034 A 
BRANCH  51  65
ATOM     65  C   UNL     1      -8.154   4.834  -6.971  1.00  0.00     0.023 A 
ATOM     66  C   UNL     1      -9.557   4.956  -7.031  1.00  0.00     0.012 A 
ATOM     67  C   UNL     1      -7.502   3.912  -7.814  1.00  0.00     0.148 A 
ATOM     68  C   UNL     1     -10.301   4.159  -7.899  1.00  0.00     0.002 A 
ATOM     69  C   UNL     1      -8.247   3.151  -8.707  1.00  0.00     0.091 A 
ATOM     70  F   UNL     1      -6.168   3.800  -7.728  1.00  0.00    -0.205 F 
ATOM     71  C   UNL     1      -9.646   3.267  -8.744  1.00  0.00     0.022 A 
BRANCH  69  72
ATOM     72  S   UNL     1      -7.493   2.033  -9.894  1.00  0.00     0.127 S 
ATOM     73  O   UNL     1      -7.896   0.729  -9.368  1.00  0.00    -0.237 OA
ATOM     74  O   UNL     1      -8.155   2.417 -11.141  1.00  0.00    -0.237 OA
ATOM     75  O   UNL     1      -6.064   2.306  -9.855  1.00  0.00    -0.744 OA
ENDBRANCH  69  72
ENDBRANCH  51  65
BRANCH  52  76
ATOM     76  C   UNL     1      -2.532  10.404  -0.888  1.00  0.00     0.023 A 
ATOM     77  C   UNL     1      -2.749  11.783  -0.700  1.00  0.00     0.012 A 
ATOM     78  C   UNL     1      -1.462   9.780  -0.217  1.00  0.00     0.148 A 
ATOM     79  C   UNL     1      -1.896  12.534   0.110  1.00  0.00     0.002 A 
ATOM     80  C   UNL     1      -0.648  10.524   0.631  1.00  0.00     0.091 A 
ATOM     81  F   UNL     1      -1.259   8.470  -0.417  1.00  0.00    -0.205 F 
ATOM     82  C   UNL     1      -0.853  11.904   0.783  1.00  0.00     0.022 A 
BRANCH  80  83
ATOM     83  S   UNL     1       0.633   9.761   1.636  1.00  0.00     0.127 S 
ATOM     84  O   UNL     1       1.842  10.095   0.889  1.00  0.00    -0.237 OA
ATOM     85  O   UNL     1       0.484  10.463   2.912  1.00  0.00    -0.237 OA
ATOM     86  O   UNL     1       0.289   8.345   1.696  1.00  0.00    -0.744 OA
ENDBRANCH  80  83
ENDBRANCH  52  76
BRANCH  64  87
ATOM     87  C   UNL     1      -3.865  10.539  -7.756  1.00  0.00     0.023 A 
ATOM     88  C   UNL     1      -2.575  10.336  -8.283  1.00  0.00     0.012 A 
ATOM     89  C   UNL     1      -4.733  11.459  -8.377  1.00  0.00     0.148 A 
ATOM     90  C   UNL     1      -2.151  11.046  -9.405  1.00  0.00     0.002 A 
ATOM     91  C   UNL     1      -4.321  12.129  -9.522  1.00  0.00     0.091 A 
ATOM     92  F   UNL     1      -5.951  11.646  -7.847  1.00  0.00    -0.205 F 
ATOM     93  C   UNL     1      -3.028  11.930 -10.033  1.00  0.00     0.022 A 
BRANCH  91  94
ATOM     94  S   UNL     1      -5.413  13.209 -10.454  1.00  0.00     0.127 S 
ATOM     95  O   UNL     1      -4.823  14.522 -10.197  1.00  0.00    -0.237 OA
ATOM     96  O   UNL     1      -5.238  12.720 -11.822  1.00  0.00    -0.237 OA
ATOM     97  O   UNL     1      -6.746  13.008  -9.905  1.00  0.00    -0.744 OA
ENDBRANCH  91  94
ENDBRANCH  64  87
ENDBRANCH  38  39
ENDBRANCH  30  33
ENDBRANCH  28  29
ENDBRANCH  27  28
ENDBRANCH   1  27
TORSDOF 19
