REMARK SMILES C[C@@H](Nc1cccc(C(=O)NCCCNC(=O)c2ccc(-c3c4nc(c(-c5cccc(S(=O)(=O)[O-])c5F)c5ccc([nH]5)c(-c5cccc(S(=O)(=O)[O-])c5F)c5nc(c(-c6cccc(S(=O)(=O)[O-])c6F)c6ccc3[nH]6)C=C5)C=C4)cc2)c1)C1CC[NH+](C)CC1
REMARK SMILES IDX 13 1 12 2 11 3 9 4 10 5 8 7 4 8 5 9 81 10 6 11 7 12 3 13
REMARK SMILES IDX 2 15 1 16 82 17 83 18 88 19 84 20 87 21 85 22 86 23 14 25
REMARK SMILES IDX 15 26 16 27 17 29 18 30 19 31 80 32 20 33 79 34 21 35 22 36
REMARK SMILES IDX 23 37 73 38 24 39 78 40 72 41 74 42 25 43 77 44 71 45 70 46
REMARK SMILES IDX 26 48 58 49 38 50 57 51 39 52 42 53 56 54 75 55 40 56 41 57
REMARK SMILES IDX 55 59 76 60 43 61 27 62 28 63 36 64 29 65 31 66 37 67 30 68
REMARK SMILES IDX 32 69 33 70 34 71 35 72 59 73 60 74 68 75 61 76 63 77 69 78
REMARK SMILES IDX 62 79 64 80 65 81 66 82 67 83 44 84 45 85 53 86 46 87 48 88
REMARK SMILES IDX 54 89 47 90 49 91 50 92 51 93 52 94
REMARK H PARENT 11 6 3 14 85 24 15 28 74 47 42 58
REMARK Flexibility Score: inf
ROOT
ATOM      1  C   UNL     1      -2.058   3.877   3.691  1.00  0.00     0.042 C 
ENDROOT
BRANCH   1   2
ATOM      2  C   UNL     1      -2.981   3.758   2.481  1.00  0.00     0.118 C 
BRANCH   2   3
ATOM      3  N   UNL     1      -3.242   5.057   1.903  1.00  0.00    -0.352 N 
ATOM      4  C   UNL     1      -2.683   5.724   0.845  1.00  0.00     0.251 C 
ATOM      5  O   UNL     1      -3.175   6.820   0.565  1.00  0.00    -0.269 OA
ATOM      6  H   UNL     1      -3.958   5.558   2.357  1.00  0.00     0.163 HD
BRANCH   4   7
ATOM      7  C   UNL     1      -1.587   5.181  -0.017  1.00  0.00     0.041 A 
ATOM      8  C   UNL     1       0.209   3.620  -0.594  1.00  0.00     0.035 A 
ATOM      9  C   UNL     1       0.294   4.227  -1.853  1.00  0.00     0.026 A 
ATOM     10  C   UNL     1      -0.683   4.168   0.339  1.00  0.00     0.039 A 
ATOM     11  C   UNL     1      -0.535   5.287  -2.205  1.00  0.00     0.003 A 
ATOM     12  C   UNL     1      -1.489   5.740  -1.300  1.00  0.00     0.014 A 
BRANCH   8  13
ATOM     13  N   UNL     1       0.907   2.443  -0.412  1.00  0.00    -0.382 N 
ATOM     14  H   UNL     1       1.690   2.326  -0.998  1.00  0.00     0.160 HD
BRANCH  13  15
ATOM     15  C   UNL     1       0.658   1.338   0.526  1.00  0.00     0.079 C 
ATOM     16  C   UNL     1       1.593   0.199   0.099  1.00  0.00     0.031 C 
BRANCH  15  17
ATOM     17  C   UNL     1      -0.853   0.926   0.608  1.00  0.00     0.022 C 
ATOM     18  C   UNL     1      -1.265   0.628   2.058  1.00  0.00     0.067 C 
ATOM     19  C   UNL     1      -1.361  -0.205  -0.299  1.00  0.00     0.067 C 
ATOM     20  C   UNL     1      -0.904  -0.774   2.515  1.00  0.00     0.262 C 
ATOM     21  C   UNL     1      -1.131  -1.621   0.242  1.00  0.00     0.262 C 
ATOM     22  N   UNL     1      -1.529  -1.772   1.646  1.00  0.00    -0.337 N 
ATOM     23  C   UNL     1      -1.210  -3.115   2.132  1.00  0.00     0.332 C 
ATOM     24  H   UNL     1      -2.538  -1.627   1.679  1.00  0.00     0.347 HD
ENDBRANCH  15  17
ENDBRANCH  13  15
ENDBRANCH   8  13
ENDBRANCH   4   7
ENDBRANCH   2   3
ENDBRANCH   1   2
BRANCH   1  25
ATOM     25  C   UNL     1      -2.814   4.133   4.985  1.00  0.00     0.118 C 
BRANCH  25  26
ATOM     26  N   UNL     1      -3.623   2.984   5.376  1.00  0.00    -0.352 N 
ATOM     27  C   UNL     1      -3.694   2.310   6.569  1.00  0.00     0.251 C 
ATOM     28  H   UNL     1      -4.214   2.637   4.670  1.00  0.00     0.163 HD
ATOM     29  O   UNL     1      -4.311   1.250   6.617  1.00  0.00    -0.269 OA
BRANCH  27  30
ATOM     30  C   UNL     1      -3.029   2.837   7.780  1.00  0.00     0.039 A 
ATOM     31  C   UNL     1      -2.478   1.929   8.690  1.00  0.00     0.014 A 
ATOM     32  C   UNL     1      -2.980   4.206   8.050  1.00  0.00     0.014 A 
ATOM     33  C   UNL     1      -1.853   2.397   9.847  1.00  0.00     0.010 A 
ATOM     34  C   UNL     1      -2.271   4.675   9.150  1.00  0.00     0.010 A 
ATOM     35  C   UNL     1      -1.726   3.776  10.076  1.00  0.00    -0.014 A 
BRANCH  35  36
ATOM     36  C   UNL     1      -1.058   4.294  11.296  1.00  0.00     0.031 A 
ATOM     37  C   UNL     1      -1.831   5.130  12.283  1.00  0.00     0.074 A 
ATOM     38  C   UNL     1       0.257   4.066  11.482  1.00  0.00     0.049 A 
ATOM     39  N   UNL     1      -1.418   5.690  13.390  1.00  0.00    -0.248 NA
ATOM     40  C   UNL     1      -3.245   5.398  11.972  1.00  0.00     0.031 C 
ATOM     41  C   UNL     1       1.130   3.343  10.555  1.00  0.00     0.029 A 
ATOM     42  N   UNL     1       1.093   4.436  12.505  1.00  0.00    -0.354 N 
ATOM     43  C   UNL     1      -2.504   6.404  13.883  1.00  0.00     0.074 A 
ATOM     44  C   UNL     1      -3.581   6.245  12.933  1.00  0.00     0.031 C 
ATOM     45  C   UNL     1       2.374   3.308  11.059  1.00  0.00     0.029 A 
ATOM     46  C   UNL     1       2.394   4.028  12.327  1.00  0.00     0.049 A 
ATOM     47  H   UNL     1       0.790   4.945  13.291  1.00  0.00     0.167 HD
ATOM     48  C   UNL     1      -2.609   7.101  15.040  1.00  0.00     0.034 A 
ATOM     49  C   UNL     1       3.480   4.214  13.102  1.00  0.00     0.034 A 
ATOM     50  C   UNL     1      -1.548   7.217  16.002  1.00  0.00     0.049 A 
ATOM     51  C   UNL     1       3.323   4.945  14.408  1.00  0.00     0.074 A 
ATOM     52  C   UNL     1      -1.573   7.828  17.243  1.00  0.00     0.029 A 
ATOM     53  N   UNL     1      -0.267   6.714  15.830  1.00  0.00    -0.354 N 
ATOM     54  N   UNL     1       2.247   5.482  14.930  1.00  0.00    -0.248 NA
ATOM     55  C   UNL     1       4.521   5.057  15.252  1.00  0.00     0.031 C 
ATOM     56  C   UNL     1      -0.298   7.716  17.810  1.00  0.00     0.029 A 
ATOM     57  C   UNL     1       0.509   7.003  16.938  1.00  0.00     0.049 A 
ATOM     58  H   UNL     1       0.044   6.223  15.035  1.00  0.00     0.167 HD
ATOM     59  C   UNL     1       2.626   5.958  16.180  1.00  0.00     0.074 A 
ATOM     60  C   UNL     1       4.027   5.625  16.343  1.00  0.00     0.031 C 
ATOM     61  C   UNL     1       1.887   6.619  17.105  1.00  0.00     0.034 A 
BRANCH  48  62
ATOM     62  C   UNL     1      -3.936   7.746  15.350  1.00  0.00     0.023 A 
ATOM     63  C   UNL     1      -5.051   6.938  15.657  1.00  0.00     0.012 A 
ATOM     64  C   UNL     1      -4.073   9.148  15.380  1.00  0.00     0.148 A 
ATOM     65  C   UNL     1      -6.289   7.511  15.947  1.00  0.00     0.002 A 
ATOM     66  C   UNL     1      -5.297   9.713  15.720  1.00  0.00     0.091 A 
ATOM     67  F   UNL     1      -3.010   9.902  15.066  1.00  0.00    -0.205 F 
ATOM     68  C   UNL     1      -6.409   8.897  15.988  1.00  0.00     0.022 A 
BRANCH  66  69
ATOM     69  S   UNL     1      -5.536  11.486  15.884  1.00  0.00     0.127 S 
ATOM     70  O   UNL     1      -6.385  11.777  14.730  1.00  0.00    -0.237 OA
ATOM     71  O   UNL     1      -6.210  11.586  17.178  1.00  0.00    -0.237 OA
ATOM     72  O   UNL     1      -4.205  12.076  15.844  1.00  0.00    -0.744 OA
ENDBRANCH  66  69
ENDBRANCH  48  62
BRANCH  49  73
ATOM     73  C   UNL     1       4.791   3.629  12.702  1.00  0.00     0.023 A 
ATOM     74  C   UNL     1       5.320   2.550  13.437  1.00  0.00     0.012 A 
ATOM     75  C   UNL     1       5.502   4.115  11.588  1.00  0.00     0.148 A 
ATOM     76  C   UNL     1       6.552   1.991  13.094  1.00  0.00     0.002 A 
ATOM     77  C   UNL     1       6.701   3.517  11.218  1.00  0.00     0.091 A 
ATOM     78  F   UNL     1       4.985   5.146  10.906  1.00  0.00    -0.205 F 
ATOM     79  C   UNL     1       7.237   2.467  11.980  1.00  0.00     0.022 A 
BRANCH  77  80
ATOM     80  S   UNL     1       7.586   3.974   9.724  1.00  0.00     0.127 S 
ATOM     81  O   UNL     1       8.776   4.622  10.268  1.00  0.00    -0.237 OA
ATOM     82  O   UNL     1       7.822   2.671   9.102  1.00  0.00    -0.237 OA
ATOM     83  O   UNL     1       6.680   4.838   8.978  1.00  0.00    -0.744 OA
ENDBRANCH  77  80
ENDBRANCH  49  73
BRANCH  61  84
ATOM     84  C   UNL     1       2.562   6.984  18.402  1.00  0.00     0.023 A 
ATOM     85  C   UNL     1       3.542   7.995  18.429  1.00  0.00     0.012 A 
ATOM     86  C   UNL     1       2.178   6.360  19.606  1.00  0.00     0.148 A 
ATOM     87  C   UNL     1       4.161   8.349  19.628  1.00  0.00     0.002 A 
ATOM     88  C   UNL     1       2.760   6.757  20.804  1.00  0.00     0.091 A 
ATOM     89  F   UNL     1       1.256   5.387  19.558  1.00  0.00    -0.205 F 
ATOM     90  C   UNL     1       3.763   7.739  20.814  1.00  0.00     0.022 A 
BRANCH  88  91
ATOM     91  S   UNL     1       2.234   6.097  22.389  1.00  0.00     0.127 S 
ATOM     92  O   UNL     1       3.344   5.208  22.725  1.00  0.00    -0.237 OA
ATOM     93  O   UNL     1       2.147   7.303  23.214  1.00  0.00    -0.237 OA
ATOM     94  O   UNL     1       0.956   5.441  22.146  1.00  0.00    -0.744 OA
ENDBRANCH  88  91
ENDBRANCH  61  84
ENDBRANCH  35  36
ENDBRANCH  27  30
ENDBRANCH  25  26
ENDBRANCH   1  25
TORSDOF 16
