REMARK SMILES COC(=O)c1ccc([C@H]2Nc3c(C(=O)NCCCNC(=O)c4ccc(-c5c6nc(c(-c7cccc(S(=O)(=O)[O-])c7F)c7ccc([nH]7)c(-c7cccc(S(=O)(=O)[O-])c7F)c7nc(c(-c8cccc(S(=O)(=O)[O-])c8F)c8ccc5[nH]8)C=C7)C=C6)cc4)cccc3[C@H]3[C@H]4CC[C@H](C4)[C@H]32)cc1
REMARK SMILES IDX 17 1 16 2 15 3 13 4 14 5 12 7 9 8 10 9 95 10 11 11 89 13
REMARK SMILES IDX 93 14 88 15 90 16 92 17 94 18 85 19 87 20 91 21 86 22 8 23
REMARK SMILES IDX 5 24 6 25 97 26 7 27 96 28 3 29 4 30 2 31 1 32 18 33 19 34
REMARK SMILES IDX 20 35 21 37 22 38 23 39 84 40 24 41 83 42 25 43 26 44 27 45
REMARK SMILES IDX 77 46 28 47 82 48 76 49 78 50 29 51 81 52 75 53 74 54 30 56
REMARK SMILES IDX 62 57 42 58 61 59 43 60 46 61 60 62 79 63 44 64 45 65 59 67
REMARK SMILES IDX 80 68 47 69 31 70 32 71 40 72 33 73 35 74 41 75 34 76 36 77
REMARK SMILES IDX 37 78 38 79 39 80 63 81 64 82 72 83 65 84 67 85 73 86 66 87
REMARK SMILES IDX 68 88 69 89 70 90 71 91 48 92 49 93 57 94 50 95 52 96 58 97
REMARK SMILES IDX 51 98 53 99 54 100 55 101 56 102
REMARK H PARENT 15 6 10 12 19 36 78 55 46 66
REMARK Flexibility Score: inf
ROOT
ATOM      1  C   UNL     1      -2.183  10.412  11.014  1.00  0.00     0.042 C 
ENDROOT
BRANCH   1   2
ATOM      2  C   UNL     1      -2.731   9.983   9.656  1.00  0.00     0.118 C 
BRANCH   2   3
ATOM      3  N   UNL     1      -1.754   9.571   8.640  1.00  0.00    -0.352 N 
ATOM      4  C   UNL     1      -1.771   8.484   7.762  1.00  0.00     0.253 C 
ATOM      5  O   UNL     1      -0.881   8.360   6.923  1.00  0.00    -0.269 OA
ATOM      6  H   UNL     1      -0.963  10.153   8.566  1.00  0.00     0.163 HD
BRANCH   4   7
ATOM      7  C   UNL     1      -2.821   7.429   7.898  1.00  0.00     0.063 A 
ATOM      8  C   UNL     1      -1.397   3.990   7.259  1.00  0.00     0.113 C 
ATOM      9  N   UNL     1      -1.397   5.459   7.432  1.00  0.00    -0.377 N 
ATOM     10  C   UNL     1      -1.690   3.325   8.640  1.00  0.00     0.027 C 
ATOM     11  C   UNL     1      -2.446   6.089   8.098  1.00  0.00     0.051 A 
ATOM     12  H   UNL     1      -0.652   5.994   7.074  1.00  0.00     0.161 HD
ATOM     13  C   UNL     1      -2.509   4.177   9.650  1.00  0.00     0.030 C 
ATOM     14  C   UNL     1      -2.343   1.931   8.837  1.00  0.00    -0.005 C 
ATOM     15  C   UNL     1      -3.198   5.360   9.028  1.00  0.00    -0.020 A 
ATOM     16  C   UNL     1      -3.340   3.126  10.438  1.00  0.00    -0.003 C 
ATOM     17  C   UNL     1      -3.842   1.905   8.458  1.00  0.00     0.004 C 
ATOM     18  C   UNL     1      -2.429   1.897  10.373  1.00  0.00     0.008 C 
ATOM     19  C   UNL     1      -4.140   7.824   8.140  1.00  0.00     0.016 A 
ATOM     20  C   UNL     1      -4.427   5.860   9.478  1.00  0.00     0.006 A 
ATOM     21  C   UNL     1      -4.529   2.604   9.628  1.00  0.00     0.004 C 
ATOM     22  C   UNL     1      -4.951   7.029   8.937  1.00  0.00     0.001 A 
BRANCH   8  23
ATOM     23  C   UNL     1      -2.150   3.492   6.010  1.00  0.00    -0.025 A 
ATOM     24  C   UNL     1      -3.685   2.477   3.843  1.00  0.00     0.060 A 
ATOM     25  C   UNL     1      -3.465   3.850   3.971  1.00  0.00     0.016 A 
ATOM     26  C   UNL     1      -3.040   1.600   4.710  1.00  0.00     0.016 A 
ATOM     27  C   UNL     1      -2.718   4.351   5.055  1.00  0.00     0.007 A 
ATOM     28  C   UNL     1      -2.235   2.109   5.737  1.00  0.00     0.007 A 
BRANCH  24  29
ATOM     29  C   UNL     1      -4.604   1.972   2.794  1.00  0.00     0.337 C 
ATOM     30  O   UNL     1      -4.665   2.413   1.662  1.00  0.00    -0.246 OA
BRANCH  29  31
ATOM     31  O   UNL     1      -5.400   1.015   3.340  1.00  0.00    -0.465 OA
ATOM     32  C   UNL     1      -6.448   0.522   2.500  1.00  0.00     0.282 C 
ENDBRANCH  29  31
ENDBRANCH  24  29
ENDBRANCH   8  23
ENDBRANCH   4   7
ENDBRANCH   2   3
ENDBRANCH   1   2
BRANCH   1  33
ATOM     33  C   UNL     1      -1.546  11.792  11.101  1.00  0.00     0.118 C 
BRANCH  33  34
ATOM     34  N   UNL     1      -2.473  12.890  10.859  1.00  0.00    -0.352 N 
ATOM     35  C   UNL     1      -2.809  13.997  11.607  1.00  0.00     0.251 C 
ATOM     36  H   UNL     1      -2.949  12.829   9.999  1.00  0.00     0.163 HD
ATOM     37  O   UNL     1      -3.703  14.729  11.179  1.00  0.00    -0.269 OA
BRANCH  35  38
ATOM     38  C   UNL     1      -2.158  14.332  12.903  1.00  0.00     0.039 A 
ATOM     39  C   UNL     1      -2.915  15.005  13.875  1.00  0.00     0.014 A 
ATOM     40  C   UNL     1      -0.813  14.070  13.168  1.00  0.00     0.014 A 
ATOM     41  C   UNL     1      -2.346  15.361  15.106  1.00  0.00     0.010 A 
ATOM     42  C   UNL     1      -0.271  14.343  14.428  1.00  0.00     0.010 A 
ATOM     43  C   UNL     1      -1.021  15.010  15.407  1.00  0.00    -0.014 A 
BRANCH  43  44
ATOM     44  C   UNL     1      -0.401  15.356  16.718  1.00  0.00     0.031 A 
ATOM     45  C   UNL     1       0.808  16.258  16.780  1.00  0.00     0.074 A 
ATOM     46  C   UNL     1      -0.870  14.803  17.856  1.00  0.00     0.049 A 
ATOM     47  N   UNL     1       1.511  16.631  17.820  1.00  0.00    -0.248 NA
ATOM     48  C   UNL     1       1.313  16.787  15.502  1.00  0.00     0.031 C 
ATOM     49  C   UNL     1      -1.978  13.850  17.941  1.00  0.00     0.029 A 
ATOM     50  N   UNL     1      -0.456  14.945  19.159  1.00  0.00    -0.354 N 
ATOM     51  C   UNL     1       2.559  17.397  17.322  1.00  0.00     0.074 A 
ATOM     52  C   UNL     1       2.421  17.407  15.881  1.00  0.00     0.031 C 
ATOM     53  C   UNL     1      -2.158  13.497  19.224  1.00  0.00     0.029 A 
ATOM     54  C   UNL     1      -1.169  14.179  20.053  1.00  0.00     0.049 A 
ATOM     55  H   UNL     1       0.282  15.539  19.428  1.00  0.00     0.167 HD
ATOM     56  C   UNL     1       3.529  18.064  17.994  1.00  0.00     0.034 A 
ATOM     57  C   UNL     1      -1.045  14.043  21.389  1.00  0.00     0.034 A 
ATOM     58  C   UNL     1       3.635  18.109  19.428  1.00  0.00     0.049 A 
ATOM     59  C   UNL     1      -0.006  14.851  22.120  1.00  0.00     0.074 A 
ATOM     60  C   UNL     1       4.528  18.829  20.203  1.00  0.00     0.029 A 
ATOM     61  N   UNL     1       2.823  17.408  20.305  1.00  0.00    -0.354 N 
ATOM     62  N   UNL     1       0.871  15.699  21.640  1.00  0.00    -0.248 NA
ATOM     63  C   UNL     1       0.029  14.718  23.584  1.00  0.00     0.031 C 
ATOM     64  C   UNL     1       4.261  18.555  21.550  1.00  0.00     0.029 A 
ATOM     65  C   UNL     1       3.190  17.679  21.613  1.00  0.00     0.049 A 
ATOM     66  H   UNL     1       2.091  16.806  20.038  1.00  0.00     0.167 HD
ATOM     67  C   UNL     1       1.534  16.228  22.742  1.00  0.00     0.074 A 
ATOM     68  C   UNL     1       0.940  15.624  23.916  1.00  0.00     0.031 C 
ATOM     69  C   UNL     1       2.555  17.120  22.778  1.00  0.00     0.034 A 
BRANCH  56  70
ATOM     70  C   UNL     1       4.521  18.859  17.183  1.00  0.00     0.023 A 
ATOM     71  C   UNL     1       4.101  20.044  16.543  1.00  0.00     0.012 A 
ATOM     72  C   UNL     1       5.872  18.470  17.095  1.00  0.00     0.148 A 
ATOM     73  C   UNL     1       4.998  20.807  15.797  1.00  0.00     0.002 A 
ATOM     74  C   UNL     1       6.771  19.261  16.386  1.00  0.00     0.091 A 
ATOM     75  F   UNL     1       6.251  17.332  17.693  1.00  0.00    -0.205 F 
ATOM     76  C   UNL     1       6.333  20.421  15.727  1.00  0.00     0.022 A 
BRANCH  74  77
ATOM     77  S   UNL     1       8.528  18.894  16.303  1.00  0.00     0.127 S 
ATOM     78  O   UNL     1       8.668  18.434  14.922  1.00  0.00    -0.237 OA
ATOM     79  O   UNL     1       9.130  20.200  16.573  1.00  0.00    -0.237 OA
ATOM     80  O   UNL     1       8.776  17.889  17.327  1.00  0.00    -0.744 OA
ENDBRANCH  74  77
ENDBRANCH  56  70
BRANCH  57  81
ATOM     81  C   UNL     1      -1.990  13.166  22.139  1.00  0.00     0.023 A 
ATOM     82  C   UNL     1      -2.958  13.756  22.977  1.00  0.00     0.012 A 
ATOM     83  C   UNL     1      -1.950  11.764  22.018  1.00  0.00     0.148 A 
ATOM     84  C   UNL     1      -3.845  12.965  23.707  1.00  0.00     0.002 A 
ATOM     85  C   UNL     1      -2.873  10.984  22.706  1.00  0.00     0.091 A 
ATOM     86  F   UNL     1      -1.014  11.221  21.227  1.00  0.00    -0.205 F 
ATOM     87  C   UNL     1      -3.809  11.581  23.564  1.00  0.00     0.022 A 
BRANCH  85  88
ATOM     88  S   UNL     1      -2.986   9.205  22.483  1.00  0.00     0.127 S 
ATOM     89  O   UNL     1      -2.451   8.710  23.749  1.00  0.00    -0.237 OA
ATOM     90  O   UNL     1      -4.425   9.012  22.304  1.00  0.00    -0.237 OA
ATOM     91  O   UNL     1      -2.191   8.908  21.299  1.00  0.00    -0.744 OA
ENDBRANCH  85  88
ENDBRANCH  57  81
BRANCH  69  92
ATOM     92  C   UNL     1       3.076  17.531  24.131  1.00  0.00     0.023 A 
ATOM     93  C   UNL     1       3.825  16.619  24.901  1.00  0.00     0.012 A 
ATOM     94  C   UNL     1       2.868  18.837  24.619  1.00  0.00     0.148 A 
ATOM     95  C   UNL     1       4.323  16.986  26.152  1.00  0.00     0.002 A 
ATOM     96  C   UNL     1       3.408  19.210  25.845  1.00  0.00     0.091 A 
ATOM     97  F   UNL     1       2.134  19.687  23.885  1.00  0.00    -0.205 F 
ATOM     98  C   UNL     1       4.124  18.283  26.618  1.00  0.00     0.022 A 
BRANCH  96  99
ATOM     99  S   UNL     1       3.277  20.890  26.471  1.00  0.00     0.127 S 
ATOM    100  O   UNL     1       2.184  20.766  27.433  1.00  0.00    -0.237 OA
ATOM    101  O   UNL     1       4.595  21.107  27.070  1.00  0.00    -0.237 OA
ATOM    102  O   UNL     1       3.005  21.723  25.307  1.00  0.00    -0.744 OA
ENDBRANCH  96  99
ENDBRANCH  69  92
ENDBRANCH  43  44
ENDBRANCH  35  38
ENDBRANCH  33  34
ENDBRANCH   1  33
TORSDOF 16
