REMARK SMILES CC#CC[C@H](C(=O)NCCCNC(=O)c1ccc(-c2c3nc(c(-c4cccc(S(=O)(=O)[O-])c4F)c4ccc([nH]4)c(-c4cccc(S(=O)(=O)[O-])c4F)c4nc(c(-c5cccc(S(=O)(=O)[O-])c5F)c5ccc2[nH]5)C=C4)C=C3)cc1)c1cccc(Br)c1
REMARK SMILES IDX 10 1 9 2 8 3 6 4 7 5 5 7 4 8 3 9 1 10 2 11 78 12 79 13 84 14
REMARK SMILES IDX 80 15 82 16 81 17 83 18 11 19 12 20 13 21 14 23 15 24 16 25
REMARK SMILES IDX 77 26 17 27 76 28 18 29 19 30 20 31 70 32 21 33 75 34 69 35
REMARK SMILES IDX 71 36 22 37 74 38 68 39 67 40 23 42 55 43 35 44 54 45 36 46
REMARK SMILES IDX 39 47 53 48 72 49 37 50 38 51 52 53 73 54 40 55 24 56 25 57
REMARK SMILES IDX 33 58 26 59 28 60 34 61 27 62 29 63 30 64 31 65 32 66 56 67
REMARK SMILES IDX 57 68 65 69 58 70 60 71 66 72 59 73 61 74 62 75 63 76 64 77
REMARK SMILES IDX 41 78 42 79 50 80 43 81 45 82 51 83 44 84 46 85 47 86 48 87
REMARK SMILES IDX 49 88
REMARK H PARENT 8 6 12 22 71 41 39 52
REMARK Flexibility Score: inf
ROOT
ATOM      1  C   UNL     1       0.571  -0.296  -0.519  1.00  0.00     0.042 C 
ENDROOT
BRANCH   1   2
ATOM      2  C   UNL     1      -0.326  -0.434  -1.721  1.00  0.00     0.117 C 
BRANCH   2   3
ATOM      3  N   UNL     1      -0.066   0.459  -2.805  1.00  0.00    -0.355 N 
ATOM      4  C   UNL     1      -0.430   0.335  -4.106  1.00  0.00     0.228 C 
ATOM      5  O   UNL     1      -0.090   1.313  -4.784  1.00  0.00    -0.274 OA
ATOM      6  H   UNL     1       0.445   1.270  -2.578  1.00  0.00     0.163 HD
BRANCH   4   7
ATOM      7  C   UNL     1      -1.018  -0.981  -4.723  1.00  0.00     0.120 C 
BRANCH   7   8
ATOM      8  C   UNL     1      -2.250  -1.766  -4.170  1.00  0.00     0.107 C 
BRANCH   8   9
ATOM      9  C   UNL     1      -2.675  -1.756  -2.763  1.00  0.00    -0.102 C 
ATOM     10  C   UNL     1      -3.282  -1.796  -0.168  1.00  0.00     0.107 C 
ATOM     11  C   UNL     1      -3.022  -1.817  -1.616  1.00  0.00    -0.107 C 
ENDBRANCH   8   9
ENDBRANCH   7   8
BRANCH   7  12
ATOM     12  C   UNL     1      -1.318  -0.862  -6.255  1.00  0.00    -0.034 A 
ATOM     13  C   UNL     1      -1.618   0.354  -6.894  1.00  0.00     0.004 A 
ATOM     14  C   UNL     1      -1.462  -2.042  -7.014  1.00  0.00     0.020 A 
ATOM     15  C   UNL     1      -2.013   0.402  -8.234  1.00  0.00     0.001 A 
ATOM     16  C   UNL     1      -1.928  -1.994  -8.332  1.00  0.00     0.018 A 
ATOM     17  C   UNL     1      -2.191  -0.776  -8.949  1.00  0.00     0.016 A 
ATOM     18  Br  UNL     1      -2.274  -3.603  -9.261  1.00  0.00    -0.051 Br
ENDBRANCH   7  12
ENDBRANCH   4   7
ENDBRANCH   2   3
ENDBRANCH   1   2
BRANCH   1  19
ATOM     19  C   UNL     1       0.344   0.993   0.255  1.00  0.00     0.118 C 
BRANCH  19  20
ATOM     20  N   UNL     1      -1.026   1.169   0.742  1.00  0.00    -0.352 N 
ATOM     21  C   UNL     1      -1.577   1.080   1.999  1.00  0.00     0.251 C 
ATOM     22  H   UNL     1      -1.675   1.394   0.037  1.00  0.00     0.163 HD
ATOM     23  O   UNL     1      -2.800   1.100   2.120  1.00  0.00    -0.269 OA
BRANCH  21  24
ATOM     24  C   UNL     1      -0.720   0.933   3.195  1.00  0.00     0.039 A 
ATOM     25  C   UNL     1      -1.172   0.184   4.285  1.00  0.00     0.014 A 
ATOM     26  C   UNL     1       0.533   1.535   3.250  1.00  0.00     0.014 A 
ATOM     27  C   UNL     1      -0.328  -0.017   5.380  1.00  0.00     0.010 A 
ATOM     28  C   UNL     1       1.430   1.182   4.244  1.00  0.00     0.010 A 
ATOM     29  C   UNL     1       1.001   0.440   5.347  1.00  0.00    -0.014 A 
BRANCH  29  30
ATOM     30  C   UNL     1       1.946   0.187   6.463  1.00  0.00     0.031 A 
ATOM     31  C   UNL     1       2.646   1.338   7.145  1.00  0.00     0.074 A 
ATOM     32  C   UNL     1       2.232  -1.083   6.813  1.00  0.00     0.049 A 
ATOM     33  N   UNL     1       3.514   1.310   8.123  1.00  0.00    -0.248 NA
ATOM     34  C   UNL     1       2.370   2.696   6.640  1.00  0.00     0.031 C 
ATOM     35  C   UNL     1       1.706  -2.283   6.157  1.00  0.00     0.029 A 
ATOM     36  N   UNL     1       3.045  -1.577   7.800  1.00  0.00    -0.354 N 
ATOM     37  C   UNL     1       3.913   2.628   8.316  1.00  0.00     0.074 A 
ATOM     38  C   UNL     1       3.242   3.425   7.317  1.00  0.00     0.031 C 
ATOM     39  C   UNL     1       2.179  -3.372   6.782  1.00  0.00     0.029 A 
ATOM     40  C   UNL     1       3.074  -2.951   7.854  1.00  0.00     0.049 A 
ATOM     41  H   UNL     1       3.560  -1.003   8.412  1.00  0.00     0.167 HD
ATOM     42  C   UNL     1       4.734   3.140   9.262  1.00  0.00     0.034 A 
ATOM     43  C   UNL     1       3.748  -3.779   8.674  1.00  0.00     0.034 A 
ATOM     44  C   UNL     1       5.367   2.347  10.279  1.00  0.00     0.049 A 
ATOM     45  C   UNL     1       4.606  -3.184   9.754  1.00  0.00     0.074 A 
ATOM     46  C   UNL     1       6.143   2.770  11.343  1.00  0.00     0.029 A 
ATOM     47  N   UNL     1       5.308   0.964  10.351  1.00  0.00    -0.354 N 
ATOM     48  N   UNL     1       4.846  -1.922  10.018  1.00  0.00    -0.248 NA
ATOM     49  C   UNL     1       5.252  -4.127  10.677  1.00  0.00     0.031 C 
ATOM     50  C   UNL     1       6.592   1.638  12.031  1.00  0.00     0.029 A 
ATOM     51  C   UNL     1       6.046   0.514  11.432  1.00  0.00     0.049 A 
ATOM     52  H   UNL     1       4.815   0.386   9.725  1.00  0.00     0.167 HD
ATOM     53  C   UNL     1       5.638  -1.917  11.160  1.00  0.00     0.074 A 
ATOM     54  C   UNL     1       5.811  -3.302  11.550  1.00  0.00     0.031 C 
ATOM     55  C   UNL     1       6.182  -0.865  11.822  1.00  0.00     0.034 A 
BRANCH  42  56
ATOM     56  C   UNL     1       4.962   4.631   9.264  1.00  0.00     0.023 A 
ATOM     57  C   UNL     1       3.905   5.508   9.586  1.00  0.00     0.012 A 
ATOM     58  C   UNL     1       6.238   5.164   8.993  1.00  0.00     0.148 A 
ATOM     59  C   UNL     1       4.101   6.889   9.597  1.00  0.00     0.002 A 
ATOM     60  C   UNL     1       6.440   6.537   9.060  1.00  0.00     0.091 A 
ATOM     61  F   UNL     1       7.226   4.319   8.666  1.00  0.00    -0.205 F 
ATOM     62  C   UNL     1       5.370   7.402   9.346  1.00  0.00     0.022 A 
BRANCH  60  63
ATOM     63  S   UNL     1       8.054   7.291   8.840  1.00  0.00     0.127 S 
ATOM     64  O   UNL     1       7.869   8.024   7.588  1.00  0.00    -0.237 OA
ATOM     65  O   UNL     1       8.161   8.135  10.031  1.00  0.00    -0.237 OA
ATOM     66  O   UNL     1       9.009   6.194   8.783  1.00  0.00    -0.744 OA
ENDBRANCH  60  63
ENDBRANCH  42  56
BRANCH  43  67
ATOM     67  C   UNL     1       3.587  -5.255   8.542  1.00  0.00     0.023 A 
ATOM     68  C   UNL     1       2.918  -5.979   9.549  1.00  0.00     0.012 A 
ATOM     69  C   UNL     1       4.074  -5.939   7.413  1.00  0.00     0.148 A 
ATOM     70  C   UNL     1       2.775  -7.363   9.452  1.00  0.00     0.002 A 
ATOM     71  C   UNL     1       3.873  -7.308   7.293  1.00  0.00     0.091 A 
ATOM     72  F   UNL     1       4.710  -5.231   6.469  1.00  0.00    -0.205 F 
ATOM     73  C   UNL     1       3.243  -8.026   8.321  1.00  0.00     0.022 A 
BRANCH  71  74
ATOM     74  S   UNL     1       4.320  -8.219   5.812  1.00  0.00     0.127 S 
ATOM     75  O   UNL     1       5.405  -9.066   6.299  1.00  0.00    -0.237 OA
ATOM     76  O   UNL     1       3.074  -8.925   5.508  1.00  0.00    -0.237 OA
ATOM     77  O   UNL     1       4.697  -7.214   4.827  1.00  0.00    -0.744 OA
ENDBRANCH  71  74
ENDBRANCH  43  67
BRANCH  55  78
ATOM     78  C   UNL     1       6.972  -1.171  13.068  1.00  0.00     0.023 A 
ATOM     79  C   UNL     1       8.204  -1.849  12.983  1.00  0.00     0.012 A 
ATOM     80  C   UNL     1       6.495  -0.760  14.329  1.00  0.00     0.148 A 
ATOM     81  C   UNL     1       8.916  -2.171  14.138  1.00  0.00     0.002 A 
ATOM     82  C   UNL     1       7.240  -1.030  15.469  1.00  0.00     0.091 A 
ATOM     83  F   UNL     1       5.314  -0.128  14.393  1.00  0.00    -0.205 F 
ATOM     84  C   UNL     1       8.439  -1.754  15.378  1.00  0.00     0.022 A 
BRANCH  82  85
ATOM     85  S   UNL     1       6.755  -0.438  17.093  1.00  0.00     0.127 S 
ATOM     86  O   UNL     1       6.301  -1.671  17.735  1.00  0.00    -0.237 OA
ATOM     87  O   UNL     1       8.012   0.096  17.616  1.00  0.00    -0.237 OA
ATOM     88  O   UNL     1       5.723   0.565  16.863  1.00  0.00    -0.744 OA
ENDBRANCH  82  85
ENDBRANCH  55  78
ENDBRANCH  29  30
ENDBRANCH  21  24
ENDBRANCH  19  20
ENDBRANCH   1  19
TORSDOF 16
