REMARK SMILES COc1cc(C)cc2c1[C@@H](C)[C@@H](CC(=O)N[C@@H](Cc1c[nH]c3ccccc13)C(=O)NCCCNC(=O)c1ccc(-c3c4nc(c(-c5cccc(S(=O)(=O)[O-])c5F)c5ccc([nH]5)c(-c5cccc(S(=O)(=O)[O-])c5F)c5nc(c(-c6cccc(S(=O)(=O)[O-])c6F)c6ccc3[nH]6)C=C5)C=C4)cc1)C(=O)O2
REMARK SMILES IDX 31 1 30 2 28 3 29 4 17 6 16 7 14 8 15 9 13 11 12 12 3 13
REMARK SMILES IDX 4 14 9 15 5 16 8 17 10 18 6 19 7 20 102 21 11 22 100 23
REMARK SMILES IDX 101 24 2 25 1 26 18 27 19 28 20 29 27 30 21 31 22 32 26 33
REMARK SMILES IDX 23 35 25 36 24 37 32 38 33 39 34 40 35 41 36 43 37 44 38 45
REMARK SMILES IDX 99 46 39 47 98 48 40 49 41 50 42 51 92 52 43 53 97 54 91 55
REMARK SMILES IDX 93 56 44 57 96 58 90 59 89 60 45 62 77 63 57 64 76 65 58 66
REMARK SMILES IDX 61 67 75 68 94 69 59 70 60 71 74 73 95 74 62 75 46 76 47 77
REMARK SMILES IDX 55 78 48 79 50 80 56 81 49 82 51 83 52 84 53 85 54 86 78 87
REMARK SMILES IDX 79 88 87 89 80 90 82 91 88 92 81 93 83 94 84 95 85 96 86 97
REMARK SMILES IDX 63 98 64 99 72 100 65 101 67 102 73 103 66 104 68 105 69 106
REMARK SMILES IDX 70 107 71 108
REMARK H PARENT 30 5 16 10 21 34 34 42 93 61 61 72
REMARK Flexibility Score: inf
ROOT
ATOM      1  C   UNL     1      -3.378  -6.151  -7.571  1.00  0.00     0.117 C 
ENDROOT
BRANCH   1   2
ATOM      2  N   UNL     1      -2.219  -5.314  -7.358  1.00  0.00    -0.354 N 
ATOM      3  C   UNL     1      -2.068  -4.229  -6.563  1.00  0.00     0.242 C 
ATOM      4  O   UNL     1      -1.084  -3.516  -6.806  1.00  0.00    -0.273 OA
ATOM      5  H   UNL     1      -1.418  -5.572  -7.869  1.00  0.00     0.163 HD
BRANCH   3   6
ATOM      6  C   UNL     1      -2.968  -3.897  -5.351  1.00  0.00     0.175 C 
BRANCH   6   7
ATOM      7  N   UNL     1      -3.408  -2.513  -5.256  1.00  0.00    -0.344 N 
ATOM      8  C   UNL     1      -3.380  -1.730  -4.136  1.00  0.00     0.221 C 
ATOM      9  O   UNL     1      -4.230  -0.857  -3.982  1.00  0.00    -0.275 OA
ATOM     10  H   UNL     1      -3.761  -2.101  -6.078  1.00  0.00     0.164 HD
BRANCH   8  11
ATOM     11  C   UNL     1      -2.207  -1.867  -3.179  1.00  0.00     0.116 C 
BRANCH  11  12
ATOM     12  C   UNL     1      -2.389  -2.752  -1.923  1.00  0.00     0.116 C 
ATOM     13  C   UNL     1       1.095  -1.799  -0.819  1.00  0.00     0.126 A 
ATOM     14  C   UNL     1       2.344  -1.949  -1.447  1.00  0.00     0.050 A 
ATOM     15  C   UNL     1      -0.009  -2.539  -1.246  1.00  0.00     0.041 A 
ATOM     16  C   UNL     1       2.515  -2.832  -2.523  1.00  0.00    -0.044 A 
ATOM     17  C   UNL     1       0.228  -3.510  -2.236  1.00  0.00     0.138 A 
ATOM     18  C   UNL     1      -1.442  -2.369  -0.753  1.00  0.00     0.038 C 
ATOM     19  C   UNL     1       3.838  -2.948  -3.219  1.00  0.00     0.044 C 
ATOM     20  C   UNL     1       1.450  -3.647  -2.892  1.00  0.00     0.051 A 
ATOM     21  O   UNL     1      -0.764  -4.431  -2.613  1.00  0.00    -0.426 OA
ATOM     22  C   UNL     1      -1.846  -1.006  -0.183  1.00  0.00     0.014 C 
ATOM     23  C   UNL     1      -2.037  -4.208  -2.129  1.00  0.00     0.315 C 
ATOM     24  O   UNL     1      -2.796  -5.138  -1.883  1.00  0.00    -0.251 OA
BRANCH  13  25
ATOM     25  O   UNL     1       0.966  -1.014   0.294  1.00  0.00    -0.496 OA
ATOM     26  C   UNL     1       1.354   0.338   0.070  1.00  0.00     0.278 C 
ENDBRANCH  13  25
ENDBRANCH  11  12
ENDBRANCH   8  11
ENDBRANCH   6   7
BRANCH   6  27
ATOM     27  C   UNL     1      -3.945  -4.866  -4.701  1.00  0.00     0.072 C 
BRANCH  27  28
ATOM     28  C   UNL     1      -5.387  -5.126  -5.047  1.00  0.00    -0.020 A 
ATOM     29  C   UNL     1      -5.949  -6.331  -4.641  1.00  0.00     0.087 A 
ATOM     30  C   UNL     1      -6.480  -4.336  -5.566  1.00  0.00     0.003 A 
ATOM     31  N   UNL     1      -7.301  -6.250  -4.742  1.00  0.00    -0.361 N 
ATOM     32  C   UNL     1      -7.654  -5.070  -5.340  1.00  0.00     0.046 A 
ATOM     33  C   UNL     1      -6.651  -3.067  -6.165  1.00  0.00     0.010 A 
ATOM     34  H   UNL     1      -7.933  -6.938  -4.431  1.00  0.00     0.166 HD
ATOM     35  C   UNL     1      -8.940  -4.611  -5.657  1.00  0.00     0.026 A 
ATOM     36  C   UNL     1      -7.929  -2.606  -6.525  1.00  0.00     0.001 A 
ATOM     37  C   UNL     1      -9.058  -3.368  -6.270  1.00  0.00     0.002 A 
ENDBRANCH  27  28
ENDBRANCH   6  27
ENDBRANCH   3   6
ENDBRANCH   1   2
BRANCH   1  38
ATOM     38  C   UNL     1      -4.432  -5.401  -8.367  1.00  0.00     0.042 C 
BRANCH  38  39
ATOM     39  C   UNL     1      -4.026  -5.243  -9.824  1.00  0.00     0.118 C 
BRANCH  39  40
ATOM     40  N   UNL     1      -4.079  -6.513 -10.539  1.00  0.00    -0.352 N 
ATOM     41  C   UNL     1      -4.939  -6.909 -11.540  1.00  0.00     0.251 C 
ATOM     42  H   UNL     1      -3.406  -7.179 -10.269  1.00  0.00     0.163 HD
ATOM     43  O   UNL     1      -5.022  -8.082 -11.851  1.00  0.00    -0.269 OA
BRANCH  41  44
ATOM     44  C   UNL     1      -5.763  -5.878 -12.207  1.00  0.00     0.039 A 
ATOM     45  C   UNL     1      -5.180  -4.666 -12.580  1.00  0.00     0.014 A 
ATOM     46  C   UNL     1      -7.125  -6.103 -12.407  1.00  0.00     0.014 A 
ATOM     47  C   UNL     1      -5.990  -3.612 -12.969  1.00  0.00     0.010 A 
ATOM     48  C   UNL     1      -7.922  -5.071 -12.910  1.00  0.00     0.010 A 
ATOM     49  C   UNL     1      -7.369  -3.803 -13.147  1.00  0.00    -0.014 A 
BRANCH  49  50
ATOM     50  C   UNL     1      -8.200  -2.663 -13.607  1.00  0.00     0.031 A 
ATOM     51  C   UNL     1      -9.315  -2.122 -12.755  1.00  0.00     0.074 A 
ATOM     52  C   UNL     1      -7.907  -2.090 -14.792  1.00  0.00     0.049 A 
ATOM     53  N   UNL     1     -10.140  -1.142 -13.017  1.00  0.00    -0.248 NA
ATOM     54  C   UNL     1      -9.543  -2.759 -11.446  1.00  0.00     0.031 C 
ATOM     55  C   UNL     1      -6.851  -2.536 -15.704  1.00  0.00     0.029 A 
ATOM     56  N   UNL     1      -8.453  -1.004 -15.425  1.00  0.00    -0.354 N 
ATOM     57  C   UNL     1     -11.012  -1.076 -11.938  1.00  0.00     0.074 A 
ATOM     58  C   UNL     1     -10.616  -2.112 -11.010  1.00  0.00     0.031 C 
ATOM     59  C   UNL     1      -6.791  -1.703 -16.752  1.00  0.00     0.029 A 
ATOM     60  C   UNL     1      -7.849  -0.709 -16.624  1.00  0.00     0.049 A 
ATOM     61  H   UNL     1      -9.204  -0.485 -15.056  1.00  0.00     0.167 HD
ATOM     62  C   UNL     1     -12.038  -0.218 -11.737  1.00  0.00     0.034 A 
ATOM     63  C   UNL     1      -8.124   0.242 -17.535  1.00  0.00     0.034 A 
ATOM     64  C   UNL     1     -12.387   0.849 -12.636  1.00  0.00     0.049 A 
ATOM     65  C   UNL     1      -9.256   1.188 -17.277  1.00  0.00     0.074 A 
ATOM     66  C   UNL     1     -13.388   1.794 -12.497  1.00  0.00     0.029 A 
ATOM     67  N   UNL     1     -11.743   1.119 -13.834  1.00  0.00    -0.354 N 
ATOM     68  N   UNL     1     -10.040   1.259 -16.229  1.00  0.00    -0.248 NA
ATOM     69  C   UNL     1      -9.539   2.189 -18.314  1.00  0.00     0.031 C 
ATOM     70  C   UNL     1     -13.354   2.632 -13.614  1.00  0.00     0.029 A 
ATOM     71  C   UNL     1     -12.322   2.218 -14.441  1.00  0.00     0.049 A 
ATOM     72  H   UNL     1     -10.986   0.605 -14.197  1.00  0.00     0.167 HD
ATOM     73  C   UNL     1     -10.899   2.321 -16.471  1.00  0.00     0.074 A 
ATOM     74  C   UNL     1     -10.530   2.875 -17.758  1.00  0.00     0.031 C 
ATOM     75  C   UNL     1     -11.911   2.784 -15.699  1.00  0.00     0.034 A 
BRANCH  62  76
ATOM     76  C   UNL     1     -12.846  -0.353 -10.475  1.00  0.00     0.023 A 
ATOM     77  C   UNL     1     -12.337   0.168  -9.270  1.00  0.00     0.012 A 
ATOM     78  C   UNL     1     -14.150  -0.884 -10.508  1.00  0.00     0.148 A 
ATOM     79  C   UNL     1     -13.114   0.160  -8.112  1.00  0.00     0.002 A 
ATOM     80  C   UNL     1     -14.930  -0.862  -9.358  1.00  0.00     0.091 A 
ATOM     81  F   UNL     1     -14.606  -1.384 -11.665  1.00  0.00    -0.205 F 
ATOM     82  C   UNL     1     -14.412  -0.344  -8.159  1.00  0.00     0.022 A 
BRANCH  80  83
ATOM     83  S   UNL     1     -16.633  -1.432  -9.323  1.00  0.00     0.127 S 
ATOM     84  O   UNL     1     -16.542  -2.574  -8.414  1.00  0.00    -0.237 OA
ATOM     85  O   UNL     1     -17.334  -0.271  -8.775  1.00  0.00    -0.237 OA
ATOM     86  O   UNL     1     -16.978  -1.764 -10.698  1.00  0.00    -0.744 OA
ENDBRANCH  80  83
ENDBRANCH  62  76
BRANCH  63  87
ATOM     87  C   UNL     1      -7.272   0.348 -18.749  1.00  0.00     0.023 A 
ATOM     88  C   UNL     1      -6.330   1.389 -18.841  1.00  0.00     0.012 A 
ATOM     89  C   UNL     1      -7.319  -0.635 -19.756  1.00  0.00     0.148 A 
ATOM     90  C   UNL     1      -5.446   1.449 -19.919  1.00  0.00     0.002 A 
ATOM     91  C   UNL     1      -6.407  -0.595 -20.802  1.00  0.00     0.091 A 
ATOM     92  F   UNL     1      -8.228  -1.614 -19.643  1.00  0.00    -0.205 F 
ATOM     93  C   UNL     1      -5.476   0.451 -20.891  1.00  0.00     0.022 A 
BRANCH  91  94
ATOM     94  S   UNL     1      -6.287  -1.899 -22.032  1.00  0.00     0.127 S 
ATOM     95  O   UNL     1      -6.671  -1.192 -23.252  1.00  0.00    -0.237 OA
ATOM     96  O   UNL     1      -4.871  -2.259 -21.948  1.00  0.00    -0.237 OA
ATOM     97  O   UNL     1      -7.204  -2.942 -21.597  1.00  0.00    -0.744 OA
ENDBRANCH  91  94
ENDBRANCH  63  87
BRANCH  75  98
ATOM     98  C   UNL     1     -12.691   3.965 -16.201  1.00  0.00     0.023 A 
ATOM     99  C   UNL     1     -13.690   3.772 -17.172  1.00  0.00     0.012 A 
ATOM    100  C   UNL     1     -12.515   5.235 -15.618  1.00  0.00     0.148 A 
ATOM    101  C   UNL     1     -14.505   4.833 -17.564  1.00  0.00     0.002 A 
ATOM    102  C   UNL     1     -13.353   6.279 -15.988  1.00  0.00     0.091 A 
ATOM    103  F   UNL     1     -11.548   5.389 -14.703  1.00  0.00    -0.205 F 
ATOM    104  C   UNL     1     -14.345   6.081 -16.964  1.00  0.00     0.022 A 
BRANCH 102 105
ATOM    105  S   UNL     1     -13.275   7.900 -15.219  1.00  0.00     0.127 S 
ATOM    106  O   UNL     1     -12.821   8.734 -16.331  1.00  0.00    -0.237 OA
ATOM    107  O   UNL     1     -14.665   8.118 -14.819  1.00  0.00    -0.237 OA
ATOM    108  O   UNL     1     -12.335   7.779 -14.113  1.00  0.00    -0.744 OA
ENDBRANCH 102 105
ENDBRANCH  75  98
ENDBRANCH  49  50
ENDBRANCH  41  44
ENDBRANCH  39  40
ENDBRANCH  38  39
ENDBRANCH   1  38
TORSDOF 19
