REMARK SMILES O=C(NCCCNC(=O)[C@@H]1[C@@H](C(=O)NCc2cc(F)cc(Br)c2)[C@@H]2C=C[C@H]1C2)c1ccc(-c2c3nc(c(-c4cccc(S(=O)(=O)[O-])c4F)c4ccc([nH]4)c(-c4cccc(S(=O)(=O)[O-])c4F)c4nc(c(-c5cccc(S(=O)(=O)[O-])c5F)c5ccc2[nH]5)C=C4)C=C3)cc1
REMARK SMILES IDX 5 1 4 2 3 3 1 4 2 5 29 7 30 8 91 9 31 10 90 11 32 12 33 13
REMARK SMILES IDX 34 14 84 15 35 16 89 17 83 18 85 19 36 20 88 21 82 22 81 23
REMARK SMILES IDX 37 25 69 26 49 27 68 28 50 29 53 30 67 31 86 32 51 33 52 34
REMARK SMILES IDX 66 36 87 37 54 38 38 39 39 40 47 41 40 42 42 43 48 44 41 45
REMARK SMILES IDX 43 46 44 47 45 48 46 49 70 50 71 51 79 52 72 53 74 54 80 55
REMARK SMILES IDX 73 56 75 57 76 58 77 59 78 60 55 61 56 62 64 63 57 64 59 65
REMARK SMILES IDX 65 66 58 67 60 68 61 69 62 70 63 71 6 72 7 73 8 74 9 76
REMARK SMILES IDX 10 77 11 78 27 79 24 80 26 81 28 82 25 83 12 84 13 85 14 86
REMARK SMILES IDX 15 88 16 89 17 90 23 91 18 92 21 93 19 94 20 95 22 96
REMARK H PARENT 3 6 85 24 53 35 7 75 14 87
REMARK Flexibility Score: inf
ROOT
ATOM      1  C   UNL     1       3.775   1.173   3.502  1.00  0.00     0.042 C 
ENDROOT
BRANCH   1   2
ATOM      2  C   UNL     1       3.644   0.711   2.004  1.00  0.00     0.118 C 
BRANCH   2   3
ATOM      3  N   UNL     1       2.374   0.243   1.481  1.00  0.00    -0.352 N 
ATOM      4  O   UNL     1       0.906  -0.379  -0.122  1.00  0.00    -0.269 OA
ATOM      5  C   UNL     1       1.965   0.180   0.153  1.00  0.00     0.251 C 
ATOM      6  H   UNL     1       1.721  -0.069   2.148  1.00  0.00     0.163 HD
BRANCH   5   7
ATOM      7  C   UNL     1       2.748   0.806  -0.952  1.00  0.00     0.039 A 
ATOM      8  C   UNL     1       3.868   0.184  -1.516  1.00  0.00     0.014 A 
ATOM      9  C   UNL     1       2.250   1.970  -1.550  1.00  0.00     0.014 A 
ATOM     10  C   UNL     1       4.535   0.775  -2.612  1.00  0.00     0.010 A 
ATOM     11  C   UNL     1       2.904   2.544  -2.655  1.00  0.00     0.010 A 
ATOM     12  C   UNL     1       4.072   1.972  -3.188  1.00  0.00    -0.014 A 
BRANCH  12  13
ATOM     13  C   UNL     1       4.761   2.631  -4.347  1.00  0.00     0.031 A 
ATOM     14  C   UNL     1       5.388   3.998  -4.192  1.00  0.00     0.074 A 
ATOM     15  C   UNL     1       4.749   2.067  -5.572  1.00  0.00     0.049 A 
ATOM     16  N   UNL     1       5.916   4.783  -5.098  1.00  0.00    -0.248 NA
ATOM     17  C   UNL     1       5.411   4.559  -2.833  1.00  0.00     0.031 C 
ATOM     18  C   UNL     1       4.147   0.774  -5.893  1.00  0.00     0.029 A 
ATOM     19  N   UNL     1       5.209   2.530  -6.786  1.00  0.00    -0.354 N 
ATOM     20  C   UNL     1       6.288   5.949  -4.434  1.00  0.00     0.074 A 
ATOM     21  C   UNL     1       5.923   5.764  -3.044  1.00  0.00     0.031 C 
ATOM     22  C   UNL     1       4.241   0.562  -7.215  1.00  0.00     0.029 A 
ATOM     23  C   UNL     1       4.867   1.722  -7.848  1.00  0.00     0.049 A 
ATOM     24  H   UNL     1       5.732   3.359  -6.885  1.00  0.00     0.167 HD
ATOM     25  C   UNL     1       6.879   7.067  -4.925  1.00  0.00     0.034 A 
ATOM     26  C   UNL     1       4.993   1.901  -9.180  1.00  0.00     0.034 A 
ATOM     27  C   UNL     1       7.255   7.251  -6.303  1.00  0.00     0.049 A 
ATOM     28  C   UNL     1       5.647   3.148  -9.712  1.00  0.00     0.074 A 
ATOM     29  C   UNL     1       7.935   8.314  -6.875  1.00  0.00     0.029 A 
ATOM     30  N   UNL     1       6.957   6.372  -7.333  1.00  0.00    -0.354 N 
ATOM     31  N   UNL     1       6.116   4.176  -9.050  1.00  0.00    -0.248 NA
ATOM     32  C   UNL     1       5.818   3.248 -11.171  1.00  0.00     0.031 C 
ATOM     33  C   UNL     1       8.004   8.100  -8.256  1.00  0.00     0.029 A 
ATOM     34  C   UNL     1       7.415   6.878  -8.538  1.00  0.00     0.049 A 
ATOM     35  H   UNL     1       6.487   5.513  -7.223  1.00  0.00     0.167 HD
ATOM     36  C   UNL     1       6.667   5.028 -10.002  1.00  0.00     0.074 A 
ATOM     37  C   UNL     1       6.480   4.393 -11.289  1.00  0.00     0.031 C 
ATOM     38  C   UNL     1       7.272   6.227  -9.817  1.00  0.00     0.034 A 
BRANCH  25  39
ATOM     39  C   UNL     1       7.164   8.194  -3.959  1.00  0.00     0.023 A 
ATOM     40  C   UNL     1       8.156   8.041  -2.968  1.00  0.00     0.012 A 
ATOM     41  C   UNL     1       6.479   9.423  -4.059  1.00  0.00     0.148 A 
ATOM     42  C   UNL     1       8.420   9.066  -2.059  1.00  0.00     0.002 A 
ATOM     43  C   UNL     1       6.783  10.458  -3.181  1.00  0.00     0.091 A 
ATOM     44  F   UNL     1       5.532   9.554  -4.999  1.00  0.00    -0.205 F 
ATOM     45  C   UNL     1       7.739  10.275  -2.170  1.00  0.00     0.022 A 
BRANCH  43  46
ATOM     46  S   UNL     1       6.019  12.080  -3.300  1.00  0.00     0.127 S 
ATOM     47  O   UNL     1       5.090  12.051  -2.170  1.00  0.00    -0.237 OA
ATOM     48  O   UNL     1       7.164  12.975  -3.122  1.00  0.00    -0.237 OA
ATOM     49  O   UNL     1       5.406  12.137  -4.618  1.00  0.00    -0.744 OA
ENDBRANCH  43  46
ENDBRANCH  25  39
BRANCH  26  50
ATOM     50  C   UNL     1       4.483   0.848 -10.105  1.00  0.00     0.023 A 
ATOM     51  C   UNL     1       5.389   0.029 -10.804  1.00  0.00     0.012 A 
ATOM     52  C   UNL     1       3.099   0.611 -10.232  1.00  0.00     0.148 A 
ATOM     53  C   UNL     1       4.925  -1.005 -11.620  1.00  0.00     0.002 A 
ATOM     54  C   UNL     1       2.648  -0.456 -10.999  1.00  0.00     0.091 A 
ATOM     55  F   UNL     1       2.256   1.414  -9.568  1.00  0.00    -0.205 F 
ATOM     56  C   UNL     1       3.558  -1.257 -11.705  1.00  0.00     0.022 A 
BRANCH  54  57
ATOM     57  S   UNL     1       0.919  -0.943 -11.054  1.00  0.00     0.127 S 
ATOM     58  O   UNL     1       0.592  -0.718 -12.462  1.00  0.00    -0.237 OA
ATOM     59  O   UNL     1       0.996  -2.350 -10.658  1.00  0.00    -0.237 OA
ATOM     60  O   UNL     1       0.232  -0.082 -10.106  1.00  0.00    -0.744 OA
ENDBRANCH  54  57
ENDBRANCH  26  50
BRANCH  38  61
ATOM     61  C   UNL     1       7.841   6.934 -11.021  1.00  0.00     0.023 A 
ATOM     62  C   UNL     1       6.988   7.566 -11.946  1.00  0.00     0.012 A 
ATOM     63  C   UNL     1       9.238   7.069 -11.165  1.00  0.00     0.148 A 
ATOM     64  C   UNL     1       7.515   8.308 -13.004  1.00  0.00     0.002 A 
ATOM     65  C   UNL     1       9.755   7.852 -12.190  1.00  0.00     0.091 A 
ATOM     66  F   UNL     1      10.032   6.445 -10.284  1.00  0.00    -0.205 F 
ATOM     67  C   UNL     1       8.896   8.464 -13.117  1.00  0.00     0.022 A 
BRANCH  65  68
ATOM     68  S   UNL     1      11.511   8.193 -12.357  1.00  0.00     0.127 S 
ATOM     69  O   UNL     1      11.830   7.514 -13.610  1.00  0.00    -0.237 OA
ATOM     70  O   UNL     1      11.536   9.653 -12.428  1.00  0.00    -0.237 OA
ATOM     71  O   UNL     1      12.147   7.631 -11.169  1.00  0.00    -0.744 OA
ENDBRANCH  65  68
ENDBRANCH  38  61
ENDBRANCH  12  13
ENDBRANCH   5   7
ENDBRANCH   2   3
ENDBRANCH   1   2
BRANCH   1  72
ATOM     72  C   UNL     1       3.861   0.481   4.960  1.00  0.00     0.117 C 
BRANCH  72  73
ATOM     73  N   UNL     1       4.141  -0.933   5.342  1.00  0.00    -0.356 N 
ATOM     74  C   UNL     1       5.124  -1.696   5.924  1.00  0.00     0.224 C 
ATOM     75  H   UNL     1       3.376  -1.503   5.099  1.00  0.00     0.163 HD
ATOM     76  O   UNL     1       4.872  -2.887   6.123  1.00  0.00    -0.275 OA
BRANCH  74  77
ATOM     77  C   UNL     1       6.446  -1.121   6.341  1.00  0.00     0.098 C 
ATOM     78  C   UNL     1       7.473  -0.979   5.222  1.00  0.00     0.098 C 
ATOM     79  C   UNL     1       7.325  -1.909   7.381  1.00  0.00     0.025 C 
ATOM     80  C   UNL     1       8.806  -0.876   6.045  1.00  0.00     0.025 C 
ATOM     81  C   UNL     1       8.283  -2.969   6.797  1.00  0.00    -0.027 C 
ATOM     82  C   UNL     1       8.399  -0.820   7.538  1.00  0.00     0.017 C 
ATOM     83  C   UNL     1       9.236  -2.330   6.088  1.00  0.00    -0.027 C 
BRANCH  78  84
ATOM     84  C   UNL     1       7.028  -0.001   4.184  1.00  0.00     0.224 C 
ATOM     85  O   UNL     1       7.241   1.204   4.287  1.00  0.00    -0.275 OA
ATOM     86  N   UNL     1       6.260  -0.496   3.135  1.00  0.00    -0.352 N 
ATOM     87  H   UNL     1       5.770   0.192   2.630  1.00  0.00     0.163 HD
BRANCH  86  88
ATOM     88  C   UNL     1       6.051  -1.884   2.645  1.00  0.00     0.151 C 
BRANCH  88  89
ATOM     89  C   UNL     1       4.690  -2.472   2.225  1.00  0.00    -0.025 A 
ATOM     90  C   UNL     1       3.470  -2.345   2.893  1.00  0.00     0.044 A 
ATOM     91  C   UNL     1       4.662  -3.398   1.172  1.00  0.00     0.021 A 
ATOM     92  C   UNL     1       2.361  -3.168   2.679  1.00  0.00     0.124 A 
ATOM     93  C   UNL     1       3.518  -4.175   0.891  1.00  0.00     0.021 A 
ATOM     94  F   UNL     1       1.270  -3.013   3.445  1.00  0.00    -0.207 F 
ATOM     95  C   UNL     1       2.378  -4.108   1.680  1.00  0.00     0.055 A 
ATOM     96  Br  UNL     1       3.533  -5.339  -0.596  1.00  0.00    -0.051 Br
ENDBRANCH  88  89
ENDBRANCH  86  88
ENDBRANCH  78  84
ENDBRANCH  74  77
ENDBRANCH  72  73
ENDBRANCH   1  72
TORSDOF 16
