REMARK SMILES C[NH+](C)[C@@H]1CC[N@@H+](Cc2ccc(C(=O)NCCCNC(=O)c3ccc(-c4c5nc(c(-c6cccc(S(=O)(=O)[O-])c6F)c6ccc([nH]6)c(-c6cccc(S(=O)(=O)[O-])c6F)c6nc(c(-c7cccc(S(=O)(=O)[O-])c7F)c7ccc4[nH]7)C=C6)C=C5)cc3)cn2)C1
REMARK SMILES IDX 17 1 16 2 15 3 13 4 14 5 12 7 9 8 10 9 86 10 11 11 85 12
REMARK SMILES IDX 8 13 7 14 4 15 5 16 87 17 6 18 2 20 1 21 3 22 18 24 19 25
REMARK SMILES IDX 20 26 21 28 22 29 23 30 84 31 24 32 83 33 25 34 26 35 27 36
REMARK SMILES IDX 77 37 28 38 82 39 76 40 78 41 29 42 81 43 75 44 74 45 30 47
REMARK SMILES IDX 62 48 42 49 61 50 43 51 46 52 60 53 79 54 44 55 45 56 59 58
REMARK SMILES IDX 80 59 47 60 31 61 32 62 40 63 33 64 35 65 41 66 34 67 36 68
REMARK SMILES IDX 37 69 38 70 39 71 63 72 64 73 72 74 65 75 67 76 73 77 66 78
REMARK SMILES IDX 68 79 69 80 70 81 71 82 48 83 49 84 57 85 50 86 52 87 58 88
REMARK SMILES IDX 51 89 53 90 54 91 55 92 56 93
REMARK H PARENT 15 6 7 19 2 23 19 27 78 46 46 57
REMARK Flexibility Score: inf
ROOT
ATOM      1  C   UNL     1       3.122   2.539   5.561  1.00  0.00     0.042 C 
ENDROOT
BRANCH   1   2
ATOM      2  C   UNL     1       1.793   3.065   5.024  1.00  0.00     0.118 C 
BRANCH   2   3
ATOM      3  N   UNL     1       1.638   4.488   5.274  1.00  0.00    -0.352 N 
ATOM      4  C   UNL     1       1.752   5.572   4.440  1.00  0.00     0.252 C 
ATOM      5  O   UNL     1       1.439   6.680   4.872  1.00  0.00    -0.269 OA
ATOM      6  H   UNL     1       1.412   4.714   6.205  1.00  0.00     0.163 HD
BRANCH   4   7
ATOM      7  C   UNL     1       2.161   5.441   3.027  1.00  0.00     0.058 A 
ATOM      8  C   UNL     1       2.620   5.263   0.313  1.00  0.00     0.095 A 
ATOM      9  C   UNL     1       3.342   4.446   1.179  1.00  0.00     0.030 A 
ATOM     10  N   UNL     1       1.755   6.208   0.764  1.00  0.00    -0.255 NA
ATOM     11  C   UNL     1       3.115   4.546   2.550  1.00  0.00     0.017 A 
ATOM     12  C   UNL     1       1.558   6.283   2.104  1.00  0.00     0.125 A 
BRANCH   8  13
ATOM     13  C   UNL     1       2.713   5.058  -1.187  1.00  0.00     0.319 C 
BRANCH  13  14
ATOM     14  N   UNL     1       1.782   4.095  -1.801  1.00  0.00    -0.325 N 
ATOM     15  C   UNL     1       0.802   2.344  -0.386  1.00  0.00     0.245 C 
ATOM     16  C   UNL     1      -0.092   3.593  -0.407  1.00  0.00     0.132 C 
ATOM     17  C   UNL     1       1.943   2.698  -1.379  1.00  0.00     0.328 C 
ATOM     18  C   UNL     1       0.365   4.405  -1.605  1.00  0.00     0.269 C 
ATOM     19  H   UNL     1       2.046   4.195  -2.781  1.00  0.00     0.348 HD
BRANCH  15  20
ATOM     20  N   UNL     1       0.222   1.032  -0.752  1.00  0.00    -0.333 N 
ATOM     21  C   UNL     1       0.900  -0.053  -0.035  1.00  0.00     0.332 C 
ATOM     22  C   UNL     1      -1.220   0.911  -0.596  1.00  0.00     0.332 C 
ATOM     23  H   UNL     1       0.386   0.956  -1.756  1.00  0.00     0.348 HD
ENDBRANCH  15  20
ENDBRANCH  13  14
ENDBRANCH   8  13
ENDBRANCH   4   7
ENDBRANCH   2   3
ENDBRANCH   1   2
BRANCH   1  24
ATOM     24  C   UNL     1       3.192   2.494   7.084  1.00  0.00     0.118 C 
BRANCH  24  25
ATOM     25  N   UNL     1       2.304   1.487   7.647  1.00  0.00    -0.352 N 
ATOM     26  C   UNL     1       2.593   0.396   8.429  1.00  0.00     0.251 C 
ATOM     27  H   UNL     1       1.350   1.607   7.435  1.00  0.00     0.163 HD
ATOM     28  O   UNL     1       1.724  -0.451   8.620  1.00  0.00    -0.269 OA
BRANCH  26  29
ATOM     29  C   UNL     1       3.936   0.228   9.030  1.00  0.00     0.039 A 
ATOM     30  C   UNL     1       4.499  -1.051   9.076  1.00  0.00     0.014 A 
ATOM     31  C   UNL     1       4.623   1.311   9.584  1.00  0.00     0.014 A 
ATOM     32  C   UNL     1       5.770  -1.232   9.627  1.00  0.00     0.010 A 
ATOM     33  C   UNL     1       5.921   1.143  10.060  1.00  0.00     0.010 A 
ATOM     34  C   UNL     1       6.505  -0.132  10.098  1.00  0.00    -0.014 A 
BRANCH  34  35
ATOM     35  C   UNL     1       7.883  -0.292  10.630  1.00  0.00     0.031 A 
ATOM     36  C   UNL     1       8.192   0.055  12.062  1.00  0.00     0.074 A 
ATOM     37  C   UNL     1       8.875  -0.664   9.798  1.00  0.00     0.049 A 
ATOM     38  N   UNL     1       9.341   0.034  12.686  1.00  0.00    -0.248 NA
ATOM     39  C   UNL     1       7.067   0.514  12.893  1.00  0.00     0.031 C 
ATOM     40  C   UNL     1       8.718  -0.954   8.372  1.00  0.00     0.029 A 
ATOM     41  N   UNL     1      10.218  -0.838  10.026  1.00  0.00    -0.354 N 
ATOM     42  C   UNL     1       9.087   0.511  13.966  1.00  0.00     0.074 A 
ATOM     43  C   UNL     1       7.681   0.848  14.019  1.00  0.00     0.031 C 
ATOM     44  C   UNL     1       9.913  -1.277   7.854  1.00  0.00     0.029 A 
ATOM     45  C   UNL     1      10.926  -1.187   8.900  1.00  0.00     0.049 A 
ATOM     46  H   UNL     1      10.634  -0.722  10.910  1.00  0.00     0.167 HD
ATOM     47  C   UNL     1       9.938   0.632  15.014  1.00  0.00     0.034 A 
ATOM     48  C   UNL     1      12.245  -1.406   8.728  1.00  0.00     0.034 A 
ATOM     49  C   UNL     1      11.326   0.258  14.968  1.00  0.00     0.049 A 
ATOM     50  C   UNL     1      13.164  -1.302   9.913  1.00  0.00     0.074 A 
ATOM     51  C   UNL     1      12.251   0.253  15.997  1.00  0.00     0.029 A 
ATOM     52  N   UNL     1      11.994  -0.167  13.829  1.00  0.00    -0.354 N 
ATOM     53  N   UNL     1      12.876  -1.002  11.157  1.00  0.00    -0.248 NA
ATOM     54  C   UNL     1      14.584  -1.599   9.681  1.00  0.00     0.031 C 
ATOM     55  C   UNL     1      13.485  -0.150  15.474  1.00  0.00     0.029 A 
ATOM     56  C   UNL     1      13.321  -0.425  14.125  1.00  0.00     0.049 A 
ATOM     57  H   UNL     1      11.583  -0.271  12.941  1.00  0.00     0.167 HD
ATOM     58  C   UNL     1      14.069  -1.110  11.862  1.00  0.00     0.074 A 
ATOM     59  C   UNL     1      15.080  -1.520  10.909  1.00  0.00     0.031 C 
ATOM     60  C   UNL     1      14.308  -0.878  13.177  1.00  0.00     0.034 A 
BRANCH  47  61
ATOM     61  C   UNL     1       9.374   1.150  16.314  1.00  0.00     0.023 A 
ATOM     62  C   UNL     1       8.479   0.349  17.053  1.00  0.00     0.012 A 
ATOM     63  C   UNL     1       9.753   2.408  16.822  1.00  0.00     0.148 A 
ATOM     64  C   UNL     1       7.933   0.810  18.251  1.00  0.00     0.002 A 
ATOM     65  C   UNL     1       9.241   2.841  18.041  1.00  0.00     0.091 A 
ATOM     66  F   UNL     1      10.588   3.167  16.098  1.00  0.00    -0.205 F 
ATOM     67  C   UNL     1       8.321   2.050  18.748  1.00  0.00     0.022 A 
BRANCH  65  68
ATOM     68  S   UNL     1       9.743   4.387  18.804  1.00  0.00     0.127 S 
ATOM     69  O   UNL     1       8.561   5.220  18.588  1.00  0.00    -0.237 OA
ATOM     70  O   UNL     1       9.961   3.989  20.195  1.00  0.00    -0.237 OA
ATOM     71  O   UNL     1      10.946   4.808  18.100  1.00  0.00    -0.744 OA
ENDBRANCH  65  68
ENDBRANCH  47  61
BRANCH  48  72
ATOM     72  C   UNL     1      12.754  -1.826   7.392  1.00  0.00     0.023 A 
ATOM     73  C   UNL     1      13.194  -3.152   7.209  1.00  0.00     0.012 A 
ATOM     74  C   UNL     1      12.758  -0.943   6.295  1.00  0.00     0.148 A 
ATOM     75  C   UNL     1      13.651  -3.584   5.964  1.00  0.00     0.002 A 
ATOM     76  C   UNL     1      13.163  -1.396   5.045  1.00  0.00     0.091 A 
ATOM     77  F   UNL     1      12.342   0.316   6.492  1.00  0.00    -0.205 F 
ATOM     78  C   UNL     1      13.626  -2.711   4.880  1.00  0.00     0.022 A 
BRANCH  76  79
ATOM     79  S   UNL     1      13.037  -0.387   3.563  1.00  0.00     0.127 S 
ATOM     80  O   UNL     1      14.441  -0.177   3.223  1.00  0.00    -0.237 OA
ATOM     81  O   UNL     1      12.308  -1.275   2.657  1.00  0.00    -0.237 OA
ATOM     82  O   UNL     1      12.299   0.805   3.959  1.00  0.00    -0.744 OA
ENDBRANCH  76  79
ENDBRANCH  48  72
BRANCH  60  83
ATOM     83  C   UNL     1      15.711  -1.094  13.680  1.00  0.00     0.023 A 
ATOM     84  C   UNL     1      16.729  -0.183  13.335  1.00  0.00     0.012 A 
ATOM     85  C   UNL     1      16.004  -2.159  14.555  1.00  0.00     0.148 A 
ATOM     86  C   UNL     1      18.024  -0.347  13.827  1.00  0.00     0.002 A 
ATOM     87  C   UNL     1      17.284  -2.287  15.081  1.00  0.00     0.091 A 
ATOM     88  F   UNL     1      15.027  -3.027  14.856  1.00  0.00    -0.205 F 
ATOM     89  C   UNL     1      18.298  -1.390  14.709  1.00  0.00     0.022 A 
BRANCH  87  90
ATOM     90  S   UNL     1      17.703  -3.541  16.298  1.00  0.00     0.127 S 
ATOM     91  O   UNL     1      18.524  -4.458  15.510  1.00  0.00    -0.237 OA
ATOM     92  O   UNL     1      18.441  -2.768  17.298  1.00  0.00    -0.237 OA
ATOM     93  O   UNL     1      16.436  -4.082  16.769  1.00  0.00    -0.744 OA
ENDBRANCH  87  90
ENDBRANCH  60  83
ENDBRANCH  34  35
ENDBRANCH  26  29
ENDBRANCH  24  25
ENDBRANCH   1  24
TORSDOF 16
