REMARK SMILES Nc1c(N2CCC(C(=O)NCCCNC(=O)c3ccc(-c4c5nc(c(-c6cccc(S(=O)(=O)[O-])c6F)c6ccc([nH]6)c(-c6cccc(S(=O)(=O)[O-])c6F)c6nc(c(-c7cccc(S(=O)(=O)[O-])c7F)c7ccc4[nH]7)C=C6)C=C5)cc3)CC2)ncnc1N1CCN(c2ccccc2)CC1
REMARK SMILES IDX 12 1 11 2 10 3 8 4 9 5 7 7 4 8 5 9 81 10 6 11 80 12 3 13
REMARK SMILES IDX 2 14 85 15 82 16 84 17 83 18 1 19 86 22 87 23 97 24 88 25
REMARK SMILES IDX 96 26 89 27 90 28 91 29 95 30 92 31 94 32 93 33 13 34 14 35
REMARK SMILES IDX 15 36 16 38 17 39 18 40 79 41 19 42 78 43 20 44 21 45 22 46
REMARK SMILES IDX 72 47 23 48 77 49 71 50 73 51 24 52 76 53 70 54 69 55 25 57
REMARK SMILES IDX 57 58 37 59 56 60 38 61 41 62 55 63 74 64 39 65 40 66 54 68
REMARK SMILES IDX 75 69 42 70 26 71 27 72 35 73 28 74 30 75 36 76 29 77 31 78
REMARK SMILES IDX 32 79 33 80 34 81 58 82 59 83 67 84 60 85 62 86 68 87 61 88
REMARK SMILES IDX 63 89 64 90 65 91 66 92 43 93 44 94 52 95 45 96 47 97 53 98
REMARK SMILES IDX 46 99 48 100 49 101 50 102 51 103
REMARK H PARENT 10 6 1 20 1 21 14 37 73 56 41 67
REMARK Flexibility Score: inf
ROOT
ATOM      1  C   UNL     1      -3.683  -4.299  -3.505  1.00  0.00     0.042 C 
ENDROOT
BRANCH   1   2
ATOM      2  C   UNL     1      -2.470  -3.600  -4.101  1.00  0.00     0.117 C 
BRANCH   2   3
ATOM      3  N   UNL     1      -2.833  -2.671  -5.166  1.00  0.00    -0.356 N 
ATOM      4  C   UNL     1      -2.755  -1.314  -5.233  1.00  0.00     0.223 C 
ATOM      5  O   UNL     1      -3.128  -0.762  -6.271  1.00  0.00    -0.275 OA
ATOM      6  H   UNL     1      -3.195  -3.099  -5.975  1.00  0.00     0.163 HD
BRANCH   4   7
ATOM      7  C   UNL     1      -2.192  -0.494  -4.087  1.00  0.00     0.082 C 
ATOM      8  N   UNL     1      -1.041  -0.538  -1.514  1.00  0.00    -0.355 N 
ATOM      9  C   UNL     1      -2.403  -0.061  -1.585  1.00  0.00     0.119 C 
ATOM     10  C   UNL     1      -0.133  -0.265  -2.608  1.00  0.00     0.119 C 
ATOM     11  C   UNL     1      -3.072  -0.605  -2.833  1.00  0.00     0.035 C 
ATOM     12  C   UNL     1      -0.699  -0.806  -3.906  1.00  0.00     0.035 C 
BRANCH   8  13
ATOM     13  C   UNL     1      -0.645  -1.287  -0.419  1.00  0.00     0.157 A 
ATOM     14  C   UNL     1       0.470  -0.894   0.328  1.00  0.00     0.118 A 
ATOM     15  C   UNL     1       0.848  -1.736   1.385  1.00  0.00     0.157 A 
ATOM     16  N   UNL     1      -1.337  -2.400  -0.123  1.00  0.00    -0.217 NA
ATOM     17  N   UNL     1       0.217  -2.889   1.646  1.00  0.00    -0.217 NA
ATOM     18  C   UNL     1      -0.868  -3.141   0.897  1.00  0.00     0.226 A 
BRANCH  14  19
ATOM     19  N   UNL     1       1.143   0.320   0.091  1.00  0.00    -0.393 N 
ATOM     20  H   UNL     1       0.865   0.899  -0.656  1.00  0.00     0.156 HD
ATOM     21  H   UNL     1       1.891   0.589   0.671  1.00  0.00     0.156 HD
ENDBRANCH  14  19
BRANCH  15  22
ATOM     22  N   UNL     1       1.929  -1.361   2.159  1.00  0.00    -0.351 N 
ATOM     23  C   UNL     1       2.954  -2.324   2.539  1.00  0.00     0.139 C 
ATOM     24  C   UNL     1       1.792  -0.204   3.050  1.00  0.00     0.139 C 
ATOM     25  C   UNL     1       4.320  -1.587   2.528  1.00  0.00     0.138 C 
ATOM     26  C   UNL     1       3.132   0.559   3.083  1.00  0.00     0.138 C 
ATOM     27  N   UNL     1       4.252  -0.365   3.353  1.00  0.00    -0.368 N 
BRANCH  27  28
ATOM     28  C   UNL     1       5.362   0.127   4.003  1.00  0.00     0.037 A 
ATOM     29  C   UNL     1       6.629   0.171   3.414  1.00  0.00     0.026 A 
ATOM     30  C   UNL     1       5.232   0.584   5.321  1.00  0.00     0.026 A 
ATOM     31  C   UNL     1       7.733   0.655   4.124  1.00  0.00     0.002 A 
ATOM     32  C   UNL     1       6.330   1.050   6.041  1.00  0.00     0.002 A 
ATOM     33  C   UNL     1       7.584   1.087   5.440  1.00  0.00     0.000 A 
ENDBRANCH  27  28
ENDBRANCH  15  22
ENDBRANCH   8  13
ENDBRANCH   4   7
ENDBRANCH   2   3
ENDBRANCH   1   2
BRANCH   1  34
ATOM     34  C   UNL     1      -4.434  -5.167  -4.500  1.00  0.00     0.118 C 
BRANCH  34  35
ATOM     35  N   UNL     1      -3.634  -6.288  -4.978  1.00  0.00    -0.352 N 
ATOM     36  C   UNL     1      -3.762  -7.630  -4.722  1.00  0.00     0.251 C 
ATOM     37  H   UNL     1      -2.889  -6.045  -5.574  1.00  0.00     0.163 HD
ATOM     38  O   UNL     1      -2.861  -8.400  -5.050  1.00  0.00    -0.269 OA
BRANCH  36  39
ATOM     39  C   UNL     1      -4.969  -8.145  -4.043  1.00  0.00     0.039 A 
ATOM     40  C   UNL     1      -4.828  -9.113  -3.046  1.00  0.00     0.014 A 
ATOM     41  C   UNL     1      -6.239  -7.680  -4.393  1.00  0.00     0.014 A 
ATOM     42  C   UNL     1      -5.957  -9.568  -2.361  1.00  0.00     0.010 A 
ATOM     43  C   UNL     1      -7.346  -8.057  -3.644  1.00  0.00     0.010 A 
ATOM     44  C   UNL     1      -7.221  -9.020  -2.634  1.00  0.00    -0.014 A 
BRANCH  44  45
ATOM     45  C   UNL     1      -8.428  -9.457  -1.891  1.00  0.00     0.031 A 
ATOM     46  C   UNL     1      -9.559 -10.129  -2.620  1.00  0.00     0.074 A 
ATOM     47  C   UNL     1      -8.534  -9.194  -0.574  1.00  0.00     0.049 A 
ATOM     48  N   UNL     1     -10.700 -10.562  -2.151  1.00  0.00    -0.248 NA
ATOM     49  C   UNL     1      -9.400 -10.316  -4.073  1.00  0.00     0.031 C 
ATOM     50  C   UNL     1      -7.534  -8.488   0.229  1.00  0.00     0.029 A 
ATOM     51  N   UNL     1      -9.536  -9.480   0.320  1.00  0.00    -0.354 N 
ATOM     52  C   UNL     1     -11.399 -11.052  -3.248  1.00  0.00     0.074 A 
ATOM     53  C   UNL     1     -10.581 -10.808  -4.415  1.00  0.00     0.031 C 
ATOM     54  C   UNL     1      -7.958  -8.422   1.500  1.00  0.00     0.029 A 
ATOM     55  C   UNL     1      -9.272  -9.051   1.599  1.00  0.00     0.049 A 
ATOM     56  H   UNL     1     -10.364  -9.949   0.068  1.00  0.00     0.167 HD
ATOM     57  C   UNL     1     -12.592 -11.691  -3.278  1.00  0.00     0.034 A 
ATOM     58  C   UNL     1     -10.003  -9.160   2.727  1.00  0.00     0.034 A 
ATOM     59  C   UNL     1     -13.383 -11.962  -2.110  1.00  0.00     0.049 A 
ATOM     60  C   UNL     1     -11.326  -9.874   2.672  1.00  0.00     0.074 A 
ATOM     61  C   UNL     1     -14.575 -12.659  -2.023  1.00  0.00     0.029 A 
ATOM     62  N   UNL     1     -13.066 -11.547  -0.825  1.00  0.00    -0.354 N 
ATOM     63  N   UNL     1     -11.907 -10.457   1.651  1.00  0.00    -0.248 NA
ATOM     64  C   UNL     1     -12.084  -9.970   3.929  1.00  0.00     0.031 C 
ATOM     65  C   UNL     1     -14.991 -12.642  -0.688  1.00  0.00     0.029 A 
ATOM     66  C   UNL     1     -14.046 -11.959   0.061  1.00  0.00     0.049 A 
ATOM     67  H   UNL     1     -12.262 -11.034  -0.579  1.00  0.00     0.167 HD
ATOM     68  C   UNL     1     -13.084 -11.010   2.143  1.00  0.00     0.074 A 
ATOM     69  C   UNL     1     -13.121 -10.712   3.561  1.00  0.00     0.031 C 
ATOM     70  C   UNL     1     -14.052 -11.688   1.478  1.00  0.00     0.034 A 
BRANCH  57  71
ATOM     71  C   UNL     1     -13.075 -12.200  -4.612  1.00  0.00     0.023 A 
ATOM     72  C   UNL     1     -12.397 -13.274  -5.228  1.00  0.00     0.012 A 
ATOM     73  C   UNL     1     -14.216 -11.658  -5.236  1.00  0.00     0.148 A 
ATOM     74  C   UNL     1     -12.818 -13.771  -6.459  1.00  0.00     0.002 A 
ATOM     75  C   UNL     1     -14.660 -12.194  -6.441  1.00  0.00     0.091 A 
ATOM     76  F   UNL     1     -14.836 -10.624  -4.650  1.00  0.00    -0.205 F 
ATOM     77  C   UNL     1     -13.955 -13.239  -7.060  1.00  0.00     0.022 A 
BRANCH  75  78
ATOM     78  S   UNL     1     -16.162 -11.637  -7.254  1.00  0.00     0.127 S 
ATOM     79  O   UNL     1     -15.623 -10.931  -8.416  1.00  0.00    -0.237 OA
ATOM     80  O   UNL     1     -16.829 -12.902  -7.566  1.00  0.00    -0.237 OA
ATOM     81  O   UNL     1     -16.859 -10.805  -6.284  1.00  0.00    -0.744 OA
ENDBRANCH  75  78
ENDBRANCH  57  71
BRANCH  58  82
ATOM     82  C   UNL     1      -9.438  -8.665   4.015  1.00  0.00     0.023 A 
ATOM     83  C   UNL     1      -9.015  -9.600   4.979  1.00  0.00     0.012 A 
ATOM     84  C   UNL     1      -9.239  -7.291   4.256  1.00  0.00     0.148 A 
ATOM     85  C   UNL     1      -8.413  -9.177   6.164  1.00  0.00     0.002 A 
ATOM     86  C   UNL     1      -8.589  -6.879   5.414  1.00  0.00     0.091 A 
ATOM     87  F   UNL     1      -9.654  -6.418   3.327  1.00  0.00    -0.205 F 
ATOM     88  C   UNL     1      -8.188  -7.820   6.376  1.00  0.00     0.022 A 
BRANCH  86  89
ATOM     89  S   UNL     1      -8.130  -5.168   5.715  1.00  0.00     0.127 S 
ATOM     90  O   UNL     1      -8.906  -4.855   6.912  1.00  0.00    -0.237 OA
ATOM     91  O   UNL     1      -6.687  -5.281   5.927  1.00  0.00    -0.237 OA
ATOM     92  O   UNL     1      -8.511  -4.438   4.514  1.00  0.00    -0.744 OA
ENDBRANCH  86  89
ENDBRANCH  58  82
BRANCH  70  93
ATOM     93  C   UNL     1     -15.251 -12.162   2.261  1.00  0.00     0.023 A 
ATOM     94  C   UNL     1     -16.212 -11.226   2.690  1.00  0.00     0.012 A 
ATOM     95  C   UNL     1     -15.488 -13.537   2.459  1.00  0.00     0.148 A 
ATOM     96  C   UNL     1     -17.381 -11.649   3.320  1.00  0.00     0.002 A 
ATOM     97  C   UNL     1     -16.680 -13.954   3.040  1.00  0.00     0.091 A 
ATOM     98  F   UNL     1     -14.554 -14.411   2.055  1.00  0.00    -0.205 F 
ATOM     99  C   UNL     1     -17.622 -13.011   3.481  1.00  0.00     0.022 A 
BRANCH  97 100
ATOM    100  S   UNL     1     -17.130 -15.687   3.192  1.00  0.00     0.127 S 
ATOM    101  O   UNL     1     -17.086 -15.880   4.641  1.00  0.00    -0.237 OA
ATOM    102  O   UNL     1     -18.474 -15.708   2.614  1.00  0.00    -0.237 OA
ATOM    103  O   UNL     1     -16.132 -16.432   2.436  1.00  0.00    -0.744 OA
ENDBRANCH  97 100
ENDBRANCH  70  93
ENDBRANCH  44  45
ENDBRANCH  36  39
ENDBRANCH  34  35
ENDBRANCH   1  34
TORSDOF 17
