REMARK SMILES COc1ccc(CCN2C(=O)CC[C@@H](C(=O)NCCCNC(=O)c3ccc(-c4c5nc(c(-c6cccc(S(=O)(=O)[O-])c6F)c6ccc([nH]6)c(-c6cccc(S(=O)(=O)[O-])c6F)c6nc(c(-c7cccc(S(=O)(=O)[O-])c7F)c7ccc4[nH]7)C=C6)C=C5)cc3)[C@@H]2c2ccc(Cl)cc2)cc1OC
REMARK SMILES IDX 18 1 17 2 15 3 16 4 14 6 9 7 10 8 87 9 11 10 12 11 13 12
REMARK SMILES IDX 8 13 7 14 6 15 3 16 4 17 96 18 5 19 95 20 2 21 1 22 97 23
REMARK SMILES IDX 98 24 88 25 89 26 94 27 90 28 93 29 91 30 92 31 19 32 20 33
REMARK SMILES IDX 21 34 22 35 23 37 24 38 25 39 86 40 26 41 85 42 27 43 28 44
REMARK SMILES IDX 29 45 79 46 30 47 84 48 78 49 80 50 31 51 83 52 77 53 76 54
REMARK SMILES IDX 32 56 64 57 44 58 63 59 45 60 48 61 62 62 81 63 46 64 47 65
REMARK SMILES IDX 61 67 82 68 49 69 33 70 34 71 42 72 35 73 37 74 43 75 36 76
REMARK SMILES IDX 38 77 39 78 40 79 41 80 65 81 66 82 74 83 67 84 69 85 75 86
REMARK SMILES IDX 68 87 70 88 71 89 72 90 73 91 50 92 51 93 59 94 52 95 54 96
REMARK SMILES IDX 60 97 53 98 55 99 56 100 57 101 58 102
REMARK H PARENT 17 5 21 36 80 55 48 66
REMARK Flexibility Score: inf
ROOT
ATOM      1  C   UNL     1      -4.659  -7.624  -6.305  1.00  0.00     0.117 C 
ENDROOT
BRANCH   1   2
ATOM      2  N   UNL     1      -3.526  -7.186  -7.098  1.00  0.00    -0.356 N 
ATOM      3  C   UNL     1      -2.270  -6.829  -6.713  1.00  0.00     0.225 C 
ATOM      4  O   UNL     1      -1.436  -6.658  -7.602  1.00  0.00    -0.275 OA
ATOM      5  H   UNL     1      -3.691  -7.139  -8.067  1.00  0.00     0.163 HD
BRANCH   3   6
ATOM      6  C   UNL     1      -1.932  -6.679  -5.226  1.00  0.00     0.106 C 
ATOM      7  N   UNL     1      -0.117  -4.907  -5.292  1.00  0.00    -0.335 N 
ATOM      8  C   UNL     1      -1.110  -4.051  -5.772  1.00  0.00     0.223 C 
ATOM      9  C   UNL     1      -0.421  -6.352  -5.040  1.00  0.00     0.128 C 
ATOM     10  O   UNL     1      -0.879  -3.085  -6.498  1.00  0.00    -0.275 OA
ATOM     11  C   UNL     1      -2.519  -4.265  -5.257  1.00  0.00     0.101 C 
ATOM     12  C   UNL     1      -2.720  -5.576  -4.532  1.00  0.00     0.026 C 
BRANCH   7  13
ATOM     13  C   UNL     1       1.280  -4.538  -5.575  1.00  0.00     0.125 C 
BRANCH  13  14
ATOM     14  C   UNL     1       1.726  -3.090  -5.230  1.00  0.00     0.057 C 
BRANCH  14  15
ATOM     15  C   UNL     1       1.554  -2.597  -3.805  1.00  0.00    -0.042 A 
ATOM     16  C   UNL     1       1.254  -1.578  -1.184  1.00  0.00     0.160 A 
ATOM     17  C   UNL     1       0.137  -1.960  -1.927  1.00  0.00     0.051 A 
ATOM     18  C   UNL     1       2.534  -1.702  -1.740  1.00  0.00     0.160 A 
ATOM     19  C   UNL     1       0.289  -2.424  -3.234  1.00  0.00     0.008 A 
ATOM     20  C   UNL     1       2.668  -2.221  -3.040  1.00  0.00     0.054 A 
BRANCH  16  21
ATOM     21  O   UNL     1       1.076  -1.155   0.105  1.00  0.00    -0.493 OA
ATOM     22  C   UNL     1       0.291   0.037   0.178  1.00  0.00     0.278 C 
ENDBRANCH  16  21
BRANCH  18  23
ATOM     23  O   UNL     1       3.733  -1.370  -1.164  1.00  0.00    -0.493 OA
ATOM     24  C   UNL     1       3.701  -0.492  -0.047  1.00  0.00     0.278 C 
ENDBRANCH  18  23
ENDBRANCH  14  15
ENDBRANCH  13  14
ENDBRANCH   7  13
BRANCH   9  25
ATOM     25  C   UNL     1       0.088  -6.905  -3.691  1.00  0.00    -0.025 A 
ATOM     26  C   UNL     1       0.717  -6.115  -2.720  1.00  0.00     0.007 A 
ATOM     27  C   UNL     1      -0.059  -8.280  -3.405  1.00  0.00     0.007 A 
ATOM     28  C   UNL     1       1.193  -6.663  -1.523  1.00  0.00     0.021 A 
ATOM     29  C   UNL     1       0.378  -8.825  -2.193  1.00  0.00     0.021 A 
ATOM     30  C   UNL     1       1.013  -8.014  -1.260  1.00  0.00     0.041 A 
ATOM     31  Cl  UNL     1       1.583  -8.688   0.216  1.00  0.00    -0.084 Cl
ENDBRANCH   9  25
ENDBRANCH   3   6
ENDBRANCH   1   2
BRANCH   1  32
ATOM     32  C   UNL     1      -5.803  -6.615  -6.300  1.00  0.00     0.042 C 
BRANCH  32  33
ATOM     33  C   UNL     1      -6.387  -6.308  -7.674  1.00  0.00     0.118 C 
BRANCH  33  34
ATOM     34  N   UNL     1      -6.906  -7.492  -8.344  1.00  0.00    -0.352 N 
ATOM     35  C   UNL     1      -8.178  -7.787  -8.762  1.00  0.00     0.251 C 
ATOM     36  H   UNL     1      -6.238  -8.192  -8.525  1.00  0.00     0.163 HD
ATOM     37  O   UNL     1      -8.435  -8.935  -9.132  1.00  0.00    -0.269 OA
BRANCH  35  38
ATOM     38  C   UNL     1      -9.240  -6.758  -8.758  1.00  0.00     0.039 A 
ATOM     39  C   UNL     1     -10.528  -7.119  -8.353  1.00  0.00     0.014 A 
ATOM     40  C   UNL     1      -8.984  -5.450  -9.178  1.00  0.00     0.014 A 
ATOM     41  C   UNL     1     -11.539  -6.157  -8.311  1.00  0.00     0.010 A 
ATOM     42  C   UNL     1      -9.970  -4.474  -9.054  1.00  0.00     0.010 A 
ATOM     43  C   UNL     1     -11.261  -4.817  -8.627  1.00  0.00    -0.014 A 
BRANCH  43  44
ATOM     44  C   UNL     1     -12.303  -3.765  -8.503  1.00  0.00     0.031 A 
ATOM     45  C   UNL     1     -12.751  -2.984  -9.710  1.00  0.00     0.074 A 
ATOM     46  C   UNL     1     -12.795  -3.460  -7.285  1.00  0.00     0.049 A 
ATOM     47  N   UNL     1     -13.618  -2.008  -9.785  1.00  0.00    -0.248 NA
ATOM     48  C   UNL     1     -12.127  -3.328 -10.999  1.00  0.00     0.031 C 
ATOM     49  C   UNL     1     -12.388  -4.090  -6.027  1.00  0.00     0.029 A 
ATOM     50  N   UNL     1     -13.727  -2.528  -6.902  1.00  0.00    -0.354 N 
ATOM     51  C   UNL     1     -13.621  -1.600 -11.114  1.00  0.00     0.074 A 
ATOM     52  C   UNL     1     -12.641  -2.410 -11.804  1.00  0.00     0.031 C 
ATOM     53  C   UNL     1     -13.074  -3.536  -5.015  1.00  0.00     0.029 A 
ATOM     54  C   UNL     1     -13.942  -2.489  -5.543  1.00  0.00     0.049 A 
ATOM     55  H   UNL     1     -14.198  -1.943  -7.538  1.00  0.00     0.167 HD
ATOM     56  C   UNL     1     -14.389  -0.658 -11.713  1.00  0.00     0.034 A 
ATOM     57  C   UNL     1     -14.741  -1.694  -4.804  1.00  0.00     0.034 A 
ATOM     58  C   UNL     1     -15.385   0.123 -11.030  1.00  0.00     0.049 A 
ATOM     59  C   UNL     1     -15.600  -0.673  -5.498  1.00  0.00     0.074 A 
ATOM     60  C   UNL     1     -16.268   1.046 -11.563  1.00  0.00     0.029 A 
ATOM     61  N   UNL     1     -15.624   0.085  -9.665  1.00  0.00    -0.354 N 
ATOM     62  N   UNL     1     -15.698  -0.409  -6.778  1.00  0.00    -0.248 NA
ATOM     63  C   UNL     1     -16.487   0.135  -4.649  1.00  0.00     0.031 C 
ATOM     64  C   UNL     1     -17.020   1.588 -10.515  1.00  0.00     0.029 A 
ATOM     65  C   UNL     1     -16.632   0.976  -9.335  1.00  0.00     0.049 A 
ATOM     66  H   UNL     1     -15.147  -0.490  -9.024  1.00  0.00     0.167 HD
ATOM     67  C   UNL     1     -16.683   0.566  -6.893  1.00  0.00     0.074 A 
ATOM     68  C   UNL     1     -17.166   0.829  -5.552  1.00  0.00     0.031 C 
ATOM     69  C   UNL     1     -17.138   1.195  -8.004  1.00  0.00     0.034 A 
BRANCH  56  70
ATOM     70  C   UNL     1     -14.214  -0.451 -13.196  1.00  0.00     0.023 A 
ATOM     71  C   UNL     1     -14.648  -1.448 -14.095  1.00  0.00     0.012 A 
ATOM     72  C   UNL     1     -13.681   0.750 -13.704  1.00  0.00     0.148 A 
ATOM     73  C   UNL     1     -14.519  -1.271 -15.472  1.00  0.00     0.002 A 
ATOM     74  C   UNL     1     -13.600   0.940 -15.079  1.00  0.00     0.091 A 
ATOM     75  F   UNL     1     -13.257   1.679 -12.836  1.00  0.00    -0.205 F 
ATOM     76  C   UNL     1     -14.006  -0.074 -15.963  1.00  0.00     0.022 A 
BRANCH  74  77
ATOM     77  S   UNL     1     -13.032   2.477 -15.816  1.00  0.00     0.127 S 
ATOM     78  O   UNL     1     -11.758   2.068 -16.405  1.00  0.00    -0.237 OA
ATOM     79  O   UNL     1     -14.089   2.760 -16.787  1.00  0.00    -0.237 OA
ATOM     80  O   UNL     1     -12.935   3.435 -14.724  1.00  0.00    -0.744 OA
ENDBRANCH  74  77
ENDBRANCH  56  70
BRANCH  57  81
ATOM     81  C   UNL     1     -14.812  -1.875  -3.326  1.00  0.00     0.023 A 
ATOM     82  C   UNL     1     -15.990  -2.385  -2.746  1.00  0.00     0.012 A 
ATOM     83  C   UNL     1     -13.717  -1.564  -2.496  1.00  0.00     0.148 A 
ATOM     84  C   UNL     1     -16.091  -2.547  -1.364  1.00  0.00     0.002 A 
ATOM     85  C   UNL     1     -13.803  -1.783  -1.126  1.00  0.00     0.091 A 
ATOM     86  F   UNL     1     -12.608  -1.072  -3.066  1.00  0.00    -0.205 F 
ATOM     87  C   UNL     1     -14.995  -2.256  -0.556  1.00  0.00     0.022 A 
BRANCH  85  88
ATOM     88  S   UNL     1     -12.402  -1.562  -0.025  1.00  0.00     0.127 S 
ATOM     89  O   UNL     1     -12.814  -0.399   0.755  1.00  0.00    -0.237 OA
ATOM     90  O   UNL     1     -12.395  -2.828   0.709  1.00  0.00    -0.237 OA
ATOM     91  O   UNL     1     -11.247  -1.366  -0.891  1.00  0.00    -0.744 OA
ENDBRANCH  85  88
ENDBRANCH  57  81
BRANCH  69  92
ATOM     92  C   UNL     1     -18.246   2.202  -7.833  1.00  0.00     0.023 A 
ATOM     93  C   UNL     1     -17.985   3.441  -7.215  1.00  0.00     0.012 A 
ATOM     94  C   UNL     1     -19.533   1.943  -8.344  1.00  0.00     0.148 A 
ATOM     95  C   UNL     1     -18.997   4.390  -7.073  1.00  0.00     0.002 A 
ATOM     96  C   UNL     1     -20.522   2.914  -8.248  1.00  0.00     0.091 A 
ATOM     97  F   UNL     1     -19.767   0.751  -8.914  1.00  0.00    -0.205 F 
ATOM     98  C   UNL     1     -20.260   4.131  -7.599  1.00  0.00     0.022 A 
BRANCH  96  99
ATOM     99  S   UNL     1     -22.148   2.709  -8.982  1.00  0.00     0.127 S 
ATOM    100  O   UNL     1     -22.990   2.535  -7.799  1.00  0.00    -0.237 OA
ATOM    101  O   UNL     1     -22.334   3.981  -9.681  1.00  0.00    -0.237 OA
ATOM    102  O   UNL     1     -22.052   1.548  -9.856  1.00  0.00    -0.744 OA
ENDBRANCH  96  99
ENDBRANCH  69  92
ENDBRANCH  43  44
ENDBRANCH  35  38
ENDBRANCH  33  34
ENDBRANCH  32  33
ENDBRANCH   1  32
TORSDOF 19
