REMARK SMILES Cc1cccc(C[N@@H+](C)C[C@]2(C(=O)NCCCNC(=O)c3ccc(-c4c5nc(c(-c6cccc(S(=O)(=O)[O-])c6F)c6ccc([nH]6)c(-c6cccc(S(=O)(=O)[O-])c6F)c6nc(c(-c7cccc(S(=O)(=O)[O-])c7F)c7ccc4[nH]7)C=C6)C=C5)cc3)CCOC2)n1
REMARK SMILES IDX 15 1 14 2 12 3 13 4 11 6 84 7 87 8 85 9 86 10 10 11 8 12
REMARK SMILES IDX 9 13 7 15 6 16 1 17 2 18 3 19 88 20 4 21 5 22 16 23 17 24
REMARK SMILES IDX 18 25 19 26 20 28 21 29 22 30 83 31 23 32 82 33 24 34 25 35
REMARK SMILES IDX 26 36 76 37 27 38 81 39 75 40 77 41 28 42 80 43 74 44 73 45
REMARK SMILES IDX 29 47 61 48 41 49 60 50 42 51 45 52 59 53 78 54 43 55 44 56
REMARK SMILES IDX 58 58 79 59 46 60 30 61 31 62 39 63 32 64 34 65 40 66 33 67
REMARK SMILES IDX 35 68 36 69 37 70 38 71 62 72 63 73 71 74 64 75 66 76 72 77
REMARK SMILES IDX 65 78 67 79 68 80 69 81 70 82 47 83 48 84 56 85 49 86 51 87
REMARK SMILES IDX 57 88 50 89 52 90 53 91 54 92 55 93
REMARK H PARENT 14 5 8 14 18 27 77 46 45 57
REMARK Flexibility Score: inf
ROOT
ATOM      1  C   UNL     1      -6.525   1.894   2.231  1.00  0.00     0.117 C 
ENDROOT
BRANCH   1   2
ATOM      2  N   UNL     1      -5.464   1.700   1.261  1.00  0.00    -0.355 N 
ATOM      3  C   UNL     1      -4.152   2.021   1.231  1.00  0.00     0.234 C 
ATOM      4  O   UNL     1      -3.678   1.971   0.095  1.00  0.00    -0.274 OA
ATOM      5  H   UNL     1      -5.766   1.233   0.448  1.00  0.00     0.163 HD
BRANCH   3   6
ATOM      6  C   UNL     1      -3.315   2.368   2.468  1.00  0.00     0.123 C 
ATOM      7  C   UNL     1      -3.810   3.606   3.219  1.00  0.00     0.054 C 
ATOM      8  C   UNL     1      -3.513   1.234   3.505  1.00  0.00     0.183 C 
ATOM      9  C   UNL     1      -3.788   3.195   4.675  1.00  0.00     0.161 C 
ATOM     10  O   UNL     1      -4.090   1.802   4.689  1.00  0.00    -0.380 OA
BRANCH   6  11
ATOM     11  C   UNL     1      -1.772   2.431   2.162  1.00  0.00     0.281 C 
BRANCH  11  12
ATOM     12  N   UNL     1      -1.111   3.260   1.142  1.00  0.00    -0.331 N 
ATOM     13  C   UNL     1      -1.615   4.617   1.008  1.00  0.00     0.333 C 
ATOM     14  H   UNL     1      -0.185   3.321   1.567  1.00  0.00     0.348 HD
BRANCH  12  15
ATOM     15  C   UNL     1      -0.890   2.649  -0.191  1.00  0.00     0.319 C 
BRANCH  15  16
ATOM     16  C   UNL     1      -0.344   1.225  -0.213  1.00  0.00     0.095 A 
ATOM     17  C   UNL     1       2.966  -0.341   0.102  1.00  0.00     0.067 C 
ATOM     18  C   UNL     1       1.481  -0.207  -0.028  1.00  0.00     0.038 A 
ATOM     19  C   UNL     1       0.670  -1.332  -0.132  1.00  0.00     0.023 A 
ATOM     20  N   UNL     1       0.994   1.056  -0.054  1.00  0.00    -0.252 NA
ATOM     21  C   UNL     1      -0.695  -1.153  -0.304  1.00  0.00     0.004 A 
ATOM     22  C   UNL     1      -1.205   0.137  -0.365  1.00  0.00     0.030 A 
ENDBRANCH  15  16
ENDBRANCH  12  15
ENDBRANCH  11  12
ENDBRANCH   6  11
ENDBRANCH   3   6
ENDBRANCH   1   2
BRANCH   1  23
ATOM     23  C   UNL     1      -7.422   3.061   1.824  1.00  0.00     0.042 C 
BRANCH  23  24
ATOM     24  C   UNL     1      -7.876   3.032   0.365  1.00  0.00     0.118 C 
BRANCH  24  25
ATOM     25  N   UNL     1      -8.558   1.796   0.005  1.00  0.00    -0.352 N 
ATOM     26  C   UNL     1      -9.844   1.600  -0.442  1.00  0.00     0.251 C 
ATOM     27  H   UNL     1      -8.017   0.978   0.095  1.00  0.00     0.163 HD
ATOM     28  O   UNL     1     -10.292   0.470  -0.541  1.00  0.00    -0.269 OA
BRANCH  26  29
ATOM     29  C   UNL     1     -10.683   2.772  -0.770  1.00  0.00     0.039 A 
ATOM     30  C   UNL     1     -11.970   2.847  -0.236  1.00  0.00     0.014 A 
ATOM     31  C   UNL     1     -10.190   3.797  -1.581  1.00  0.00     0.014 A 
ATOM     32  C   UNL     1     -12.740   3.990  -0.456  1.00  0.00     0.010 A 
ATOM     33  C   UNL     1     -10.929   4.966  -1.736  1.00  0.00     0.010 A 
ATOM     34  C   UNL     1     -12.210   5.075  -1.174  1.00  0.00    -0.014 A 
BRANCH  34  35
ATOM     35  C   UNL     1     -12.969   6.343  -1.326  1.00  0.00     0.031 A 
ATOM     36  C   UNL     1     -13.375   6.825  -2.691  1.00  0.00     0.074 A 
ATOM     37  C   UNL     1     -13.205   7.107  -0.240  1.00  0.00     0.049 A 
ATOM     38  N   UNL     1     -13.984   7.933  -3.025  1.00  0.00    -0.248 NA
ATOM     39  C   UNL     1     -13.028   5.965  -3.835  1.00  0.00     0.031 C 
ATOM     40  C   UNL     1     -12.783   6.790   1.127  1.00  0.00     0.029 A 
ATOM     41  N   UNL     1     -13.832   8.322  -0.118  1.00  0.00    -0.354 N 
ATOM     42  C   UNL     1     -14.056   7.924  -4.412  1.00  0.00     0.074 A 
ATOM     43  C   UNL     1     -13.403   6.714  -4.862  1.00  0.00     0.031 C 
ATOM     44  C   UNL     1     -13.167   7.780   1.947  1.00  0.00     0.029 A 
ATOM     45  C   UNL     1     -13.836   8.815   1.166  1.00  0.00     0.049 A 
ATOM     46  H   UNL     1     -14.240   8.795  -0.879  1.00  0.00     0.167 HD
ATOM     47  C   UNL     1     -14.640   8.826  -5.237  1.00  0.00     0.034 A 
ATOM     48  C   UNL     1     -14.321   9.972   1.658  1.00  0.00     0.034 A 
ATOM     49  C   UNL     1     -15.338   9.997  -4.782  1.00  0.00     0.049 A 
ATOM     50  C   UNL     1     -15.017  10.927   0.726  1.00  0.00     0.074 A 
ATOM     51  C   UNL     1     -16.052  10.917  -5.530  1.00  0.00     0.029 A 
ATOM     52  N   UNL     1     -15.410  10.414  -3.462  1.00  0.00    -0.354 N 
ATOM     53  N   UNL     1     -15.226  10.815  -0.564  1.00  0.00    -0.248 NA
ATOM     54  C   UNL     1     -15.576  12.149   1.321  1.00  0.00     0.031 C 
ATOM     55  C   UNL     1     -16.541  11.899  -4.664  1.00  0.00     0.029 A 
ATOM     56  C   UNL     1     -16.149  11.581  -3.374  1.00  0.00     0.049 A 
ATOM     57  H   UNL     1     -14.996   9.948  -2.700  1.00  0.00     0.167 HD
ATOM     58  C   UNL     1     -15.971  11.931  -0.927  1.00  0.00     0.074 A 
ATOM     59  C   UNL     1     -16.195  12.695   0.282  1.00  0.00     0.031 C 
ATOM     60  C   UNL     1     -16.414  12.299  -2.154  1.00  0.00     0.034 A 
BRANCH  47  61
ATOM     61  C   UNL     1     -14.608   8.548  -6.717  1.00  0.00     0.023 A 
ATOM     62  C   UNL     1     -15.415   7.521  -7.246  1.00  0.00     0.012 A 
ATOM     63  C   UNL     1     -13.839   9.343  -7.589  1.00  0.00     0.148 A 
ATOM     64  C   UNL     1     -15.434   7.268  -8.617  1.00  0.00     0.002 A 
ATOM     65  C   UNL     1     -13.897   9.113  -8.959  1.00  0.00     0.091 A 
ATOM     66  F   UNL     1     -13.062  10.301  -7.064  1.00  0.00    -0.205 F 
ATOM     67  C   UNL     1     -14.685   8.070  -9.473  1.00  0.00     0.022 A 
BRANCH  65  68
ATOM     68  S   UNL     1     -13.031  10.139 -10.152  1.00  0.00     0.127 S 
ATOM     69  O   UNL     1     -11.984   9.230 -10.618  1.00  0.00    -0.237 OA
ATOM     70  O   UNL     1     -14.078  10.418 -11.136  1.00  0.00    -0.237 OA
ATOM     71  O   UNL     1     -12.564  11.305  -9.415  1.00  0.00    -0.744 OA
ENDBRANCH  65  68
ENDBRANCH  47  61
BRANCH  48  72
ATOM     72  C   UNL     1     -14.235  10.256   3.119  1.00  0.00     0.023 A 
ATOM     73  C   UNL     1     -15.411  10.236   3.894  1.00  0.00     0.012 A 
ATOM     74  C   UNL     1     -13.003  10.518   3.748  1.00  0.00     0.148 A 
ATOM     75  C   UNL     1     -15.367  10.506   5.262  1.00  0.00     0.002 A 
ATOM     76  C   UNL     1     -12.959  10.731   5.121  1.00  0.00     0.091 A 
ATOM     77  F   UNL     1     -11.896  10.546   2.992  1.00  0.00    -0.205 F 
ATOM     78  C   UNL     1     -14.141  10.743   5.878  1.00  0.00     0.022 A 
BRANCH  76  79
ATOM     79  S   UNL     1     -11.409  10.909   6.013  1.00  0.00     0.127 S 
ATOM     80  O   UNL     1     -11.387  12.341   6.293  1.00  0.00    -0.237 OA
ATOM     81  O   UNL     1     -11.629  10.055   7.181  1.00  0.00    -0.237 OA
ATOM     82  O   UNL     1     -10.380  10.421   5.104  1.00  0.00    -0.744 OA
ENDBRANCH  76  79
ENDBRANCH  48  72
BRANCH  60  83
ATOM     83  C   UNL     1     -17.218  13.568  -2.255  1.00  0.00     0.023 A 
ATOM     84  C   UNL     1     -16.573  14.814  -2.132  1.00  0.00     0.012 A 
ATOM     85  C   UNL     1     -18.595  13.527  -2.550  1.00  0.00     0.148 A 
ATOM     86  C   UNL     1     -17.292  16.001  -2.272  1.00  0.00     0.002 A 
ATOM     87  C   UNL     1     -19.295  14.713  -2.735  1.00  0.00     0.091 A 
ATOM     88  F   UNL     1     -19.194  12.331  -2.644  1.00  0.00    -0.205 F 
ATOM     89  C   UNL     1     -18.648  15.950  -2.586  1.00  0.00     0.022 A 
BRANCH  87  90
ATOM     90  S   UNL     1     -21.020  14.741  -3.235  1.00  0.00     0.127 S 
ATOM     91  O   UNL     1     -21.684  15.127  -1.991  1.00  0.00    -0.237 OA
ATOM     92  O   UNL     1     -21.028  15.770  -4.275  1.00  0.00    -0.237 OA
ATOM     93  O   UNL     1     -21.319  13.398  -3.714  1.00  0.00    -0.744 OA
ENDBRANCH  87  90
ENDBRANCH  60  83
ENDBRANCH  34  35
ENDBRANCH  26  29
ENDBRANCH  24  25
ENDBRANCH  23  24
ENDBRANCH   1  23
TORSDOF 17
