REMARK SMILES CC[C@H](CCC1CC1)C(=O)NCCCNC(=O)c1ccc(-c2c3nc(c(-c4cccc(S(=O)(=O)[O-])c4F)c4ccc([nH]4)c(-c4cccc(S(=O)(=O)[O-])c4F)c4nc(c(-c5cccc(S(=O)(=O)[O-])c5F)c5ccc2[nH]5)C=C4)C=C3)cc1
REMARK SMILES IDX 13 1 12 2 11 3 9 4 10 5 3 7 2 8 1 9 4 10 5 11 6 12 7 13 8 14
REMARK SMILES IDX 14 15 15 16 16 17 17 19 18 20 19 21 80 22 20 23 79 24 21 25
REMARK SMILES IDX 22 26 23 27 73 28 24 29 78 30 72 31 74 32 25 33 77 34 71 35
REMARK SMILES IDX 70 36 26 38 58 39 38 40 57 41 39 42 42 43 56 44 75 45 40 46
REMARK SMILES IDX 41 47 55 49 76 50 43 51 27 52 28 53 36 54 29 55 31 56 37 57
REMARK SMILES IDX 30 58 32 59 33 60 34 61 35 62 59 63 60 64 68 65 61 66 63 67
REMARK SMILES IDX 69 68 62 69 64 70 65 71 66 72 67 73 44 74 45 75 53 76 46 77
REMARK SMILES IDX 48 78 54 79 47 80 49 81 50 82 51 83 52 84
REMARK H PARENT 11 6 15 18 74 37 42 48
REMARK Flexibility Score: inf
ROOT
ATOM      1  C   UNL     1      -2.922  -2.678  -1.246  1.00  0.00     0.042 C 
ENDROOT
BRANCH   1   2
ATOM      2  C   UNL     1      -2.101  -3.207  -0.077  1.00  0.00     0.117 C 
BRANCH   2   3
ATOM      3  N   UNL     1      -0.928  -3.946  -0.509  1.00  0.00    -0.356 N 
ATOM      4  C   UNL     1       0.397  -3.638  -0.452  1.00  0.00     0.223 C 
ATOM      5  O   UNL     1       1.194  -4.476  -0.883  1.00  0.00    -0.275 OA
ATOM      6  H   UNL     1      -1.125  -4.822  -0.913  1.00  0.00     0.163 HD
BRANCH   4   7
ATOM      7  C   UNL     1       0.901  -2.317   0.137  1.00  0.00     0.078 C 
BRANCH   7   8
ATOM      8  C   UNL     1       0.588  -2.248   1.644  1.00  0.00     0.010 C 
ATOM      9  C   UNL     1       1.622  -1.495   2.467  1.00  0.00     0.005 C 
ENDBRANCH   7   8
BRANCH   7  10
ATOM     10  C   UNL     1       0.416  -1.140  -0.730  1.00  0.00     0.014 C 
BRANCH  10  11
ATOM     11  C   UNL     1       1.110   0.203  -0.527  1.00  0.00     0.004 C 
BRANCH  11  12
ATOM     12  C   UNL     1       2.590   0.232  -0.779  1.00  0.00    -0.011 C 
ATOM     13  C   UNL     1       3.330  -0.721  -1.691  1.00  0.00     0.004 C 
ATOM     14  C   UNL     1       3.073   0.684  -2.138  1.00  0.00     0.004 C 
ENDBRANCH  11  12
ENDBRANCH  10  11
ENDBRANCH   7  10
ENDBRANCH   4   7
ENDBRANCH   2   3
ENDBRANCH   1   2
BRANCH   1  15
ATOM     15  C   UNL     1      -3.630  -3.768  -2.041  1.00  0.00     0.118 C 
BRANCH  15  16
ATOM     16  N   UNL     1      -4.604  -4.500  -1.236  1.00  0.00    -0.352 N 
ATOM     17  C   UNL     1      -5.973  -4.535  -1.316  1.00  0.00     0.251 C 
ATOM     18  H   UNL     1      -4.216  -5.057  -0.522  1.00  0.00     0.163 HD
ATOM     19  O   UNL     1      -6.622  -5.041  -0.401  1.00  0.00    -0.269 OA
BRANCH  17  20
ATOM     20  C   UNL     1      -6.670  -3.957  -2.484  1.00  0.00     0.039 A 
ATOM     21  C   UNL     1      -7.820  -3.189  -2.279  1.00  0.00     0.014 A 
ATOM     22  C   UNL     1      -6.194  -4.173  -3.779  1.00  0.00     0.014 A 
ATOM     23  C   UNL     1      -8.439  -2.566  -3.366  1.00  0.00     0.010 A 
ATOM     24  C   UNL     1      -6.762  -3.486  -4.848  1.00  0.00     0.010 A 
ATOM     25  C   UNL     1      -7.884  -2.668  -4.652  1.00  0.00    -0.014 A 
BRANCH  25  26
ATOM     26  C   UNL     1      -8.422  -1.888  -5.797  1.00  0.00     0.031 A 
ATOM     27  C   UNL     1      -8.952  -2.593  -7.015  1.00  0.00     0.074 A 
ATOM     28  C   UNL     1      -8.312  -0.543  -5.787  1.00  0.00     0.049 A 
ATOM     29  N   UNL     1      -9.355  -2.082  -8.149  1.00  0.00    -0.248 NA
ATOM     30  C   UNL     1      -9.016  -4.064  -6.966  1.00  0.00     0.031 C 
ATOM     31  C   UNL     1      -7.742   0.251  -4.695  1.00  0.00     0.029 A 
ATOM     32  N   UNL     1      -8.632   0.392  -6.741  1.00  0.00    -0.354 N 
ATOM     33  C   UNL     1      -9.671  -3.163  -8.963  1.00  0.00     0.074 A 
ATOM     34  C   UNL     1      -9.405  -4.361  -8.198  1.00  0.00     0.031 C 
ATOM     35  C   UNL     1      -7.742   1.547  -5.045  1.00  0.00     0.029 A 
ATOM     36  C   UNL     1      -8.267   1.675  -6.400  1.00  0.00     0.049 A 
ATOM     37  H   UNL     1      -9.079   0.166  -7.589  1.00  0.00     0.167 HD
ATOM     38  C   UNL     1     -10.150  -3.156 -10.229  1.00  0.00     0.034 A 
ATOM     39  C   UNL     1      -8.317   2.821  -7.107  1.00  0.00     0.034 A 
ATOM     40  C   UNL     1     -10.458  -1.961 -10.967  1.00  0.00     0.049 A 
ATOM     41  C   UNL     1      -8.878   2.794  -8.504  1.00  0.00     0.074 A 
ATOM     42  C   UNL     1     -11.071  -1.853 -12.204  1.00  0.00     0.029 A 
ATOM     43  N   UNL     1     -10.155  -0.674 -10.556  1.00  0.00    -0.354 N 
ATOM     44  N   UNL     1      -9.358   1.779  -9.180  1.00  0.00    -0.248 NA
ATOM     45  C   UNL     1      -8.928   4.073  -9.228  1.00  0.00     0.031 C 
ATOM     46  C   UNL     1     -11.094  -0.503 -12.562  1.00  0.00     0.029 A 
ATOM     47  C   UNL     1     -10.532   0.232 -11.531  1.00  0.00     0.049 A 
ATOM     48  H   UNL     1      -9.733  -0.439  -9.698  1.00  0.00     0.167 HD
ATOM     49  C   UNL     1      -9.792   2.301 -10.393  1.00  0.00     0.074 A 
ATOM     50  C   UNL     1      -9.546   3.727 -10.349  1.00  0.00     0.031 C 
ATOM     51  C   UNL     1     -10.330   1.655 -11.456  1.00  0.00     0.034 A 
BRANCH  38  52
ATOM     52  C   UNL     1     -10.409  -4.476 -10.904  1.00  0.00     0.023 A 
ATOM     53  C   UNL     1     -11.514  -5.259 -10.515  1.00  0.00     0.012 A 
ATOM     54  C   UNL     1      -9.623  -4.882 -12.001  1.00  0.00     0.148 A 
ATOM     55  C   UNL     1     -11.822  -6.436 -11.196  1.00  0.00     0.002 A 
ATOM     56  C   UNL     1      -9.963  -6.031 -12.703  1.00  0.00     0.091 A 
ATOM     57  F   UNL     1      -8.567  -4.130 -12.342  1.00  0.00    -0.205 F 
ATOM     58  C   UNL     1     -11.056  -6.814 -12.296  1.00  0.00     0.022 A 
BRANCH  56  59
ATOM     59  S   UNL     1      -9.093  -6.558 -14.183  1.00  0.00     0.127 S 
ATOM     60  O   UNL     1      -8.476  -7.805 -13.733  1.00  0.00    -0.237 OA
ATOM     61  O   UNL     1     -10.190  -6.730 -15.136  1.00  0.00    -0.237 OA
ATOM     62  O   UNL     1      -8.162  -5.488 -14.508  1.00  0.00    -0.744 OA
ENDBRANCH  56  59
ENDBRANCH  38  52
BRANCH  39  63
ATOM     63  C   UNL     1      -7.836   4.099  -6.508  1.00  0.00     0.023 A 
ATOM     64  C   UNL     1      -8.757   5.129  -6.233  1.00  0.00     0.012 A 
ATOM     65  C   UNL     1      -6.473   4.305  -6.219  1.00  0.00     0.148 A 
ATOM     66  C   UNL     1      -8.325   6.354  -5.725  1.00  0.00     0.002 A 
ATOM     67  C   UNL     1      -6.057   5.505  -5.655  1.00  0.00     0.091 A 
ATOM     68  F   UNL     1      -5.607   3.321  -6.500  1.00  0.00    -0.205 F 
ATOM     69  C   UNL     1      -6.977   6.540  -5.428  1.00  0.00     0.022 A 
BRANCH  67  70
ATOM     70  S   UNL     1      -4.365   5.774  -5.115  1.00  0.00     0.127 S 
ATOM     71  O   UNL     1      -3.865   6.687  -6.139  1.00  0.00    -0.237 OA
ATOM     72  O   UNL     1      -4.559   6.375  -3.795  1.00  0.00    -0.237 OA
ATOM     73  O   UNL     1      -3.751   4.454  -5.084  1.00  0.00    -0.744 OA
ENDBRANCH  67  70
ENDBRANCH  39  63
BRANCH  51  74
ATOM     74  C   UNL     1     -10.719   2.477 -12.656  1.00  0.00     0.023 A 
ATOM     75  C   UNL     1      -9.719   3.008 -13.495  1.00  0.00     0.012 A 
ATOM     76  C   UNL     1     -12.074   2.639 -13.005  1.00  0.00     0.148 A 
ATOM     77  C   UNL     1     -10.063   3.711 -14.649  1.00  0.00     0.002 A 
ATOM     78  C   UNL     1     -12.408   3.295 -14.183  1.00  0.00     0.091 A 
ATOM     79  F   UNL     1     -13.009   2.136 -12.186  1.00  0.00    -0.205 F 
ATOM     80  C   UNL     1     -11.405   3.842 -14.999  1.00  0.00     0.022 A 
BRANCH  78  81
ATOM     81  S   UNL     1     -14.101   3.430 -14.769  1.00  0.00     0.127 S 
ATOM     82  O   UNL     1     -14.335   4.870 -14.674  1.00  0.00    -0.237 OA
ATOM     83  O   UNL     1     -13.994   2.918 -16.136  1.00  0.00    -0.237 OA
ATOM     84  O   UNL     1     -14.907   2.611 -13.874  1.00  0.00    -0.744 OA
ENDBRANCH  78  81
ENDBRANCH  51  74
ENDBRANCH  25  26
ENDBRANCH  17  20
ENDBRANCH  15  16
ENDBRANCH   1  15
TORSDOF 17
