REMARK SMILES COc1cc2c(cc1OC)[C@@H](CC(=O)NCCCNC(=O)c1ccc(-c3c4nc(c(-c5cccc(S(=O)(=O)[O-])c5F)c5ccc([nH]5)c(-c5cccc(S(=O)(=O)[O-])c5F)c5nc(c(-c6cccc(S(=O)(=O)[O-])c6F)c6ccc3[nH]6)C=C5)C=C4)cc1)N(C(=O)Nc1ccc(Cl)cc1)CC2
REMARK SMILES IDX 17 1 16 2 15 3 13 4 14 5 12 7 11 8 3 9 4 10 8 11 5 12 7 13
REMARK SMILES IDX 6 14 97 15 96 16 85 17 2 18 1 19 9 20 10 21 86 22 87 23
REMARK SMILES IDX 88 24 89 26 90 27 95 28 91 29 94 30 92 31 93 32 18 33 19 34
REMARK SMILES IDX 20 35 21 37 22 38 23 39 84 40 24 41 83 42 25 43 26 44 27 45
REMARK SMILES IDX 77 46 28 47 82 48 76 49 78 50 29 51 81 52 75 53 74 54 30 56
REMARK SMILES IDX 62 57 42 58 61 59 43 60 46 61 60 62 79 63 44 64 45 65 59 67
REMARK SMILES IDX 80 68 47 69 31 70 32 71 40 72 33 73 35 74 41 75 34 76 36 77
REMARK SMILES IDX 37 78 38 79 39 80 63 81 64 82 72 83 65 84 67 85 73 86 66 87
REMARK SMILES IDX 68 88 69 89 70 90 71 91 48 92 49 93 57 94 50 95 52 96 58 97
REMARK SMILES IDX 51 98 53 99 54 100 55 101 56 102
REMARK H PARENT 15 6 88 25 19 36 78 55 46 66
REMARK Flexibility Score: inf
ROOT
ATOM      1  C   UNL     1       2.373   8.760  -6.329  1.00  0.00     0.042 C 
ENDROOT
BRANCH   1   2
ATOM      2  C   UNL     1       3.492   7.731  -6.110  1.00  0.00     0.117 C 
BRANCH   2   3
ATOM      3  N   UNL     1       3.902   7.701  -4.708  1.00  0.00    -0.356 N 
ATOM      4  C   UNL     1       3.720   6.772  -3.726  1.00  0.00     0.222 C 
ATOM      5  O   UNL     1       4.019   7.090  -2.571  1.00  0.00    -0.275 OA
ATOM      6  H   UNL     1       4.402   8.498  -4.418  1.00  0.00     0.163 HD
BRANCH   4   7
ATOM      7  C   UNL     1       3.287   5.351  -4.034  1.00  0.00     0.130 C 
BRANCH   7   8
ATOM      8  C   UNL     1       1.874   5.021  -3.479  1.00  0.00     0.127 C 
ATOM      9  C   UNL     1       1.250   1.211  -1.413  1.00  0.00     0.161 A 
ATOM     10  C   UNL     1       0.181   1.943  -1.901  1.00  0.00     0.054 A 
ATOM     11  C   UNL     1       2.557   1.713  -1.493  1.00  0.00     0.161 A 
ATOM     12  C   UNL     1       0.420   3.163  -2.530  1.00  0.00    -0.037 A 
ATOM     13  C   UNL     1       2.782   2.976  -2.081  1.00  0.00     0.056 A 
ATOM     14  C   UNL     1       1.728   3.702  -2.663  1.00  0.00    -0.018 A 
ATOM     15  C   UNL     1      -0.700   3.815  -3.289  1.00  0.00     0.057 C 
ATOM     16  C   UNL     1      -0.117   3.978  -4.681  1.00  0.00     0.127 C 
ATOM     17  N   UNL     1       0.930   5.004  -4.643  1.00  0.00    -0.317 N 
BRANCH   9  18
ATOM     18  O   UNL     1       0.973  -0.068  -1.001  1.00  0.00    -0.493 OA
ATOM     19  C   UNL     1       0.967  -0.155   0.419  1.00  0.00     0.278 C 
ENDBRANCH   9  18
BRANCH  11  20
ATOM     20  O   UNL     1       3.532   0.880  -1.008  1.00  0.00    -0.493 OA
ATOM     21  C   UNL     1       4.873   1.335  -1.060  1.00  0.00     0.278 C 
ENDBRANCH  11  20
BRANCH  17  22
ATOM     22  C   UNL     1       0.562   6.176  -5.283  1.00  0.00     0.322 C 
ATOM     23  O   UNL     1       0.433   7.251  -4.704  1.00  0.00    -0.248 OA
ATOM     24  N   UNL     1       0.390   5.949  -6.631  1.00  0.00    -0.308 N 
ATOM     25  H   UNL     1       1.177   5.641  -7.136  1.00  0.00     0.171 HD
BRANCH  24  26
ATOM     26  C   UNL     1      -0.801   6.116  -7.350  1.00  0.00     0.042 A 
ATOM     27  C   UNL     1      -0.830   5.593  -8.647  1.00  0.00     0.028 A 
ATOM     28  C   UNL     1      -1.976   6.577  -6.754  1.00  0.00     0.028 A 
ATOM     29  C   UNL     1      -2.045   5.447  -9.314  1.00  0.00     0.022 A 
ATOM     30  C   UNL     1      -3.196   6.415  -7.417  1.00  0.00     0.022 A 
ATOM     31  C   UNL     1      -3.227   5.834  -8.684  1.00  0.00     0.041 A 
ATOM     32  Cl  UNL     1      -4.727   5.556  -9.475  1.00  0.00    -0.084 Cl
ENDBRANCH  24  26
ENDBRANCH  17  22
ENDBRANCH   7   8
ENDBRANCH   4   7
ENDBRANCH   2   3
ENDBRANCH   1   2
BRANCH   1  33
ATOM     33  C   UNL     1       2.711   9.868  -7.316  1.00  0.00     0.118 C 
BRANCH  33  34
ATOM     34  N   UNL     1       2.572   9.439  -8.700  1.00  0.00    -0.352 N 
ATOM     35  C   UNL     1       1.537   9.392  -9.604  1.00  0.00     0.251 C 
ATOM     36  H   UNL     1       3.417   9.103  -9.077  1.00  0.00     0.163 HD
ATOM     37  O   UNL     1       1.778   8.782 -10.651  1.00  0.00    -0.269 OA
BRANCH  35  38
ATOM     38  C   UNL     1       0.179  10.002  -9.431  1.00  0.00     0.039 A 
ATOM     39  C   UNL     1      -0.828   9.592 -10.326  1.00  0.00     0.014 A 
ATOM     40  C   UNL     1      -0.148  11.006  -8.523  1.00  0.00     0.014 A 
ATOM     41  C   UNL     1      -2.109  10.169 -10.310  1.00  0.00     0.010 A 
ATOM     42  C   UNL     1      -1.452  11.521  -8.445  1.00  0.00     0.010 A 
ATOM     43  C   UNL     1      -2.445  11.135  -9.353  1.00  0.00    -0.014 A 
BRANCH  43  44
ATOM     44  C   UNL     1      -3.801  11.763  -9.290  1.00  0.00     0.031 A 
ATOM     45  C   UNL     1      -3.962  13.264  -9.393  1.00  0.00     0.074 A 
ATOM     46  C   UNL     1      -4.889  11.005  -9.042  1.00  0.00     0.049 A 
ATOM     47  N   UNL     1      -5.038  13.995  -9.240  1.00  0.00    -0.248 NA
ATOM     48  C   UNL     1      -2.749  14.049  -9.675  1.00  0.00     0.031 C 
ATOM     49  C   UNL     1      -4.880   9.556  -8.848  1.00  0.00     0.029 A 
ATOM     50  N   UNL     1      -6.210  11.351  -8.878  1.00  0.00    -0.354 N 
ATOM     51  C   UNL     1      -4.623  15.319  -9.341  1.00  0.00     0.074 A 
ATOM     52  C   UNL     1      -3.191  15.292  -9.548  1.00  0.00     0.031 C 
ATOM     53  C   UNL     1      -6.128   9.135  -8.591  1.00  0.00     0.029 A 
ATOM     54  C   UNL     1      -7.025  10.285  -8.568  1.00  0.00     0.049 A 
ATOM     55  H   UNL     1      -6.541  12.273  -8.973  1.00  0.00     0.167 HD
ATOM     56  C   UNL     1      -5.362  16.455  -9.299  1.00  0.00     0.034 A 
ATOM     57  C   UNL     1      -8.343  10.234  -8.287  1.00  0.00     0.034 A 
ATOM     58  C   UNL     1      -6.796  16.483  -9.180  1.00  0.00     0.049 A 
ATOM     59  C   UNL     1      -9.155  11.500  -8.323  1.00  0.00     0.074 A 
ATOM     60  C   UNL     1      -7.643  17.577  -9.240  1.00  0.00     0.029 A 
ATOM     61  N   UNL     1      -7.597  15.370  -8.983  1.00  0.00    -0.354 N 
ATOM     62  N   UNL     1      -8.761  12.725  -8.573  1.00  0.00    -0.248 NA
ATOM     63  C   UNL     1     -10.599  11.374  -8.076  1.00  0.00     0.031 C 
ATOM     64  C   UNL     1      -8.956  17.126  -9.068  1.00  0.00     0.029 A 
ATOM     65  C   UNL     1      -8.928  15.749  -8.918  1.00  0.00     0.049 A 
ATOM     66  H   UNL     1      -7.269  14.445  -8.902  1.00  0.00     0.167 HD
ATOM     67  C   UNL     1      -9.910  13.508  -8.548  1.00  0.00     0.074 A 
ATOM     68  C   UNL     1     -11.019  12.616  -8.280  1.00  0.00     0.031 C 
ATOM     69  C   UNL     1     -10.032  14.848  -8.714  1.00  0.00     0.034 A 
BRANCH  56  70
ATOM     70  C   UNL     1      -4.642  17.773  -9.453  1.00  0.00     0.023 A 
ATOM     71  C   UNL     1      -4.115  18.134 -10.710  1.00  0.00     0.012 A 
ATOM     72  C   UNL     1      -4.547  18.682  -8.379  1.00  0.00     0.148 A 
ATOM     73  C   UNL     1      -3.470  19.357 -10.887  1.00  0.00     0.002 A 
ATOM     74  C   UNL     1      -3.941  19.919  -8.576  1.00  0.00     0.091 A 
ATOM     75  F   UNL     1      -5.040  18.320  -7.187  1.00  0.00    -0.205 F 
ATOM     76  C   UNL     1      -3.392  20.252  -9.824  1.00  0.00     0.022 A 
BRANCH  74  77
ATOM     77  S   UNL     1      -3.864  21.176  -7.294  1.00  0.00     0.127 S 
ATOM     78  O   UNL     1      -2.449  21.137  -6.928  1.00  0.00    -0.237 OA
ATOM     79  O   UNL     1      -4.272  22.381  -8.017  1.00  0.00    -0.237 OA
ATOM     80  O   UNL     1      -4.792  20.749  -6.257  1.00  0.00    -0.744 OA
ENDBRANCH  74  77
ENDBRANCH  56  70
BRANCH  57  81
ATOM     81  C   UNL     1      -8.992   8.918  -8.018  1.00  0.00     0.023 A 
ATOM     82  C   UNL     1      -9.866   8.373  -8.979  1.00  0.00     0.012 A 
ATOM     83  C   UNL     1      -8.722   8.187  -6.845  1.00  0.00     0.148 A 
ATOM     84  C   UNL     1     -10.482   7.139  -8.763  1.00  0.00     0.002 A 
ATOM     85  C   UNL     1      -9.295   6.933  -6.662  1.00  0.00     0.091 A 
ATOM     86  F   UNL     1      -7.901   8.728  -5.933  1.00  0.00    -0.205 F 
ATOM     87  C   UNL     1     -10.188   6.415  -7.612  1.00  0.00     0.022 A 
BRANCH  85  88
ATOM     88  S   UNL     1      -8.859   5.879  -5.274  1.00  0.00     0.127 S 
ATOM     89  O   UNL     1     -10.024   6.029  -4.405  1.00  0.00    -0.237 OA
ATOM     90  O   UNL     1      -8.730   4.567  -5.909  1.00  0.00    -0.237 OA
ATOM     91  O   UNL     1      -7.605   6.415  -4.760  1.00  0.00    -0.744 OA
ENDBRANCH  85  88
ENDBRANCH  57  81
BRANCH  69  92
ATOM     92  C   UNL     1     -11.415  15.441  -8.649  1.00  0.00     0.023 A 
ATOM     93  C   UNL     1     -12.068  15.557  -7.406  1.00  0.00     0.012 A 
ATOM     94  C   UNL     1     -12.034  15.957  -9.805  1.00  0.00     0.148 A 
ATOM     95  C   UNL     1     -13.326  16.151  -7.318  1.00  0.00     0.002 A 
ATOM     96  C   UNL     1     -13.268  16.589  -9.704  1.00  0.00     0.091 A 
ATOM     97  F   UNL     1     -11.406  15.820 -10.982  1.00  0.00    -0.205 F 
ATOM     98  C   UNL     1     -13.920  16.677  -8.463  1.00  0.00     0.022 A 
BRANCH  96  99
ATOM     99  S   UNL     1     -14.062  17.378 -11.109  1.00  0.00     0.127 S 
ATOM    100  O   UNL     1     -15.134  16.432 -11.416  1.00  0.00    -0.237 OA
ATOM    101  O   UNL     1     -14.515  18.648 -10.540  1.00  0.00    -0.237 OA
ATOM    102  O   UNL     1     -13.031  17.509 -12.129  1.00  0.00    -0.744 OA
ENDBRANCH  96  99
ENDBRANCH  69  92
ENDBRANCH  43  44
ENDBRANCH  35  38
ENDBRANCH  33  34
ENDBRANCH   1  33
TORSDOF 18
