REMARK SMILES O=C(NCCCNC(=O)[C@H]1[C@H]2CC[C@H](CC2)[C@@H]1C(=O)Nc1ccc(Cc2ccncc2)cc1)c1ccc(-c2c3nc(c(-c4cccc(S(=O)(=O)[O-])c4F)c4ccc([nH]4)c(-c4cccc(S(=O)(=O)[O-])c4F)c4nc(c(-c5cccc(S(=O)(=O)[O-])c5F)c5ccc2[nH]5)C=C4)C=C3)cc1
REMARK SMILES IDX 5 1 4 2 3 3 1 4 2 5 34 7 35 8 96 9 36 10 95 11 37 12 38 13
REMARK SMILES IDX 39 14 89 15 40 16 94 17 88 18 90 19 41 20 93 21 87 22 86 23
REMARK SMILES IDX 42 25 74 26 54 27 73 28 55 29 58 30 72 31 91 32 56 33 57 34
REMARK SMILES IDX 71 36 92 37 59 38 43 39 44 40 52 41 45 42 47 43 53 44 46 45
REMARK SMILES IDX 48 46 49 47 50 48 51 49 75 50 76 51 84 52 77 53 79 54 85 55
REMARK SMILES IDX 78 56 80 57 81 58 82 59 83 60 60 61 61 62 69 63 62 64 64 65
REMARK SMILES IDX 70 66 63 67 65 68 66 69 67 70 68 71 6 72 7 73 8 74 9 76
REMARK SMILES IDX 10 77 11 78 17 79 12 80 16 81 14 82 13 83 15 84 18 85 19 86
REMARK SMILES IDX 20 87 21 89 22 90 33 91 23 92 32 93 24 94 25 95 26 96 27 97
REMARK SMILES IDX 31 98 28 99 30 100 29 101
REMARK H PARENT 3 6 90 24 58 35 7 75 20 88
REMARK Flexibility Score: inf
ROOT
ATOM      1  C   UNL     1       4.966  -0.992   1.526  1.00  0.00     0.042 C 
ENDROOT
BRANCH   1   2
ATOM      2  C   UNL     1       4.619  -1.216   0.062  1.00  0.00     0.118 C 
BRANCH   2   3
ATOM      3  N   UNL     1       3.182  -1.122  -0.175  1.00  0.00    -0.352 N 
ATOM      4  O   UNL     1       1.185  -0.088  -0.227  1.00  0.00    -0.269 OA
ATOM      5  C   UNL     1       2.397  -0.015  -0.399  1.00  0.00     0.251 C 
ATOM      6  H   UNL     1       2.702  -1.982  -0.175  1.00  0.00     0.163 HD
BRANCH   5   7
ATOM      7  C   UNL     1       3.024   1.253  -0.824  1.00  0.00     0.039 A 
ATOM      8  C   UNL     1       4.087   1.232  -1.725  1.00  0.00     0.014 A 
ATOM      9  C   UNL     1       2.536   2.473  -0.348  1.00  0.00     0.014 A 
ATOM     10  C   UNL     1       4.787   2.394  -1.999  1.00  0.00     0.010 A 
ATOM     11  C   UNL     1       3.158   3.662  -0.737  1.00  0.00     0.010 A 
ATOM     12  C   UNL     1       4.310   3.628  -1.540  1.00  0.00    -0.014 A 
BRANCH  12  13
ATOM     13  C   UNL     1       4.982   4.869  -1.994  1.00  0.00     0.031 A 
ATOM     14  C   UNL     1       5.591   5.825  -1.011  1.00  0.00     0.074 A 
ATOM     15  C   UNL     1       5.032   5.121  -3.318  1.00  0.00     0.049 A 
ATOM     16  N   UNL     1       6.176   6.972  -1.238  1.00  0.00    -0.248 NA
ATOM     17  C   UNL     1       5.527   5.456   0.412  1.00  0.00     0.031 C 
ATOM     18  C   UNL     1       4.450   4.268  -4.359  1.00  0.00     0.029 A 
ATOM     19  N   UNL     1       5.589   6.159  -4.017  1.00  0.00    -0.354 N 
ATOM     20  C   UNL     1       6.500   7.489   0.010  1.00  0.00     0.074 A 
ATOM     21  C   UNL     1       6.047   6.529   0.993  1.00  0.00     0.031 C 
ATOM     22  C   UNL     1       4.700   4.801  -5.561  1.00  0.00     0.029 A 
ATOM     23  C   UNL     1       5.385   6.072  -5.374  1.00  0.00     0.049 A 
ATOM     24  H   UNL     1       6.085   6.894  -3.591  1.00  0.00     0.167 HD
ATOM     25  C   UNL     1       7.123   8.655   0.303  1.00  0.00     0.034 A 
ATOM     26  C   UNL     1       5.678   6.938  -6.362  1.00  0.00     0.034 A 
ATOM     27  C   UNL     1       7.592   9.584  -0.691  1.00  0.00     0.049 A 
ATOM     28  C   UNL     1       6.375   8.217  -6.009  1.00  0.00     0.074 A 
ATOM     29  C   UNL     1       8.285  10.767  -0.505  1.00  0.00     0.029 A 
ATOM     30  N   UNL     1       7.407   9.441  -2.059  1.00  0.00    -0.354 N 
ATOM     31  N   UNL     1       6.758   8.645  -4.831  1.00  0.00    -0.248 NA
ATOM     32  C   UNL     1       6.702   9.121  -7.118  1.00  0.00     0.031 C 
ATOM     33  C   UNL     1       8.490  11.354  -1.758  1.00  0.00     0.029 A 
ATOM     34  C   UNL     1       7.961  10.518  -2.729  1.00  0.00     0.049 A 
ATOM     35  H   UNL     1       6.949   8.683  -2.490  1.00  0.00     0.167 HD
ATOM     36  C   UNL     1       7.400   9.854  -5.056  1.00  0.00     0.074 A 
ATOM     37  C   UNL     1       7.367  10.081  -6.488  1.00  0.00     0.031 C 
ATOM     38  C   UNL     1       7.959  10.702  -4.159  1.00  0.00     0.034 A 
BRANCH  25  39
ATOM     39  C   UNL     1       7.338   8.989   1.758  1.00  0.00     0.023 A 
ATOM     40  C   UNL     1       8.281   8.265   2.516  1.00  0.00     0.012 A 
ATOM     41  C   UNL     1       6.633  10.047   2.366  1.00  0.00     0.148 A 
ATOM     42  C   UNL     1       8.489   8.561   3.864  1.00  0.00     0.002 A 
ATOM     43  C   UNL     1       6.879  10.366   3.697  1.00  0.00     0.091 A 
ATOM     44  F   UNL     1       5.724  10.712   1.638  1.00  0.00    -0.205 F 
ATOM     45  C   UNL     1       7.795   9.616   4.450  1.00  0.00     0.022 A 
BRANCH  43  46
ATOM     46  S   UNL     1       6.093  11.758   4.517  1.00  0.00     0.127 S 
ATOM     47  O   UNL     1       5.133  11.083   5.388  1.00  0.00    -0.237 OA
ATOM     48  O   UNL     1       7.217  12.380   5.217  1.00  0.00    -0.237 OA
ATOM     49  O   UNL     1       5.515  12.572   3.457  1.00  0.00    -0.744 OA
ENDBRANCH  43  46
ENDBRANCH  25  39
BRANCH  26  50
ATOM     50  C   UNL     1       5.324   6.592  -7.766  1.00  0.00     0.023 A 
ATOM     51  C   UNL     1       6.343   6.275  -8.683  1.00  0.00     0.012 A 
ATOM     52  C   UNL     1       3.978   6.495  -8.172  1.00  0.00     0.148 A 
ATOM     53  C   UNL     1       6.029   5.884  -9.985  1.00  0.00     0.002 A 
ATOM     54  C   UNL     1       3.670   6.048  -9.450  1.00  0.00     0.091 A 
ATOM     55  F   UNL     1       3.024   6.807  -7.282  1.00  0.00    -0.205 F 
ATOM     56  C   UNL     1       4.694   5.758 -10.364  1.00  0.00     0.022 A 
BRANCH  54  57
ATOM     57  S   UNL     1       1.985   5.714  -9.975  1.00  0.00     0.127 S 
ATOM     58  O   UNL     1       1.774   6.755 -10.978  1.00  0.00    -0.237 OA
ATOM     59  O   UNL     1       2.102   4.356 -10.510  1.00  0.00    -0.237 OA
ATOM     60  O   UNL     1       1.168   5.818  -8.774  1.00  0.00    -0.744 OA
ENDBRANCH  54  57
ENDBRANCH  26  50
BRANCH  38  61
ATOM     61  C   UNL     1       8.630  11.935  -4.699  1.00  0.00     0.023 A 
ATOM     62  C   UNL     1       7.855  13.003  -5.192  1.00  0.00     0.012 A 
ATOM     63  C   UNL     1      10.031  12.064  -4.638  1.00  0.00     0.148 A 
ATOM     64  C   UNL     1       8.468  14.171  -5.642  1.00  0.00     0.002 A 
ATOM     65  C   UNL     1      10.631  13.250  -5.039  1.00  0.00     0.091 A 
ATOM     66  F   UNL     1      10.749  11.025  -4.185  1.00  0.00    -0.205 F 
ATOM     67  C   UNL     1       9.852  14.300  -5.553  1.00  0.00     0.022 A 
BRANCH  65  68
ATOM     68  S   UNL     1      12.394  13.542  -4.865  1.00  0.00     0.127 S 
ATOM     69  O   UNL     1      12.838  13.523  -6.258  1.00  0.00    -0.237 OA
ATOM     70  O   UNL     1      12.428  14.860  -4.231  1.00  0.00    -0.237 OA
ATOM     71  O   UNL     1      12.902  12.459  -4.035  1.00  0.00    -0.744 OA
ENDBRANCH  65  68
ENDBRANCH  38  61
ENDBRANCH  12  13
ENDBRANCH   5   7
ENDBRANCH   2   3
ENDBRANCH   1   2
BRANCH   1  72
ATOM     72  C   UNL     1       4.314  -2.018   2.439  1.00  0.00     0.117 C 
BRANCH  72  73
ATOM     73  N   UNL     1       4.829  -3.357   2.195  1.00  0.00    -0.356 N 
ATOM     74  C   UNL     1       5.871  -4.017   2.747  1.00  0.00     0.224 C 
ATOM     75  H   UNL     1       4.335  -3.869   1.514  1.00  0.00     0.163 HD
ATOM     76  O   UNL     1       6.577  -4.606   1.922  1.00  0.00    -0.275 OA
BRANCH  74  77
ATOM     77  C   UNL     1       6.153  -4.168   4.251  1.00  0.00     0.094 C 
ATOM     78  C   UNL     1       5.439  -3.188   5.205  1.00  0.00     0.002 C 
ATOM     79  C   UNL     1       5.880  -5.635   4.727  1.00  0.00     0.094 C 
ATOM     80  C   UNL     1       3.917  -3.474   5.290  1.00  0.00     0.005 C 
ATOM     81  C   UNL     1       6.028  -3.393   6.611  1.00  0.00     0.005 C 
ATOM     82  C   UNL     1       4.981  -5.610   6.016  1.00  0.00     0.002 C 
ATOM     83  C   UNL     1       3.653  -4.935   5.655  1.00  0.00     0.005 C 
ATOM     84  C   UNL     1       5.603  -4.760   7.149  1.00  0.00     0.005 C 
BRANCH  79  85
ATOM     85  C   UNL     1       7.152  -6.444   5.081  1.00  0.00     0.228 C 
ATOM     86  O   UNL     1       7.989  -6.030   5.884  1.00  0.00    -0.274 OA
ATOM     87  N   UNL     1       7.221  -7.758   4.670  1.00  0.00    -0.326 N 
ATOM     88  H   UNL     1       7.526  -8.413   5.338  1.00  0.00     0.169 HD
BRANCH  87  89
ATOM     89  C   UNL     1       6.902  -8.261   3.399  1.00  0.00     0.041 A 
ATOM     90  C   UNL     1       6.514  -9.587   3.239  1.00  0.00     0.026 A 
ATOM     91  C   UNL     1       7.059  -7.467   2.270  1.00  0.00     0.026 A 
ATOM     92  C   UNL     1       6.133 -10.052   1.971  1.00  0.00     0.006 A 
ATOM     93  C   UNL     1       6.686  -7.919   1.007  1.00  0.00     0.006 A 
ATOM     94  C   UNL     1       6.179  -9.209   0.849  1.00  0.00    -0.043 A 
BRANCH  94  95
ATOM     95  C   UNL     1       5.705  -9.667  -0.511  1.00  0.00     0.071 C 
BRANCH  95  96
ATOM     96  C   UNL     1       6.760 -10.343  -1.351  1.00  0.00    -0.041 A 
ATOM     97  C   UNL     1       7.247 -11.607  -1.007  1.00  0.00     0.024 A 
ATOM     98  C   UNL     1       7.260  -9.735  -2.507  1.00  0.00     0.024 A 
ATOM     99  C   UNL     1       8.200 -12.200  -1.820  1.00  0.00     0.111 A 
ATOM    100  C   UNL     1       8.207 -10.413  -3.260  1.00  0.00     0.111 A 
ATOM    101  N   UNL     1       8.687 -11.635  -2.944  1.00  0.00    -0.265 NA
ENDBRANCH  95  96
ENDBRANCH  94  95
ENDBRANCH  87  89
ENDBRANCH  79  85
ENDBRANCH  74  77
ENDBRANCH  72  73
ENDBRANCH   1  72
TORSDOF 17
