REMARK SMILES CC1=C(C#N)C(=O)N(C)C(=O)/C1=C\Nc1ccc(C(=O)NCCCNC(=O)c2ccc(-c3c4nc(c(-c5cccc(S(=O)(=O)[O-])c5F)c5ccc([nH]5)c(-c5cccc(S(=O)(=O)[O-])c5F)c5nc(c(-c6cccc(S(=O)(=O)[O-])c6F)c6ccc3[nH]6)C=C5)C=C4)cc2)c(O)c1
REMARK SMILES IDX 23 1 22 2 21 3 19 4 20 5 18 7 15 8 16 9 93 10 17 11 91 12
REMARK SMILES IDX 14 13 13 15 1 16 2 17 3 18 12 19 6 20 10 21 7 22 8 23 11 24
REMARK SMILES IDX 9 25 4 26 5 27 92 28 24 30 25 31 26 32 27 34 28 35 29 36
REMARK SMILES IDX 90 37 30 38 89 39 31 40 32 41 33 42 83 43 34 44 88 45 82 46
REMARK SMILES IDX 84 47 35 48 87 49 81 50 80 51 36 53 68 54 48 55 67 56 49 57
REMARK SMILES IDX 52 58 66 59 85 60 50 61 51 62 65 64 86 65 53 66 37 67 38 68
REMARK SMILES IDX 46 69 39 70 41 71 47 72 40 73 42 74 43 75 44 76 45 77 69 78
REMARK SMILES IDX 70 79 78 80 71 81 73 82 79 83 72 84 74 85 75 86 76 87 77 88
REMARK SMILES IDX 54 89 55 90 63 91 56 92 58 93 64 94 57 95 59 96 60 97 61 98
REMARK SMILES IDX 62 99
REMARK H PARENT 21 6 14 14 92 29 25 33 84 52 52 63
REMARK Flexibility Score: inf
ROOT
ATOM      1  C   UNL     1       4.239  10.257   1.454  1.00  0.00     0.042 C 
ENDROOT
BRANCH   1   2
ATOM      2  C   UNL     1       2.819   9.736   1.552  1.00  0.00     0.118 C 
BRANCH   2   3
ATOM      3  N   UNL     1       2.023   9.852   0.337  1.00  0.00    -0.352 N 
ATOM      4  C   UNL     1       1.106   8.986  -0.213  1.00  0.00     0.255 C 
ATOM      5  O   UNL     1       0.537   9.310  -1.254  1.00  0.00    -0.269 OA
ATOM      6  H   UNL     1       2.165  10.682  -0.173  1.00  0.00     0.163 HD
BRANCH   4   7
ATOM      7  C   UNL     1       0.819   7.657   0.385  1.00  0.00     0.081 A 
ATOM      8  C   UNL     1       0.493   5.014   1.331  1.00  0.00     0.042 A 
ATOM      9  C   UNL     1       0.456   5.280  -0.038  1.00  0.00     0.027 A 
ATOM     10  C   UNL     1       0.647   6.090   2.213  1.00  0.00     0.073 A 
ATOM     11  C   UNL     1       0.626   6.590  -0.508  1.00  0.00     0.020 A 
ATOM     12  C   UNL     1       0.728   7.398   1.751  1.00  0.00     0.130 A 
BRANCH   8  13
ATOM     13  N   UNL     1       0.394   3.740   1.895  1.00  0.00    -0.361 N 
ATOM     14  H   UNL     1       0.233   3.745   2.866  1.00  0.00     0.166 HD
BRANCH  13  15
ATOM     15  C   UNL     1       0.479   2.485   1.352  1.00  0.00     0.097 C 
ATOM     16  C   UNL     1       0.892  -0.065  -0.055  1.00  0.00     0.047 C 
ATOM     17  C   UNL     1       0.385  -0.007   1.372  1.00  0.00    -0.013 C 
ATOM     18  C   UNL     1       0.086  -1.120   2.078  1.00  0.00     0.121 C 
ATOM     19  C   UNL     1       0.238   1.314   1.987  1.00  0.00     0.060 C 
ATOM     20  C   UNL     1      -0.413  -1.039   3.479  1.00  0.00     0.271 C 
ATOM     21  C   UNL     1      -0.215   1.411   3.427  1.00  0.00     0.262 C 
ATOM     22  O   UNL     1      -0.721  -2.066   4.083  1.00  0.00    -0.268 OA
ATOM     23  N   UNL     1      -0.519   0.216   4.053  1.00  0.00    -0.277 N 
ATOM     24  O   UNL     1      -0.316   2.497   4.001  1.00  0.00    -0.269 OA
ATOM     25  C   UNL     1      -0.988   0.270   5.428  1.00  0.00     0.157 C 
BRANCH  18  26
ATOM     26  C   UNL     1       0.225  -2.430   1.538  1.00  0.00     0.105 C 
ATOM     27  N   UNL     1       0.348  -3.480   1.048  1.00  0.00    -0.192 NA
ENDBRANCH  18  26
ENDBRANCH  13  15
ENDBRANCH   8  13
BRANCH  12  28
ATOM     28  O   UNL     1       0.656   8.356   2.724  1.00  0.00    -0.507 OA
ATOM     29  H   UNL     1       0.704   9.263   2.493  1.00  0.00     0.293 HD
ENDBRANCH  12  28
ENDBRANCH   4   7
ENDBRANCH   2   3
ENDBRANCH   1   2
BRANCH   1  30
ATOM     30  C   UNL     1       4.367  11.721   1.077  1.00  0.00     0.118 C 
BRANCH  30  31
ATOM     31  N   UNL     1       3.771  12.641   2.040  1.00  0.00    -0.352 N 
ATOM     32  C   UNL     1       4.351  13.521   2.927  1.00  0.00     0.251 C 
ATOM     33  H   UNL     1       2.786  12.630   2.060  1.00  0.00     0.163 HD
ATOM     34  O   UNL     1       3.643  14.116   3.736  1.00  0.00    -0.269 OA
BRANCH  32  35
ATOM     35  C   UNL     1       5.817  13.725   2.937  1.00  0.00     0.039 A 
ATOM     36  C   UNL     1       6.484  13.834   4.161  1.00  0.00     0.014 A 
ATOM     37  C   UNL     1       6.543  13.786   1.749  1.00  0.00     0.014 A 
ATOM     38  C   UNL     1       7.880  13.900   4.185  1.00  0.00     0.010 A 
ATOM     39  C   UNL     1       7.929  13.706   1.780  1.00  0.00     0.010 A 
ATOM     40  C   UNL     1       8.619  13.778   2.997  1.00  0.00    -0.014 A 
BRANCH  40  41
ATOM     41  C   UNL     1      10.105  13.731   3.002  1.00  0.00     0.031 A 
ATOM     42  C   UNL     1      10.898  14.736   2.206  1.00  0.00     0.074 A 
ATOM     43  C   UNL     1      10.742  12.732   3.648  1.00  0.00     0.049 A 
ATOM     44  N   UNL     1      12.192  14.818   2.041  1.00  0.00    -0.248 NA
ATOM     45  C   UNL     1      10.140  15.767   1.472  1.00  0.00     0.031 C 
ATOM     46  C   UNL     1      10.088  11.643   4.380  1.00  0.00     0.029 A 
ATOM     47  N   UNL     1      12.081  12.451   3.771  1.00  0.00    -0.354 N 
ATOM     48  C   UNL     1      12.398  15.868   1.154  1.00  0.00     0.074 A 
ATOM     49  C   UNL     1      11.096  16.376   0.787  1.00  0.00     0.031 C 
ATOM     50  C   UNL     1      11.025  10.823   4.883  1.00  0.00     0.029 A 
ATOM     51  C   UNL     1      12.342  11.295   4.471  1.00  0.00     0.049 A 
ATOM     52  H   UNL     1      12.787  13.023   3.393  1.00  0.00     0.167 HD
ATOM     53  C   UNL     1      13.565  16.379   0.700  1.00  0.00     0.034 A 
ATOM     54  C   UNL     1      13.508  10.671   4.733  1.00  0.00     0.034 A 
ATOM     55  C   UNL     1      14.860  15.901   1.098  1.00  0.00     0.049 A 
ATOM     56  C   UNL     1      14.791  11.286   4.246  1.00  0.00     0.074 A 
ATOM     57  C   UNL     1      16.100  16.426   0.782  1.00  0.00     0.029 A 
ATOM     58  N   UNL     1      15.085  14.777   1.874  1.00  0.00    -0.354 N 
ATOM     59  N   UNL     1      14.969  12.382   3.550  1.00  0.00    -0.248 NA
ATOM     60  C   UNL     1      16.039  10.599   4.609  1.00  0.00     0.031 C 
ATOM     61  C   UNL     1      17.078  15.582   1.316  1.00  0.00     0.029 A 
ATOM     62  C   UNL     1      16.445  14.572   2.022  1.00  0.00     0.049 A 
ATOM     63  H   UNL     1      14.382  14.207   2.262  1.00  0.00     0.167 HD
ATOM     64  C   UNL     1      16.345  12.535   3.424  1.00  0.00     0.074 A 
ATOM     65  C   UNL     1      16.954  11.433   4.137  1.00  0.00     0.031 C 
ATOM     66  C   UNL     1      17.041  13.496   2.770  1.00  0.00     0.034 A 
BRANCH  53  67
ATOM     67  C   UNL     1      13.509  17.532  -0.268  1.00  0.00     0.023 A 
ATOM     68  C   UNL     1      13.091  18.805   0.167  1.00  0.00     0.012 A 
ATOM     69  C   UNL     1      13.957  17.366  -1.593  1.00  0.00     0.148 A 
ATOM     70  C   UNL     1      13.095  19.890  -0.709  1.00  0.00     0.002 A 
ATOM     71  C   UNL     1      14.009  18.462  -2.444  1.00  0.00     0.091 A 
ATOM     72  F   UNL     1      14.329  16.141  -1.992  1.00  0.00    -0.205 F 
ATOM     73  C   UNL     1      13.567  19.721  -2.008  1.00  0.00     0.022 A 
BRANCH  71  74
ATOM     74  S   UNL     1      14.683  18.367  -4.105  1.00  0.00     0.127 S 
ATOM     75  O   UNL     1      13.498  18.637  -4.919  1.00  0.00    -0.237 OA
ATOM     76  O   UNL     1      15.674  19.443  -4.093  1.00  0.00    -0.237 OA
ATOM     77  O   UNL     1      15.236  17.027  -4.243  1.00  0.00    -0.744 OA
ENDBRANCH  71  74
ENDBRANCH  53  67
BRANCH  54  78
ATOM     78  C   UNL     1      13.522   9.394   5.505  1.00  0.00     0.023 A 
ATOM     79  C   UNL     1      14.105   9.352   6.786  1.00  0.00     0.012 A 
ATOM     80  C   UNL     1      12.968   8.218   4.965  1.00  0.00     0.148 A 
ATOM     81  C   UNL     1      14.180   8.152   7.494  1.00  0.00     0.002 A 
ATOM     82  C   UNL     1      12.989   7.040   5.701  1.00  0.00     0.091 A 
ATOM     83  F   UNL     1      12.425   8.275   3.741  1.00  0.00    -0.205 F 
ATOM     84  C   UNL     1      13.615   6.998   6.956  1.00  0.00     0.022 A 
BRANCH  82  85
ATOM     85  S   UNL     1      12.171   5.543   5.142  1.00  0.00     0.127 S 
ATOM     86  O   UNL     1      13.306   4.669   4.860  1.00  0.00    -0.237 OA
ATOM     87  O   UNL     1      11.384   5.173   6.319  1.00  0.00    -0.237 OA
ATOM     88  O   UNL     1      11.374   5.936   3.988  1.00  0.00    -0.744 OA
ENDBRANCH  82  85
ENDBRANCH  54  78
BRANCH  66  89
ATOM     89  C   UNL     1      18.544  13.442   2.836  1.00  0.00     0.023 A 
ATOM     90  C   UNL     1      19.252  12.430   2.157  1.00  0.00     0.012 A 
ATOM     91  C   UNL     1      19.259  14.447   3.519  1.00  0.00     0.148 A 
ATOM     92  C   UNL     1      20.645  12.396   2.193  1.00  0.00     0.002 A 
ATOM     93  C   UNL     1      20.646  14.440   3.501  1.00  0.00     0.091 A 
ATOM     94  F   UNL     1      18.566  15.393   4.169  1.00  0.00    -0.205 F 
ATOM     95  C   UNL     1      21.342  13.406   2.853  1.00  0.00     0.022 A 
BRANCH  93  96
ATOM     96  S   UNL     1      21.626  15.753   4.235  1.00  0.00     0.127 S 
ATOM     97  O   UNL     1      22.254  15.062   5.360  1.00  0.00    -0.237 OA
ATOM     98  O   UNL     1      22.539  16.102   3.146  1.00  0.00    -0.237 OA
ATOM     99  O   UNL     1      20.686  16.805   4.599  1.00  0.00    -0.744 OA
ENDBRANCH  93  96
ENDBRANCH  66  89
ENDBRANCH  40  41
ENDBRANCH  32  35
ENDBRANCH  30  31
ENDBRANCH   1  30
TORSDOF 17
