REMARK SMILES O=C(NCCCNC(=O)c1cc(SCc2nc3ccccc3s2)ccn1)c1ccc(-c2c3nc(c(-c4cccc(S(=O)(=O)[O-])c4F)c4ccc([nH]4)c(-c4cccc(S(=O)(=O)[O-])c4F)c4nc(c(-c5cccc(S(=O)(=O)[O-])c5F)c5ccc2[nH]5)C=C4)C=C3)cc1
REMARK SMILES IDX 5 1 4 2 3 3 1 4 2 5 27 7 28 8 89 9 29 10 88 11 30 12 31 13
REMARK SMILES IDX 32 14 82 15 33 16 87 17 81 18 83 19 34 20 86 21 80 22 79 23
REMARK SMILES IDX 35 25 67 26 47 27 66 28 48 29 51 30 65 31 84 32 49 33 50 34
REMARK SMILES IDX 64 36 85 37 52 38 36 39 37 40 45 41 38 42 40 43 46 44 39 45
REMARK SMILES IDX 41 46 42 47 43 48 44 49 68 50 69 51 77 52 70 53 72 54 78 55
REMARK SMILES IDX 71 56 73 57 74 58 75 59 76 60 53 61 54 62 62 63 55 64 57 65
REMARK SMILES IDX 63 66 56 67 58 68 59 69 60 70 61 71 6 72 7 73 8 74 9 76
REMARK SMILES IDX 10 77 11 78 26 79 12 80 25 81 24 82 13 83 14 84 15 85 16 86
REMARK SMILES IDX 23 87 17 88 22 89 18 90 21 91 19 92 20 93
REMARK H PARENT 3 6 83 24 51 35 7 75
REMARK Flexibility Score: inf
ROOT
ATOM      1  C   UNL     1       5.245  -1.118   1.778  1.00  0.00     0.042 C 
ENDROOT
BRANCH   1   2
ATOM      2  C   UNL     1       4.825  -1.555   0.379  1.00  0.00     0.118 C 
BRANCH   2   3
ATOM      3  N   UNL     1       3.388  -1.514   0.142  1.00  0.00    -0.352 N 
ATOM      4  O   UNL     1       1.370  -0.782  -0.496  1.00  0.00    -0.269 OA
ATOM      5  C   UNL     1       2.591  -0.653  -0.578  1.00  0.00     0.251 C 
ATOM      6  H   UNL     1       2.891  -2.242   0.581  1.00  0.00     0.163 HD
BRANCH   5   7
ATOM      7  C   UNL     1       3.159   0.459  -1.378  1.00  0.00     0.039 A 
ATOM      8  C   UNL     1       4.333   0.314  -2.113  1.00  0.00     0.014 A 
ATOM      9  C   UNL     1       2.472   1.682  -1.420  1.00  0.00     0.014 A 
ATOM     10  C   UNL     1       4.915   1.419  -2.728  1.00  0.00     0.010 A 
ATOM     11  C   UNL     1       3.020   2.779  -2.087  1.00  0.00     0.010 A 
ATOM     12  C   UNL     1       4.261   2.660  -2.724  1.00  0.00    -0.014 A 
BRANCH  12  13
ATOM     13  C   UNL     1       4.800   3.769  -3.542  1.00  0.00     0.031 A 
ATOM     14  C   UNL     1       5.353   5.016  -2.922  1.00  0.00     0.074 A 
ATOM     15  C   UNL     1       4.737   3.641  -4.880  1.00  0.00     0.049 A 
ATOM     16  N   UNL     1       5.859   6.067  -3.512  1.00  0.00    -0.248 NA
ATOM     17  C   UNL     1       5.331   5.100  -1.454  1.00  0.00     0.031 C 
ATOM     18  C   UNL     1       4.166   2.488  -5.581  1.00  0.00     0.029 A 
ATOM     19  N   UNL     1       5.127   4.485  -5.885  1.00  0.00    -0.354 N 
ATOM     20  C   UNL     1       6.191   6.954  -2.496  1.00  0.00     0.074 A 
ATOM     21  C   UNL     1       5.823   6.316  -1.248  1.00  0.00     0.031 C 
ATOM     22  C   UNL     1       4.235   2.700  -6.901  1.00  0.00     0.029 A 
ATOM     23  C   UNL     1       4.806   4.021  -7.137  1.00  0.00     0.049 A 
ATOM     24  H   UNL     1       5.591   5.339  -5.726  1.00  0.00     0.167 HD
ATOM     25  C   UNL     1       6.755   8.183  -2.601  1.00  0.00     0.034 A 
ATOM     26  C   UNL     1       4.923   4.603  -8.344  1.00  0.00     0.034 A 
ATOM     27  C   UNL     1       7.108   8.801  -3.853  1.00  0.00     0.049 A 
ATOM     28  C   UNL     1       5.549   5.961  -8.435  1.00  0.00     0.074 A 
ATOM     29  C   UNL     1       7.751  10.008  -4.066  1.00  0.00     0.029 A 
ATOM     30  N   UNL     1       6.821   8.278  -5.107  1.00  0.00    -0.354 N 
ATOM     31  N   UNL     1       5.993   6.725  -7.467  1.00  0.00    -0.248 NA
ATOM     32  C   UNL     1       5.724   6.525  -9.779  1.00  0.00     0.031 C 
ATOM     33  C   UNL     1       7.812  10.235  -5.445  1.00  0.00     0.029 A 
ATOM     34  C   UNL     1       7.252   9.147  -6.096  1.00  0.00     0.049 A 
ATOM     35  H   UNL     1       6.376   7.415  -5.269  1.00  0.00     0.167 HD
ATOM     36  C   UNL     1       6.535   7.845  -8.084  1.00  0.00     0.074 A 
ATOM     37  C   UNL     1       6.366   7.656  -9.511  1.00  0.00     0.031 C 
ATOM     38  C   UNL     1       7.117   8.928  -7.515  1.00  0.00     0.034 A 
BRANCH  25  39
ATOM     39  C   UNL     1       7.030   8.941  -1.326  1.00  0.00     0.023 A 
ATOM     40  C   UNL     1       8.047   8.503  -0.453  1.00  0.00     0.012 A 
ATOM     41  C   UNL     1       6.317  10.116  -1.015  1.00  0.00     0.148 A 
ATOM     42  C   UNL     1       8.317   9.193   0.729  1.00  0.00     0.002 A 
ATOM     43  C   UNL     1       6.622  10.824   0.142  1.00  0.00     0.091 A 
ATOM     44  F   UNL     1       5.342  10.513  -1.846  1.00  0.00    -0.205 F 
ATOM     45  C   UNL     1       7.611  10.357   1.022  1.00  0.00     0.022 A 
BRANCH  43  46
ATOM     46  S   UNL     1       5.819  12.375   0.565  1.00  0.00     0.127 S 
ATOM     47  O   UNL     1       4.909  11.955   1.627  1.00  0.00    -0.237 OA
ATOM     48  O   UNL     1       6.944  13.195   1.014  1.00  0.00    -0.237 OA
ATOM     49  O   UNL     1       5.185  12.841  -0.662  1.00  0.00    -0.744 OA
ENDBRANCH  43  46
ENDBRANCH  25  39
BRANCH  26  50
ATOM     50  C   UNL     1       4.454   3.864  -9.545  1.00  0.00     0.023 A 
ATOM     51  C   UNL     1       5.392   3.311 -10.435  1.00  0.00     0.012 A 
ATOM     52  C   UNL     1       3.080   3.617  -9.743  1.00  0.00     0.148 A 
ATOM     53  C   UNL     1       4.968   2.532 -11.513  1.00  0.00     0.002 A 
ATOM     54  C   UNL     1       2.670   2.794 -10.783  1.00  0.00     0.091 A 
ATOM     55  F   UNL     1       2.210   4.154  -8.877  1.00  0.00    -0.205 F 
ATOM     56  C   UNL     1       3.611   2.263 -11.678  1.00  0.00     0.022 A 
BRANCH  54  57
ATOM     57  S   UNL     1       0.964   2.273 -10.986  1.00  0.00     0.127 S 
ATOM     58  O   UNL     1       0.609   2.902 -12.255  1.00  0.00    -0.237 OA
ATOM     59  O   UNL     1       1.101   0.817 -11.034  1.00  0.00    -0.237 OA
ATOM     60  O   UNL     1       0.253   2.774  -9.817  1.00  0.00    -0.744 OA
ENDBRANCH  54  57
ENDBRANCH  26  50
BRANCH  38  61
ATOM     61  C   UNL     1       7.673   9.987  -8.431  1.00  0.00     0.023 A 
ATOM     62  C   UNL     1       6.806  10.862  -9.112  1.00  0.00     0.012 A 
ATOM     63  C   UNL     1       9.066  10.175  -8.527  1.00  0.00     0.148 A 
ATOM     64  C   UNL     1       7.319  11.900  -9.890  1.00  0.00     0.002 A 
ATOM     65  C   UNL     1       9.568  11.242  -9.260  1.00  0.00     0.091 A 
ATOM     66  F   UNL     1       9.871   9.315  -7.886  1.00  0.00    -0.205 F 
ATOM     67  C   UNL     1       8.697  12.099  -9.951  1.00  0.00     0.022 A 
BRANCH  65  68
ATOM     68  S   UNL     1      11.319  11.638  -9.312  1.00  0.00     0.127 S 
ATOM     69  O   UNL     1      11.645  11.366 -10.711  1.00  0.00    -0.237 OA
ATOM     70  O   UNL     1      11.324  13.055  -8.947  1.00  0.00    -0.237 OA
ATOM     71  O   UNL     1      11.962  10.759  -8.344  1.00  0.00    -0.744 OA
ENDBRANCH  65  68
ENDBRANCH  38  61
ENDBRANCH  12  13
ENDBRANCH   5   7
ENDBRANCH   2   3
ENDBRANCH   1   2
BRANCH   1  72
ATOM     72  C   UNL     1       4.707  -1.975   2.916  1.00  0.00     0.118 C 
BRANCH  72  73
ATOM     73  N   UNL     1       5.207  -3.338   2.901  1.00  0.00    -0.351 N 
ATOM     74  C   UNL     1       5.816  -4.060   3.901  1.00  0.00     0.269 C 
ATOM     75  H   UNL     1       5.094  -3.816   2.048  1.00  0.00     0.163 HD
ATOM     76  O   UNL     1       6.158  -5.220   3.672  1.00  0.00    -0.268 OA
BRANCH  74  77
ATOM     77  C   UNL     1       6.070  -3.452   5.242  1.00  0.00     0.129 A 
ATOM     78  C   UNL     1       5.033  -2.904   5.997  1.00  0.00     0.049 A 
ATOM     79  N   UNL     1       7.356  -3.527   5.668  1.00  0.00    -0.251 NA
ATOM     80  C   UNL     1       5.341  -2.354   7.239  1.00  0.00     0.011 A 
ATOM     81  C   UNL     1       7.625  -3.011   6.878  1.00  0.00     0.113 A 
ATOM     82  C   UNL     1       6.668  -2.417   7.681  1.00  0.00     0.035 A 
BRANCH  80  83
ATOM     83  S   UNL     1       4.192  -1.591   8.378  1.00  0.00    -0.119 SA
BRANCH  83  84
ATOM     84  C   UNL     1       2.618  -1.430   7.466  1.00  0.00     0.142 C 
BRANCH  84  85
ATOM     85  C   UNL     1       2.635  -0.417   6.363  1.00  0.00     0.104 A 
ATOM     86  N   UNL     1       2.364  -0.712   5.109  1.00  0.00    -0.240 NA
ATOM     87  S   UNL     1       2.935   1.246   6.682  1.00  0.00    -0.118 S 
ATOM     88  C   UNL     1       2.433   0.432   4.330  1.00  0.00     0.082 A 
ATOM     89  C   UNL     1       2.789   1.600   5.006  1.00  0.00     0.055 A 
ATOM     90  C   UNL     1       2.204   0.496   2.945  1.00  0.00     0.030 A 
ATOM     91  C   UNL     1       2.970   2.821   4.335  1.00  0.00     0.021 A 
ATOM     92  C   UNL     1       2.412   1.699   2.270  1.00  0.00     0.002 A 
ATOM     93  C   UNL     1       2.800   2.845   2.950  1.00  0.00     0.002 A 
ENDBRANCH  84  85
ENDBRANCH  83  84
ENDBRANCH  80  83
ENDBRANCH  74  77
ENDBRANCH  72  73
ENDBRANCH   1  72
TORSDOF 16
