REMARK SMILES CSc1ncccc1C(=O)N1CSC[C@H]1C(=O)NCCCNC(=O)c1ccc(-c2c3nc(c(-c4cccc(S(=O)(=O)[O-])c4F)c4ccc([nH]4)c(-c4cccc(S(=O)(=O)[O-])c4F)c4nc(c(-c5cccc(S(=O)(=O)[O-])c5F)c5ccc2[nH]5)C=C4)C=C3)cc1
REMARK SMILES IDX 20 1 19 2 18 3 16 4 17 5 15 7 11 8 12 9 13 10 14 11 9 12
REMARK SMILES IDX 10 13 8 14 3 15 4 16 5 17 7 18 6 19 2 20 1 21 21 22 22 23
REMARK SMILES IDX 23 24 24 26 25 27 26 28 87 29 27 30 86 31 28 32 29 33 30 34
REMARK SMILES IDX 80 35 31 36 85 37 79 38 81 39 32 40 84 41 78 42 77 43 33 45
REMARK SMILES IDX 65 46 45 47 64 48 46 49 49 50 63 51 82 52 47 53 48 54 62 56
REMARK SMILES IDX 83 57 50 58 34 59 35 60 43 61 36 62 38 63 44 64 37 65 39 66
REMARK SMILES IDX 40 67 41 68 42 69 66 70 67 71 75 72 68 73 70 74 76 75 69 76
REMARK SMILES IDX 71 77 72 78 73 79 74 80 51 81 52 82 60 83 53 84 55 85 61 86
REMARK SMILES IDX 54 87 56 88 57 89 58 90 59 91
REMARK H PARENT 18 6 22 25 81 44 49 55
REMARK Flexibility Score: inf
ROOT
ATOM      1  C   UNL     1      -1.642  -4.805   6.132  1.00  0.00     0.042 C 
ENDROOT
BRANCH   1   2
ATOM      2  C   UNL     1      -2.830  -5.473   5.462  1.00  0.00     0.117 C 
BRANCH   2   3
ATOM      3  N   UNL     1      -3.602  -4.559   4.652  1.00  0.00    -0.354 N 
ATOM      4  C   UNL     1      -3.746  -4.475   3.301  1.00  0.00     0.243 C 
ATOM      5  O   UNL     1      -4.712  -3.818   2.897  1.00  0.00    -0.273 OA
ATOM      6  H   UNL     1      -4.109  -3.886   5.162  1.00  0.00     0.163 HD
BRANCH   4   7
ATOM      7  C   UNL     1      -2.881  -5.282   2.310  1.00  0.00     0.185 C 
ATOM      8  N   UNL     1      -1.427  -5.056   2.323  1.00  0.00    -0.316 N 
ATOM      9  C   UNL     1      -0.640  -6.158   2.834  1.00  0.00     0.190 C 
ATOM     10  S   UNL     1      -1.584  -7.647   2.439  1.00  0.00    -0.138 SA
ATOM     11  C   UNL     1      -3.183  -6.779   2.378  1.00  0.00     0.106 C 
BRANCH   8  12
ATOM     12  C   UNL     1      -0.967  -3.925   1.645  1.00  0.00     0.257 C 
ATOM     13  O   UNL     1      -1.711  -2.961   1.474  1.00  0.00    -0.269 OA
BRANCH  12  14
ATOM     14  C   UNL     1       0.337  -3.946   0.926  1.00  0.00     0.072 A 
ATOM     15  C   UNL     1       1.131  -2.810   0.737  1.00  0.00     0.108 A 
ATOM     16  N   UNL     1       2.245  -2.833  -0.050  1.00  0.00    -0.249 NA
ATOM     17  C   UNL     1       2.576  -3.981  -0.673  1.00  0.00     0.112 A 
ATOM     18  C   UNL     1       0.684  -5.103   0.207  1.00  0.00     0.018 A 
ATOM     19  C   UNL     1       1.831  -5.135  -0.578  1.00  0.00     0.021 A 
BRANCH  15  20
ATOM     20  S   UNL     1       0.824  -1.224   1.499  1.00  0.00    -0.109 SA
ATOM     21  C   UNL     1       1.247  -0.142   0.105  1.00  0.00     0.092 C 
ENDBRANCH  15  20
ENDBRANCH  12  14
ENDBRANCH   8  12
ENDBRANCH   4   7
ENDBRANCH   2   3
ENDBRANCH   1   2
BRANCH   1  22
ATOM     22  C   UNL     1      -2.039  -3.900   7.289  1.00  0.00     0.118 C 
BRANCH  22  23
ATOM     23  N   UNL     1      -2.694  -4.639   8.364  1.00  0.00    -0.352 N 
ATOM     24  C   UNL     1      -2.315  -4.819   9.669  1.00  0.00     0.251 C 
ATOM     25  H   UNL     1      -3.540  -5.077   8.113  1.00  0.00     0.163 HD
ATOM     26  O   UNL     1      -2.883  -5.675  10.350  1.00  0.00    -0.269 OA
BRANCH  24  27
ATOM     27  C   UNL     1      -1.238  -3.997  10.255  1.00  0.00     0.039 A 
ATOM     28  C   UNL     1      -0.341  -4.584  11.150  1.00  0.00     0.014 A 
ATOM     29  C   UNL     1      -1.132  -2.639   9.945  1.00  0.00     0.014 A 
ATOM     30  C   UNL     1       0.691  -3.818  11.696  1.00  0.00     0.010 A 
ATOM     31  C   UNL     1      -0.048  -1.906  10.408  1.00  0.00     0.010 A 
ATOM     32  C   UNL     1       0.860  -2.479  11.307  1.00  0.00    -0.014 A 
BRANCH  32  33
ATOM     33  C   UNL     1       1.963  -1.647  11.848  1.00  0.00     0.031 A 
ATOM     34  C   UNL     1       1.647  -0.411  12.647  1.00  0.00     0.074 A 
ATOM     35  C   UNL     1       3.239  -1.958  11.550  1.00  0.00     0.049 A 
ATOM     36  N   UNL     1       2.463   0.478  13.149  1.00  0.00    -0.248 NA
ATOM     37  C   UNL     1       0.223  -0.116  12.885  1.00  0.00     0.031 C 
ATOM     38  C   UNL     1       3.665  -3.090  10.724  1.00  0.00     0.029 A 
ATOM     39  N   UNL     1       4.413  -1.335  11.888  1.00  0.00    -0.354 N 
ATOM     40  C   UNL     1       1.656   1.450  13.728  1.00  0.00     0.074 A 
ATOM     41  C   UNL     1       0.285   1.069  13.473  1.00  0.00     0.031 C 
ATOM     42  C   UNL     1       5.004  -3.090  10.634  1.00  0.00     0.029 A 
ATOM     43  C   UNL     1       5.530  -1.940  11.362  1.00  0.00     0.049 A 
ATOM     44  H   UNL     1       4.452  -0.530  12.454  1.00  0.00     0.167 HD
ATOM     45  C   UNL     1       2.020   2.545  14.438  1.00  0.00     0.034 A 
ATOM     46  C   UNL     1       6.830  -1.603  11.455  1.00  0.00     0.034 A 
ATOM     47  C   UNL     1       3.385   2.899  14.715  1.00  0.00     0.049 A 
ATOM     48  C   UNL     1       7.211  -0.396  12.269  1.00  0.00     0.074 A 
ATOM     49  C   UNL     1       3.865   3.944  15.483  1.00  0.00     0.029 A 
ATOM     50  N   UNL     1       4.491   2.219  14.228  1.00  0.00    -0.354 N 
ATOM     51  N   UNL     1       6.438   0.433  12.929  1.00  0.00    -0.248 NA
ATOM     52  C   UNL     1       8.646  -0.100  12.384  1.00  0.00     0.031 C 
ATOM     53  C   UNL     1       5.263   3.912  15.437  1.00  0.00     0.029 A 
ATOM     54  C   UNL     1       5.654   2.823  14.673  1.00  0.00     0.049 A 
ATOM     55  H   UNL     1       4.455   1.422  13.650  1.00  0.00     0.167 HD
ATOM     56  C   UNL     1       7.293   1.319  13.575  1.00  0.00     0.074 A 
ATOM     57  C   UNL     1       8.643   0.915  13.237  1.00  0.00     0.031 C 
ATOM     58  C   UNL     1       6.989   2.375  14.370  1.00  0.00     0.034 A 
BRANCH  45  59
ATOM     59  C   UNL     1       0.918   3.409  15.000  1.00  0.00     0.023 A 
ATOM     60  C   UNL     1       0.098   2.908  16.033  1.00  0.00     0.012 A 
ATOM     61  C   UNL     1       0.712   4.721  14.533  1.00  0.00     0.148 A 
ATOM     62  C   UNL     1      -0.939   3.679  16.557  1.00  0.00     0.002 A 
ATOM     63  C   UNL     1      -0.290   5.503  15.096  1.00  0.00     0.091 A 
ATOM     64  F   UNL     1       1.486   5.176  13.537  1.00  0.00    -0.205 F 
ATOM     65  C   UNL     1      -1.127   4.978  16.095  1.00  0.00     0.022 A 
BRANCH  63  66
ATOM     66  S   UNL     1      -0.559   7.217  14.632  1.00  0.00     0.127 S 
ATOM     67  O   UNL     1      -1.821   7.130  13.899  1.00  0.00    -0.237 OA
ATOM     68  O   UNL     1      -0.655   7.876  15.934  1.00  0.00    -0.237 OA
ATOM     69  O   UNL     1       0.599   7.604  13.839  1.00  0.00    -0.744 OA
ENDBRANCH  63  66
ENDBRANCH  45  59
BRANCH  46  70
ATOM     70  C   UNL     1       7.872  -2.466  10.829  1.00  0.00     0.023 A 
ATOM     71  C   UNL     1       8.729  -3.219  11.655  1.00  0.00     0.012 A 
ATOM     72  C   UNL     1       8.001  -2.568   9.430  1.00  0.00     0.148 A 
ATOM     73  C   UNL     1       9.719  -4.031  11.101  1.00  0.00     0.002 A 
ATOM     74  C   UNL     1       8.953  -3.421   8.885  1.00  0.00     0.091 A 
ATOM     75  F   UNL     1       7.178  -1.841   8.662  1.00  0.00    -0.205 F 
ATOM     76  C   UNL     1       9.826  -4.139   9.718  1.00  0.00     0.022 A 
BRANCH  74  77
ATOM     77  S   UNL     1       9.082  -3.726   7.119  1.00  0.00     0.127 S 
ATOM     78  O   UNL     1      10.373  -3.121   6.804  1.00  0.00    -0.237 OA
ATOM     79  O   UNL     1       9.056  -5.188   7.064  1.00  0.00    -0.237 OA
ATOM     80  O   UNL     1       7.920  -3.081   6.521  1.00  0.00    -0.744 OA
ENDBRANCH  74  77
ENDBRANCH  46  70
BRANCH  58  81
ATOM     81  C   UNL     1       8.134   3.139  14.983  1.00  0.00     0.023 A 
ATOM     82  C   UNL     1       8.945   3.965  14.181  1.00  0.00     0.012 A 
ATOM     83  C   UNL     1       8.358   3.089  16.373  1.00  0.00     0.148 A 
ATOM     84  C   UNL     1       9.986   4.700  14.747  1.00  0.00     0.002 A 
ATOM     85  C   UNL     1       9.361   3.866  16.938  1.00  0.00     0.091 A 
ATOM     86  F   UNL     1       7.586   2.283  17.117  1.00  0.00    -0.205 F 
ATOM     87  C   UNL     1      10.185   4.661  16.126  1.00  0.00     0.022 A 
BRANCH  85  88
ATOM     88  S   UNL     1       9.623   3.958  18.713  1.00  0.00     0.127 S 
ATOM     89  O   UNL     1      10.874   3.218  18.867  1.00  0.00    -0.237 OA
ATOM     90  O   UNL     1       9.735   5.399  18.936  1.00  0.00    -0.237 OA
ATOM     91  O   UNL     1       8.453   3.341  19.325  1.00  0.00    -0.744 OA
ENDBRANCH  85  88
ENDBRANCH  58  81
ENDBRANCH  32  33
ENDBRANCH  24  27
ENDBRANCH  22  23
ENDBRANCH   1  22
TORSDOF 16
