REMARK SMILES Cc1ccc2occ(/C=N/NC(=O)CCC(=O)Nc3ccc(C(=O)NCCCNC(=O)c4ccc(-c5c6nc(c(-c7cccc(S(=O)(=O)[O-])c7F)c7ccc([nH]7)c(-c7cccc(S(=O)(=O)[O-])c7F)c7nc(c(-c8cccc(S(=O)(=O)[O-])c8F)c8ccc5[nH]8)C=C7)C=C6)cc4)cc3)c(=O)c2c1
REMARK SMILES IDX 23 1 24 2 25 3 22 5 19 6 20 7 96 8 21 9 95 10 18 11 16 12
REMARK SMILES IDX 17 13 15 15 14 16 12 17 11 18 13 20 10 21 9 22 8 23 1 24
REMARK SMILES IDX 2 25 3 26 100 27 4 28 99 29 5 30 97 31 6 32 98 33 7 34 26 35
REMARK SMILES IDX 27 36 28 37 29 38 30 39 31 41 32 42 33 43 94 44 34 45 93 46
REMARK SMILES IDX 35 47 36 48 37 49 87 50 38 51 92 52 86 53 88 54 39 55 91 56
REMARK SMILES IDX 85 57 84 58 40 60 72 61 52 62 71 63 53 64 56 65 70 66 89 67
REMARK SMILES IDX 54 68 55 69 69 71 90 72 57 73 41 74 42 75 50 76 43 77 45 78
REMARK SMILES IDX 51 79 44 80 46 81 47 82 48 83 49 84 73 85 74 86 82 87 75 88
REMARK SMILES IDX 77 89 83 90 76 91 78 92 79 93 80 94 81 95 58 96 59 97 67 98
REMARK SMILES IDX 60 99 62 100 68 101 61 102 63 103 64 104 65 105 66 106
REMARK H PARENT 25 4 18 14 11 19 29 40 88 59 56 70
REMARK Flexibility Score: inf
ROOT
ATOM      1  C   UNL     1      10.922   1.571  -1.053  1.00  0.00     0.251 C 
ATOM      2  O   UNL     1      11.784   0.788  -1.450  1.00  0.00    -0.269 OA
ATOM      3  N   UNL     1      11.329   2.745  -0.445  1.00  0.00    -0.352 N 
ATOM      4  H   UNL     1      12.304   2.799  -0.324  1.00  0.00     0.163 HD
ENDROOT
BRANCH   1   5
ATOM      5  C   UNL     1       9.494   1.255  -1.314  1.00  0.00     0.039 A 
ATOM      6  C   UNL     1       6.769   0.991  -2.039  1.00  0.00     0.041 A 
ATOM      7  C   UNL     1       7.726   0.132  -2.584  1.00  0.00     0.027 A 
ATOM      8  C   UNL     1       7.223   1.940  -1.160  1.00  0.00     0.027 A 
ATOM      9  C   UNL     1       9.095   0.306  -2.269  1.00  0.00     0.016 A 
ATOM     10  C   UNL     1       8.504   1.944  -0.663  1.00  0.00     0.016 A 
BRANCH   6  11
ATOM     11  N   UNL     1       5.395   0.818  -2.278  1.00  0.00    -0.326 N 
ATOM     12  C   UNL     1       4.294   1.524  -1.851  1.00  0.00     0.224 C 
ATOM     13  O   UNL     1       3.187   0.991  -2.010  1.00  0.00    -0.275 OA
ATOM     14  H   UNL     1       5.182   0.052  -2.858  1.00  0.00     0.169 HD
BRANCH  12  15
ATOM     15  C   UNL     1       4.365   2.970  -1.354  1.00  0.00     0.110 C 
BRANCH  15  16
ATOM     16  C   UNL     1       4.343   3.328   0.145  1.00  0.00     0.112 C 
BRANCH  16  17
ATOM     17  C   UNL     1       5.424   2.821   1.113  1.00  0.00     0.240 C 
ATOM     18  N   UNL     1       5.477   1.490   1.463  1.00  0.00    -0.247 N 
ATOM     19  H   UNL     1       6.188   1.212   2.084  1.00  0.00     0.193 HD
ATOM     20  O   UNL     1       6.299   3.590   1.526  1.00  0.00    -0.273 OA
BRANCH  18  21
ATOM     21  N   UNL     1       4.623   0.533   1.018  1.00  0.00    -0.180 NA
ATOM     22  C   UNL     1       3.400   0.762   1.367  1.00  0.00     0.148 C 
BRANCH  22  23
ATOM     23  C   UNL     1       2.230   0.099   0.795  1.00  0.00     0.078 A 
ATOM     24  C   UNL     1      -3.873   0.859  -0.070  1.00  0.00     0.044 C 
ATOM     25  C   UNL     1      -2.567   0.125  -0.060  1.00  0.00    -0.050 A 
ATOM     26  C   UNL     1      -2.498  -1.270  -0.194  1.00  0.00     0.007 A 
ATOM     27  C   UNL     1      -1.387   0.849   0.102  1.00  0.00     0.019 A 
ATOM     28  C   UNL     1      -1.265  -1.935  -0.164  1.00  0.00     0.048 A 
ATOM     29  C   UNL     1      -0.169   0.173   0.173  1.00  0.00     0.066 A 
ATOM     30  C   UNL     1      -0.095  -1.210   0.030  1.00  0.00     0.137 A 
ATOM     31  C   UNL     1       1.043   0.917   0.505  1.00  0.00     0.201 A 
ATOM     32  O   UNL     1       1.090  -1.905   0.102  1.00  0.00    -0.463 OA
ATOM     33  O   UNL     1       1.049   2.138   0.586  1.00  0.00    -0.288 OA
ATOM     34  C   UNL     1       2.195  -1.214   0.553  1.00  0.00     0.209 A 
ENDBRANCH  22  23
ENDBRANCH  18  21
ENDBRANCH  16  17
ENDBRANCH  15  16
ENDBRANCH  12  15
ENDBRANCH   6  11
ENDBRANCH   1   5
BRANCH   3  35
ATOM     35  C   UNL     1      10.620   3.925   0.058  1.00  0.00     0.118 C 
BRANCH  35  36
ATOM     36  C   UNL     1      10.399   3.859   1.577  1.00  0.00     0.042 C 
BRANCH  36  37
ATOM     37  C   UNL     1      11.578   4.434   2.353  1.00  0.00     0.118 C 
BRANCH  37  38
ATOM     38  N   UNL     1      11.684   5.877   2.168  1.00  0.00    -0.352 N 
ATOM     39  C   UNL     1      11.950   6.867   3.079  1.00  0.00     0.251 C 
ATOM     40  H   UNL     1      11.544   6.188   1.245  1.00  0.00     0.163 HD
ATOM     41  O   UNL     1      11.827   8.039   2.742  1.00  0.00    -0.269 OA
BRANCH  39  42
ATOM     42  C   UNL     1      12.361   6.529   4.458  1.00  0.00     0.039 A 
ATOM     43  C   UNL     1      11.846   7.290   5.511  1.00  0.00     0.014 A 
ATOM     44  C   UNL     1      13.263   5.494   4.716  1.00  0.00     0.014 A 
ATOM     45  C   UNL     1      12.198   6.982   6.826  1.00  0.00     0.010 A 
ATOM     46  C   UNL     1      13.554   5.141   6.031  1.00  0.00     0.010 A 
ATOM     47  C   UNL     1      13.030   5.885   7.099  1.00  0.00    -0.014 A 
BRANCH  47  48
ATOM     48  C   UNL     1      13.345   5.487   8.494  1.00  0.00     0.031 A 
ATOM     49  C   UNL     1      14.764   5.514   8.991  1.00  0.00     0.074 A 
ATOM     50  C   UNL     1      12.360   5.016   9.284  1.00  0.00     0.049 A 
ATOM     51  N   UNL     1      15.237   5.145  10.153  1.00  0.00    -0.248 NA
ATOM     52  C   UNL     1      15.791   5.997   8.052  1.00  0.00     0.031 C 
ATOM     53  C   UNL     1      10.955   4.877   8.892  1.00  0.00     0.029 A 
ATOM     54  N   UNL     1      12.393   4.543  10.572  1.00  0.00    -0.354 N 
ATOM     55  C   UNL     1      16.615   5.314  10.074  1.00  0.00     0.074 A 
ATOM     56  C   UNL     1      16.905   5.789   8.739  1.00  0.00     0.031 C 
ATOM     57  C   UNL     1      10.261   4.361   9.918  1.00  0.00     0.029 A 
ATOM     58  C   UNL     1      11.174   4.095  11.025  1.00  0.00     0.049 A 
ATOM     59  H   UNL     1      13.211   4.526  11.119  1.00  0.00     0.167 HD
ATOM     60  C   UNL     1      17.550   5.115  11.034  1.00  0.00     0.034 A 
ATOM     61  C   UNL     1      10.831   3.522  12.195  1.00  0.00     0.034 A 
ATOM     62  C   UNL     1      17.251   4.671  12.368  1.00  0.00     0.049 A 
ATOM     63  C   UNL     1      11.888   3.327  13.248  1.00  0.00     0.074 A 
ATOM     64  C   UNL     1      18.115   4.520  13.438  1.00  0.00     0.029 A 
ATOM     65  N   UNL     1      15.994   4.291  12.814  1.00  0.00    -0.354 N 
ATOM     66  N   UNL     1      13.161   3.639  13.209  1.00  0.00    -0.248 NA
ATOM     67  C   UNL     1      11.455   2.732  14.521  1.00  0.00     0.031 C 
ATOM     68  C   UNL     1      17.387   4.013  14.520  1.00  0.00     0.029 A 
ATOM     69  C   UNL     1      16.061   3.888  14.137  1.00  0.00     0.049 A 
ATOM     70  H   UNL     1      15.174   4.305  12.269  1.00  0.00     0.167 HD
ATOM     71  C   UNL     1      13.672   3.316  14.461  1.00  0.00     0.074 A 
ATOM     72  C   UNL     1      12.566   2.801  15.242  1.00  0.00     0.031 C 
ATOM     73  C   UNL     1      14.943   3.425  14.919  1.00  0.00     0.034 A 
BRANCH  60  74
ATOM     74  C   UNL     1      18.987   5.412  10.684  1.00  0.00     0.023 A 
ATOM     75  C   UNL     1      19.396   6.747  10.482  1.00  0.00     0.012 A 
ATOM     76  C   UNL     1      19.942   4.380  10.608  1.00  0.00     0.148 A 
ATOM     77  C   UNL     1      20.721   7.045  10.168  1.00  0.00     0.002 A 
ATOM     78  C   UNL     1      21.271   4.690  10.344  1.00  0.00     0.091 A 
ATOM     79  F   UNL     1      19.533   3.116  10.785  1.00  0.00    -0.205 F 
ATOM     80  C   UNL     1      21.660   6.019  10.110  1.00  0.00     0.022 A 
BRANCH  78  81
ATOM     81  S   UNL     1      22.572   3.451  10.330  1.00  0.00     0.127 S 
ATOM     82  O   UNL     1      22.912   3.397   8.909  1.00  0.00    -0.237 OA
ATOM     83  O   UNL     1      23.593   4.068  11.177  1.00  0.00    -0.237 OA
ATOM     84  O   UNL     1      21.979   2.239  10.877  1.00  0.00    -0.744 OA
ENDBRANCH  78  81
ENDBRANCH  60  74
BRANCH  61  85
ATOM     85  C   UNL     1       9.413   3.146  12.456  1.00  0.00     0.023 A 
ATOM     86  C   UNL     1       8.672   3.865  13.414  1.00  0.00     0.012 A 
ATOM     87  C   UNL     1       8.789   2.099  11.750  1.00  0.00     0.148 A 
ATOM     88  C   UNL     1       7.348   3.524  13.691  1.00  0.00     0.002 A 
ATOM     89  C   UNL     1       7.453   1.802  11.990  1.00  0.00     0.091 A 
ATOM     90  F   UNL     1       9.513   1.422  10.847  1.00  0.00    -0.205 F 
ATOM     91  C   UNL     1       6.736   2.500  12.974  1.00  0.00     0.022 A 
BRANCH  89  92
ATOM     92  S   UNL     1       6.545   0.586  11.029  1.00  0.00     0.127 S 
ATOM     93  O   UNL     1       6.311  -0.464  12.017  1.00  0.00    -0.237 OA
ATOM     94  O   UNL     1       5.354   1.340  10.637  1.00  0.00    -0.237 OA
ATOM     95  O   UNL     1       7.419   0.226   9.920  1.00  0.00    -0.744 OA
ENDBRANCH  89  92
ENDBRANCH  61  85
BRANCH  73  96
ATOM     96  C   UNL     1      15.210   3.023  16.347  1.00  0.00     0.023 A 
ATOM     97  C   UNL     1      15.181   1.664  16.716  1.00  0.00     0.012 A 
ATOM     98  C   UNL     1      15.561   3.993  17.307  1.00  0.00     0.148 A 
ATOM     99  C   UNL     1      15.464   1.280  18.026  1.00  0.00     0.002 A 
ATOM    100  C   UNL     1      15.895   3.598  18.596  1.00  0.00     0.091 A 
ATOM    101  F   UNL     1      15.566   5.283  16.940  1.00  0.00    -0.205 F 
ATOM    102  C   UNL     1      15.833   2.244  18.962  1.00  0.00     0.022 A 
BRANCH 100 103
ATOM    103  S   UNL     1      16.478   4.756  19.840  1.00  0.00     0.127 S 
ATOM    104  O   UNL     1      15.355   4.777  20.776  1.00  0.00    -0.237 OA
ATOM    105  O   UNL     1      17.679   4.089  20.343  1.00  0.00    -0.237 OA
ATOM    106  O   UNL     1      16.729   6.008  19.140  1.00  0.00    -0.744 OA
ENDBRANCH 100 103
ENDBRANCH  73  96
ENDBRANCH  47  48
ENDBRANCH  39  42
ENDBRANCH  37  38
ENDBRANCH  36  37
ENDBRANCH  35  36
ENDBRANCH   3  35
TORSDOF 19
