REMARK SMILES CC[C@@H](C)[C@@H](C(=O)NCCCNC(=O)c1ccc(-c2c3nc(c(-c4cccc(S(=O)(=O)[O-])c4F)c4ccc([nH]4)c(-c4cccc(S(=O)(=O)[O-])c4F)c4nc(c(-c5cccc(S(=O)(=O)[O-])c5F)c5ccc2[nH]5)C=C4)C=C3)cc1)N1C(=O)/C(=C/c2ccc(O)cc2)SC1=S
REMARK SMILES IDX 10 1 9 2 8 3 6 4 7 5 5 7 3 8 4 9 2 10 1 11 78 12 79 13 91 14
REMARK SMILES IDX 80 15 81 16 90 17 92 18 82 19 83 20 84 21 89 22 85 23 88 24
REMARK SMILES IDX 86 25 87 26 11 28 12 29 13 30 14 32 15 33 16 34 77 35 17 36
REMARK SMILES IDX 76 37 18 38 19 39 20 40 70 41 21 42 75 43 69 44 71 45 22 46
REMARK SMILES IDX 74 47 68 48 67 49 23 51 55 52 35 53 54 54 36 55 39 56 53 57
REMARK SMILES IDX 72 58 37 59 38 60 52 62 73 63 40 64 24 65 25 66 33 67 26 68
REMARK SMILES IDX 28 69 34 70 27 71 29 72 30 73 31 74 32 75 56 76 57 77 65 78
REMARK SMILES IDX 58 79 60 80 66 81 59 82 61 83 62 84 63 85 64 86 41 87 42 88
REMARK SMILES IDX 50 89 43 90 45 91 51 92 44 93 46 94 47 95 48 96 49 97
REMARK H PARENT 8 6 87 27 12 31 71 50 39 61
REMARK Flexibility Score: inf
ROOT
ATOM      1  C   UNL     1       0.032   1.055  -3.154  1.00  0.00     0.042 C 
ENDROOT
BRANCH   1   2
ATOM      2  C   UNL     1      -0.447  -0.358  -3.497  1.00  0.00     0.117 C 
BRANCH   2   3
ATOM      3  N   UNL     1       0.645  -1.247  -3.861  1.00  0.00    -0.354 N 
ATOM      4  C   UNL     1       1.121  -2.405  -3.324  1.00  0.00     0.243 C 
ATOM      5  O   UNL     1       1.948  -2.996  -4.032  1.00  0.00    -0.273 OA
ATOM      6  H   UNL     1       1.141  -0.952  -4.659  1.00  0.00     0.163 HD
BRANCH   4   7
ATOM      7  C   UNL     1       0.612  -3.007  -1.975  1.00  0.00     0.184 C 
BRANCH   7   8
ATOM      8  C   UNL     1       1.081  -2.381  -0.616  1.00  0.00     0.018 C 
ATOM      9  C   UNL     1       0.460  -3.151   0.562  1.00  0.00     0.010 C 
BRANCH   8  10
ATOM     10  C   UNL     1       0.768  -0.892  -0.509  1.00  0.00     0.002 C 
ATOM     11  C   UNL     1       1.260  -0.180   0.740  1.00  0.00     0.004 C 
ENDBRANCH   8  10
ENDBRANCH   7   8
BRANCH   7  12
ATOM     12  N   UNL     1       0.975  -4.454  -2.038  1.00  0.00    -0.280 N 
ATOM     13  C   UNL     1       2.303  -4.824  -1.845  1.00  0.00     0.266 C 
ATOM     14  C   UNL     1       0.106  -5.474  -2.356  1.00  0.00     0.149 C 
ATOM     15  O   UNL     1       3.250  -4.090  -1.621  1.00  0.00    -0.268 OA
ATOM     16  C   UNL     1       2.446  -6.298  -1.912  1.00  0.00     0.081 C 
ATOM     17  S   UNL     1       0.943  -7.024  -2.293  1.00  0.00    -0.054 SA
ATOM     18  S   UNL     1      -1.520  -5.376  -2.723  1.00  0.00    -0.052 S 
ATOM     19  C   UNL     1       3.623  -6.876  -1.636  1.00  0.00     0.029 C 
BRANCH  19  20
ATOM     20  C   UNL     1       3.903  -8.311  -1.599  1.00  0.00    -0.024 A 
ATOM     21  C   UNL     1       4.403  -8.877  -0.420  1.00  0.00     0.012 A 
ATOM     22  C   UNL     1       3.719  -9.119  -2.727  1.00  0.00     0.012 A 
ATOM     23  C   UNL     1       4.678 -10.243  -0.359  1.00  0.00     0.047 A 
ATOM     24  C   UNL     1       3.991 -10.486  -2.667  1.00  0.00     0.047 A 
ATOM     25  C   UNL     1       4.462 -11.037  -1.479  1.00  0.00     0.115 A 
BRANCH  25  26
ATOM     26  O   UNL     1       4.727 -12.371  -1.375  1.00  0.00    -0.508 OA
ATOM     27  H   UNL     1       5.044 -12.724  -0.567  1.00  0.00     0.293 HD
ENDBRANCH  25  26
ENDBRANCH  19  20
ENDBRANCH   7  12
ENDBRANCH   4   7
ENDBRANCH   2   3
ENDBRANCH   1   2
BRANCH   1  28
ATOM     28  C   UNL     1       0.635   1.817  -4.324  1.00  0.00     0.118 C 
BRANCH  28  29
ATOM     29  N   UNL     1      -0.379   2.524  -5.083  1.00  0.00    -0.352 N 
ATOM     30  C   UNL     1      -0.657   3.870  -5.126  1.00  0.00     0.251 C 
ATOM     31  H   UNL     1      -0.952   1.958  -5.649  1.00  0.00     0.163 HD
ATOM     32  O   UNL     1      -1.725   4.238  -5.612  1.00  0.00    -0.269 OA
BRANCH  30  33
ATOM     33  C   UNL     1       0.298   4.873  -4.590  1.00  0.00     0.039 A 
ATOM     34  C   UNL     1      -0.206   6.022  -3.973  1.00  0.00     0.014 A 
ATOM     35  C   UNL     1       1.680   4.729  -4.744  1.00  0.00     0.014 A 
ATOM     36  C   UNL     1       0.669   7.003  -3.493  1.00  0.00     0.010 A 
ATOM     37  C   UNL     1       2.552   5.654  -4.172  1.00  0.00     0.010 A 
ATOM     38  C   UNL     1       2.059   6.822  -3.574  1.00  0.00    -0.014 A 
BRANCH  38  39
ATOM     39  C   UNL     1       3.009   7.864  -3.097  1.00  0.00     0.031 A 
ATOM     40  C   UNL     1       3.971   8.508  -4.066  1.00  0.00     0.074 A 
ATOM     41  C   UNL     1       3.056   8.191  -1.790  1.00  0.00     0.049 A 
ATOM     42  N   UNL     1       4.907   9.393  -3.836  1.00  0.00    -0.248 NA
ATOM     43  C   UNL     1       3.892   8.080  -5.473  1.00  0.00     0.031 C 
ATOM     44  C   UNL     1       2.232   7.593  -0.737  1.00  0.00     0.029 A 
ATOM     45  N   UNL     1       3.847   9.091  -1.119  1.00  0.00    -0.354 N 
ATOM     46  C   UNL     1       5.552   9.591  -5.053  1.00  0.00     0.074 A 
ATOM     47  C   UNL     1       4.928   8.706  -6.010  1.00  0.00     0.031 C 
ATOM     48  C   UNL     1       2.554   8.148   0.443  1.00  0.00     0.029 A 
ATOM     49  C   UNL     1       3.628   9.115   0.239  1.00  0.00     0.049 A 
ATOM     50  H   UNL     1       4.509   9.665  -1.568  1.00  0.00     0.167 HD
ATOM     51  C   UNL     1       6.550  10.455  -5.359  1.00  0.00     0.034 A 
ATOM     52  C   UNL     1       4.229   9.830   1.212  1.00  0.00     0.034 A 
ATOM     53  C   UNL     1       7.132  11.373  -4.420  1.00  0.00     0.049 A 
ATOM     54  C   UNL     1       5.305  10.815   0.838  1.00  0.00     0.074 A 
ATOM     55  C   UNL     1       8.086  12.350  -4.650  1.00  0.00     0.029 A 
ATOM     56  N   UNL     1       6.821  11.428  -3.071  1.00  0.00    -0.354 N 
ATOM     57  N   UNL     1       5.795  11.093  -0.345  1.00  0.00    -0.248 NA
ATOM     58  C   UNL     1       5.882  11.615   1.929  1.00  0.00     0.031 C 
ATOM     59  C   UNL     1       8.371  12.976  -3.433  1.00  0.00     0.029 A 
ATOM     60  C   UNL     1       7.567  12.416  -2.453  1.00  0.00     0.049 A 
ATOM     61  H   UNL     1       6.165  10.850  -2.618  1.00  0.00     0.167 HD
ATOM     62  C   UNL     1       6.705  12.126  -0.148  1.00  0.00     0.074 A 
ATOM     63  C   UNL     1       6.684  12.437   1.266  1.00  0.00     0.031 C 
ATOM     64  C   UNL     1       7.494  12.754  -1.055  1.00  0.00     0.034 A 
BRANCH  51  65
ATOM     65  C   UNL     1       7.043  10.483  -6.784  1.00  0.00     0.023 A 
ATOM     66  C   UNL     1       6.215  11.003  -7.800  1.00  0.00     0.012 A 
ATOM     67  C   UNL     1       8.345  10.052  -7.108  1.00  0.00     0.148 A 
ATOM     68  C   UNL     1       6.657  11.056  -9.121  1.00  0.00     0.002 A 
ATOM     69  C   UNL     1       8.797  10.155  -8.419  1.00  0.00     0.091 A 
ATOM     70  F   UNL     1       9.112   9.544  -6.134  1.00  0.00    -0.205 F 
ATOM     71  C   UNL     1       7.951  10.643  -9.428  1.00  0.00     0.022 A 
BRANCH  69  72
ATOM     72  S   UNL     1      10.473   9.729  -8.904  1.00  0.00     0.127 S 
ATOM     73  O   UNL     1      10.251   8.529  -9.710  1.00  0.00    -0.237 OA
ATOM     74  O   UNL     1      10.880  10.909  -9.667  1.00  0.00    -0.237 OA
ATOM     75  O   UNL     1      11.210   9.521  -7.665  1.00  0.00    -0.744 OA
ENDBRANCH  69  72
ENDBRANCH  51  65
BRANCH  52  76
ATOM     76  C   UNL     1       3.783   9.688   2.628  1.00  0.00     0.023 A 
ATOM     77  C   UNL     1       3.105  10.753   3.252  1.00  0.00     0.012 A 
ATOM     78  C   UNL     1       4.011   8.502   3.352  1.00  0.00     0.148 A 
ATOM     79  C   UNL     1       2.696  10.655   4.583  1.00  0.00     0.002 A 
ATOM     80  C   UNL     1       3.550   8.389   4.658  1.00  0.00     0.091 A 
ATOM     81  F   UNL     1       4.666   7.503   2.744  1.00  0.00    -0.205 F 
ATOM     82  C   UNL     1       2.910   9.470   5.282  1.00  0.00     0.022 A 
BRANCH  80  83
ATOM     83  S   UNL     1       3.663   6.857   5.591  1.00  0.00     0.127 S 
ATOM     84  O   UNL     1       4.658   7.197   6.604  1.00  0.00    -0.237 OA
ATOM     85  O   UNL     1       2.297   6.709   6.093  1.00  0.00    -0.237 OA
ATOM     86  O   UNL     1       4.061   5.839   4.628  1.00  0.00    -0.744 OA
ENDBRANCH  80  83
ENDBRANCH  52  76
BRANCH  64  87
ATOM     87  C   UNL     1       8.364  13.883  -0.566  1.00  0.00     0.023 A 
ATOM     88  C   UNL     1       9.493  13.612   0.230  1.00  0.00     0.012 A 
ATOM     89  C   UNL     1       8.101  15.208  -0.966  1.00  0.00     0.148 A 
ATOM     90  C   UNL     1      10.328  14.647   0.651  1.00  0.00     0.002 A 
ATOM     91  C   UNL     1       8.966  16.227  -0.588  1.00  0.00     0.091 A 
ATOM     92  F   UNL     1       7.011  15.448  -1.710  1.00  0.00    -0.205 F 
ATOM     93  C   UNL     1      10.072  15.951   0.232  1.00  0.00     0.022 A 
BRANCH  91  94
ATOM     94  S   UNL     1       8.773  17.917  -1.165  1.00  0.00     0.127 S 
ATOM     95  O   UNL     1       8.326  18.597   0.050  1.00  0.00    -0.237 OA
ATOM     96  O   UNL     1      10.131  18.257  -1.590  1.00  0.00    -0.237 OA
ATOM     97  O   UNL     1       7.797  17.864  -2.245  1.00  0.00    -0.744 OA
ENDBRANCH  91  94
ENDBRANCH  64  87
ENDBRANCH  38  39
ENDBRANCH  30  33
ENDBRANCH  28  29
ENDBRANCH   1  28
TORSDOF 18
