REMARK SMILES C[C@H]([C@@H](C)O)[N@H+]1CC[C@@](C)(C(=O)NCCCNC(=O)c2ccc(-c3c4nc(c(-c5cccc(S(=O)(=O)[O-])c5F)c5ccc([nH]5)c(-c5cccc(S(=O)(=O)[O-])c5F)c5nc(c(-c6cccc(S(=O)(=O)[O-])c6F)c6ccc3[nH]6)C=C5)C=C4)cc2)C1
REMARK SMILES IDX 15 1 14 2 13 3 11 4 12 5 9 7 6 8 7 9 83 10 8 12 10 13 2 14
REMARK SMILES IDX 1 15 3 16 4 17 5 18 16 20 17 21 18 22 19 24 20 25 21 26
REMARK SMILES IDX 82 27 22 28 81 29 23 30 24 31 25 32 75 33 26 34 80 35 74 36
REMARK SMILES IDX 76 37 27 38 79 39 73 40 72 41 28 43 60 44 40 45 59 46 41 47
REMARK SMILES IDX 44 48 58 49 77 50 42 51 43 52 57 54 78 55 45 56 29 57 30 58
REMARK SMILES IDX 38 59 31 60 33 61 39 62 32 63 34 64 35 65 36 66 37 67 61 68
REMARK SMILES IDX 62 69 70 70 63 71 65 72 71 73 64 74 66 75 67 76 68 77 69 78
REMARK SMILES IDX 46 79 47 80 55 81 48 82 50 83 56 84 49 85 51 86 52 87 53 88
REMARK SMILES IDX 54 89
REMARK H PARENT 13 6 6 11 5 19 17 23 76 42 44 53
REMARK Flexibility Score: inf
ROOT
ATOM      1  C   UNL     1      -5.023  -1.989   5.176  1.00  0.00     0.042 C 
ENDROOT
BRANCH   1   2
ATOM      2  C   UNL     1      -5.060  -0.628   4.490  1.00  0.00     0.117 C 
BRANCH   2   3
ATOM      3  N   UNL     1      -3.829   0.118   4.694  1.00  0.00    -0.355 N 
ATOM      4  C   UNL     1      -2.837   0.489   3.835  1.00  0.00     0.231 C 
ATOM      5  O   UNL     1      -1.918   1.147   4.330  1.00  0.00    -0.274 OA
ATOM      6  H   UNL     1      -3.685   0.409   5.623  1.00  0.00     0.163 HD
BRANCH   4   7
ATOM      7  C   UNL     1      -2.903   0.163   2.329  1.00  0.00     0.100 C 
ATOM      8  N   UNL     1      -0.927  -0.701   1.220  1.00  0.00    -0.330 N 
ATOM      9  C   UNL     1      -1.517  -1.774   2.010  1.00  0.00     0.263 C 
ATOM     10  C   UNL     1      -1.565   0.553   1.634  1.00  0.00     0.279 C 
ATOM     11  H   UNL     1      -1.130  -0.813   0.227  1.00  0.00     0.348 HD
ATOM     12  C   UNL     1      -2.972  -1.351   2.070  1.00  0.00     0.084 C 
ATOM     13  C   UNL     1      -4.079   0.936   1.703  1.00  0.00     0.028 C 
BRANCH   8  14
ATOM     14  C   UNL     1       0.543  -0.746   1.155  1.00  0.00     0.209 C 
ATOM     15  C   UNL     1       1.261  -0.401   2.474  1.00  0.00     0.078 C 
BRANCH  14  16
ATOM     16  C   UNL     1       1.104   0.059  -0.062  1.00  0.00     0.169 C 
ATOM     17  C   UNL     1       1.411   1.531   0.191  1.00  0.00     0.045 C 
BRANCH  16  18
ATOM     18  O   UNL     1       2.309  -0.547  -0.556  1.00  0.00    -0.387 OA
ATOM     19  H   UNL     1       3.001  -0.490   0.121  1.00  0.00     0.211 HD
ENDBRANCH  16  18
ENDBRANCH  14  16
ENDBRANCH   8  14
ENDBRANCH   4   7
ENDBRANCH   2   3
ENDBRANCH   1   2
BRANCH   1  20
ATOM     20  C   UNL     1      -4.991  -1.911   6.697  1.00  0.00     0.118 C 
BRANCH  20  21
ATOM     21  N   UNL     1      -6.237  -1.403   7.256  1.00  0.00    -0.352 N 
ATOM     22  C   UNL     1      -7.134  -2.024   8.092  1.00  0.00     0.251 C 
ATOM     23  H   UNL     1      -6.470  -0.481   6.998  1.00  0.00     0.163 HD
ATOM     24  O   UNL     1      -8.229  -1.511   8.305  1.00  0.00    -0.269 OA
BRANCH  22  25
ATOM     25  C   UNL     1      -6.783  -3.317   8.717  1.00  0.00     0.039 A 
ATOM     26  C   UNL     1      -7.716  -4.357   8.708  1.00  0.00     0.014 A 
ATOM     27  C   UNL     1      -5.529  -3.502   9.304  1.00  0.00     0.014 A 
ATOM     28  C   UNL     1      -7.363  -5.608   9.221  1.00  0.00     0.010 A 
ATOM     29  C   UNL     1      -5.153  -4.767   9.741  1.00  0.00     0.010 A 
ATOM     30  C   UNL     1      -6.064  -5.833   9.706  1.00  0.00    -0.014 A 
BRANCH  30  31
ATOM     31  C   UNL     1      -5.620  -7.168  10.183  1.00  0.00     0.031 A 
ATOM     32  C   UNL     1      -5.172  -7.340  11.609  1.00  0.00     0.074 A 
ATOM     33  C   UNL     1      -5.500  -8.186   9.307  1.00  0.00     0.049 A 
ATOM     34  N   UNL     1      -4.607  -8.373  12.178  1.00  0.00    -0.248 NA
ATOM     35  C   UNL     1      -5.350  -6.185  12.505  1.00  0.00     0.031 C 
ATOM     36  C   UNL     1      -5.836  -8.123   7.883  1.00  0.00     0.029 A 
ATOM     37  N   UNL     1      -5.022  -9.462   9.479  1.00  0.00    -0.354 N 
ATOM     38  C   UNL     1      -4.319  -7.978  13.479  1.00  0.00     0.074 A 
ATOM     39  C   UNL     1      -4.746  -6.603  13.608  1.00  0.00     0.031 C 
ATOM     40  C   UNL     1      -5.548  -9.303   7.310  1.00  0.00     0.029 A 
ATOM     41  C   UNL     1      -4.975 -10.194   8.314  1.00  0.00     0.049 A 
ATOM     42  H   UNL     1      -4.741  -9.819  10.352  1.00  0.00     0.167 HD
ATOM     43  C   UNL     1      -3.774  -8.704  14.484  1.00  0.00     0.034 A 
ATOM     44  C   UNL     1      -4.506 -11.436   8.079  1.00  0.00     0.034 A 
ATOM     45  C   UNL     1      -3.408 -10.088  14.367  1.00  0.00     0.049 A 
ATOM     46  C   UNL     1      -3.947 -12.236   9.225  1.00  0.00     0.074 A 
ATOM     47  C   UNL     1      -2.934 -10.937  15.351  1.00  0.00     0.029 A 
ATOM     48  N   UNL     1      -3.475 -10.828  13.197  1.00  0.00    -0.354 N 
ATOM     49  N   UNL     1      -3.818 -11.893  10.483  1.00  0.00    -0.248 NA
ATOM     50  C   UNL     1      -3.497 -13.603   8.926  1.00  0.00     0.031 C 
ATOM     51  C   UNL     1      -2.703 -12.189  14.773  1.00  0.00     0.029 A 
ATOM     52  C   UNL     1      -3.050 -12.123  13.433  1.00  0.00     0.049 A 
ATOM     53  H   UNL     1      -3.781 -10.483  12.328  1.00  0.00     0.167 HD
ATOM     54  C   UNL     1      -3.312 -13.013  11.134  1.00  0.00     0.074 A 
ATOM     55  C   UNL     1      -3.171 -14.049  10.132  1.00  0.00     0.031 C 
ATOM     56  C   UNL     1      -2.981 -13.164  12.439  1.00  0.00     0.034 A 
BRANCH  43  57
ATOM     57  C   UNL     1      -3.599  -8.030  15.819  1.00  0.00     0.023 A 
ATOM     58  C   UNL     1      -4.733  -7.750  16.608  1.00  0.00     0.012 A 
ATOM     59  C   UNL     1      -2.317  -7.727  16.319  1.00  0.00     0.148 A 
ATOM     60  C   UNL     1      -4.599  -7.149  17.858  1.00  0.00     0.002 A 
ATOM     61  C   UNL     1      -2.189  -7.167  17.585  1.00  0.00     0.091 A 
ATOM     62  F   UNL     1      -1.252  -7.980  15.546  1.00  0.00    -0.205 F 
ATOM     63  C   UNL     1      -3.328  -6.867  18.351  1.00  0.00     0.022 A 
BRANCH  61  64
ATOM     64  S   UNL     1      -0.592  -6.840  18.341  1.00  0.00     0.127 S 
ATOM     65  O   UNL     1      -0.529  -5.380  18.276  1.00  0.00    -0.237 OA
ATOM     66  O   UNL     1      -0.771  -7.382  19.689  1.00  0.00    -0.237 OA
ATOM     67  O   UNL     1       0.388  -7.546  17.529  1.00  0.00    -0.744 OA
ENDBRANCH  61  64
ENDBRANCH  43  57
BRANCH  44  68
ATOM     68  C   UNL     1      -4.609 -12.024   6.713  1.00  0.00     0.023 A 
ATOM     69  C   UNL     1      -5.527 -13.068   6.483  1.00  0.00     0.012 A 
ATOM     70  C   UNL     1      -3.834 -11.543   5.641  1.00  0.00     0.148 A 
ATOM     71  C   UNL     1      -5.648 -13.643   5.217  1.00  0.00     0.002 A 
ATOM     72  C   UNL     1      -3.999 -12.084   4.370  1.00  0.00     0.091 A 
ATOM     73  F   UNL     1      -2.957 -10.558   5.882  1.00  0.00    -0.205 F 
ATOM     74  C   UNL     1      -4.893 -13.145   4.160  1.00  0.00     0.022 A 
BRANCH  72  75
ATOM     75  S   UNL     1      -3.166 -11.414   2.926  1.00  0.00     0.127 S 
ATOM     76  O   UNL     1      -2.162 -12.440   2.657  1.00  0.00    -0.237 OA
ATOM     77  O   UNL     1      -4.255 -11.346   1.951  1.00  0.00    -0.237 OA
ATOM     78  O   UNL     1      -2.654 -10.114   3.340  1.00  0.00    -0.744 OA
ENDBRANCH  72  75
ENDBRANCH  44  68
BRANCH  56  79
ATOM     79  C   UNL     1      -2.474 -14.509  12.886  1.00  0.00     0.023 A 
ATOM     80  C   UNL     1      -1.164 -14.907  12.559  1.00  0.00     0.012 A 
ATOM     81  C   UNL     1      -3.263 -15.330  13.717  1.00  0.00     0.148 A 
ATOM     82  C   UNL     1      -0.652 -16.113  13.035  1.00  0.00     0.002 A 
ATOM     83  C   UNL     1      -2.730 -16.508  14.226  1.00  0.00     0.091 A 
ATOM     84  F   UNL     1      -4.514 -14.939  14.001  1.00  0.00    -0.205 F 
ATOM     85  C   UNL     1      -1.428 -16.905  13.878  1.00  0.00     0.022 A 
BRANCH  83  86
ATOM     86  S   UNL     1      -3.619 -17.542  15.394  1.00  0.00     0.127 S 
ATOM     87  O   UNL     1      -3.941 -18.709  14.574  1.00  0.00    -0.237 OA
ATOM     88  O   UNL     1      -2.610 -17.782  16.427  1.00  0.00    -0.237 OA
ATOM     89  O   UNL     1      -4.763 -16.757  15.838  1.00  0.00    -0.744 OA
ENDBRANCH  83  86
ENDBRANCH  56  79
ENDBRANCH  30  31
ENDBRANCH  22  25
ENDBRANCH  20  21
ENDBRANCH   1  20
TORSDOF 16
