REMARK SMILES [NH3+][C@H](/C=C\c1ccccc1)C(=O)NCCCNC(=O)c1ccc(-c2c3nc(c(-c4cccc(S(=O)(=O)[O-])c4F)c4ccc([nH]4)c(-c4cccc(S(=O)(=O)[O-])c4F)c4nc(c(-c5cccc(S(=O)(=O)[O-])c5F)c5ccc2[nH]5)C=C4)C=C3)cc1
REMARK SMILES IDX 15 1 14 2 13 3 11 4 12 5 2 7 1 8 3 12 4 13 5 14 6 15 10 16
REMARK SMILES IDX 7 17 9 18 8 19 16 20 17 21 18 22 19 24 20 25 21 26 82 27
REMARK SMILES IDX 22 28 81 29 23 30 24 31 25 32 75 33 26 34 80 35 74 36 76 37
REMARK SMILES IDX 27 38 79 39 73 40 72 41 28 43 60 44 40 45 59 46 41 47 44 48
REMARK SMILES IDX 58 49 77 50 42 51 43 52 57 54 78 55 45 56 29 57 30 58 38 59
REMARK SMILES IDX 31 60 33 61 39 62 32 63 34 64 35 65 36 66 37 67 61 68 62 69
REMARK SMILES IDX 70 70 63 71 65 72 71 73 64 74 66 75 67 76 68 77 69 78 46 79
REMARK SMILES IDX 47 80 55 81 48 82 50 83 56 84 49 85 51 86 52 87 53 88 54 89
REMARK H PARENT 13 6 1 9 1 10 1 11 17 23 76 42 44 53
REMARK Flexibility Score: inf
ROOT
ATOM      1  C   UNL     1      -1.418   2.671   0.916  1.00  0.00     0.042 C 
ENDROOT
BRANCH   1   2
ATOM      2  C   UNL     1      -1.040   1.610   1.943  1.00  0.00     0.118 C 
BRANCH   2   3
ATOM      3  N   UNL     1      -1.652   0.328   1.649  1.00  0.00    -0.351 N 
ATOM      4  C   UNL     1      -1.104  -0.865   1.275  1.00  0.00     0.282 C 
ATOM      5  O   UNL     1      -1.889  -1.770   0.970  1.00  0.00    -0.268 OA
ATOM      6  H   UNL     1      -2.633   0.316   1.735  1.00  0.00     0.163 HD
BRANCH   4   7
ATOM      7  C   UNL     1       0.432  -1.086   1.235  1.00  0.00     0.294 C 
BRANCH   7   8
ATOM      8  N   UNL     1       1.012  -0.927   2.580  1.00  0.00    -0.344 N 
ATOM      9  H   UNL     1       0.502  -1.513   3.241  1.00  0.00     0.345 HD
ATOM     10  H   UNL     1       0.942   0.050   2.866  1.00  0.00     0.345 HD
ATOM     11  H   UNL     1       1.992  -1.207   2.563  1.00  0.00     0.345 HD
ENDBRANCH   7   8
BRANCH   7  12
ATOM     12  C   UNL     1       1.121  -0.256   0.181  1.00  0.00     0.047 C 
ATOM     13  C   UNL     1       2.390  -0.369  -0.254  1.00  0.00     0.010 C 
BRANCH  13  14
ATOM     14  C   UNL     1       3.366  -1.341   0.243  1.00  0.00    -0.026 A 
ATOM     15  C   UNL     1       4.557  -0.888   0.819  1.00  0.00     0.008 A 
ATOM     16  C   UNL     1       3.125  -2.718   0.165  1.00  0.00     0.008 A 
ATOM     17  C   UNL     1       5.471  -1.799   1.353  1.00  0.00     0.001 A 
ATOM     18  C   UNL     1       4.031  -3.627   0.711  1.00  0.00     0.001 A 
ATOM     19  C   UNL     1       5.202  -3.167   1.311  1.00  0.00     0.000 A 
ENDBRANCH  13  14
ENDBRANCH   7  12
ENDBRANCH   4   7
ENDBRANCH   2   3
ENDBRANCH   1   2
BRANCH   1  20
ATOM     20  C   UNL     1      -2.917   2.919   0.795  1.00  0.00     0.118 C 
BRANCH  20  21
ATOM     21  N   UNL     1      -3.514   3.397   2.036  1.00  0.00    -0.352 N 
ATOM     22  C   UNL     1      -4.091   4.609   2.325  1.00  0.00     0.251 C 
ATOM     23  H   UNL     1      -3.501   2.752   2.780  1.00  0.00     0.163 HD
ATOM     24  O   UNL     1      -4.372   4.889   3.488  1.00  0.00    -0.269 OA
BRANCH  22  25
ATOM     25  C   UNL     1      -4.350   5.583   1.244  1.00  0.00     0.039 A 
ATOM     26  C   UNL     1      -4.002   6.923   1.440  1.00  0.00     0.014 A 
ATOM     27  C   UNL     1      -4.922   5.176   0.037  1.00  0.00     0.014 A 
ATOM     28  C   UNL     1      -4.149   7.835   0.393  1.00  0.00     0.010 A 
ATOM     29  C   UNL     1      -4.989   6.066  -1.030  1.00  0.00     0.010 A 
ATOM     30  C   UNL     1      -4.600   7.404  -0.865  1.00  0.00    -0.014 A 
BRANCH  30  31
ATOM     31  C   UNL     1      -4.641   8.321  -2.033  1.00  0.00     0.031 A 
ATOM     32  C   UNL     1      -5.946   8.619  -2.720  1.00  0.00     0.074 A 
ATOM     33  C   UNL     1      -3.487   8.795  -2.544  1.00  0.00     0.049 A 
ATOM     34  N   UNL     1      -6.166   9.317  -3.803  1.00  0.00    -0.248 NA
ATOM     35  C   UNL     1      -7.160   8.033  -2.128  1.00  0.00     0.031 C 
ATOM     36  C   UNL     1      -2.149   8.511  -2.018  1.00  0.00     0.029 A 
ATOM     37  N   UNL     1      -3.249   9.589  -3.639  1.00  0.00    -0.354 N 
ATOM     38  C   UNL     1      -7.531   9.223  -4.046  1.00  0.00     0.074 A 
ATOM     39  C   UNL     1      -8.085   8.374  -3.014  1.00  0.00     0.031 C 
ATOM     40  C   UNL     1      -1.234   9.118  -2.790  1.00  0.00     0.029 A 
ATOM     41  C   UNL     1      -1.913   9.806  -3.883  1.00  0.00     0.049 A 
ATOM     42  H   UNL     1      -3.967   9.966  -4.197  1.00  0.00     0.167 HD
ATOM     43  C   UNL     1      -8.262   9.812  -5.021  1.00  0.00     0.034 A 
ATOM     44  C   UNL     1      -1.301  10.472  -4.882  1.00  0.00     0.034 A 
ATOM     45  C   UNL     1      -7.715  10.692  -6.018  1.00  0.00     0.049 A 
ATOM     46  C   UNL     1      -2.140  11.146  -5.933  1.00  0.00     0.074 A 
ATOM     47  C   UNL     1      -8.387  11.417  -6.987  1.00  0.00     0.029 A 
ATOM     48  N   UNL     1      -6.365  10.961  -6.182  1.00  0.00    -0.354 N 
ATOM     49  N   UNL     1      -3.446  11.184  -6.047  1.00  0.00    -0.248 NA
ATOM     50  C   UNL     1      -1.425  11.896  -6.976  1.00  0.00     0.031 C 
ATOM     51  C   UNL     1      -7.440  12.106  -7.752  1.00  0.00     0.029 A 
ATOM     52  C   UNL     1      -6.181  11.829  -7.245  1.00  0.00     0.049 A 
ATOM     53  H   UNL     1      -5.644  10.589  -5.625  1.00  0.00     0.167 HD
ATOM     54  C   UNL     1      -3.709  11.984  -7.153  1.00  0.00     0.074 A 
ATOM     55  C   UNL     1      -2.428  12.431  -7.660  1.00  0.00     0.031 C 
ATOM     56  C   UNL     1      -4.903  12.305  -7.710  1.00  0.00     0.034 A 
BRANCH  43  57
ATOM     57  C   UNL     1      -9.749   9.569  -5.025  1.00  0.00     0.023 A 
ATOM     58  C   UNL     1     -10.551  10.160  -4.027  1.00  0.00     0.012 A 
ATOM     59  C   UNL     1     -10.360   8.810  -6.042  1.00  0.00     0.148 A 
ATOM     60  C   UNL     1     -11.932   9.972  -4.020  1.00  0.00     0.002 A 
ATOM     61  C   UNL     1     -11.743   8.663  -6.053  1.00  0.00     0.091 A 
ATOM     62  F   UNL     1      -9.580   8.238  -6.970  1.00  0.00    -0.205 F 
ATOM     63  C   UNL     1     -12.528   9.233  -5.038  1.00  0.00     0.022 A 
BRANCH  61  64
ATOM     64  S   UNL     1     -12.614   7.796  -7.363  1.00  0.00     0.127 S 
ATOM     65  O   UNL     1     -13.050   6.582  -6.674  1.00  0.00    -0.237 OA
ATOM     66  O   UNL     1     -13.691   8.732  -7.689  1.00  0.00    -0.237 OA
ATOM     67  O   UNL     1     -11.641   7.596  -8.428  1.00  0.00    -0.744 OA
ENDBRANCH  61  64
ENDBRANCH  43  57
BRANCH  44  68
ATOM     68  C   UNL     1       0.185  10.585  -4.901  1.00  0.00     0.023 A 
ATOM     69  C   UNL     1       0.786  11.832  -4.640  1.00  0.00     0.012 A 
ATOM     70  C   UNL     1       1.005   9.465  -5.143  1.00  0.00     0.148 A 
ATOM     71  C   UNL     1       2.174  11.969  -4.650  1.00  0.00     0.002 A 
ATOM     72  C   UNL     1       2.388   9.597  -5.095  1.00  0.00     0.091 A 
ATOM     73  F   UNL     1       0.415   8.290  -5.401  1.00  0.00    -0.205 F 
ATOM     74  C   UNL     1       2.975  10.851  -4.867  1.00  0.00     0.022 A 
BRANCH  72  75
ATOM     75  S   UNL     1       3.494   8.187  -5.226  1.00  0.00     0.127 S 
ATOM     76  O   UNL     1       4.083   8.390  -6.547  1.00  0.00    -0.237 OA
ATOM     77  O   UNL     1       4.405   8.411  -4.103  1.00  0.00    -0.237 OA
ATOM     78  O   UNL     1       2.647   7.010  -5.083  1.00  0.00    -0.744 OA
ENDBRANCH  72  75
ENDBRANCH  44  68
BRANCH  56  79
ATOM     79  C   UNL     1      -4.891  13.201  -8.921  1.00  0.00     0.023 A 
ATOM     80  C   UNL     1      -4.455  12.692 -10.160  1.00  0.00     0.012 A 
ATOM     81  C   UNL     1      -5.381  14.519  -8.847  1.00  0.00     0.148 A 
ATOM     82  C   UNL     1      -4.480  13.491 -11.303  1.00  0.00     0.002 A 
ATOM     83  C   UNL     1      -5.447  15.294  -9.999  1.00  0.00     0.091 A 
ATOM     84  F   UNL     1      -5.773  14.991  -7.655  1.00  0.00    -0.205 F 
ATOM     85  C   UNL     1      -4.987  14.786 -11.225  1.00  0.00     0.022 A 
BRANCH  83  86
ATOM     86  S   UNL     1      -6.171  16.938 -10.014  1.00  0.00     0.127 S 
ATOM     87  O   UNL     1      -4.989  17.783 -10.176  1.00  0.00    -0.237 OA
ATOM     88  O   UNL     1      -7.046  16.882 -11.186  1.00  0.00    -0.237 OA
ATOM     89  O   UNL     1      -6.871  17.080  -8.745  1.00  0.00    -0.744 OA
ENDBRANCH  83  86
ENDBRANCH  56  79
ENDBRANCH  30  31
ENDBRANCH  22  25
ENDBRANCH  20  21
ENDBRANCH   1  20
TORSDOF 16
