REMARK SMILES Cc1cc(C)c2c(c1)C=C(C(=O)NCCCNC(=O)c1ccc(-c3c4nc(c(-c5cccc(S(=O)(=O)[O-])c5F)c5ccc([nH]5)c(-c5cccc(S(=O)(=O)[O-])c5F)c5nc(c(-c6cccc(S(=O)(=O)[O-])c6F)c6ccc3[nH]6)C=C5)C=C4)cc1)[C@@H](C(F)(F)F)O2
REMARK SMILES IDX 16 1 15 2 14 3 13 4 11 5 12 6 10 8 1 9 2 10 3 11 8 12 4 13
REMARK SMILES IDX 7 14 5 15 6 16 9 17 88 18 83 19 84 20 85 21 86 22 87 23
REMARK SMILES IDX 17 24 18 25 19 27 20 28 21 29 82 30 22 31 81 32 23 33 24 34
REMARK SMILES IDX 25 35 75 36 26 37 80 38 74 39 76 40 27 41 79 42 73 43 72 44
REMARK SMILES IDX 28 46 60 47 40 48 59 49 41 50 44 51 58 52 77 53 42 54 43 55
REMARK SMILES IDX 57 57 78 58 45 59 29 60 30 61 38 62 31 63 33 64 39 65 32 66
REMARK SMILES IDX 34 67 35 68 36 69 37 70 61 71 62 72 70 73 63 74 65 75 71 76
REMARK SMILES IDX 64 77 66 78 67 79 68 80 69 81 46 82 47 83 55 84 48 85 50 86
REMARK SMILES IDX 56 87 49 88 51 89 52 90 53 91 54 92
REMARK H PARENT 13 7 17 26 76 45 44 56
REMARK Flexibility Score: inf
ROOT
ATOM      1  C   UNL     1      -1.852   7.643  -7.758  1.00  0.00     0.118 C 
ENDROOT
BRANCH   1   2
ATOM      2  C   UNL     1      -1.739   6.174  -7.372  1.00  0.00     0.042 C 
BRANCH   2   3
ATOM      3  C   UNL     1      -0.309   5.778  -7.046  1.00  0.00     0.118 C 
BRANCH   3   4
ATOM      4  N   UNL     1       0.088   6.204  -5.712  1.00  0.00    -0.352 N 
ATOM      5  C   UNL     1       0.340   5.617  -4.518  1.00  0.00     0.251 C 
ATOM      6  O   UNL     1       0.693   6.384  -3.616  1.00  0.00    -0.270 OA
ATOM      7  H   UNL     1       0.205   7.180  -5.665  1.00  0.00     0.163 HD
BRANCH   5   8
ATOM      8  C   UNL     1       0.231   4.156  -4.246  1.00  0.00     0.067 C 
ATOM      9  C   UNL     1       1.137  -0.012   0.225  1.00  0.00     0.044 C 
ATOM     10  C   UNL     1       0.673   0.501  -1.106  1.00  0.00    -0.050 A 
ATOM     11  C   UNL     1       0.169  -0.381  -2.072  1.00  0.00     0.010 A 
ATOM     12  C   UNL     1       0.773   1.868  -1.405  1.00  0.00     0.015 A 
ATOM     13  C   UNL     1      -0.254   0.090  -3.320  1.00  0.00    -0.008 A 
ATOM     14  C   UNL     1       0.365   2.351  -2.650  1.00  0.00     0.018 A 
ATOM     15  C   UNL     1      -0.802  -0.852  -4.354  1.00  0.00     0.048 C 
ATOM     16  C   UNL     1      -0.143   1.457  -3.596  1.00  0.00     0.130 A 
ATOM     17  C   UNL     1       0.430   3.772  -2.971  1.00  0.00     0.025 C 
ATOM     18  O   UNL     1      -0.593   1.877  -4.816  1.00  0.00    -0.475 OA
ATOM     19  C   UNL     1      -0.048   3.128  -5.303  1.00  0.00     0.314 C 
BRANCH  19  20
ATOM     20  C   UNL     1       1.185   2.837  -6.181  1.00  0.00     0.429 C 
ATOM     21  F   UNL     1       0.817   2.219  -7.331  1.00  0.00    -0.167 F 
ATOM     22  F   UNL     1       1.845   3.962  -6.547  1.00  0.00    -0.167 F 
ATOM     23  F   UNL     1       2.092   2.042  -5.569  1.00  0.00    -0.167 F 
ENDBRANCH  19  20
ENDBRANCH   5   8
ENDBRANCH   3   4
ENDBRANCH   2   3
ENDBRANCH   1   2
BRANCH   1  24
ATOM     24  N   UNL     1      -1.095   7.942  -8.973  1.00  0.00    -0.352 N 
ATOM     25  C   UNL     1      -1.536   8.190 -10.248  1.00  0.00     0.251 C 
ATOM     26  H   UNL     1      -0.118   7.969  -8.858  1.00  0.00     0.163 HD
ATOM     27  O   UNL     1      -0.744   8.134 -11.188  1.00  0.00    -0.269 OA
BRANCH  25  28
ATOM     28  C   UNL     1      -2.951   8.529 -10.485  1.00  0.00     0.039 A 
ATOM     29  C   UNL     1      -3.606   8.015 -11.605  1.00  0.00     0.014 A 
ATOM     30  C   UNL     1      -3.622   9.377  -9.602  1.00  0.00     0.014 A 
ATOM     31  C   UNL     1      -4.957   8.307 -11.804  1.00  0.00     0.010 A 
ATOM     32  C   UNL     1      -4.987   9.579  -9.742  1.00  0.00     0.010 A 
ATOM     33  C   UNL     1      -5.663   9.065 -10.856  1.00  0.00    -0.014 A 
BRANCH  33  34
ATOM     34  C   UNL     1      -7.105   9.364 -11.017  1.00  0.00     0.031 A 
ATOM     35  C   UNL     1      -7.561  10.793 -11.144  1.00  0.00     0.074 A 
ATOM     36  C   UNL     1      -8.002   8.361 -10.968  1.00  0.00     0.049 A 
ATOM     37  N   UNL     1      -8.777  11.264 -11.228  1.00  0.00    -0.248 NA
ATOM     38  C   UNL     1      -6.516  11.833 -11.147  1.00  0.00     0.031 C 
ATOM     39  C   UNL     1      -7.677   6.946 -10.776  1.00  0.00     0.029 A 
ATOM     40  N   UNL     1      -9.370   8.378 -11.058  1.00  0.00    -0.354 N 
ATOM     41  C   UNL     1      -8.644  12.646 -11.266  1.00  0.00     0.074 A 
ATOM     42  C   UNL     1      -7.236  12.944 -11.139  1.00  0.00     0.031 C 
ATOM     43  C   UNL     1      -8.812   6.229 -10.787  1.00  0.00     0.029 A 
ATOM     44  C   UNL     1      -9.946   7.133 -10.951  1.00  0.00     0.049 A 
ATOM     45  H   UNL     1      -9.892   9.203 -11.187  1.00  0.00     0.167 HD
ATOM     46  C   UNL     1      -9.605  13.583 -11.437  1.00  0.00     0.034 A 
ATOM     47  C   UNL     1     -11.242   6.765 -10.983  1.00  0.00     0.034 A 
ATOM     48  C   UNL     1     -10.997  13.274 -11.612  1.00  0.00     0.049 A 
ATOM     49  C   UNL     1     -12.290   7.824 -11.194  1.00  0.00     0.074 A 
ATOM     50  C   UNL     1     -12.043  14.141 -11.861  1.00  0.00     0.029 A 
ATOM     51  N   UNL     1     -11.536  11.997 -11.559  1.00  0.00    -0.354 N 
ATOM     52  N   UNL     1     -12.134   9.115 -11.365  1.00  0.00    -0.248 NA
ATOM     53  C   UNL     1     -13.689   7.377 -11.247  1.00  0.00     0.031 C 
ATOM     54  C   UNL     1     -13.220  13.392 -11.936  1.00  0.00     0.029 A 
ATOM     55  C   UNL     1     -12.902  12.053 -11.762  1.00  0.00     0.049 A 
ATOM     56  H   UNL     1     -11.021  11.173 -11.400  1.00  0.00     0.167 HD
ATOM     57  C   UNL     1     -13.408   9.630 -11.575  1.00  0.00     0.074 A 
ATOM     58  C   UNL     1     -14.322   8.507 -11.535  1.00  0.00     0.031 C 
ATOM     59  C   UNL     1     -13.790  10.917 -11.767  1.00  0.00     0.034 A 
BRANCH  46  60
ATOM     60  C   UNL     1      -9.177  15.026 -11.519  1.00  0.00     0.023 A 
ATOM     61  C   UNL     1      -8.466  15.471 -12.653  1.00  0.00     0.012 A 
ATOM     62  C   UNL     1      -9.540  15.954 -10.524  1.00  0.00     0.148 A 
ATOM     63  C   UNL     1      -8.097  16.809 -12.782  1.00  0.00     0.002 A 
ATOM     64  C   UNL     1      -9.213  17.295 -10.684  1.00  0.00     0.091 A 
ATOM     65  F   UNL     1     -10.197  15.508  -9.444  1.00  0.00    -0.205 F 
ATOM     66  C   UNL     1      -8.481  17.722 -11.805  1.00  0.00     0.022 A 
BRANCH  64  67
ATOM     67  S   UNL     1      -9.735  18.568  -9.529  1.00  0.00     0.127 S 
ATOM     68  O   UNL     1      -8.456  18.991  -8.958  1.00  0.00    -0.237 OA
ATOM     69  O   UNL     1     -10.360  19.549 -10.417  1.00  0.00    -0.237 OA
ATOM     70  O   UNL     1     -10.646  17.919  -8.597  1.00  0.00    -0.744 OA
ENDBRANCH  64  67
ENDBRANCH  46  60
BRANCH  47  71
ATOM     71  C   UNL     1     -11.603   5.320 -10.907  1.00  0.00     0.023 A 
ATOM     72  C   UNL     1     -12.107   4.678 -12.055  1.00  0.00     0.012 A 
ATOM     73  C   UNL     1     -11.394   4.566  -9.736  1.00  0.00     0.148 A 
ATOM     74  C   UNL     1     -12.419   3.318 -12.032  1.00  0.00     0.002 A 
ATOM     75  C   UNL     1     -11.652   3.199  -9.737  1.00  0.00     0.091 A 
ATOM     76  F   UNL     1     -10.921   5.196  -8.651  1.00  0.00    -0.205 F 
ATOM     77  C   UNL     1     -12.180   2.576 -10.878  1.00  0.00     0.022 A 
BRANCH  75  78
ATOM     78  S   UNL     1     -11.243   2.136  -8.347  1.00  0.00     0.127 S 
ATOM     79  O   UNL     1     -12.566   1.723  -7.886  1.00  0.00    -0.237 OA
ATOM     80  O   UNL     1     -10.459   1.084  -8.995  1.00  0.00    -0.237 OA
ATOM     81  O   UNL     1     -10.484   2.967  -7.423  1.00  0.00    -0.744 OA
ENDBRANCH  75  78
ENDBRANCH  47  71
BRANCH  59  82
ATOM     82  C   UNL     1     -15.257  11.198 -11.962  1.00  0.00     0.023 A 
ATOM     83  C   UNL     1     -16.133  11.107 -10.864  1.00  0.00     0.012 A 
ATOM     84  C   UNL     1     -15.741  11.671 -13.199  1.00  0.00     0.148 A 
ATOM     85  C   UNL     1     -17.474  11.463 -10.997  1.00  0.00     0.002 A 
ATOM     86  C   UNL     1     -17.066  12.075 -13.309  1.00  0.00     0.091 A 
ATOM     87  F   UNL     1     -14.892  11.736 -14.235  1.00  0.00    -0.205 F 
ATOM     88  C   UNL     1     -17.936  11.960 -12.213  1.00  0.00     0.022 A 
BRANCH  86  89
ATOM     89  S   UNL     1     -17.724  12.832 -14.800  1.00  0.00     0.127 S 
ATOM     90  O   UNL     1     -18.639  11.798 -15.280  1.00  0.00    -0.237 OA
ATOM     91  O   UNL     1     -18.380  14.030 -14.273  1.00  0.00    -0.237 OA
ATOM     92  O   UNL     1     -16.578  13.096 -15.659  1.00  0.00    -0.744 OA
ENDBRANCH  86  89
ENDBRANCH  59  82
ENDBRANCH  33  34
ENDBRANCH  25  28
ENDBRANCH   1  24
TORSDOF 14
