REMARK SMILES COc1ccccc1-n1nnc(C(=O)NCCCNC(=O)c2ccc(-c3c4nc(c(-c5cccc(S(=O)(=O)[O-])c5F)c5ccc([nH]5)c(-c5cccc(S(=O)(=O)[O-])c5F)c5nc(c(-c6cccc(S(=O)(=O)[O-])c6F)c6ccc3[nH]6)C=C5)C=C4)cc2)c1-c1ccc(Cl)cc1
REMARK SMILES IDX 17 1 16 2 15 3 13 4 14 5 12 7 9 8 10 9 85 10 11 11 8 12 3 13
REMARK SMILES IDX 4 14 5 15 7 16 6 17 2 18 1 19 86 20 87 21 92 22 88 23 91 24
REMARK SMILES IDX 89 25 90 26 18 27 19 28 20 29 21 31 22 32 23 33 84 34 24 35
REMARK SMILES IDX 83 36 25 37 26 38 27 39 77 40 28 41 82 42 76 43 78 44 29 45
REMARK SMILES IDX 81 46 75 47 74 48 30 50 62 51 42 52 61 53 43 54 46 55 60 56
REMARK SMILES IDX 79 57 44 58 45 59 59 61 80 62 47 63 31 64 32 65 40 66 33 67
REMARK SMILES IDX 35 68 41 69 34 70 36 71 37 72 38 73 39 74 63 75 64 76 72 77
REMARK SMILES IDX 65 78 67 79 73 80 66 81 68 82 69 83 70 84 71 85 48 86 49 87
REMARK SMILES IDX 57 88 50 89 52 90 58 91 51 92 53 93 54 94 55 95 56 96
REMARK H PARENT 15 6 19 30 78 49 46 60
REMARK Flexibility Score: inf
ROOT
ATOM      1  C   UNL     1       4.989   2.147   3.461  1.00  0.00     0.042 C 
ENDROOT
BRANCH   1   2
ATOM      2  C   UNL     1       4.551   2.546   2.059  1.00  0.00     0.118 C 
BRANCH   2   3
ATOM      3  N   UNL     1       5.372   2.087   0.981  1.00  0.00    -0.351 N 
ATOM      4  C   UNL     1       5.112   1.182  -0.015  1.00  0.00     0.274 C 
ATOM      5  O   UNL     1       5.725   1.361  -1.070  1.00  0.00    -0.267 OA
ATOM      6  H   UNL     1       6.271   2.487   0.949  1.00  0.00     0.163 HD
BRANCH   4   7
ATOM      7  C   UNL     1       4.234   0.014   0.127  1.00  0.00     0.178 A 
ATOM      8  N   UNL     1       2.863  -1.659   0.466  1.00  0.00    -0.208 N 
ATOM      9  N   UNL     1       3.798  -2.087  -0.395  1.00  0.00    -0.061 NA
ATOM     10  C   UNL     1       3.128  -0.357   0.901  1.00  0.00     0.108 A 
ATOM     11  N   UNL     1       4.571  -1.064  -0.682  1.00  0.00    -0.124 NA
BRANCH   8  12
ATOM     12  C   UNL     1       1.857  -2.543   0.906  1.00  0.00     0.109 A 
ATOM     13  C   UNL     1       0.529  -2.140   1.086  1.00  0.00     0.144 A 
ATOM     14  C   UNL     1      -0.311  -2.951   1.853  1.00  0.00     0.049 A 
ATOM     15  C   UNL     1       0.144  -4.163   2.379  1.00  0.00     0.004 A 
ATOM     16  C   UNL     1       2.298  -3.797   1.368  1.00  0.00     0.032 A 
ATOM     17  C   UNL     1       1.441  -4.597   2.119  1.00  0.00     0.003 A 
BRANCH  13  18
ATOM     18  O   UNL     1      -0.049  -0.974   0.665  1.00  0.00    -0.494 OA
ATOM     19  C   UNL     1       0.148  -0.613  -0.701  1.00  0.00     0.278 C 
ENDBRANCH  13  18
ENDBRANCH   8  12
BRANCH  10  20
ATOM     20  C   UNL     1       2.354   0.233   2.001  1.00  0.00     0.003 A 
ATOM     21  C   UNL     1       1.499   1.332   1.806  1.00  0.00     0.012 A 
ATOM     22  C   UNL     1       2.456  -0.323   3.287  1.00  0.00     0.012 A 
ATOM     23  C   UNL     1       0.833   1.913   2.892  1.00  0.00     0.021 A 
ATOM     24  C   UNL     1       1.775   0.243   4.366  1.00  0.00     0.021 A 
ATOM     25  C   UNL     1       0.974   1.363   4.166  1.00  0.00     0.041 A 
ATOM     26  Cl  UNL     1       0.216   2.112   5.514  1.00  0.00    -0.084 Cl
ENDBRANCH  10  20
ENDBRANCH   4   7
ENDBRANCH   2   3
ENDBRANCH   1   2
BRANCH   1  27
ATOM     27  C   UNL     1       4.752   3.312   4.410  1.00  0.00     0.118 C 
BRANCH  27  28
ATOM     28  N   UNL     1       3.366   3.818   4.526  1.00  0.00    -0.352 N 
ATOM     29  C   UNL     1       2.897   4.952   5.217  1.00  0.00     0.251 C 
ATOM     30  H   UNL     1       2.679   3.291   4.058  1.00  0.00     0.163 HD
ATOM     31  O   UNL     1       1.730   5.182   5.396  1.00  0.00    -0.269 OA
BRANCH  29  32
ATOM     32  C   UNL     1       3.930   5.930   5.617  1.00  0.00     0.039 A 
ATOM     33  C   UNL     1       4.207   6.321   6.933  1.00  0.00     0.014 A 
ATOM     34  C   UNL     1       4.817   6.170   4.599  1.00  0.00     0.014 A 
ATOM     35  C   UNL     1       5.487   6.815   7.209  1.00  0.00     0.010 A 
ATOM     36  C   UNL     1       6.111   6.158   4.990  1.00  0.00     0.010 A 
ATOM     37  C   UNL     1       6.461   6.680   6.215  1.00  0.00    -0.014 A 
BRANCH  37  38
ATOM     38  C   UNL     1       7.889   6.924   6.338  1.00  0.00     0.031 A 
ATOM     39  C   UNL     1       8.539   6.243   7.482  1.00  0.00     0.074 A 
ATOM     40  C   UNL     1       8.602   7.421   5.293  1.00  0.00     0.049 A 
ATOM     41  N   UNL     1       8.896   6.779   8.601  1.00  0.00    -0.248 NA
ATOM     42  C   UNL     1       8.650   4.776   7.470  1.00  0.00     0.031 C 
ATOM     43  C   UNL     1       8.156   7.758   3.921  1.00  0.00     0.029 A 
ATOM     44  N   UNL     1       9.943   7.561   5.181  1.00  0.00    -0.354 N 
ATOM     45  C   UNL     1       9.552   5.771   9.300  1.00  0.00     0.074 A 
ATOM     46  C   UNL     1       9.121   4.537   8.698  1.00  0.00     0.031 C 
ATOM     47  C   UNL     1       9.213   7.765   3.081  1.00  0.00     0.029 A 
ATOM     48  C   UNL     1      10.416   7.680   3.877  1.00  0.00     0.049 A 
ATOM     49  H   UNL     1      10.540   7.578   5.963  1.00  0.00     0.167 HD
ATOM     50  C   UNL     1      10.621   6.054  10.098  1.00  0.00     0.034 A 
ATOM     51  C   UNL     1      11.713   7.685   3.490  1.00  0.00     0.034 A 
ATOM     52  C   UNL     1      10.786   7.484  10.247  1.00  0.00     0.049 A 
ATOM     53  C   UNL     1      12.501   8.039   4.698  1.00  0.00     0.074 A 
ATOM     54  C   UNL     1       9.971   8.521  10.660  1.00  0.00     0.029 A 
ATOM     55  N   UNL     1      11.786   8.072   9.504  1.00  0.00    -0.354 N 
ATOM     56  N   UNL     1      12.398   9.191   5.305  1.00  0.00    -0.248 NA
ATOM     57  C   UNL     1      13.004   6.943   5.511  1.00  0.00     0.031 C 
ATOM     58  C   UNL     1      10.217   9.567   9.719  1.00  0.00     0.029 A 
ATOM     59  C   UNL     1      11.237   9.151   8.860  1.00  0.00     0.049 A 
ATOM     60  H   UNL     1      12.722   7.772   9.445  1.00  0.00     0.167 HD
ATOM     61  C   UNL     1      12.370   8.867   6.657  1.00  0.00     0.074 A 
ATOM     62  C   UNL     1      12.848   7.484   6.724  1.00  0.00     0.031 C 
ATOM     63  C   UNL     1      11.670   9.621   7.559  1.00  0.00     0.034 A 
BRANCH  50  64
ATOM     64  C   UNL     1      11.759   5.115  10.438  1.00  0.00     0.023 A 
ATOM     65  C   UNL     1      12.676   5.559  11.419  1.00  0.00     0.012 A 
ATOM     66  C   UNL     1      12.128   3.973   9.693  1.00  0.00     0.148 A 
ATOM     67  C   UNL     1      13.918   4.944  11.601  1.00  0.00     0.002 A 
ATOM     68  C   UNL     1      13.332   3.317   9.931  1.00  0.00     0.091 A 
ATOM     69  F   UNL     1      11.392   3.581   8.652  1.00  0.00    -0.205 F 
ATOM     70  C   UNL     1      14.246   3.818  10.860  1.00  0.00     0.022 A 
BRANCH  68  71
ATOM     71  S   UNL     1      13.786   1.826   9.035  1.00  0.00     0.127 S 
ATOM     72  O   UNL     1      14.812   2.333   8.130  1.00  0.00    -0.237 OA
ATOM     73  O   UNL     1      14.275   0.967  10.113  1.00  0.00    -0.237 OA
ATOM     74  O   UNL     1      12.554   1.357   8.412  1.00  0.00    -0.744 OA
ENDBRANCH  68  71
ENDBRANCH  50  64
BRANCH  51  75
ATOM     75  C   UNL     1      12.334   7.159   2.252  1.00  0.00     0.023 A 
ATOM     76  C   UNL     1      13.628   7.581   1.888  1.00  0.00     0.012 A 
ATOM     77  C   UNL     1      11.789   6.037   1.586  1.00  0.00     0.148 A 
ATOM     78  C   UNL     1      14.372   6.883   0.927  1.00  0.00     0.002 A 
ATOM     79  C   UNL     1      12.533   5.348   0.631  1.00  0.00     0.091 A 
ATOM     80  F   UNL     1      10.582   5.589   1.957  1.00  0.00    -0.205 F 
ATOM     81  C   UNL     1      13.831   5.761   0.308  1.00  0.00     0.022 A 
BRANCH  79  82
ATOM     82  S   UNL     1      11.906   3.871  -0.184  1.00  0.00     0.127 S 
ATOM     83  O   UNL     1      12.234   4.136  -1.585  1.00  0.00    -0.237 OA
ATOM     84  O   UNL     1      12.702   2.821   0.445  1.00  0.00    -0.237 OA
ATOM     85  O   UNL     1      10.477   3.842   0.104  1.00  0.00    -0.744 OA
ENDBRANCH  79  82
ENDBRANCH  51  75
BRANCH  63  86
ATOM     86  C   UNL     1      11.086  10.941   7.107  1.00  0.00     0.023 A 
ATOM     87  C   UNL     1      10.086  11.035   6.115  1.00  0.00     0.012 A 
ATOM     88  C   UNL     1      11.405  12.091   7.848  1.00  0.00     0.148 A 
ATOM     89  C   UNL     1       9.431  12.245   5.860  1.00  0.00     0.002 A 
ATOM     90  C   UNL     1      10.724  13.282   7.622  1.00  0.00     0.091 A 
ATOM     91  F   UNL     1      12.352  11.990   8.792  1.00  0.00    -0.205 F 
ATOM     92  C   UNL     1       9.741  13.366   6.624  1.00  0.00     0.022 A 
BRANCH  90  93
ATOM     93  S   UNL     1      10.991  14.722   8.657  1.00  0.00     0.127 S 
ATOM     94  O   UNL     1      11.774  15.587   7.777  1.00  0.00    -0.237 OA
ATOM     95  O   UNL     1       9.626  15.184   8.913  1.00  0.00    -0.237 OA
ATOM     96  O   UNL     1      11.687  14.239   9.844  1.00  0.00    -0.744 OA
ENDBRANCH  90  93
ENDBRANCH  63  86
ENDBRANCH  37  38
ENDBRANCH  29  32
ENDBRANCH  27  28
ENDBRANCH   1  27
TORSDOF 16
