REMARK SMILES O=C(NCCCNC(=O)[C@@H]1CC=CC[C@@H]1C(=O)N1CCN(C(=O)c2sc3cc([N+](=O)[O-])ccc3c2Cl)CC1)c1ccc(-c2c3nc(c(-c4cccc(S(=O)(=O)[O-])c4F)c4ccc([nH]4)c(-c4cccc(S(=O)(=O)[O-])c4F)c4nc(c(-c5cccc(S(=O)(=O)[O-])c5F)c5ccc2[nH]5)C=C4)C=C3)cc1
REMARK SMILES IDX 5 1 4 2 3 3 1 4 2 5 39 7 40 8 101 9 41 10 100 11 42 12 43 13
REMARK SMILES IDX 44 14 94 15 45 16 99 17 93 18 95 19 46 20 98 21 92 22 91 23
REMARK SMILES IDX 47 25 79 26 59 27 78 28 60 29 63 30 77 31 96 32 61 33 62 34
REMARK SMILES IDX 76 36 97 37 64 38 48 39 49 40 57 41 50 42 52 43 58 44 51 45
REMARK SMILES IDX 53 46 54 47 55 48 56 49 80 50 81 51 89 52 82 53 84 54 90 55
REMARK SMILES IDX 83 56 85 57 86 58 87 59 88 60 65 61 66 62 74 63 67 64 69 65
REMARK SMILES IDX 75 66 68 67 70 68 71 69 72 70 73 71 6 72 7 73 8 74 9 76
REMARK SMILES IDX 10 77 11 78 15 79 12 80 14 81 13 82 16 83 17 84 18 85 19 86
REMARK SMILES IDX 38 87 20 88 37 89 21 90 22 91 23 92 24 93 25 94 35 95 26 96
REMARK SMILES IDX 34 97 36 98 27 99 33 100 28 101 32 102 29 103 30 104 31 105
REMARK H PARENT 3 6 95 24 63 35 7 75
REMARK Flexibility Score: inf
ROOT
ATOM      1  C   UNL     1       3.646   6.593   0.660  1.00  0.00     0.042 C 
ENDROOT
BRANCH   1   2
ATOM      2  C   UNL     1       3.271   7.881  -0.100  1.00  0.00     0.118 C 
BRANCH   2   3
ATOM      3  N   UNL     1       4.406   8.694  -0.571  1.00  0.00    -0.352 N 
ATOM      4  O   UNL     1       5.290  10.629  -1.381  1.00  0.00    -0.269 OA
ATOM      5  C   UNL     1       4.518  10.089  -0.618  1.00  0.00     0.251 C 
ATOM      6  H   UNL     1       5.187   8.190  -0.894  1.00  0.00     0.163 HD
BRANCH   5   7
ATOM      7  C   UNL     1       3.687  10.878   0.320  1.00  0.00     0.039 A 
ATOM      8  C   UNL     1       2.899  11.955  -0.072  1.00  0.00     0.014 A 
ATOM      9  C   UNL     1       3.590  10.368   1.601  1.00  0.00     0.014 A 
ATOM     10  C   UNL     1       1.873  12.369   0.783  1.00  0.00     0.010 A 
ATOM     11  C   UNL     1       2.464  10.623   2.338  1.00  0.00     0.010 A 
ATOM     12  C   UNL     1       1.600  11.637   1.955  1.00  0.00    -0.014 A 
BRANCH  12  13
ATOM     13  C   UNL     1       0.329  11.803   2.666  1.00  0.00     0.031 A 
ATOM     14  C   UNL     1      -0.874  11.863   1.787  1.00  0.00     0.074 A 
ATOM     15  C   UNL     1       0.137  11.646   3.994  1.00  0.00     0.049 A 
ATOM     16  N   UNL     1      -1.563  12.905   1.451  1.00  0.00    -0.248 NA
ATOM     17  C   UNL     1      -1.279  10.627   1.101  1.00  0.00     0.031 C 
ATOM     18  C   UNL     1       1.074  11.161   5.012  1.00  0.00     0.029 A 
ATOM     19  N   UNL     1      -1.017  11.792   4.704  1.00  0.00    -0.354 N 
ATOM     20  C   UNL     1      -2.628  12.415   0.700  1.00  0.00     0.074 A 
ATOM     21  C   UNL     1      -2.295  11.056   0.351  1.00  0.00     0.031 C 
ATOM     22  C   UNL     1       0.409  10.852   6.143  1.00  0.00     0.029 A 
ATOM     23  C   UNL     1      -0.961  11.286   5.995  1.00  0.00     0.049 A 
ATOM     24  H   UNL     1      -1.822  12.220   4.332  1.00  0.00     0.167 HD
ATOM     25  C   UNL     1      -3.827  13.058   0.636  1.00  0.00     0.034 A 
ATOM     26  C   UNL     1      -1.971  11.218   6.889  1.00  0.00     0.034 A 
ATOM     27  C   UNL     1      -3.772  14.372   1.213  1.00  0.00     0.049 A 
ATOM     28  C   UNL     1      -2.971  12.225   6.463  1.00  0.00     0.074 A 
ATOM     29  C   UNL     1      -3.073  15.533   0.964  1.00  0.00     0.029 A 
ATOM     30  N   UNL     1      -4.251  14.470   2.497  1.00  0.00    -0.354 N 
ATOM     31  N   UNL     1      -2.744  13.510   6.428  1.00  0.00    -0.248 NA
ATOM     32  C   UNL     1      -4.146  11.780   5.734  1.00  0.00     0.031 C 
ATOM     33  C   UNL     1      -2.808  16.089   2.252  1.00  0.00     0.029 A 
ATOM     34  C   UNL     1      -3.390  15.258   3.214  1.00  0.00     0.049 A 
ATOM     35  H   UNL     1      -5.071  14.048   2.841  1.00  0.00     0.167 HD
ATOM     36  C   UNL     1      -3.490  13.972   5.354  1.00  0.00     0.074 A 
ATOM     37  C   UNL     1      -4.441  12.903   5.074  1.00  0.00     0.031 C 
ATOM     38  C   UNL     1      -3.081  15.046   4.616  1.00  0.00     0.034 A 
BRANCH  25  39
ATOM     39  C   UNL     1      -5.143  12.366   0.403  1.00  0.00     0.023 A 
ATOM     40  C   UNL     1      -6.244  13.131  -0.033  1.00  0.00     0.012 A 
ATOM     41  C   UNL     1      -5.402  11.042   0.820  1.00  0.00     0.148 A 
ATOM     42  C   UNL     1      -7.537  12.591  -0.071  1.00  0.00     0.002 A 
ATOM     43  C   UNL     1      -6.665  10.482   0.686  1.00  0.00     0.091 A 
ATOM     44  F   UNL     1      -4.458  10.357   1.478  1.00  0.00    -0.205 F 
ATOM     45  C   UNL     1      -7.744  11.257   0.262  1.00  0.00     0.022 A 
BRANCH  43  46
ATOM     46  S   UNL     1      -6.925   8.737   1.016  1.00  0.00     0.127 S 
ATOM     47  O   UNL     1      -7.417   8.765   2.389  1.00  0.00    -0.237 OA
ATOM     48  O   UNL     1      -7.920   8.376   0.005  1.00  0.00    -0.237 OA
ATOM     49  O   UNL     1      -5.617   8.126   0.803  1.00  0.00    -0.744 OA
ENDBRANCH  43  46
ENDBRANCH  25  39
BRANCH  26  50
ATOM     50  C   UNL     1      -2.189  10.263   8.000  1.00  0.00     0.023 A 
ATOM     51  C   UNL     1      -3.116  10.578   9.011  1.00  0.00     0.012 A 
ATOM     52  C   UNL     1      -1.681   8.943   7.959  1.00  0.00     0.148 A 
ATOM     53  C   UNL     1      -3.558   9.606   9.917  1.00  0.00     0.002 A 
ATOM     54  C   UNL     1      -2.104   7.986   8.879  1.00  0.00     0.091 A 
ATOM     55  F   UNL     1      -0.853   8.588   6.966  1.00  0.00    -0.205 F 
ATOM     56  C   UNL     1      -3.058   8.308   9.849  1.00  0.00     0.022 A 
BRANCH  54  57
ATOM     57  S   UNL     1      -1.455   6.309   8.837  1.00  0.00     0.127 S 
ATOM     58  O   UNL     1      -1.483   5.920  10.248  1.00  0.00    -0.237 OA
ATOM     59  O   UNL     1      -2.427   5.622   7.993  1.00  0.00    -0.237 OA
ATOM     60  O   UNL     1      -0.109   6.444   8.289  1.00  0.00    -0.744 OA
ENDBRANCH  54  57
ENDBRANCH  26  50
BRANCH  38  61
ATOM     61  C   UNL     1      -2.016  15.943   5.196  1.00  0.00     0.023 A 
ATOM     62  C   UNL     1      -0.677  15.525   5.331  1.00  0.00     0.012 A 
ATOM     63  C   UNL     1      -2.336  17.295   5.418  1.00  0.00     0.148 A 
ATOM     64  C   UNL     1       0.321  16.436   5.688  1.00  0.00     0.002 A 
ATOM     65  C   UNL     1      -1.334  18.205   5.733  1.00  0.00     0.091 A 
ATOM     66  F   UNL     1      -3.614  17.673   5.268  1.00  0.00    -0.205 F 
ATOM     67  C   UNL     1      -0.004  17.778   5.875  1.00  0.00     0.022 A 
BRANCH  65  68
ATOM     68  S   UNL     1      -1.657  19.966   5.864  1.00  0.00     0.127 S 
ATOM     69  O   UNL     1      -1.448  20.213   7.290  1.00  0.00    -0.237 OA
ATOM     70  O   UNL     1      -0.632  20.536   4.989  1.00  0.00    -0.237 OA
ATOM     71  O   UNL     1      -3.022  20.165   5.393  1.00  0.00    -0.744 OA
ENDBRANCH  65  68
ENDBRANCH  38  61
ENDBRANCH  12  13
ENDBRANCH   5   7
ENDBRANCH   2   3
ENDBRANCH   1   2
BRANCH   1  72
ATOM     72  C   UNL     1       4.433   6.854   1.937  1.00  0.00     0.117 C 
BRANCH  72  73
ATOM     73  N   UNL     1       4.249   5.891   3.015  1.00  0.00    -0.356 N 
ATOM     74  C   UNL     1       5.220   5.409   3.852  1.00  0.00     0.224 C 
ATOM     75  H   UNL     1       3.335   5.552   3.155  1.00  0.00     0.163 HD
ATOM     76  O   UNL     1       5.087   5.594   5.062  1.00  0.00    -0.275 OA
BRANCH  74  77
ATOM     77  C   UNL     1       6.311   4.494   3.315  1.00  0.00     0.095 C 
ATOM     78  C   UNL     1       7.342   4.036   4.373  1.00  0.00     0.041 C 
ATOM     79  C   UNL     1       7.013   4.853   2.010  1.00  0.00     0.095 C 
ATOM     80  C   UNL     1       8.303   3.018   3.814  1.00  0.00    -0.030 C 
ATOM     81  C   UNL     1       7.614   3.520   1.466  1.00  0.00     0.041 C 
ATOM     82  C   UNL     1       8.403   2.762   2.501  1.00  0.00    -0.030 C 
BRANCH  79  83
ATOM     83  C   UNL     1       8.097   5.971   1.980  1.00  0.00     0.226 C 
ATOM     84  O   UNL     1       9.106   5.810   1.281  1.00  0.00    -0.275 OA
ATOM     85  N   UNL     1       7.823   7.247   2.466  1.00  0.00    -0.339 N 
ATOM     86  C   UNL     1       8.424   8.376   1.751  1.00  0.00     0.141 C 
ATOM     87  C   UNL     1       7.522   7.600   3.857  1.00  0.00     0.141 C 
ATOM     88  C   UNL     1       7.521   9.613   1.788  1.00  0.00     0.141 C 
ATOM     89  C   UNL     1       6.599   8.828   3.974  1.00  0.00     0.141 C 
ATOM     90  N   UNL     1       7.011   9.962   3.124  1.00  0.00    -0.334 N 
ATOM     91  C   UNL     1       6.569  11.296   3.287  1.00  0.00     0.265 C 
ATOM     92  O   UNL     1       6.679  12.088   2.349  1.00  0.00    -0.268 OA
BRANCH  91  93
ATOM     93  C   UNL     1       5.959  11.702   4.542  1.00  0.00     0.112 A 
ATOM     94  S   UNL     1       4.535  12.654   4.492  1.00  0.00    -0.128 S 
ATOM     95  C   UNL     1       6.403  11.578   5.840  1.00  0.00     0.072 A 
ATOM     96  C   UNL     1       4.331  12.612   6.201  1.00  0.00     0.043 A 
ATOM     97  C   UNL     1       5.413  11.971   6.811  1.00  0.00     0.012 A 
ATOM     98  Cl  UNL     1       7.956  10.998   6.307  1.00  0.00    -0.082 Cl
ATOM     99  C   UNL     1       3.254  13.143   6.947  1.00  0.00     0.105 A 
ATOM    100  C   UNL     1       5.390  11.830   8.223  1.00  0.00     0.018 A 
ATOM    101  C   UNL     1       3.268  12.975   8.340  1.00  0.00     0.270 A 
ATOM    102  C   UNL     1       4.316  12.313   8.975  1.00  0.00     0.086 A 
BRANCH 101 103
ATOM    103  N   UNL     1       2.181  13.533   9.154  1.00  0.00     0.062 N 
ATOM    104  O   UNL     1       1.463  14.395   8.637  1.00  0.00    -0.258 OA
ATOM    105  O   UNL     1       2.086  13.140  10.327  1.00  0.00    -0.258 OA
ENDBRANCH 101 103
ENDBRANCH  91  93
ENDBRANCH  79  83
ENDBRANCH  74  77
ENDBRANCH  72  73
ENDBRANCH   1  72
TORSDOF 16
