REMARK SMILES C[C@@H](C(=O)NCCCNC(=O)c1ccc(-c2c3nc(c(-c4cccc(S(=O)(=O)[O-])c4F)c4ccc([nH]4)c(-c4cccc(S(=O)(=O)[O-])c4F)c4nc(c(-c5cccc(S(=O)(=O)[O-])c5F)c5ccc2[nH]5)C=C4)C=C3)cc1)c1ccc(-c2ccccc2)cc1
REMARK SMILES IDX 7 1 6 2 5 3 3 4 4 5 2 7 1 8 75 9 76 10 86 11 77 12 85 13
REMARK SMILES IDX 78 14 79 15 80 16 84 17 81 18 83 19 82 20 8 21 9 22 10 23
REMARK SMILES IDX 11 25 12 26 13 27 74 28 14 29 73 30 15 31 16 32 17 33 67 34
REMARK SMILES IDX 18 35 72 36 66 37 68 38 19 39 71 40 65 41 64 42 20 44 52 45
REMARK SMILES IDX 32 46 51 47 33 48 36 49 50 50 69 51 34 52 35 53 49 55 70 56
REMARK SMILES IDX 37 57 21 58 22 59 30 60 23 61 25 62 31 63 24 64 26 65 27 66
REMARK SMILES IDX 28 67 29 68 53 69 54 70 62 71 55 72 57 73 63 74 56 75 58 76
REMARK SMILES IDX 59 77 60 78 61 79 38 80 39 81 47 82 40 83 42 84 48 85 41 86
REMARK SMILES IDX 43 87 44 88 45 89 46 90
REMARK H PARENT 5 6 9 24 68 43 36 54
REMARK Flexibility Score: inf
ROOT
ATOM      1  C   UNL     1       4.264  -0.435  -1.154  1.00  0.00     0.042 C 
ENDROOT
BRANCH   1   2
ATOM      2  C   UNL     1       3.373   0.602  -1.837  1.00  0.00     0.117 C 
BRANCH   2   3
ATOM      3  N   UNL     1       2.310  -0.016  -2.605  1.00  0.00    -0.356 N 
ATOM      4  C   UNL     1       0.976  -0.137  -2.343  1.00  0.00     0.227 C 
ATOM      5  O   UNL     1       0.310  -0.754  -3.177  1.00  0.00    -0.274 OA
ATOM      6  H   UNL     1       2.599  -0.415  -3.458  1.00  0.00     0.163 HD
BRANCH   4   7
ATOM      7  C   UNL     1       0.372   0.511  -1.085  1.00  0.00     0.105 C 
ATOM      8  C   UNL     1       0.822  -0.184   0.204  1.00  0.00     0.023 C 
BRANCH   7   9
ATOM      9  C   UNL     1      -1.154   0.555  -1.116  1.00  0.00    -0.036 A 
ATOM     10  C   UNL     1      -1.830   1.782  -1.097  1.00  0.00     0.005 A 
ATOM     11  C   UNL     1      -1.912  -0.625  -1.119  1.00  0.00     0.005 A 
ATOM     12  C   UNL     1      -3.228   1.823  -1.064  1.00  0.00     0.009 A 
ATOM     13  C   UNL     1      -3.307  -0.580  -1.085  1.00  0.00     0.009 A 
ATOM     14  C   UNL     1      -3.989   0.643  -1.047  1.00  0.00    -0.018 A 
BRANCH  14  15
ATOM     15  C   UNL     1      -5.456   0.683  -0.978  1.00  0.00    -0.018 A 
ATOM     16  C   UNL     1      -6.211   1.372  -1.940  1.00  0.00     0.009 A 
ATOM     17  C   UNL     1      -6.143   0.025   0.057  1.00  0.00     0.009 A 
ATOM     18  C   UNL     1      -7.606   1.402  -1.871  1.00  0.00     0.001 A 
ATOM     19  C   UNL     1      -7.537   0.056   0.129  1.00  0.00     0.001 A 
ATOM     20  C   UNL     1      -8.268   0.745  -0.836  1.00  0.00     0.000 A 
ENDBRANCH  14  15
ENDBRANCH   7   9
ENDBRANCH   4   7
ENDBRANCH   2   3
ENDBRANCH   1   2
BRANCH   1  21
ATOM     21  C   UNL     1       5.007  -1.368  -2.110  1.00  0.00     0.118 C 
BRANCH  21  22
ATOM     22  N   UNL     1       5.918  -0.659  -2.994  1.00  0.00    -0.352 N 
ATOM     23  C   UNL     1       7.264  -0.819  -3.204  1.00  0.00     0.251 C 
ATOM     24  H   UNL     1       5.500   0.052  -3.531  1.00  0.00     0.163 HD
ATOM     25  O   UNL     1       7.861   0.020  -3.876  1.00  0.00    -0.269 OA
BRANCH  23  26
ATOM     26  C   UNL     1       8.008  -1.965  -2.628  1.00  0.00     0.039 A 
ATOM     27  C   UNL     1       9.303  -1.740  -2.150  1.00  0.00     0.014 A 
ATOM     28  C   UNL     1       7.477  -3.257  -2.600  1.00  0.00     0.014 A 
ATOM     29  C   UNL     1      10.039  -2.793  -1.601  1.00  0.00     0.010 A 
ATOM     30  C   UNL     1       8.185  -4.294  -1.988  1.00  0.00     0.010 A 
ATOM     31  C   UNL     1       9.476  -4.075  -1.486  1.00  0.00    -0.014 A 
BRANCH  31  32
ATOM     32  C   UNL     1      10.220  -5.170  -0.810  1.00  0.00     0.031 A 
ATOM     33  C   UNL     1      10.643  -6.404  -1.562  1.00  0.00     0.074 A 
ATOM     34  C   UNL     1      10.470  -5.075   0.512  1.00  0.00     0.049 A 
ATOM     35  N   UNL     1      11.311  -7.443  -1.128  1.00  0.00    -0.248 NA
ATOM     36  C   UNL     1      10.250  -6.495  -2.977  1.00  0.00     0.031 C 
ATOM     37  C   UNL     1      10.031  -3.977   1.376  1.00  0.00     0.029 A 
ATOM     38  N   UNL     1      11.135  -5.921   1.364  1.00  0.00    -0.354 N 
ATOM     39  C   UNL     1      11.401  -8.318  -2.204  1.00  0.00     0.074 A 
ATOM     40  C   UNL     1      10.685  -7.705  -3.303  1.00  0.00     0.031 C 
ATOM     41  C   UNL     1      10.443  -4.213   2.631  1.00  0.00     0.029 A 
ATOM     42  C   UNL     1      11.155  -5.486   2.669  1.00  0.00     0.049 A 
ATOM     43  H   UNL     1      11.556  -6.761   1.070  1.00  0.00     0.167 HD
ATOM     44  C   UNL     1      12.047  -9.507  -2.283  1.00  0.00     0.034 A 
ATOM     45  C   UNL     1      11.688  -6.045   3.773  1.00  0.00     0.034 A 
ATOM     46  C   UNL     1      12.786 -10.101  -1.200  1.00  0.00     0.049 A 
ATOM     47  C   UNL     1      12.446  -7.337   3.645  1.00  0.00     0.074 A 
ATOM     48  C   UNL     1      13.538 -11.264  -1.206  1.00  0.00     0.029 A 
ATOM     49  N   UNL     1      12.862  -9.585   0.085  1.00  0.00    -0.354 N 
ATOM     50  N   UNL     1      12.664  -8.064   2.576  1.00  0.00    -0.248 NA
ATOM     51  C   UNL     1      13.070  -7.864   4.867  1.00  0.00     0.031 C 
ATOM     52  C   UNL     1      14.056 -11.458   0.080  1.00  0.00     0.029 A 
ATOM     53  C   UNL     1      13.643 -10.407   0.881  1.00  0.00     0.049 A 
ATOM     54  H   UNL     1      12.425  -8.757   0.387  1.00  0.00     0.167 HD
ATOM     55  C   UNL     1      13.468  -9.120   2.990  1.00  0.00     0.074 A 
ATOM     56  C   UNL     1      13.728  -8.917   4.401  1.00  0.00     0.031 C 
ATOM     57  C   UNL     1      13.930 -10.174   2.274  1.00  0.00     0.034 A 
BRANCH  44  58
ATOM     58  C   UNL     1      12.044 -10.218  -3.613  1.00  0.00     0.023 A 
ATOM     59  C   UNL     1      12.814  -9.697  -4.673  1.00  0.00     0.012 A 
ATOM     60  C   UNL     1      11.345 -11.427  -3.798  1.00  0.00     0.148 A 
ATOM     61  C   UNL     1      12.865 -10.349  -5.905  1.00  0.00     0.002 A 
ATOM     62  C   UNL     1      11.434 -12.094  -5.016  1.00  0.00     0.091 A 
ATOM     63  F   UNL     1      10.604 -11.899  -2.786  1.00  0.00    -0.205 F 
ATOM     64  C   UNL     1      12.184 -11.551  -6.072  1.00  0.00     0.022 A 
BRANCH  62  65
ATOM     65  S   UNL     1      10.658 -13.688  -5.309  1.00  0.00     0.127 S 
ATOM     66  O   UNL     1       9.588 -13.327  -6.239  1.00  0.00    -0.237 OA
ATOM     67  O   UNL     1      11.751 -14.456  -5.908  1.00  0.00    -0.237 OA
ATOM     68  O   UNL     1      10.220 -14.168  -4.008  1.00  0.00    -0.744 OA
ENDBRANCH  62  65
ENDBRANCH  44  58
BRANCH  45  69
ATOM     69  C   UNL     1      11.578  -5.345   5.084  1.00  0.00     0.023 A 
ATOM     70  C   UNL     1      12.727  -4.774   5.664  1.00  0.00     0.012 A 
ATOM     71  C   UNL     1      10.339  -5.211   5.739  1.00  0.00     0.148 A 
ATOM     72  C   UNL     1      12.650  -4.111   6.889  1.00  0.00     0.002 A 
ATOM     73  C   UNL     1      10.259  -4.498   6.929  1.00  0.00     0.091 A 
ATOM     74  F   UNL     1       9.259  -5.773   5.178  1.00  0.00    -0.205 F 
ATOM     75  C   UNL     1      11.415  -3.962   7.516  1.00  0.00     0.022 A 
BRANCH  73  76
ATOM     76  S   UNL     1       8.688  -4.137   7.723  1.00  0.00     0.127 S 
ATOM     77  O   UNL     1       8.713  -5.049   8.864  1.00  0.00    -0.237 OA
ATOM     78  O   UNL     1       8.836  -2.721   8.062  1.00  0.00    -0.237 OA
ATOM     79  O   UNL     1       7.672  -4.405   6.715  1.00  0.00    -0.744 OA
ENDBRANCH  73  76
ENDBRANCH  45  69
BRANCH  57  80
ATOM     80  C   UNL     1      14.775 -11.188   3.002  1.00  0.00     0.023 A 
ATOM     81  C   UNL     1      14.173 -12.054   3.937  1.00  0.00     0.012 A 
ATOM     82  C   UNL     1      16.151 -11.314   2.731  1.00  0.00     0.148 A 
ATOM     83  C   UNL     1      14.934 -13.001   4.621  1.00  0.00     0.002 A 
ATOM     84  C   UNL     1      16.895 -12.292   3.382  1.00  0.00     0.091 A 
ATOM     85  F   UNL     1      16.713 -10.469   1.854  1.00  0.00    -0.205 F 
ATOM     86  C   UNL     1      16.291 -13.127   4.336  1.00  0.00     0.022 A 
BRANCH  84  87
ATOM     87  S   UNL     1      18.628 -12.584   3.010  1.00  0.00     0.127 S 
ATOM     88  O   UNL     1      19.288 -11.962   4.157  1.00  0.00    -0.237 OA
ATOM     89  O   UNL     1      18.702 -14.045   2.984  1.00  0.00    -0.237 OA
ATOM     90  O   UNL     1      18.871 -11.947   1.723  1.00  0.00    -0.744 OA
ENDBRANCH  84  87
ENDBRANCH  57  80
ENDBRANCH  31  32
ENDBRANCH  23  26
ENDBRANCH  21  22
ENDBRANCH   1  21
TORSDOF 15
