REMARK SMILES Cc1ccc(C#N)cc1Nc1cc(C)c(N)c(C(=O)NCCCNC(=O)c2ccc(-c3c4nc(c(-c5cccc(S(=O)(=O)[O-])c5F)c5ccc([nH]5)c(-c5cccc(S(=O)(=O)[O-])c5F)c5nc(c(-c6cccc(S(=O)(=O)[O-])c6F)c6ccc3[nH]6)C=C5)C=C4)cc2)c1
REMARK SMILES IDX 22 1 21 2 20 3 18 4 19 5 17 7 11 8 12 9 90 10 13 11 14 12
REMARK SMILES IDX 15 13 10 14 9 16 1 17 2 18 3 19 4 20 8 21 5 22 6 23 7 24
REMARK SMILES IDX 16 25 23 28 24 29 25 30 26 32 27 33 28 34 89 35 29 36 88 37
REMARK SMILES IDX 30 38 31 39 32 40 82 41 33 42 87 43 81 44 83 45 34 46 86 47
REMARK SMILES IDX 80 48 79 49 35 51 67 52 47 53 66 54 48 55 51 56 65 57 84 58
REMARK SMILES IDX 49 59 50 60 64 62 85 63 52 64 36 65 37 66 45 67 38 68 40 69
REMARK SMILES IDX 46 70 39 71 41 72 42 73 43 74 44 75 68 76 69 77 77 78 70 79
REMARK SMILES IDX 72 80 78 81 71 82 73 83 74 84 75 85 76 86 53 87 54 88 62 89
REMARK SMILES IDX 55 90 57 91 63 92 56 93 58 94 59 95 60 96 61 97
REMARK H PARENT 20 6 10 15 16 26 16 27 24 31 83 50 51 61
REMARK Flexibility Score: inf
ROOT
ATOM      1  C   UNL     1      -5.034  -1.722  -2.040  1.00  0.00     0.042 C 
ENDROOT
BRANCH   1   2
ATOM      2  C   UNL     1      -4.324  -2.663  -3.011  1.00  0.00     0.118 C 
BRANCH   2   3
ATOM      3  N   UNL     1      -4.660  -2.320  -4.381  1.00  0.00    -0.352 N 
ATOM      4  C   UNL     1      -4.073  -1.544  -5.348  1.00  0.00     0.253 C 
ATOM      5  O   UNL     1      -4.716  -1.433  -6.398  1.00  0.00    -0.269 OA
ATOM      6  H   UNL     1      -5.497  -2.739  -4.685  1.00  0.00     0.163 HD
BRANCH   4   7
ATOM      7  C   UNL     1      -2.724  -0.890  -5.223  1.00  0.00     0.065 A 
ATOM      8  C   UNL     1      -0.815  -0.206  -3.860  1.00  0.00     0.040 A 
ATOM      9  C   UNL     1      -0.138   0.181  -5.011  1.00  0.00     0.031 A 
ATOM     10  C   UNL     1      -2.129  -0.659  -3.979  1.00  0.00     0.042 A 
ATOM     11  C   UNL     1      -0.735   0.071  -6.281  1.00  0.00    -0.025 A 
ATOM     12  C   UNL     1       0.086   0.538  -7.454  1.00  0.00     0.047 C 
ATOM     13  C   UNL     1      -2.031  -0.482  -6.401  1.00  0.00     0.047 A 
BRANCH   8  14
ATOM     14  N   UNL     1      -0.147  -0.275  -2.623  1.00  0.00    -0.355 N 
ATOM     15  H   UNL     1       0.169   0.581  -2.253  1.00  0.00     0.167 HD
BRANCH  14  16
ATOM     16  C   UNL     1       0.128  -1.429  -1.847  1.00  0.00     0.043 A 
ATOM     17  C   UNL     1       0.962  -0.013   0.126  1.00  0.00     0.046 C 
ATOM     18  C   UNL     1       0.624  -1.325  -0.531  1.00  0.00    -0.027 A 
ATOM     19  C   UNL     1       0.884  -2.494   0.213  1.00  0.00     0.007 A 
ATOM     20  C   UNL     1       0.644  -3.759  -0.321  1.00  0.00     0.020 A 
ATOM     21  C   UNL     1      -0.130  -2.718  -2.357  1.00  0.00     0.045 A 
ATOM     22  C   UNL     1       0.138  -3.873  -1.612  1.00  0.00     0.054 A 
BRANCH  22  23
ATOM     23  C   UNL     1      -0.076  -5.170  -2.188  1.00  0.00     0.099 C 
ATOM     24  N   UNL     1      -0.230  -6.220  -2.654  1.00  0.00    -0.192 NA
ENDBRANCH  22  23
ENDBRANCH  14  16
ENDBRANCH   8  14
BRANCH  13  25
ATOM     25  N   UNL     1      -2.548  -0.773  -7.670  1.00  0.00    -0.398 N 
ATOM     26  H   UNL     1      -2.062  -0.486  -8.477  1.00  0.00     0.156 HD
ATOM     27  H   UNL     1      -3.397  -1.264  -7.756  1.00  0.00     0.156 HD
ENDBRANCH  13  25
ENDBRANCH   4   7
ENDBRANCH   2   3
ENDBRANCH   1   2
BRANCH   1  28
ATOM     28  C   UNL     1      -6.519  -2.042  -1.910  1.00  0.00     0.118 C 
BRANCH  28  29
ATOM     29  N   UNL     1      -6.744  -3.351  -1.301  1.00  0.00    -0.352 N 
ATOM     30  C   UNL     1      -7.343  -3.689  -0.112  1.00  0.00     0.251 C 
ATOM     31  H   UNL     1      -6.413  -4.114  -1.828  1.00  0.00     0.163 HD
ATOM     32  O   UNL     1      -7.203  -4.824   0.333  1.00  0.00    -0.269 OA
BRANCH  30  33
ATOM     33  C   UNL     1      -8.133  -2.685   0.628  1.00  0.00     0.039 A 
ATOM     34  C   UNL     1      -8.937  -1.779  -0.062  1.00  0.00     0.014 A 
ATOM     35  C   UNL     1      -8.077  -2.648   2.024  1.00  0.00     0.014 A 
ATOM     36  C   UNL     1      -9.512  -0.717   0.617  1.00  0.00     0.010 A 
ATOM     37  C   UNL     1      -8.766  -1.649   2.719  1.00  0.00     0.010 A 
ATOM     38  C   UNL     1      -9.448  -0.644   2.018  1.00  0.00    -0.014 A 
BRANCH  38  39
ATOM     39  C   UNL     1     -10.135   0.482   2.702  1.00  0.00     0.031 A 
ATOM     40  C   UNL     1      -9.371   1.471   3.539  1.00  0.00     0.074 A 
ATOM     41  C   UNL     1     -11.458   0.647   2.497  1.00  0.00     0.049 A 
ATOM     42  N   UNL     1      -9.812   2.559   4.118  1.00  0.00    -0.248 NA
ATOM     43  C   UNL     1      -7.937   1.220   3.764  1.00  0.00     0.031 C 
ATOM     44  C   UNL     1     -12.309  -0.263   1.724  1.00  0.00     0.029 A 
ATOM     45  N   UNL     1     -12.314   1.644   2.889  1.00  0.00    -0.354 N 
ATOM     46  C   UNL     1      -8.727   3.101   4.795  1.00  0.00     0.074 A 
ATOM     47  C   UNL     1      -7.604   2.220   4.571  1.00  0.00     0.031 C 
ATOM     48  C   UNL     1     -13.545   0.248   1.644  1.00  0.00     0.029 A 
ATOM     49  C   UNL     1     -13.596   1.483   2.417  1.00  0.00     0.049 A 
ATOM     50  H   UNL     1     -12.038   2.402   3.454  1.00  0.00     0.167 HD
ATOM     51  C   UNL     1      -8.671   4.241   5.520  1.00  0.00     0.034 A 
ATOM     52  C   UNL     1     -14.700   2.233   2.592  1.00  0.00     0.034 A 
ATOM     53  C   UNL     1      -9.781   5.133   5.710  1.00  0.00     0.049 A 
ATOM     54  C   UNL     1     -14.609   3.486   3.408  1.00  0.00     0.074 A 
ATOM     55  C   UNL     1      -9.799   6.338   6.391  1.00  0.00     0.029 A 
ATOM     56  N   UNL     1     -11.062   4.921   5.230  1.00  0.00    -0.354 N 
ATOM     57  N   UNL     1     -13.554   4.016   3.974  1.00  0.00    -0.248 NA
ATOM     58  C   UNL     1     -15.848   4.253   3.602  1.00  0.00     0.031 C 
ATOM     59  C   UNL     1     -11.100   6.839   6.351  1.00  0.00     0.029 A 
ATOM     60  C   UNL     1     -11.882   5.967   5.610  1.00  0.00     0.049 A 
ATOM     61  H   UNL     1     -11.346   4.143   4.698  1.00  0.00     0.167 HD
ATOM     62  C   UNL     1     -13.993   5.189   4.571  1.00  0.00     0.074 A 
ATOM     63  C   UNL     1     -15.410   5.298   4.293  1.00  0.00     0.031 C 
ATOM     64  C   UNL     1     -13.280   6.088   5.288  1.00  0.00     0.034 A 
BRANCH  51  65
ATOM     65  C   UNL     1      -7.359   4.638   6.139  1.00  0.00     0.023 A 
ATOM     66  C   UNL     1      -6.364   5.224   5.333  1.00  0.00     0.012 A 
ATOM     67  C   UNL     1      -7.173   4.566   7.534  1.00  0.00     0.148 A 
ATOM     68  C   UNL     1      -5.201   5.736   5.907  1.00  0.00     0.002 A 
ATOM     69  C   UNL     1      -6.023   5.101   8.101  1.00  0.00     0.091 A 
ATOM     70  F   UNL     1      -8.135   4.001   8.277  1.00  0.00    -0.205 F 
ATOM     71  C   UNL     1      -5.037   5.688   7.290  1.00  0.00     0.022 A 
BRANCH  69  72
ATOM     72  S   UNL     1      -5.730   5.124   9.873  1.00  0.00     0.127 S 
ATOM     73  O   UNL     1      -4.536   4.285   9.982  1.00  0.00    -0.237 OA
ATOM     74  O   UNL     1      -5.501   6.546  10.127  1.00  0.00    -0.237 OA
ATOM     75  O   UNL     1      -6.928   4.573  10.490  1.00  0.00    -0.744 OA
ENDBRANCH  69  72
ENDBRANCH  51  65
BRANCH  52  76
ATOM     76  C   UNL     1     -15.971   1.815   1.942  1.00  0.00     0.023 A 
ATOM     77  C   UNL     1     -16.439   2.514   0.815  1.00  0.00     0.012 A 
ATOM     78  C   UNL     1     -16.665   0.673   2.389  1.00  0.00     0.148 A 
ATOM     79  C   UNL     1     -17.582   2.082   0.141  1.00  0.00     0.002 A 
ATOM     80  C   UNL     1     -17.781   0.229   1.692  1.00  0.00     0.091 A 
ATOM     81  F   UNL     1     -16.191   0.024   3.461  1.00  0.00    -0.205 F 
ATOM     82  C   UNL     1     -18.245   0.935   0.572  1.00  0.00     0.022 A 
BRANCH  80  83
ATOM     83  S   UNL     1     -18.652  -1.281   2.123  1.00  0.00     0.127 S 
ATOM     84  O   UNL     1     -19.971  -0.768   2.487  1.00  0.00    -0.237 OA
ATOM     85  O   UNL     1     -18.604  -2.023   0.863  1.00  0.00    -0.237 OA
ATOM     86  O   UNL     1     -17.894  -1.882   3.212  1.00  0.00    -0.744 OA
ENDBRANCH  80  83
ENDBRANCH  52  76
BRANCH  64  87
ATOM     87  C   UNL     1     -13.982   7.307   5.812  1.00  0.00     0.023 A 
ATOM     88  C   UNL     1     -14.757   7.215   6.983  1.00  0.00     0.012 A 
ATOM     89  C   UNL     1     -13.722   8.569   5.241  1.00  0.00     0.148 A 
ATOM     90  C   UNL     1     -15.255   8.368   7.587  1.00  0.00     0.002 A 
ATOM     91  C   UNL     1     -14.195   9.714   5.865  1.00  0.00     0.091 A 
ATOM     92  F   UNL     1     -12.979   8.621   4.125  1.00  0.00    -0.205 F 
ATOM     93  C   UNL     1     -14.961   9.616   7.039  1.00  0.00     0.022 A 
BRANCH  91  94
ATOM     94  S   UNL     1     -13.816  11.366   5.272  1.00  0.00     0.127 S 
ATOM     95  O   UNL     1     -15.149  11.878   4.952  1.00  0.00    -0.237 OA
ATOM     96  O   UNL     1     -13.191  11.978   6.444  1.00  0.00    -0.237 OA
ATOM     97  O   UNL     1     -12.935  11.195   4.125  1.00  0.00    -0.744 OA
ENDBRANCH  91  94
ENDBRANCH  64  87
ENDBRANCH  38  39
ENDBRANCH  30  33
ENDBRANCH  28  29
ENDBRANCH   1  28
TORSDOF 17
