REMARK SMILES Cc1nc(CSCC(=O)N2CCCC[C@@H]2C(=O)NCCCNC(=O)c2ccc(-c3c4nc(c(-c5cccc(S(=O)(=O)[O-])c5F)c5ccc([nH]5)c(-c5cccc(S(=O)(=O)[O-])c5F)c5nc(c(-c6cccc(S(=O)(=O)[O-])c6F)c6ccc3[nH]6)C=C5)C=C4)cc2)cs1
REMARK SMILES IDX 19 1 18 2 16 3 17 4 15 6 10 7 11 8 12 9 14 10 13 11 8 12
REMARK SMILES IDX 9 13 7 14 6 15 5 16 4 17 1 18 2 19 3 20 89 21 88 22 20 23
REMARK SMILES IDX 21 24 22 25 23 26 24 28 25 29 26 30 87 31 27 32 86 33 28 34
REMARK SMILES IDX 29 35 30 36 80 37 31 38 85 39 79 40 81 41 32 42 84 43 78 44
REMARK SMILES IDX 77 45 33 47 65 48 45 49 64 50 46 51 49 52 63 53 82 54 47 55
REMARK SMILES IDX 48 56 62 58 83 59 50 60 34 61 35 62 43 63 36 64 38 65 44 66
REMARK SMILES IDX 37 67 39 68 40 69 41 70 42 71 66 72 67 73 75 74 68 75 70 76
REMARK SMILES IDX 76 77 69 78 71 79 72 80 73 81 74 82 51 83 52 84 60 85 53 86
REMARK SMILES IDX 55 87 61 88 54 89 56 90 57 91 58 92 59 93
REMARK H PARENT 18 5 22 27 81 46 49 57
REMARK Flexibility Score: inf
ROOT
ATOM      1  C   UNL     1       0.854  -5.189  -0.091  1.00  0.00     0.117 C 
ENDROOT
BRANCH   1   2
ATOM      2  N   UNL     1       2.212  -4.740   0.197  1.00  0.00    -0.354 N 
ATOM      3  C   UNL     1       3.293  -4.634  -0.631  1.00  0.00     0.242 C 
ATOM      4  O   UNL     1       4.343  -4.211  -0.139  1.00  0.00    -0.273 OA
ATOM      5  H   UNL     1       2.374  -4.472   1.131  1.00  0.00     0.163 HD
BRANCH   3   6
ATOM      6  C   UNL     1       3.277  -5.232  -2.055  1.00  0.00     0.174 C 
ATOM      7  N   UNL     1       2.035  -4.992  -2.822  1.00  0.00    -0.330 N 
ATOM      8  C   UNL     1       1.688  -5.974  -3.849  1.00  0.00     0.120 C 
ATOM      9  C   UNL     1       1.772  -7.412  -3.375  1.00  0.00     0.022 C 
ATOM     10  C   UNL     1       3.545  -6.738  -1.765  1.00  0.00     0.035 C 
ATOM     11  C   UNL     1       3.174  -7.704  -2.874  1.00  0.00     0.004 C 
BRANCH   7  12
ATOM     12  C   UNL     1       1.409  -3.756  -2.986  1.00  0.00     0.233 C 
ATOM     13  O   UNL     1       0.177  -3.724  -3.102  1.00  0.00    -0.274 OA
BRANCH  12  14
ATOM     14  C   UNL     1       2.199  -2.497  -3.316  1.00  0.00     0.170 C 
BRANCH  14  15
ATOM     15  S   UNL     1       3.132  -1.631  -2.036  1.00  0.00    -0.146 SA
BRANCH  15  16
ATOM     16  C   UNL     1       1.996  -1.653  -0.631  1.00  0.00     0.127 C 
BRANCH  16  17
ATOM     17  C   UNL     1       1.049  -0.515  -0.501  1.00  0.00     0.061 A 
ATOM     18  C   UNL     1      -2.486   0.258   0.013  1.00  0.00     0.079 C 
ATOM     19  C   UNL     1      -1.008   0.252  -0.166  1.00  0.00     0.090 A 
ATOM     20  N   UNL     1      -0.306  -0.817  -0.471  1.00  0.00    -0.246 NA
ATOM     21  S   UNL     1      -0.096   1.693   0.041  1.00  0.00    -0.127 S 
ATOM     22  C   UNL     1       1.347   0.809  -0.241  1.00  0.00     0.091 A 
ENDBRANCH  16  17
ENDBRANCH  15  16
ENDBRANCH  14  15
ENDBRANCH  12  14
ENDBRANCH   7  12
ENDBRANCH   3   6
ENDBRANCH   1   2
BRANCH   1  23
ATOM     23  C   UNL     1       0.125  -5.664   1.151  1.00  0.00     0.042 C 
BRANCH  23  24
ATOM     24  C   UNL     1      -0.112  -4.567   2.179  1.00  0.00     0.118 C 
BRANCH  24  25
ATOM     25  N   UNL     1      -1.202  -3.660   1.845  1.00  0.00    -0.352 N 
ATOM     26  C   UNL     1      -2.276  -3.298   2.639  1.00  0.00     0.251 C 
ATOM     27  H   UNL     1      -1.170  -3.256   0.948  1.00  0.00     0.163 HD
ATOM     28  O   UNL     1      -3.176  -2.602   2.206  1.00  0.00    -0.269 OA
BRANCH  26  29
ATOM     29  C   UNL     1      -2.324  -3.801   4.034  1.00  0.00     0.039 A 
ATOM     30  C   UNL     1      -3.473  -4.455   4.485  1.00  0.00     0.014 A 
ATOM     31  C   UNL     1      -1.208  -3.684   4.866  1.00  0.00     0.014 A 
ATOM     32  C   UNL     1      -3.473  -5.054   5.749  1.00  0.00     0.010 A 
ATOM     33  C   UNL     1      -1.177  -4.365   6.079  1.00  0.00     0.010 A 
ATOM     34  C   UNL     1      -2.312  -5.047   6.542  1.00  0.00    -0.014 A 
BRANCH  34  35
ATOM     35  C   UNL     1      -2.265  -5.744   7.856  1.00  0.00     0.031 A 
ATOM     36  C   UNL     1      -1.981  -4.969   9.116  1.00  0.00     0.074 A 
ATOM     37  C   UNL     1      -2.381  -7.086   7.911  1.00  0.00     0.049 A 
ATOM     38  N   UNL     1      -1.863  -5.405  10.344  1.00  0.00    -0.248 NA
ATOM     39  C   UNL     1      -1.763  -3.520   8.974  1.00  0.00     0.031 C 
ATOM     40  C   UNL     1      -2.541  -7.970   6.755  1.00  0.00     0.029 A 
ATOM     41  N   UNL     1      -2.350  -7.945   8.982  1.00  0.00    -0.354 N 
ATOM     42  C   UNL     1      -1.522  -4.297  11.110  1.00  0.00     0.074 A 
ATOM     43  C   UNL     1      -1.401  -3.179  10.201  1.00  0.00     0.031 C 
ATOM     44  C   UNL     1      -2.595  -9.243   7.178  1.00  0.00     0.029 A 
ATOM     45  C   UNL     1      -2.456  -9.271   8.632  1.00  0.00     0.049 A 
ATOM     46  H   UNL     1      -2.260  -7.640   9.914  1.00  0.00     0.167 HD
ATOM     47  C   UNL     1      -1.366  -4.202  12.452  1.00  0.00     0.034 A 
ATOM     48  C   UNL     1      -2.444 -10.384   9.392  1.00  0.00     0.034 A 
ATOM     49  C   UNL     1      -1.542  -5.301  13.361  1.00  0.00     0.049 A 
ATOM     50  C   UNL     1      -2.352 -10.250  10.888  1.00  0.00     0.074 A 
ATOM     51  C   UNL     1      -1.514  -5.288  14.744  1.00  0.00     0.029 A 
ATOM     52  N   UNL     1      -1.773  -6.614  12.978  1.00  0.00    -0.354 N 
ATOM     53  N   UNL     1      -2.222  -9.164  11.611  1.00  0.00    -0.248 NA
ATOM     54  C   UNL     1      -2.452 -11.487  11.676  1.00  0.00     0.031 C 
ATOM     55  C   UNL     1      -1.714  -6.597  15.197  1.00  0.00     0.029 A 
ATOM     56  C   UNL     1      -1.884  -7.422  14.096  1.00  0.00     0.049 A 
ATOM     57  H   UNL     1      -1.847  -6.925  12.047  1.00  0.00     0.167 HD
ATOM     58  C   UNL     1      -2.251  -9.582  12.937  1.00  0.00     0.074 A 
ATOM     59  C   UNL     1      -2.436 -11.018  12.918  1.00  0.00     0.031 C 
ATOM     60  C   UNL     1      -2.118  -8.843  14.067  1.00  0.00     0.034 A 
BRANCH  47  61
ATOM     61  C   UNL     1      -1.058  -2.840  13.017  1.00  0.00     0.023 A 
ATOM     62  C   UNL     1      -2.053  -1.839  12.993  1.00  0.00     0.012 A 
ATOM     63  C   UNL     1       0.195  -2.551  13.592  1.00  0.00     0.148 A 
ATOM     64  C   UNL     1      -1.792  -0.562  13.486  1.00  0.00     0.002 A 
ATOM     65  C   UNL     1       0.432  -1.289  14.125  1.00  0.00     0.091 A 
ATOM     66  F   UNL     1       1.139  -3.504  13.587  1.00  0.00    -0.205 F 
ATOM     67  C   UNL     1      -0.553  -0.290  14.060  1.00  0.00     0.022 A 
BRANCH  65  68
ATOM     68  S   UNL     1       1.968  -0.869  14.957  1.00  0.00     0.127 S 
ATOM     69  O   UNL     1       2.649  -0.073  13.938  1.00  0.00    -0.237 OA
ATOM     70  O   UNL     1       1.497  -0.103  16.113  1.00  0.00    -0.237 OA
ATOM     71  O   UNL     1       2.597  -2.139  15.292  1.00  0.00    -0.744 OA
ENDBRANCH  65  68
ENDBRANCH  47  61
BRANCH  48  72
ATOM     72  C   UNL     1      -2.602 -11.717   8.744  1.00  0.00     0.023 A 
ATOM     73  C   UNL     1      -3.816 -12.416   8.884  1.00  0.00     0.012 A 
ATOM     74  C   UNL     1      -1.582 -12.264   7.940  1.00  0.00     0.148 A 
ATOM     75  C   UNL     1      -4.004 -13.648   8.254  1.00  0.00     0.002 A 
ATOM     76  C   UNL     1      -1.796 -13.463   7.272  1.00  0.00     0.091 A 
ATOM     77  F   UNL     1      -0.431 -11.586   7.829  1.00  0.00    -0.205 F 
ATOM     78  C   UNL     1      -3.001 -14.165   7.439  1.00  0.00     0.022 A 
BRANCH  76  79
ATOM     79  S   UNL     1      -0.618 -14.134   6.093  1.00  0.00     0.127 S 
ATOM     80  O   UNL     1      -0.122 -15.312   6.802  1.00  0.00    -0.237 OA
ATOM     81  O   UNL     1      -1.473 -14.423   4.942  1.00  0.00    -0.237 OA
ATOM     82  O   UNL     1       0.357 -13.076   5.865  1.00  0.00    -0.744 OA
ENDBRANCH  76  79
ENDBRANCH  48  72
BRANCH  60  83
ATOM     83  C   UNL     1      -2.185  -9.565  15.388  1.00  0.00     0.023 A 
ATOM     84  C   UNL     1      -1.102 -10.365  15.801  1.00  0.00     0.012 A 
ATOM     85  C   UNL     1      -3.281  -9.384  16.254  1.00  0.00     0.148 A 
ATOM     86  C   UNL     1      -1.121 -10.997  17.044  1.00  0.00     0.002 A 
ATOM     87  C   UNL     1      -3.273  -9.979  17.510  1.00  0.00     0.091 A 
ATOM     88  F   UNL     1      -4.311  -8.634  15.835  1.00  0.00    -0.205 F 
ATOM     89  C   UNL     1      -2.199 -10.794  17.902  1.00  0.00     0.022 A 
BRANCH  87  90
ATOM     90  S   UNL     1      -4.575  -9.698  18.716  1.00  0.00     0.127 S 
ATOM     91  O   UNL     1      -5.297 -10.968  18.677  1.00  0.00    -0.237 OA
ATOM     92  O   UNL     1      -3.816  -9.465  19.946  1.00  0.00    -0.237 OA
ATOM     93  O   UNL     1      -5.318  -8.539  18.239  1.00  0.00    -0.744 OA
ENDBRANCH  87  90
ENDBRANCH  60  83
ENDBRANCH  34  35
ENDBRANCH  26  29
ENDBRANCH  24  25
ENDBRANCH  23  24
ENDBRANCH   1  23
TORSDOF 18
