REMARK SMILES Cc1c(C[NH2+]C2CCCCC2)c(C(=O)NCCCNC(=O)c2ccc(-c3c4nc(c(-c5cccc(S(=O)(=O)[O-])c5F)c5ccc([nH]5)c(-c5cccc(S(=O)(=O)[O-])c5F)c5nc(c(-c6cccc(S(=O)(=O)[O-])c6F)c6ccc3[nH]6)C=C5)C=C4)cc2)c(C)n1Cc1ccccc1
REMARK SMILES IDX 17 1 16 2 15 3 13 4 14 5 12 7 1 8 2 9 3 10 87 11 85 12 86 13
REMARK SMILES IDX 4 14 5 15 6 18 7 19 11 20 8 21 10 22 9 23 88 24 89 25 90 26
REMARK SMILES IDX 94 27 91 28 93 29 92 30 18 31 19 32 20 33 21 35 22 36 23 37
REMARK SMILES IDX 84 38 24 39 83 40 25 41 26 42 27 43 77 44 28 45 82 46 76 47
REMARK SMILES IDX 78 48 29 49 81 50 75 51 74 52 30 54 62 55 42 56 61 57 43 58
REMARK SMILES IDX 46 59 60 60 79 61 44 62 45 63 59 65 80 66 47 67 31 68 32 69
REMARK SMILES IDX 40 70 33 71 35 72 41 73 34 74 36 75 37 76 38 77 39 78 63 79
REMARK SMILES IDX 64 80 72 81 65 82 67 83 73 84 66 85 68 86 69 87 70 88 71 89
REMARK SMILES IDX 48 90 49 91 57 92 50 93 52 94 58 95 51 96 53 97 54 98 55 99
REMARK SMILES IDX 56 100
REMARK H PARENT 15 6 5 16 5 17 19 34 78 53 46 64
REMARK Flexibility Score: inf
ROOT
ATOM      1  C   UNL     1      -2.895  -0.411   6.732  1.00  0.00     0.042 C 
ENDROOT
BRANCH   1   2
ATOM      2  C   UNL     1      -1.426  -0.797   6.915  1.00  0.00     0.118 C 
BRANCH   2   3
ATOM      3  N   UNL     1      -1.020  -1.949   6.138  1.00  0.00    -0.352 N 
ATOM      4  C   UNL     1      -0.495  -2.225   4.902  1.00  0.00     0.253 C 
ATOM      5  O   UNL     1      -0.394  -3.441   4.707  1.00  0.00    -0.269 OA
ATOM      6  H   UNL     1      -1.163  -2.780   6.646  1.00  0.00     0.163 HD
BRANCH   4   7
ATOM      7  C   UNL     1      -0.168  -1.255   3.830  1.00  0.00     0.069 A 
ATOM      8  C   UNL     1       0.710  -0.391   0.258  1.00  0.00     0.065 C 
ATOM      9  C   UNL     1       0.293  -0.516   1.688  1.00  0.00     0.025 A 
ATOM     10  C   UNL     1       0.218  -1.668   2.474  1.00  0.00     0.040 A 
ATOM     11  N   UNL     1      -0.093   0.545   2.490  1.00  0.00    -0.343 N 
ATOM     12  C   UNL     1       0.031   0.131   3.816  1.00  0.00     0.028 A 
ATOM     13  C   UNL     1       0.399   1.097   4.888  1.00  0.00     0.065 C 
BRANCH  10  14
ATOM     14  C   UNL     1       0.463  -3.091   1.988  1.00  0.00     0.300 C 
BRANCH  14  15
ATOM     15  N   UNL     1       1.698  -3.630   2.575  1.00  0.00    -0.340 N 
ATOM     16  H   UNL     1       1.600  -3.624   3.590  1.00  0.00     0.346 HD
ATOM     17  H   UNL     1       2.462  -3.038   2.252  1.00  0.00     0.346 HD
BRANCH  15  18
ATOM     18  C   UNL     1       2.012  -5.008   2.146  1.00  0.00     0.182 C 
ATOM     19  C   UNL     1       3.381  -5.414   2.734  1.00  0.00     0.065 C 
ATOM     20  C   UNL     1       0.948  -6.043   2.564  1.00  0.00     0.065 C 
ATOM     21  C   UNL     1       3.776  -6.847   2.364  1.00  0.00     0.006 C 
ATOM     22  C   UNL     1       1.349  -7.473   2.190  1.00  0.00     0.006 C 
ATOM     23  C   UNL     1       2.706  -7.854   2.768  1.00  0.00     0.000 C 
ENDBRANCH  15  18
ENDBRANCH  14  15
ENDBRANCH  10  14
BRANCH  11  24
ATOM     24  C   UNL     1      -0.327   1.931   2.043  1.00  0.00     0.157 C 
BRANCH  24  25
ATOM     25  C   UNL     1      -1.760   2.434   2.138  1.00  0.00    -0.028 A 
ATOM     26  C   UNL     1      -2.363   3.047   1.024  1.00  0.00     0.005 A 
ATOM     27  C   UNL     1      -2.482   2.439   3.341  1.00  0.00     0.005 A 
ATOM     28  C   UNL     1      -3.631   3.638   1.118  1.00  0.00     0.000 A 
ATOM     29  C   UNL     1      -3.743   3.036   3.439  1.00  0.00     0.000 A 
ATOM     30  C   UNL     1      -4.318   3.638   2.328  1.00  0.00     0.000 A 
ENDBRANCH  24  25
ENDBRANCH  11  24
ENDBRANCH   4   7
ENDBRANCH   2   3
ENDBRANCH   1   2
BRANCH   1  31
ATOM     31  C   UNL     1      -3.896  -1.381   7.393  1.00  0.00     0.118 C 
BRANCH  31  32
ATOM     32  N   UNL     1      -4.208  -1.057   8.768  1.00  0.00    -0.352 N 
ATOM     33  C   UNL     1      -5.328  -1.419   9.495  1.00  0.00     0.251 C 
ATOM     34  H   UNL     1      -3.541  -0.511   9.245  1.00  0.00     0.163 HD
ATOM     35  O   UNL     1      -5.485  -0.833  10.569  1.00  0.00    -0.269 OA
BRANCH  33  36
ATOM     36  C   UNL     1      -6.417  -2.310   8.934  1.00  0.00     0.039 A 
ATOM     37  C   UNL     1      -7.662  -1.737   8.901  1.00  0.00     0.014 A 
ATOM     38  C   UNL     1      -6.372  -3.655   8.510  1.00  0.00     0.014 A 
ATOM     39  C   UNL     1      -8.769  -2.458   8.383  1.00  0.00     0.010 A 
ATOM     40  C   UNL     1      -7.576  -4.429   8.088  1.00  0.00     0.010 A 
ATOM     41  C   UNL     1      -8.857  -3.861   8.004  1.00  0.00    -0.014 A 
BRANCH  41  42
ATOM     42  C   UNL     1     -10.417  -4.503   7.796  1.00  0.00     0.031 A 
ATOM     43  C   UNL     1     -11.228  -3.539   8.575  1.00  0.00     0.074 A 
ATOM     44  C   UNL     1     -11.245  -5.597   7.441  1.00  0.00     0.049 A 
ATOM     45  N   UNL     1     -10.916  -3.472   9.831  1.00  0.00    -0.248 NA
ATOM     46  C   UNL     1     -11.933  -2.358   8.072  1.00  0.00     0.031 C 
ATOM     47  C   UNL     1     -10.861  -6.966   7.051  1.00  0.00     0.029 A 
ATOM     48  N   UNL     1     -12.698  -5.766   7.393  1.00  0.00    -0.354 N 
ATOM     49  C   UNL     1     -11.537  -2.399  10.375  1.00  0.00     0.074 A 
ATOM     50  C   UNL     1     -12.024  -1.653   9.214  1.00  0.00     0.031 C 
ATOM     51  C   UNL     1     -11.936  -7.726   6.663  1.00  0.00     0.029 A 
ATOM     52  C   UNL     1     -13.207  -7.000   6.790  1.00  0.00     0.049 A 
ATOM     53  H   UNL     1     -13.307  -5.080   7.750  1.00  0.00     0.167 HD
ATOM     54  C   UNL     1     -12.091  -2.683  11.583  1.00  0.00     0.034 A 
ATOM     55  C   UNL     1     -14.516  -7.455   6.516  1.00  0.00     0.034 A 
ATOM     56  C   UNL     1     -13.493  -2.940  11.414  1.00  0.00     0.049 A 
ATOM     57  C   UNL     1     -15.362  -6.805   7.523  1.00  0.00     0.074 A 
ATOM     58  C   UNL     1     -14.449  -2.339  10.608  1.00  0.00     0.029 A 
ATOM     59  N   UNL     1     -13.912  -4.230  11.632  1.00  0.00    -0.354 N 
ATOM     60  N   UNL     1     -15.488  -7.329   8.705  1.00  0.00    -0.248 NA
ATOM     61  C   UNL     1     -16.230  -5.669   7.248  1.00  0.00     0.031 C 
ATOM     62  C   UNL     1     -15.060  -3.416   9.934  1.00  0.00     0.029 A 
ATOM     63  C   UNL     1     -14.845  -4.570  10.670  1.00  0.00     0.049 A 
ATOM     64  H   UNL     1     -13.598  -4.818  12.357  1.00  0.00     0.167 HD
ATOM     65  C   UNL     1     -15.944  -6.287   9.441  1.00  0.00     0.074 A 
ATOM     66  C   UNL     1     -16.647  -5.436   8.496  1.00  0.00     0.031 C 
ATOM     67  C   UNL     1     -15.184  -5.957  10.511  1.00  0.00     0.034 A 
BRANCH  54  68
ATOM     68  C   UNL     1     -11.104  -3.428  12.498  1.00  0.00     0.023 A 
ATOM     69  C   UNL     1     -10.566  -2.679  13.558  1.00  0.00     0.012 A 
ATOM     70  C   UNL     1     -10.473  -4.671  12.174  1.00  0.00     0.148 A 
ATOM     71  C   UNL     1      -9.404  -3.100  14.217  1.00  0.00     0.002 A 
ATOM     72  C   UNL     1      -9.245  -5.012  12.741  1.00  0.00     0.091 A 
ATOM     73  F   UNL     1     -11.057  -5.495  11.287  1.00  0.00    -0.205 F 
ATOM     74  C   UNL     1      -8.720  -4.234  13.779  1.00  0.00     0.022 A 
BRANCH  72  75
ATOM     75  S   UNL     1      -8.157  -6.282  12.044  1.00  0.00     0.127 S 
ATOM     76  O   UNL     1      -6.843  -5.637  12.081  1.00  0.00    -0.237 OA
ATOM     77  O   UNL     1      -8.305  -7.389  12.975  1.00  0.00    -0.237 OA
ATOM     78  O   UNL     1      -8.636  -6.535  10.678  1.00  0.00    -0.744 OA
ENDBRANCH  72  75
ENDBRANCH  54  68
BRANCH  55  79
ATOM     79  C   UNL     1     -15.474  -8.537   5.819  1.00  0.00     0.023 A 
ATOM     80  C   UNL     1     -16.608  -9.052   6.562  1.00  0.00     0.012 A 
ATOM     81  C   UNL     1     -15.621  -8.665   4.417  1.00  0.00     0.148 A 
ATOM     82  C   UNL     1     -17.814  -9.512   5.987  1.00  0.00     0.002 A 
ATOM     83  C   UNL     1     -16.830  -9.164   3.838  1.00  0.00     0.091 A 
ATOM     84  F   UNL     1     -14.633  -8.212   3.637  1.00  0.00    -0.205 F 
ATOM     85  C   UNL     1     -17.931  -9.553   4.618  1.00  0.00     0.022 A 
BRANCH  83  86
ATOM     86  S   UNL     1     -17.138  -9.252   2.056  1.00  0.00     0.127 S 
ATOM     87  O   UNL     1     -17.752 -10.573   1.899  1.00  0.00    -0.237 OA
ATOM     88  O   UNL     1     -18.059  -8.134   1.853  1.00  0.00    -0.237 OA
ATOM     89  O   UNL     1     -15.831  -9.115   1.431  1.00  0.00    -0.744 OA
ENDBRANCH  83  86
ENDBRANCH  55  79
BRANCH  67  90
ATOM     90  C   UNL     1     -14.544  -7.080  11.310  1.00  0.00     0.023 A 
ATOM     91  C   UNL     1     -13.800  -8.151  10.763  1.00  0.00     0.012 A 
ATOM     92  C   UNL     1     -14.686  -7.040  12.705  1.00  0.00     0.148 A 
ATOM     93  C   UNL     1     -13.259  -9.158  11.570  1.00  0.00     0.002 A 
ATOM     94  C   UNL     1     -14.082  -7.995  13.513  1.00  0.00     0.091 A 
ATOM     95  F   UNL     1     -15.419  -6.048  13.236  1.00  0.00    -0.205 F 
ATOM     96  C   UNL     1     -13.383  -9.069  12.952  1.00  0.00     0.022 A 
BRANCH  94  97
ATOM     97  S   UNL     1     -14.133  -7.809  15.293  1.00  0.00     0.127 S 
ATOM     98  O   UNL     1     -15.335  -8.564  15.643  1.00  0.00    -0.237 OA
ATOM     99  O   UNL     1     -12.882  -8.418  15.736  1.00  0.00    -0.237 OA
ATOM    100  O   UNL     1     -14.209  -6.367  15.514  1.00  0.00    -0.744 OA
ENDBRANCH  94  97
ENDBRANCH  67  90
ENDBRANCH  41  42
ENDBRANCH  33  36
ENDBRANCH  31  32
ENDBRANCH   1  31
TORSDOF 18
