REMARK SMILES C[C@@H](C(=O)NCCCNC(=O)c1ccc(-c2c3nc(c(-c4cccc(S(=O)(=O)[O-])c4F)c4ccc([nH]4)c(-c4cccc(S(=O)(=O)[O-])c4F)c4nc(c(-c5cccc(S(=O)(=O)[O-])c5F)c5ccc2[nH]5)C=C4)C=C3)cc1)c1ccc(C[C@H]2CCCC2=O)cc1F
REMARK SMILES IDX 7 1 6 2 5 3 3 4 4 5 2 7 1 8 75 9 76 10 87 11 77 12 86 13
REMARK SMILES IDX 88 14 78 15 79 16 80 17 81 18 84 19 82 20 83 21 85 22 8 23
REMARK SMILES IDX 9 24 10 25 11 27 12 28 13 29 74 30 14 31 73 32 15 33 16 34
REMARK SMILES IDX 17 35 67 36 18 37 72 38 66 39 68 40 19 41 71 42 65 43 64 44
REMARK SMILES IDX 20 46 52 47 32 48 51 49 33 50 36 51 50 52 69 53 34 54 35 55
REMARK SMILES IDX 49 57 70 58 37 59 21 60 22 61 30 62 23 63 25 64 31 65 24 66
REMARK SMILES IDX 26 67 27 68 28 69 29 70 53 71 54 72 62 73 55 74 57 75 63 76
REMARK SMILES IDX 56 77 58 78 59 79 60 80 61 81 38 82 39 83 47 84 40 85 42 86
REMARK SMILES IDX 48 87 41 88 43 89 44 90 45 91 46 92
REMARK H PARENT 5 6 9 26 68 45 36 56
REMARK Flexibility Score: inf
ROOT
ATOM      1  C   UNL     1       4.326   0.185   1.241  1.00  0.00     0.042 C 
ENDROOT
BRANCH   1   2
ATOM      2  C   UNL     1       3.468  -1.000   1.674  1.00  0.00     0.117 C 
BRANCH   2   3
ATOM      3  N   UNL     1       2.385  -0.581   2.542  1.00  0.00    -0.356 N 
ATOM      4  C   UNL     1       1.063  -0.394   2.268  1.00  0.00     0.227 C 
ATOM      5  O   UNL     1       0.364   0.037   3.190  1.00  0.00    -0.274 OA
ATOM      6  H   UNL     1       2.646  -0.403   3.474  1.00  0.00     0.163 HD
BRANCH   4   7
ATOM      7  C   UNL     1       0.498  -0.758   0.884  1.00  0.00     0.108 C 
ATOM      8  C   UNL     1       1.004   0.171  -0.225  1.00  0.00     0.023 C 
BRANCH   7   9
ATOM      9  C   UNL     1      -1.024  -0.779   0.914  1.00  0.00    -0.000 A 
ATOM     10  C   UNL     1      -1.773   0.403   0.822  1.00  0.00     0.008 A 
ATOM     11  C   UNL     1      -1.710  -1.982   1.097  1.00  0.00     0.127 A 
ATOM     12  C   UNL     1      -3.164   0.371   0.890  1.00  0.00     0.004 A 
ATOM     13  C   UNL     1      -3.101  -2.017   1.193  1.00  0.00     0.043 A 
ATOM     14  F   UNL     1      -1.031  -3.135   1.190  1.00  0.00    -0.207 F 
ATOM     15  C   UNL     1      -3.843  -0.834   1.108  1.00  0.00    -0.044 A 
BRANCH  15  16
ATOM     16  C   UNL     1      -5.343  -0.843   1.268  1.00  0.00     0.047 C 
BRANCH  16  17
ATOM     17  C   UNL     1      -5.890  -0.291   2.591  1.00  0.00     0.060 C 
ATOM     18  C   UNL     1      -5.363  -0.942   3.872  1.00  0.00     0.012 C 
ATOM     19  C   UNL     1      -5.545   1.163   2.812  1.00  0.00     0.136 C 
ATOM     20  C   UNL     1      -4.246  -0.042   4.388  1.00  0.00     0.009 C 
ATOM     21  C   UNL     1      -4.637   1.376   3.995  1.00  0.00     0.076 C 
ATOM     22  O   UNL     1      -5.972   2.074   2.110  1.00  0.00    -0.299 OA
ENDBRANCH  16  17
ENDBRANCH  15  16
ENDBRANCH   7   9
ENDBRANCH   4   7
ENDBRANCH   2   3
ENDBRANCH   1   2
BRANCH   1  23
ATOM     23  C   UNL     1       5.074   0.855   2.390  1.00  0.00     0.118 C 
BRANCH  23  24
ATOM     24  N   UNL     1       6.049  -0.032   3.011  1.00  0.00    -0.352 N 
ATOM     25  C   UNL     1       7.406   0.117   3.142  1.00  0.00     0.251 C 
ATOM     26  H   UNL     1       5.679  -0.861   3.393  1.00  0.00     0.163 HD
ATOM     27  O   UNL     1       8.089  -0.835   3.517  1.00  0.00    -0.269 OA
BRANCH  25  28
ATOM     28  C   UNL     1       8.047   1.411   2.825  1.00  0.00     0.039 A 
ATOM     29  C   UNL     1       9.248   1.419   2.111  1.00  0.00     0.014 A 
ATOM     30  C   UNL     1       7.472   2.613   3.246  1.00  0.00     0.014 A 
ATOM     31  C   UNL     1       9.843   2.636   1.771  1.00  0.00     0.010 A 
ATOM     32  C   UNL     1       8.020   3.822   2.833  1.00  0.00     0.010 A 
ATOM     33  C   UNL     1       9.219   3.848   2.105  1.00  0.00    -0.014 A 
BRANCH  33  34
ATOM     34  C   UNL     1       9.802   5.159   1.722  1.00  0.00     0.031 A 
ATOM     35  C   UNL     1      10.199   6.144   2.788  1.00  0.00     0.074 A 
ATOM     36  C   UNL     1       9.878   5.506   0.422  1.00  0.00     0.049 A 
ATOM     37  N   UNL     1      10.618   7.375   2.662  1.00  0.00    -0.248 NA
ATOM     38  C   UNL     1      10.076   5.694   4.185  1.00  0.00     0.031 C 
ATOM     39  C   UNL     1       9.463   4.666  -0.703  1.00  0.00     0.029 A 
ATOM     40  N   UNL     1      10.298   6.671  -0.170  1.00  0.00    -0.354 N 
ATOM     41  C   UNL     1      10.765   7.861   3.955  1.00  0.00     0.074 A 
ATOM     42  C   UNL     1      10.355   6.803   4.852  1.00  0.00     0.031 C 
ATOM     43  C   UNL     1       9.644   5.344  -1.848  1.00  0.00     0.029 A 
ATOM     44  C   UNL     1      10.149   6.678  -1.537  1.00  0.00     0.049 A 
ATOM     45  H   UNL     1      10.669   7.429   0.336  1.00  0.00     0.167 HD
ATOM     46  C   UNL     1      11.222   9.069   4.363  1.00  0.00     0.034 A 
ATOM     47  C   UNL     1      10.374   7.654  -2.438  1.00  0.00     0.034 A 
ATOM     48  C   UNL     1      11.660  10.105   3.467  1.00  0.00     0.049 A 
ATOM     49  C   UNL     1      10.907   8.979  -1.965  1.00  0.00     0.074 A 
ATOM     50  C   UNL     1      12.220  11.331   3.779  1.00  0.00     0.029 A 
ATOM     51  N   UNL     1      11.576  10.043   2.085  1.00  0.00    -0.354 N 
ATOM     52  N   UNL     1      11.175   9.372  -0.743  1.00  0.00    -0.248 NA
ATOM     53  C   UNL     1      11.204   9.984  -2.996  1.00  0.00     0.031 C 
ATOM     54  C   UNL     1      12.440  12.025   2.585  1.00  0.00     0.029 A 
ATOM     55  C   UNL     1      12.061  11.213   1.528  1.00  0.00     0.049 A 
ATOM     56  H   UNL     1      11.223   9.278   1.575  1.00  0.00     0.167 HD
ATOM     57  C   UNL     1      11.709  10.650  -0.861  1.00  0.00     0.074 A 
ATOM     58  C   UNL     1      11.738  10.961  -2.275  1.00  0.00     0.031 C 
ATOM     59  C   UNL     1      12.132  11.491   0.115  1.00  0.00     0.034 A 
BRANCH  46  60
ATOM     60  C   UNL     1      11.299   9.320   5.848  1.00  0.00     0.023 A 
ATOM     61  C   UNL     1      12.239   8.616   6.631  1.00  0.00     0.012 A 
ATOM     62  C   UNL     1      10.468  10.275   6.464  1.00  0.00     0.148 A 
ATOM     63  C   UNL     1      12.314   8.821   8.008  1.00  0.00     0.002 A 
ATOM     64  C   UNL     1      10.585  10.512   7.829  1.00  0.00     0.091 A 
ATOM     65  F   UNL     1       9.567  10.922   5.711  1.00  0.00    -0.205 F 
ATOM     66  C   UNL     1      11.495   9.775   8.604  1.00  0.00     0.022 A 
BRANCH  64  67
ATOM     67  S   UNL     1       9.636  11.780   8.676  1.00  0.00     0.127 S 
ATOM     68  O   UNL     1       8.703  10.974   9.462  1.00  0.00    -0.237 OA
ATOM     69  O   UNL     1      10.666  12.460   9.463  1.00  0.00    -0.237 OA
ATOM     70  O   UNL     1       9.034  12.596   7.632  1.00  0.00    -0.744 OA
ENDBRANCH  64  67
ENDBRANCH  46  60
BRANCH  47  71
ATOM     71  C   UNL     1      10.145   7.391  -3.887  1.00  0.00     0.023 A 
ATOM     72  C   UNL     1      11.249   7.283  -4.755  1.00  0.00     0.012 A 
ATOM     73  C   UNL     1       8.846   7.206  -4.399  1.00  0.00     0.148 A 
ATOM     74  C   UNL     1      11.062   7.025  -6.113  1.00  0.00     0.002 A 
ATOM     75  C   UNL     1       8.671   6.894  -5.742  1.00  0.00     0.091 A 
ATOM     76  F   UNL     1       7.811   7.318  -3.556  1.00  0.00    -0.205 F 
ATOM     77  C   UNL     1       9.775   6.820  -6.605  1.00  0.00     0.022 A 
BRANCH  75  78
ATOM     78  S   UNL     1       7.066   6.484  -6.437  1.00  0.00     0.127 S 
ATOM     79  O   UNL     1       6.847   7.595  -7.360  1.00  0.00    -0.237 OA
ATOM     80  O   UNL     1       7.338   5.196  -7.076  1.00  0.00    -0.237 OA
ATOM     81  O   UNL     1       6.150   6.414  -5.307  1.00  0.00    -0.744 OA
ENDBRANCH  75  78
ENDBRANCH  47  71
BRANCH  59  82
ATOM     82  C   UNL     1      12.721  12.814  -0.302  1.00  0.00     0.023 A 
ATOM     83  C   UNL     1      11.890  13.832  -0.810  1.00  0.00     0.012 A 
ATOM     84  C   UNL     1      14.092  13.073  -0.105  1.00  0.00     0.148 A 
ATOM     85  C   UNL     1      12.422  15.077  -1.144  1.00  0.00     0.002 A 
ATOM     86  C   UNL     1      14.604  14.333  -0.390  1.00  0.00     0.091 A 
ATOM     87  F   UNL     1      14.869  12.085   0.362  1.00  0.00    -0.205 F 
ATOM     88  C   UNL     1      13.773  15.332  -0.921  1.00  0.00     0.022 A 
BRANCH  86  89
ATOM     89  S   UNL     1      16.308  14.782  -0.040  1.00  0.00     0.127 S 
ATOM     90  O   UNL     1      16.866  14.902  -1.385  1.00  0.00    -0.237 OA
ATOM     91  O   UNL     1      16.152  16.051   0.672  1.00  0.00    -0.237 OA
ATOM     92  O   UNL     1      16.853  13.699   0.767  1.00  0.00    -0.744 OA
ENDBRANCH  86  89
ENDBRANCH  59  82
ENDBRANCH  33  34
ENDBRANCH  25  28
ENDBRANCH  23  24
ENDBRANCH   1  23
TORSDOF 16
