REMARK SMILES O=C(NCCCNC(=O)c1ccc(-c2c3nc(c(-c4cccc(S(=O)(=O)[O-])c4F)c4ccc([nH]4)c(-c4cccc(S(=O)(=O)[O-])c4F)c4nc(c(-c5cccc(S(=O)(=O)[O-])c5F)c5ccc2[nH]5)C=C4)C=C3)cc1)c1ccc(C(=O)Nc2ccc(-c3nc4ccccc4[nH]3)cc2)cc1
REMARK SMILES IDX 5 1 4 2 3 3 1 4 2 5 73 7 74 8 96 9 75 10 95 11 76 12 77 13
REMARK SMILES IDX 78 14 79 15 80 17 81 18 94 19 82 20 93 21 83 22 84 23 85 24
REMARK SMILES IDX 92 25 86 26 91 27 87 29 90 30 88 31 89 32 6 33 7 34 8 35
REMARK SMILES IDX 9 37 10 38 11 39 72 40 12 41 71 42 13 43 14 44 15 45 65 46
REMARK SMILES IDX 16 47 70 48 64 49 66 50 17 51 69 52 63 53 62 54 18 56 50 57
REMARK SMILES IDX 30 58 49 59 31 60 34 61 48 62 67 63 32 64 33 65 47 67 68 68
REMARK SMILES IDX 35 69 19 70 20 71 28 72 21 73 23 74 29 75 22 76 24 77 25 78
REMARK SMILES IDX 26 79 27 80 51 81 52 82 60 83 53 84 55 85 61 86 54 87 56 88
REMARK SMILES IDX 57 89 58 90 59 91 36 92 37 93 45 94 38 95 40 96 46 97 39 98
REMARK SMILES IDX 41 99 42 100 43 101 44 102
REMARK H PARENT 3 6 79 16 92 28 7 36 66 55 34 66
REMARK Flexibility Score: inf
ROOT
ATOM      1  C   UNL     1       4.913   2.214   0.590  1.00  0.00     0.042 C 
ENDROOT
BRANCH   1   2
ATOM      2  C   UNL     1       4.558   0.774   0.914  1.00  0.00     0.118 C 
BRANCH   2   3
ATOM      3  N   UNL     1       3.124   0.535   0.982  1.00  0.00    -0.352 N 
ATOM      4  O   UNL     1       1.113  -0.283   0.400  1.00  0.00    -0.269 OA
ATOM      5  C   UNL     1       2.333  -0.321   0.261  1.00  0.00     0.251 C 
ATOM      6  H   UNL     1       2.646   1.076   1.652  1.00  0.00     0.163 HD
BRANCH   5   7
ATOM      7  C   UNL     1       2.926  -1.272  -0.705  1.00  0.00     0.039 A 
ATOM      8  C   UNL     1       4.083  -2.003  -0.427  1.00  0.00     0.014 A 
ATOM      9  C   UNL     1       2.266  -1.473  -1.915  1.00  0.00     0.014 A 
ATOM     10  C   UNL     1       4.669  -2.794  -1.421  1.00  0.00     0.014 A 
ATOM     11  C   UNL     1       2.807  -2.339  -2.869  1.00  0.00     0.014 A 
ATOM     12  C   UNL     1       4.059  -2.941  -2.675  1.00  0.00     0.040 A 
BRANCH  12  13
ATOM     13  C   UNL     1       4.740  -3.831  -3.676  1.00  0.00     0.255 C 
ATOM     14  O   UNL     1       5.603  -4.617  -3.275  1.00  0.00    -0.269 OA
ATOM     15  N   UNL     1       4.360  -3.905  -5.001  1.00  0.00    -0.322 N 
ATOM     16  H   UNL     1       4.661  -4.711  -5.479  1.00  0.00     0.170 HD
BRANCH  15  17
ATOM     17  C   UNL     1       3.611  -3.007  -5.767  1.00  0.00     0.041 A 
ATOM     18  C   UNL     1       2.588  -3.522  -6.567  1.00  0.00     0.027 A 
ATOM     19  C   UNL     1       3.805  -1.630  -5.685  1.00  0.00     0.027 A 
ATOM     20  C   UNL     1       1.651  -2.657  -7.146  1.00  0.00     0.014 A 
ATOM     21  C   UNL     1       2.892  -0.772  -6.295  1.00  0.00     0.014 A 
ATOM     22  C   UNL     1       1.774  -1.272  -6.981  1.00  0.00     0.017 A 
BRANCH  22  23
ATOM     23  C   UNL     1       0.773  -0.311  -7.450  1.00  0.00     0.138 A 
ATOM     24  N   UNL     1       1.004   0.972  -7.647  1.00  0.00    -0.229 NA
ATOM     25  N   UNL     1      -0.566  -0.581  -7.632  1.00  0.00    -0.338 N 
ATOM     26  C   UNL     1      -0.207   1.547  -7.914  1.00  0.00     0.089 A 
ATOM     27  C   UNL     1      -1.218   0.596  -7.912  1.00  0.00     0.066 A 
ATOM     28  H   UNL     1      -0.986  -1.470  -7.572  1.00  0.00     0.168 HD
ATOM     29  C   UNL     1      -0.518   2.892  -8.148  1.00  0.00     0.030 A 
ATOM     30  C   UNL     1      -2.560   0.913  -8.137  1.00  0.00     0.028 A 
ATOM     31  C   UNL     1      -1.853   3.239  -8.374  1.00  0.00     0.002 A 
ATOM     32  C   UNL     1      -2.855   2.264  -8.369  1.00  0.00     0.002 A 
ENDBRANCH  22  23
ENDBRANCH  15  17
ENDBRANCH  12  13
ENDBRANCH   5   7
ENDBRANCH   2   3
ENDBRANCH   1   2
BRANCH   1  33
ATOM     33  C   UNL     1       4.398   3.231   1.592  1.00  0.00     0.118 C 
BRANCH  33  34
ATOM     34  N   UNL     1       4.905   3.013   2.942  1.00  0.00    -0.352 N 
ATOM     35  C   UNL     1       5.680   3.832   3.734  1.00  0.00     0.251 C 
ATOM     36  H   UNL     1       4.656   2.151   3.349  1.00  0.00     0.163 HD
ATOM     37  O   UNL     1       6.142   3.412   4.784  1.00  0.00    -0.269 OA
BRANCH  35  38
ATOM     38  C   UNL     1       5.966   5.213   3.288  1.00  0.00     0.039 A 
ATOM     39  C   UNL     1       7.272   5.702   3.372  1.00  0.00     0.014 A 
ATOM     40  C   UNL     1       4.949   6.007   2.758  1.00  0.00     0.014 A 
ATOM     41  C   UNL     1       7.573   6.960   2.842  1.00  0.00     0.010 A 
ATOM     42  C   UNL     1       5.268   7.209   2.142  1.00  0.00     0.010 A 
ATOM     43  C   UNL     1       6.581   7.703   2.183  1.00  0.00    -0.014 A 
BRANCH  43  44
ATOM     44  C   UNL     1       6.864   9.006   1.530  1.00  0.00     0.031 A 
ATOM     45  C   UNL     1       6.123  10.236   1.982  1.00  0.00     0.074 A 
ATOM     46  C   UNL     1       7.675   9.061   0.456  1.00  0.00     0.049 A 
ATOM     47  N   UNL     1       6.086  11.425   1.442  1.00  0.00    -0.248 NA
ATOM     48  C   UNL     1       5.278  10.094   3.181  1.00  0.00     0.031 C 
ATOM     49  C   UNL     1       8.405   7.928  -0.116  1.00  0.00     0.029 A 
ATOM     50  N   UNL     1       7.990  10.110  -0.373  1.00  0.00    -0.354 N 
ATOM     51  C   UNL     1       5.178  12.155   2.200  1.00  0.00     0.074 A 
ATOM     52  C   UNL     1       4.660  11.264   3.215  1.00  0.00     0.031 C 
ATOM     53  C   UNL     1       9.082   8.341  -1.200  1.00  0.00     0.029 A 
ATOM     54  C   UNL     1       8.800   9.755  -1.427  1.00  0.00     0.049 A 
ATOM     55  H   UNL     1       7.668  11.028  -0.226  1.00  0.00     0.167 HD
ATOM     56  C   UNL     1       4.827  13.458   2.082  1.00  0.00     0.034 A 
ATOM     57  C   UNL     1       9.248  10.482  -2.470  1.00  0.00     0.034 A 
ATOM     58  C   UNL     1       5.380  14.349   1.099  1.00  0.00     0.049 A 
ATOM     59  C   UNL     1       8.861  11.933  -2.569  1.00  0.00     0.074 A 
ATOM     60  C   UNL     1       5.152  15.704   0.942  1.00  0.00     0.029 A 
ATOM     61  N   UNL     1       6.267  13.973   0.102  1.00  0.00    -0.354 N 
ATOM     62  N   UNL     1       8.102  12.641  -1.769  1.00  0.00    -0.248 NA
ATOM     63  C   UNL     1       9.417  12.694  -3.697  1.00  0.00     0.031 C 
ATOM     64  C   UNL     1       5.883  16.142  -0.167  1.00  0.00     0.029 A 
ATOM     65  C   UNL     1       6.594  15.067  -0.678  1.00  0.00     0.049 A 
ATOM     66  H   UNL     1       6.613  13.061  -0.031  1.00  0.00     0.167 HD
ATOM     67  C   UNL     1       8.128  13.939  -2.266  1.00  0.00     0.074 A 
ATOM     68  C   UNL     1       8.984  13.920  -3.435  1.00  0.00     0.031 C 
ATOM     69  C   UNL     1       7.497  15.045  -1.800  1.00  0.00     0.034 A 
BRANCH  56  70
ATOM     70  C   UNL     1       3.828  14.001   3.071  1.00  0.00     0.023 A 
ATOM     71  C   UNL     1       4.193  14.143   4.427  1.00  0.00     0.012 A 
ATOM     72  C   UNL     1       2.541  14.398   2.660  1.00  0.00     0.148 A 
ATOM     73  C   UNL     1       3.279  14.622   5.364  1.00  0.00     0.002 A 
ATOM     74  C   UNL     1       1.652  14.922   3.591  1.00  0.00     0.091 A 
ATOM     75  F   UNL     1       2.201  14.237   1.373  1.00  0.00    -0.205 F 
ATOM     76  C   UNL     1       2.013  15.020   4.945  1.00  0.00     0.022 A 
BRANCH  74  77
ATOM     77  S   UNL     1       0.029  15.543   3.135  1.00  0.00     0.127 S 
ATOM     78  O   UNL     1      -0.846  14.504   3.675  1.00  0.00    -0.237 OA
ATOM     79  O   UNL     1      -0.026  16.818   3.851  1.00  0.00    -0.237 OA
ATOM     80  O   UNL     1       0.040  15.663   1.684  1.00  0.00    -0.744 OA
ENDBRANCH  74  77
ENDBRANCH  56  70
BRANCH  57  81
ATOM     81  C   UNL     1      10.172   9.866  -3.465  1.00  0.00     0.023 A 
ATOM     82  C   UNL     1      11.523  10.266  -3.485  1.00  0.00     0.012 A 
ATOM     83  C   UNL     1       9.737   8.871  -4.361  1.00  0.00     0.148 A 
ATOM     84  C   UNL     1      12.417   9.709  -4.399  1.00  0.00     0.002 A 
ATOM     85  C   UNL     1      10.645   8.282  -5.234  1.00  0.00     0.091 A 
ATOM     86  F   UNL     1       8.447   8.508  -4.329  1.00  0.00    -0.205 F 
ATOM     87  C   UNL     1      11.981   8.712  -5.266  1.00  0.00     0.022 A 
BRANCH  85  88
ATOM     88  S   UNL     1      10.210   6.904  -6.301  1.00  0.00     0.127 S 
ATOM     89  O   UNL     1      10.327   7.505  -7.627  1.00  0.00    -0.237 OA
ATOM     90  O   UNL     1      11.251   5.930  -5.971  1.00  0.00    -0.237 OA
ATOM     91  O   UNL     1       8.866   6.507  -5.905  1.00  0.00    -0.744 OA
ENDBRANCH  85  88
ENDBRANCH  57  81
BRANCH  69  92
ATOM     92  C   UNL     1       7.751  16.351  -2.505  1.00  0.00     0.023 A 
ATOM     93  C   UNL     1       7.183  16.596  -3.770  1.00  0.00     0.012 A 
ATOM     94  C   UNL     1       8.477  17.374  -1.861  1.00  0.00     0.148 A 
ATOM     95  C   UNL     1       7.355  17.831  -4.395  1.00  0.00     0.002 A 
ATOM     96  C   UNL     1       8.600  18.618  -2.466  1.00  0.00     0.091 A 
ATOM     97  F   UNL     1       9.025  17.113  -0.665  1.00  0.00    -0.205 F 
ATOM     98  C   UNL     1       8.050  18.845  -3.738  1.00  0.00     0.022 A 
BRANCH  96  99
ATOM     99  S   UNL     1       9.387  20.012  -1.652  1.00  0.00     0.127 S 
ATOM    100  O   UNL     1      10.608  20.168  -2.441  1.00  0.00    -0.237 OA
ATOM    101  O   UNL     1       8.400  21.076  -1.839  1.00  0.00    -0.237 OA
ATOM    102  O   UNL     1       9.588  19.610  -0.267  1.00  0.00    -0.744 OA
ENDBRANCH  96  99
ENDBRANCH  69  92
ENDBRANCH  43  44
ENDBRANCH  35  38
ENDBRANCH  33  34
ENDBRANCH   1  33
TORSDOF 16
