REMARK SMILES O=CN1CCC[C@@H](C(=O)NCCCNC(=O)c2ccc(-c3c4nc(c(-c5cccc(S(=O)(=O)[O-])c5F)c5ccc([nH]5)c(-c5cccc(S(=O)(=O)[O-])c5F)c5nc(c(-c6cccc(S(=O)(=O)[O-])c6F)c6ccc3[nH]6)C=C5)C=C4)cc2)C1
REMARK SMILES IDX 13 1 12 2 11 3 10 4 8 5 9 6 7 8 3 9 4 10 80 11 5 12 6 13
REMARK SMILES IDX 2 14 1 15 14 16 15 17 16 19 17 20 18 21 79 22 19 23 78 24
REMARK SMILES IDX 20 25 21 26 22 27 72 28 23 29 77 30 71 31 73 32 24 33 76 34
REMARK SMILES IDX 70 35 69 36 25 38 57 39 37 40 56 41 38 42 41 43 55 44 74 45
REMARK SMILES IDX 39 46 40 47 54 49 75 50 42 51 26 52 27 53 35 54 28 55 30 56
REMARK SMILES IDX 36 57 29 58 31 59 32 60 33 61 34 62 58 63 59 64 67 65 60 66
REMARK SMILES IDX 62 67 68 68 61 69 63 70 64 71 65 72 66 73 43 74 44 75 52 76
REMARK SMILES IDX 45 77 47 78 53 79 46 80 48 81 49 82 50 83 51 84
REMARK H PARENT 10 7 14 18 73 37 41 48
REMARK Flexibility Score: inf
ROOT
ATOM      1  C   UNL     1      -0.637   3.529  -4.237  1.00  0.00     0.118 C 
ENDROOT
BRANCH   1   2
ATOM      2  C   UNL     1       0.205   2.463  -3.536  1.00  0.00     0.042 C 
BRANCH   2   3
ATOM      3  C   UNL     1       1.525   2.194  -4.255  1.00  0.00     0.117 C 
BRANCH   3   4
ATOM      4  N   UNL     1       2.529   3.188  -3.930  1.00  0.00    -0.356 N 
ATOM      5  C   UNL     1       3.502   3.263  -2.993  1.00  0.00     0.224 C 
ATOM      6  O   UNL     1       4.170   4.306  -3.005  1.00  0.00    -0.275 OA
ATOM      7  H   UNL     1       2.496   3.977  -4.517  1.00  0.00     0.163 HD
BRANCH   5   8
ATOM      8  C   UNL     1       3.904   2.145  -2.035  1.00  0.00     0.098 C 
ATOM      9  N   UNL     1       3.402   0.127  -0.695  1.00  0.00    -0.344 N 
ATOM     10  C   UNL     1       4.593  -0.572  -1.148  1.00  0.00     0.119 C 
ATOM     11  C   UNL     1       2.850   1.146  -1.579  1.00  0.00     0.132 C 
ATOM     12  C   UNL     1       5.680   0.402  -1.584  1.00  0.00     0.022 C 
ATOM     13  C   UNL     1       5.148   1.429  -2.585  1.00  0.00     0.017 C 
BRANCH   9  14
ATOM     14  C   UNL     1       2.620  -0.382   0.322  1.00  0.00     0.339 C 
ATOM     15  O   UNL     1       1.494   0.003   0.608  1.00  0.00    -0.279 OA
ENDBRANCH   9  14
ENDBRANCH   5   8
ENDBRANCH   3   4
ENDBRANCH   2   3
ENDBRANCH   1   2
BRANCH   1  16
ATOM     16  N   UNL     1      -1.044   3.100  -5.572  1.00  0.00    -0.352 N 
ATOM     17  C   UNL     1      -2.288   2.808  -6.070  1.00  0.00     0.251 C 
ATOM     18  H   UNL     1      -0.308   3.005  -6.219  1.00  0.00     0.163 HD
ATOM     19  O   UNL     1      -2.382   2.182  -7.123  1.00  0.00    -0.269 OA
BRANCH  17  20
ATOM     20  C   UNL     1      -3.502   3.257  -5.360  1.00  0.00     0.039 A 
ATOM     21  C   UNL     1      -4.629   2.430  -5.343  1.00  0.00     0.014 A 
ATOM     22  C   UNL     1      -3.547   4.516  -4.757  1.00  0.00     0.014 A 
ATOM     23  C   UNL     1      -5.783   2.849  -4.680  1.00  0.00     0.010 A 
ATOM     24  C   UNL     1      -4.663   4.892  -4.021  1.00  0.00     0.010 A 
ATOM     25  C   UNL     1      -5.800   4.072  -3.989  1.00  0.00    -0.014 A 
BRANCH  25  26
ATOM     26  C   UNL     1      -6.994   4.519  -3.231  1.00  0.00     0.031 A 
ATOM     27  C   UNL     1      -7.690   5.799  -3.606  1.00  0.00     0.074 A 
ATOM     28  C   UNL     1      -7.386   3.824  -2.146  1.00  0.00     0.049 A 
ATOM     29  N   UNL     1      -8.691   6.397  -3.014  1.00  0.00    -0.248 NA
ATOM     30  C   UNL     1      -7.170   6.523  -4.779  1.00  0.00     0.031 C 
ATOM     31  C   UNL     1      -6.731   2.619  -1.632  1.00  0.00     0.029 A 
ATOM     32  N   UNL     1      -8.408   4.050  -1.260  1.00  0.00    -0.354 N 
ATOM     33  C   UNL     1      -8.896   7.579  -3.717  1.00  0.00     0.074 A 
ATOM     34  C   UNL     1      -7.886   7.637  -4.750  1.00  0.00     0.031 C 
ATOM     35  C   UNL     1      -7.367   2.211  -0.523  1.00  0.00     0.029 A 
ATOM     36  C   UNL     1      -8.451   3.142  -0.228  1.00  0.00     0.049 A 
ATOM     37  H   UNL     1      -9.050   4.791  -1.354  1.00  0.00     0.167 HD
ATOM     38  C   UNL     1      -9.858   8.516  -3.541  1.00  0.00     0.034 A 
ATOM     39  C   UNL     1      -9.265   3.075   0.843  1.00  0.00     0.034 A 
ATOM     40  C   UNL     1     -10.882   8.431  -2.534  1.00  0.00     0.049 A 
ATOM     41  C   UNL     1     -10.356   4.099   0.992  1.00  0.00     0.074 A 
ATOM     42  C   UNL     1     -11.953   9.278  -2.321  1.00  0.00     0.029 A 
ATOM     43  N   UNL     1     -10.956   7.440  -1.566  1.00  0.00    -0.354 N 
ATOM     44  N   UNL     1     -10.631   5.127   0.226  1.00  0.00    -0.248 NA
ATOM     45  C   UNL     1     -11.273   3.933   2.127  1.00  0.00     0.031 C 
ATOM     46  C   UNL     1     -12.662   8.813  -1.208  1.00  0.00     0.029 A 
ATOM     47  C   UNL     1     -12.051   7.657  -0.748  1.00  0.00     0.049 A 
ATOM     48  H   UNL     1     -10.322   6.692  -1.474  1.00  0.00     0.167 HD
ATOM     49  C   UNL     1     -11.769   5.712   0.766  1.00  0.00     0.074 A 
ATOM     50  C   UNL     1     -12.145   4.908   1.912  1.00  0.00     0.031 C 
ATOM     51  C   UNL     1     -12.436   6.821   0.361  1.00  0.00     0.034 A 
BRANCH  38  52
ATOM     52  C   UNL     1      -9.877   9.684  -4.495  1.00  0.00     0.023 A 
ATOM     53  C   UNL     1     -10.221   9.472  -5.847  1.00  0.00     0.012 A 
ATOM     54  C   UNL     1      -9.592  10.991  -4.054  1.00  0.00     0.148 A 
ATOM     55  C   UNL     1     -10.235  10.531  -6.754  1.00  0.00     0.002 A 
ATOM     56  C   UNL     1      -9.657  12.050  -4.954  1.00  0.00     0.091 A 
ATOM     57  F   UNL     1      -9.248  11.174  -2.772  1.00  0.00    -0.205 F 
ATOM     58  C   UNL     1      -9.963  11.819  -6.306  1.00  0.00     0.022 A 
BRANCH  56  59
ATOM     59  S   UNL     1      -9.403  13.758  -4.461  1.00  0.00     0.127 S 
ATOM     60  O   UNL     1      -8.109  14.053  -5.073  1.00  0.00    -0.237 OA
ATOM     61  O   UNL     1     -10.541  14.431  -5.089  1.00  0.00    -0.237 OA
ATOM     62  O   UNL     1      -9.423  13.764  -3.006  1.00  0.00    -0.744 OA
ENDBRANCH  56  59
ENDBRANCH  38  52
BRANCH  39  63
ATOM     63  C   UNL     1      -9.110   1.961   1.820  1.00  0.00     0.023 A 
ATOM     64  C   UNL     1     -10.079   0.941   1.869  1.00  0.00     0.012 A 
ATOM     65  C   UNL     1      -7.984   1.881   2.663  1.00  0.00     0.148 A 
ATOM     66  C   UNL     1      -9.947  -0.124   2.761  1.00  0.00     0.002 A 
ATOM     67  C   UNL     1      -7.831   0.790   3.510  1.00  0.00     0.091 A 
ATOM     68  F   UNL     1      -7.077   2.865   2.604  1.00  0.00    -0.205 F 
ATOM     69  C   UNL     1      -8.819  -0.205   3.573  1.00  0.00     0.022 A 
BRANCH  67  70
ATOM     70  S   UNL     1      -6.352   0.533   4.496  1.00  0.00     0.127 S 
ATOM     71  O   UNL     1      -6.861   0.718   5.852  1.00  0.00    -0.237 OA
ATOM     72  O   UNL     1      -5.999  -0.845   4.153  1.00  0.00    -0.237 OA
ATOM     73  O   UNL     1      -5.395   1.532   4.039  1.00  0.00    -0.744 OA
ENDBRANCH  67  70
ENDBRANCH  39  63
BRANCH  51  74
ATOM     74  C   UNL     1     -13.665   7.218   1.136  1.00  0.00     0.023 A 
ATOM     75  C   UNL     1     -13.535   7.763   2.428  1.00  0.00     0.012 A 
ATOM     76  C   UNL     1     -14.943   7.117   0.551  1.00  0.00     0.148 A 
ATOM     77  C   UNL     1     -14.662   8.172   3.140  1.00  0.00     0.002 A 
ATOM     78  C   UNL     1     -16.055   7.575   1.246  1.00  0.00     0.091 A 
ATOM     79  F   UNL     1     -15.046   6.578  -0.672  1.00  0.00    -0.205 F 
ATOM     80  C   UNL     1     -15.919   8.090   2.545  1.00  0.00     0.022 A 
BRANCH  78  81
ATOM     81  S   UNL     1     -17.699   7.600   0.522  1.00  0.00     0.127 S 
ATOM     82  O   UNL     1     -18.370   6.539   1.271  1.00  0.00    -0.237 OA
ATOM     83  O   UNL     1     -18.156   8.954   0.838  1.00  0.00    -0.237 OA
ATOM     84  O   UNL     1     -17.517   7.341  -0.900  1.00  0.00    -0.744 OA
ENDBRANCH  78  81
ENDBRANCH  51  74
ENDBRANCH  25  26
ENDBRANCH  17  20
ENDBRANCH   1  16
TORSDOF 14
