REMARK SMILES Cc1ccccc1NC(=S)NN1C(=O)CS[C@H]1c1ccccc1C(=O)NCCCNC(=O)c1ccc(-c2c3nc(c(-c4cccc(S(=O)(=O)[O-])c4F)c4ccc([nH]4)c(-c4cccc(S(=O)(=O)[O-])c4F)c4nc(c(-c5cccc(S(=O)(=O)[O-])c5F)c5ccc2[nH]5)C=C4)C=C3)cc1
REMARK SMILES IDX 27 1 26 2 24 3 25 4 23 6 18 7 19 8 20 9 22 10 21 11 17 12
REMARK SMILES IDX 12 13 13 14 14 15 15 16 16 17 11 18 9 20 10 21 8 22 7 24
REMARK SMILES IDX 1 25 2 26 3 27 4 28 6 29 5 30 28 31 29 32 30 33 31 34 32 36
REMARK SMILES IDX 33 37 34 38 95 39 35 40 94 41 36 42 37 43 38 44 88 45 39 46
REMARK SMILES IDX 93 47 87 48 89 49 40 50 92 51 86 52 85 53 41 55 73 56 53 57
REMARK SMILES IDX 72 58 54 59 57 60 71 61 90 62 55 63 56 64 70 66 91 67 58 68
REMARK SMILES IDX 42 69 43 70 51 71 44 72 46 73 52 74 45 75 47 76 48 77 49 78
REMARK SMILES IDX 50 79 74 80 75 81 83 82 76 83 78 84 84 85 77 86 79 87 80 88
REMARK SMILES IDX 81 89 82 90 59 91 60 92 68 93 61 94 63 95 69 96 62 97 64 98
REMARK SMILES IDX 65 99 66 100 67 101
REMARK H PARENT 26 5 11 19 8 23 30 35 89 54 57 65
REMARK Flexibility Score: inf
ROOT
ATOM      1  C   UNL     1      -2.084   1.569  -0.100  1.00  0.00     0.118 C 
ENDROOT
BRANCH   1   2
ATOM      2  N   UNL     1      -0.971   3.148  -0.245  1.00  0.00    -0.352 N 
ATOM      3  C   UNL     1      -1.450   4.681  -0.528  1.00  0.00     0.251 C 
ATOM      4  O   UNL     1      -0.579   5.499  -0.836  1.00  0.00    -0.269 OA
ATOM      5  H   UNL     1      -0.003   3.009  -0.135  1.00  0.00     0.163 HD
BRANCH   3   6
ATOM      6  C   UNL     1      -3.113   5.279  -0.422  1.00  0.00     0.046 A 
ATOM      7  C   UNL     1      -4.382   4.439  -0.325  1.00  0.00    -0.001 A 
ATOM      8  C   UNL     1      -5.624   5.006  -0.036  1.00  0.00     0.007 A 
ATOM      9  C   UNL     1      -5.707   6.383   0.134  1.00  0.00     0.000 A 
ATOM     10  C   UNL     1      -3.285   6.660  -0.280  1.00  0.00     0.014 A 
ATOM     11  C   UNL     1      -4.568   7.195  -0.010  1.00  0.00     0.001 A 
BRANCH   7  12
ATOM     12  C   UNL     1      -4.317   2.990  -0.801  1.00  0.00     0.197 C 
ATOM     13  N   UNL     1      -2.858   3.003  -0.879  1.00  0.00    -0.236 N 
ATOM     14  C   UNL     1      -1.741   1.720  -1.766  1.00  0.00     0.252 C 
ATOM     15  O   UNL     1      -0.750   1.914  -2.436  1.00  0.00    -0.272 OA
ATOM     16  C   UNL     1      -2.644  -0.009  -0.818  1.00  0.00     0.174 C 
ATOM     17  S   UNL     1      -4.529   1.068   0.234  1.00  0.00    -0.120 SA
BRANCH  13  18
ATOM     18  N   UNL     1      -2.694   3.221   1.050  1.00  0.00    -0.270 N 
ATOM     19  H   UNL     1      -3.443   3.749   1.408  1.00  0.00     0.191 HD
BRANCH  18  20
ATOM     20  C   UNL     1      -1.760   2.818   2.144  1.00  0.00     0.189 C 
ATOM     21  S   UNL     1      -1.478   3.985   3.331  1.00  0.00    -0.039 S 
BRANCH  20  22
ATOM     22  N   UNL     1      -0.933   1.679   2.166  1.00  0.00    -0.331 N 
ATOM     23  H   UNL     1      -0.030   1.853   1.813  1.00  0.00     0.169 HD
BRANCH  22  24
ATOM     24  C   UNL     1      -1.125   0.269   2.606  1.00  0.00     0.043 A 
ATOM     25  C   UNL     1       0.947  -0.954   3.589  1.00  0.00     0.046 C 
ATOM     26  C   UNL     1      -0.091  -0.703   2.479  1.00  0.00    -0.028 A 
ATOM     27  C   UNL     1      -0.311  -1.915   1.787  1.00  0.00     0.005 A 
ATOM     28  C   UNL     1      -1.603  -2.347   1.603  1.00  0.00     0.000 A 
ATOM     29  C   UNL     1      -2.404  -0.267   2.642  1.00  0.00     0.026 A 
ATOM     30  C   UNL     1      -2.637  -1.570   2.133  1.00  0.00     0.002 A 
ENDBRANCH  22  24
ENDBRANCH  20  22
ENDBRANCH  18  20
ENDBRANCH  13  18
ENDBRANCH   7  12
ENDBRANCH   3   6
ENDBRANCH   1   2
BRANCH   1  31
ATOM     31  C   UNL     1      -3.407   1.240  -1.888  1.00  0.00     0.042 C 
BRANCH  31  32
ATOM     32  C   UNL     1      -2.717   0.034  -3.182  1.00  0.00     0.118 C 
BRANCH  32  33
ATOM     33  N   UNL     1      -1.519  -0.750  -2.740  1.00  0.00    -0.352 N 
ATOM     34  C   UNL     1      -0.855  -1.829  -3.288  1.00  0.00     0.251 C 
ATOM     35  H   UNL     1      -1.130  -0.434  -1.892  1.00  0.00     0.163 HD
ATOM     36  O   UNL     1      -1.346  -2.901  -3.579  1.00  0.00    -0.269 OA
BRANCH  34  37
ATOM     37  C   UNL     1       0.595  -1.446  -3.397  1.00  0.00     0.039 A 
ATOM     38  C   UNL     1       1.665  -2.157  -2.877  1.00  0.00     0.014 A 
ATOM     39  C   UNL     1       0.765  -0.102  -3.767  1.00  0.00     0.014 A 
ATOM     40  C   UNL     1       2.846  -1.451  -2.605  1.00  0.00     0.010 A 
ATOM     41  C   UNL     1       1.823   0.621  -3.284  1.00  0.00     0.010 A 
ATOM     42  C   UNL     1       2.869  -0.051  -2.673  1.00  0.00    -0.014 A 
BRANCH  42  43
ATOM     43  C   UNL     1       4.075   0.760  -2.608  1.00  0.00     0.031 A 
ATOM     44  C   UNL     1       5.015   0.482  -3.708  1.00  0.00     0.074 A 
ATOM     45  C   UNL     1       4.215   1.805  -1.762  1.00  0.00     0.049 A 
ATOM     46  N   UNL     1       6.296   0.497  -3.594  1.00  0.00    -0.248 NA
ATOM     47  C   UNL     1       4.546  -0.042  -5.003  1.00  0.00     0.031 C 
ATOM     48  C   UNL     1       5.000   3.017  -1.961  1.00  0.00     0.029 A 
ATOM     49  N   UNL     1       3.701   1.969  -0.472  1.00  0.00    -0.354 N 
ATOM     50  C   UNL     1       6.764   0.363  -4.885  1.00  0.00     0.074 A 
ATOM     51  C   UNL     1       5.706  -0.277  -5.613  1.00  0.00     0.031 C 
ATOM     52  C   UNL     1       5.112   3.667  -0.788  1.00  0.00     0.029 A 
ATOM     53  C   UNL     1       4.592   2.794   0.246  1.00  0.00     0.049 A 
ATOM     54  H   UNL     1       2.866   1.578  -0.127  1.00  0.00     0.167 HD
ATOM     55  C   UNL     1       7.793   1.156  -5.292  1.00  0.00     0.034 A 
ATOM     56  C   UNL     1       5.268   2.431   1.388  1.00  0.00     0.034 A 
ATOM     57  C   UNL     1       8.236   2.001  -4.171  1.00  0.00     0.049 A 
ATOM     58  C   UNL     1       6.737   2.592   1.358  1.00  0.00     0.074 A 
ATOM     59  C   UNL     1       7.921   3.309  -3.838  1.00  0.00     0.029 A 
ATOM     60  N   UNL     1       8.788   1.428  -3.034  1.00  0.00    -0.354 N 
ATOM     61  N   UNL     1       7.394   2.924   0.296  1.00  0.00    -0.248 NA
ATOM     62  C   UNL     1       7.582   2.154   2.467  1.00  0.00     0.031 C 
ATOM     63  C   UNL     1       8.267   3.509  -2.479  1.00  0.00     0.029 A 
ATOM     64  C   UNL     1       8.806   2.334  -1.982  1.00  0.00     0.049 A 
ATOM     65  H   UNL     1       9.122   0.503  -2.980  1.00  0.00     0.167 HD
ATOM     66  C   UNL     1       8.614   2.333   0.418  1.00  0.00     0.074 A 
ATOM     67  C   UNL     1       8.760   2.065   1.839  1.00  0.00     0.031 C 
ATOM     68  C   UNL     1       9.316   1.930  -0.676  1.00  0.00     0.034 A 
BRANCH  55  69
ATOM     69  C   UNL     1       8.115   1.497  -6.743  1.00  0.00     0.023 A 
ATOM     70  C   UNL     1       8.897   2.656  -6.947  1.00  0.00     0.012 A 
ATOM     71  C   UNL     1       7.710   0.815  -7.918  1.00  0.00     0.148 A 
ATOM     72  C   UNL     1       9.197   3.157  -8.215  1.00  0.00     0.002 A 
ATOM     73  C   UNL     1       7.982   1.331  -9.191  1.00  0.00     0.091 A 
ATOM     74  F   UNL     1       7.115  -0.375  -7.836  1.00  0.00    -0.205 F 
ATOM     75  C   UNL     1       8.723   2.505  -9.340  1.00  0.00     0.022 A 
BRANCH  73  76
ATOM     76  S   UNL     1       7.402   0.554 -10.712  1.00  0.00     0.127 S 
ATOM     77  O   UNL     1       6.716   1.662 -11.382  1.00  0.00    -0.237 OA
ATOM     78  O   UNL     1       8.653   0.145 -11.348  1.00  0.00    -0.237 OA
ATOM     79  O   UNL     1       6.521  -0.536 -10.311  1.00  0.00    -0.744 OA
ENDBRANCH  73  76
ENDBRANCH  55  69
BRANCH  56  80
ATOM     80  C   UNL     1       4.736   1.330   2.254  1.00  0.00     0.023 A 
ATOM     81  C   UNL     1       3.536   1.709   2.815  1.00  0.00     0.012 A 
ATOM     82  C   UNL     1       4.885   0.024   1.751  1.00  0.00     0.148 A 
ATOM     83  C   UNL     1       2.438   1.190   2.178  1.00  0.00     0.002 A 
ATOM     84  C   UNL     1       3.763  -0.613   1.281  1.00  0.00     0.091 A 
ATOM     85  F   UNL     1       6.109  -0.515   1.671  1.00  0.00    -0.205 F 
ATOM     86  C   UNL     1       2.559   0.087   1.315  1.00  0.00     0.022 A 
BRANCH  84  87
ATOM     87  S   UNL     1       3.829  -2.297   0.708  1.00  0.00     0.127 S 
ATOM     88  O   UNL     1       4.039  -3.032   1.952  1.00  0.00    -0.237 OA
ATOM     89  O   UNL     1       2.501  -2.508   0.130  1.00  0.00    -0.237 OA
ATOM     90  O   UNL     1       4.926  -2.317  -0.246  1.00  0.00    -0.744 OA
ENDBRANCH  84  87
ENDBRANCH  56  80
BRANCH  68  91
ATOM     91  C   UNL     1      10.582   1.147  -0.542  1.00  0.00     0.023 A 
ATOM     92  C   UNL     1      10.828   0.258   0.523  1.00  0.00     0.012 A 
ATOM     93  C   UNL     1      11.588   1.300  -1.512  1.00  0.00     0.148 A 
ATOM     94  C   UNL     1      12.100  -0.265   0.746  1.00  0.00     0.002 A 
ATOM     95  C   UNL     1      12.802   0.655  -1.367  1.00  0.00     0.091 A 
ATOM     96  F   UNL     1      11.390   2.118  -2.555  1.00  0.00    -0.205 F 
ATOM     97  C   UNL     1      13.092  -0.062  -0.203  1.00  0.00     0.022 A 
BRANCH  95  98
ATOM     98  S   UNL     1      13.992   0.642  -2.701  1.00  0.00     0.127 S 
ATOM     99  O   UNL     1      14.909   1.704  -2.293  1.00  0.00    -0.237 OA
ATOM    100  O   UNL     1      14.541  -0.711  -2.609  1.00  0.00    -0.237 OA
ATOM    101  O   UNL     1      13.222   0.892  -3.913  1.00  0.00    -0.744 OA
ENDBRANCH  95  98
ENDBRANCH  68  91
ENDBRANCH  42  43
ENDBRANCH  34  37
ENDBRANCH  32  33
ENDBRANCH  31  32
ENDBRANCH   1  31
TORSDOF 18
