REMARK SMILES Cc1c(CCC(=O)N2CCC(C(=O)NCCCNC(=O)c3ccc(-c4c5nc(c(-c6cccc(S(=O)(=O)[O-])c6F)c6ccc([nH]6)c(-c6cccc(S(=O)(=O)[O-])c6F)c6nc(c(-c7cccc(S(=O)(=O)[O-])c7F)c7ccc4[nH]7)C=C6)C=C5)cc3)CC2)c(=O)oc2cc3oc4c(c3cc12)CCCC4
REMARK SMILES IDX 16 1 15 2 14 3 12 4 13 5 11 7 6 8 7 9 8 10 9 11 85 12 10 13
REMARK SMILES IDX 84 14 5 15 4 16 3 17 1 18 2 19 97 20 86 21 89 22 96 23 87 24
REMARK SMILES IDX 88 25 90 26 95 27 91 28 94 29 92 30 93 31 98 32 101 33 99 34
REMARK SMILES IDX 100 35 17 36 18 37 19 38 20 40 21 41 22 42 83 43 23 44 82 45
REMARK SMILES IDX 24 46 25 47 26 48 76 49 27 50 81 51 75 52 77 53 28 54 80 55
REMARK SMILES IDX 74 56 73 57 29 59 61 60 41 61 60 62 42 63 45 64 59 65 78 66
REMARK SMILES IDX 43 67 44 68 58 70 79 71 46 72 30 73 31 74 39 75 32 76 34 77
REMARK SMILES IDX 40 78 33 79 35 80 36 81 37 82 38 83 62 84 63 85 71 86 64 87
REMARK SMILES IDX 66 88 72 89 65 90 67 91 68 92 69 93 70 94 47 95 48 96 56 97
REMARK SMILES IDX 49 98 51 99 57 100 50 101 52 102 53 103 54 104 55 105
REMARK H PARENT 14 6 18 39 77 58 45 69
REMARK Flexibility Score: inf
ROOT
ATOM      1  C   UNL     1       1.995  -0.509  -4.943  1.00  0.00     0.042 C 
ENDROOT
BRANCH   1   2
ATOM      2  C   UNL     1       1.078   0.201  -3.953  1.00  0.00     0.117 C 
BRANCH   2   3
ATOM      3  N   UNL     1       0.705  -0.727  -2.916  1.00  0.00    -0.356 N 
ATOM      4  C   UNL     1       1.658  -1.495  -2.322  1.00  0.00     0.223 C 
ATOM      5  O   UNL     1       1.542  -2.718  -2.435  1.00  0.00    -0.275 OA
ATOM      6  H   UNL     1      -0.236  -0.806  -2.638  1.00  0.00     0.163 HD
BRANCH   4   7
ATOM      7  C   UNL     1       2.648  -0.897  -1.331  1.00  0.00     0.082 C 
ATOM      8  C   UNL     1       2.506   1.854   1.568  1.00  0.00     0.222 C 
ATOM      9  O   UNL     1       2.773   3.015   1.257  1.00  0.00    -0.275 OA
ATOM     10  N   UNL     1       3.178   0.785   0.973  1.00  0.00    -0.343 N 
ATOM     11  C   UNL     1       4.105   0.926  -0.187  1.00  0.00     0.120 C 
ATOM     12  C   UNL     1       2.619  -0.518   1.067  1.00  0.00     0.120 C 
ATOM     13  C   UNL     1       3.566   0.310  -1.544  1.00  0.00     0.035 C 
ATOM     14  C   UNL     1       1.764  -0.535  -0.165  1.00  0.00     0.035 C 
BRANCH   8  15
ATOM     15  C   UNL     1       1.500   1.579   2.750  1.00  0.00     0.105 C 
BRANCH  15  16
ATOM     16  C   UNL     1       0.035   1.040   2.564  1.00  0.00     0.053 C 
BRANCH  16  17
ATOM     17  C   UNL     1      -0.240  -0.472   2.664  1.00  0.00     0.042 A 
ATOM     18  C   UNL     1      -1.381  -0.757   0.403  1.00  0.00     0.046 C 
ATOM     19  C   UNL     1      -0.689  -1.237   1.651  1.00  0.00    -0.030 A 
ATOM     20  C   UNL     1      -0.348  -2.662   1.738  1.00  0.00     0.022 A 
ATOM     21  C   UNL     1      -0.216  -1.167   4.003  1.00  0.00     0.339 A 
ATOM     22  C   UNL     1      -0.606  -3.319   2.918  1.00  0.00     0.142 A 
ATOM     23  C   UNL     1       0.324  -3.364   0.739  1.00  0.00     0.024 A 
ATOM     24  O   UNL     1       0.104  -0.570   5.027  1.00  0.00    -0.246 OA
ATOM     25  O   UNL     1      -0.727  -2.498   4.061  1.00  0.00    -0.422 OA
ATOM     26  C   UNL     1      -0.674  -4.730   2.974  1.00  0.00     0.095 A 
ATOM     27  C   UNL     1       0.485  -4.737   0.825  1.00  0.00     0.025 A 
ATOM     28  C   UNL     1      -0.207  -5.400   1.826  1.00  0.00     0.138 A 
ATOM     29  C   UNL     1       1.076  -5.697  -0.009  1.00  0.00     0.001 A 
ATOM     30  O   UNL     1      -0.391  -6.706   1.400  1.00  0.00    -0.461 OA
ATOM     31  C   UNL     1       0.270  -6.787   0.200  1.00  0.00     0.108 A 
ATOM     32  C   UNL     1       1.935  -5.583  -1.216  1.00  0.00     0.040 C 
ATOM     33  C   UNL     1      -0.146  -7.668  -0.927  1.00  0.00     0.076 C 
ATOM     34  C   UNL     1       1.188  -6.037  -2.482  1.00  0.00     0.005 C 
ATOM     35  C   UNL     1      -0.150  -6.773  -2.212  1.00  0.00     0.008 C 
ENDBRANCH  16  17
ENDBRANCH  15  16
ENDBRANCH   8  15
ENDBRANCH   4   7
ENDBRANCH   2   3
ENDBRANCH   1   2
BRANCH   1  36
ATOM     36  C   UNL     1       1.355  -1.726  -5.635  1.00  0.00     0.118 C 
BRANCH  36  37
ATOM     37  N   UNL     1       0.246  -1.448  -6.538  1.00  0.00    -0.352 N 
ATOM     38  C   UNL     1       0.262  -0.745  -7.727  1.00  0.00     0.251 C 
ATOM     39  H   UNL     1      -0.628  -1.807  -6.265  1.00  0.00     0.163 HD
ATOM     40  O   UNL     1      -0.721  -0.668  -8.436  1.00  0.00    -0.269 OA
BRANCH  38  41
ATOM     41  C   UNL     1       1.524  -0.060  -8.066  1.00  0.00     0.039 A 
ATOM     42  C   UNL     1       2.667  -0.834  -8.294  1.00  0.00     0.014 A 
ATOM     43  C   UNL     1       1.603   1.316  -7.834  1.00  0.00     0.014 A 
ATOM     44  C   UNL     1       3.916  -0.251  -8.137  1.00  0.00     0.010 A 
ATOM     45  C   UNL     1       2.860   1.903  -7.707  1.00  0.00     0.010 A 
ATOM     46  C   UNL     1       4.013   1.108  -7.806  1.00  0.00    -0.014 A 
BRANCH  46  47
ATOM     47  C   UNL     1       5.362   1.667  -7.656  1.00  0.00     0.031 A 
ATOM     48  C   UNL     1       5.715   2.609  -8.748  1.00  0.00     0.074 A 
ATOM     49  C   UNL     1       6.006   1.763  -6.473  1.00  0.00     0.049 A 
ATOM     50  N   UNL     1       5.287   3.834  -8.743  1.00  0.00    -0.248 NA
ATOM     51  C   UNL     1       6.291   2.178 -10.017  1.00  0.00     0.031 C 
ATOM     52  C   UNL     1       5.341   1.819  -5.164  1.00  0.00     0.029 A 
ATOM     53  N   UNL     1       7.321   2.064  -6.196  1.00  0.00    -0.354 N 
ATOM     54  C   UNL     1       5.457   4.326 -10.019  1.00  0.00     0.074 A 
ATOM     55  C   UNL     1       6.112   3.275 -10.770  1.00  0.00     0.031 C 
ATOM     56  C   UNL     1       6.206   2.335  -4.264  1.00  0.00     0.029 A 
ATOM     57  C   UNL     1       7.520   2.486  -4.882  1.00  0.00     0.049 A 
ATOM     58  H   UNL     1       8.046   1.989  -6.858  1.00  0.00     0.167 HD
ATOM     59  C   UNL     1       5.031   5.562 -10.386  1.00  0.00     0.034 A 
ATOM     60  C   UNL     1       8.462   3.390  -4.490  1.00  0.00     0.034 A 
ATOM     61  C   UNL     1       4.372   6.320  -9.361  1.00  0.00     0.049 A 
ATOM     62  C   UNL     1       7.960   4.649  -5.157  1.00  0.00     0.074 A 
ATOM     63  C   UNL     1       3.071   6.539  -8.959  1.00  0.00     0.029 A 
ATOM     64  N   UNL     1       5.140   6.939  -8.403  1.00  0.00    -0.354 N 
ATOM     65  N   UNL     1       6.966   5.390  -4.739  1.00  0.00    -0.248 NA
ATOM     66  C   UNL     1       8.352   4.886  -6.547  1.00  0.00     0.031 C 
ATOM     67  C   UNL     1       3.149   6.886  -7.572  1.00  0.00     0.029 A 
ATOM     68  C   UNL     1       4.490   6.793  -7.201  1.00  0.00     0.049 A 
ATOM     69  H   UNL     1       5.997   7.401  -8.551  1.00  0.00     0.167 HD
ATOM     70  C   UNL     1       6.422   5.967  -5.891  1.00  0.00     0.074 A 
ATOM     71  C   UNL     1       7.339   5.633  -6.962  1.00  0.00     0.031 C 
ATOM     72  C   UNL     1       5.182   6.537  -5.953  1.00  0.00     0.034 A 
BRANCH  59  73
ATOM     73  C   UNL     1       5.367   6.184 -11.681  1.00  0.00     0.023 A 
ATOM     74  C   UNL     1       6.482   7.044 -11.687  1.00  0.00     0.012 A 
ATOM     75  C   UNL     1       4.561   6.077 -12.825  1.00  0.00     0.148 A 
ATOM     76  C   UNL     1       6.770   7.828 -12.798  1.00  0.00     0.002 A 
ATOM     77  C   UNL     1       4.859   6.858 -13.937  1.00  0.00     0.091 A 
ATOM     78  F   UNL     1       3.502   5.255 -12.792  1.00  0.00    -0.205 F 
ATOM     79  C   UNL     1       5.954   7.741 -13.920  1.00  0.00     0.022 A 
BRANCH  77  80
ATOM     80  S   UNL     1       3.889   6.815 -15.448  1.00  0.00     0.127 S 
ATOM     81  O   UNL     1       3.161   8.080 -15.378  1.00  0.00    -0.237 OA
ATOM     82  O   UNL     1       4.928   6.766 -16.479  1.00  0.00    -0.237 OA
ATOM     83  O   UNL     1       3.076   5.609 -15.361  1.00  0.00    -0.744 OA
ENDBRANCH  77  80
ENDBRANCH  59  73
BRANCH  60  84
ATOM     84  C   UNL     1       9.879   2.891  -4.594  1.00  0.00     0.023 A 
ATOM     85  C   UNL     1      10.153   1.621  -4.027  1.00  0.00     0.012 A 
ATOM     86  C   UNL     1      10.949   3.562  -5.213  1.00  0.00     0.148 A 
ATOM     87  C   UNL     1      11.394   0.996  -4.174  1.00  0.00     0.002 A 
ATOM     88  C   UNL     1      12.163   2.907  -5.424  1.00  0.00     0.091 A 
ATOM     89  F   UNL     1      10.791   4.836  -5.589  1.00  0.00    -0.205 F 
ATOM     90  C   UNL     1      12.389   1.625  -4.907  1.00  0.00     0.022 A 
BRANCH  88  91
ATOM     91  S   UNL     1      13.464   3.593  -6.460  1.00  0.00     0.127 S 
ATOM     92  O   UNL     1      14.612   3.578  -5.556  1.00  0.00    -0.237 OA
ATOM     93  O   UNL     1      13.517   2.612  -7.543  1.00  0.00    -0.237 OA
ATOM     94  O   UNL     1      12.999   4.916  -6.854  1.00  0.00    -0.744 OA
ENDBRANCH  88  91
ENDBRANCH  60  84
BRANCH  72  95
ATOM     95  C   UNL     1       4.455   6.715  -4.653  1.00  0.00     0.023 A 
ATOM     96  C   UNL     1       4.953   7.649  -3.725  1.00  0.00     0.012 A 
ATOM     97  C   UNL     1       3.239   6.059  -4.374  1.00  0.00     0.148 A 
ATOM     98  C   UNL     1       4.245   7.947  -2.560  1.00  0.00     0.002 A 
ATOM     99  C   UNL     1       2.511   6.397  -3.237  1.00  0.00     0.091 A 
ATOM    100  F   UNL     1       2.781   5.140  -5.238  1.00  0.00    -0.205 F 
ATOM    101  C   UNL     1       3.016   7.334  -2.323  1.00  0.00     0.022 A 
BRANCH  99 102
ATOM    102  S   UNL     1       0.873   5.718  -2.933  1.00  0.00     0.127 S 
ATOM    103  O   UNL     1       0.831   5.603  -1.475  1.00  0.00    -0.237 OA
ATOM    104  O   UNL     1       0.008   6.762  -3.479  1.00  0.00    -0.237 OA
ATOM    105  O   UNL     1       0.839   4.436  -3.629  1.00  0.00    -0.744 OA
ENDBRANCH  99 102
ENDBRANCH  72  95
ENDBRANCH  46  47
ENDBRANCH  38  41
ENDBRANCH  36  37
ENDBRANCH   1  36
TORSDOF 16
