REMARK SMILES O=C(NCCCNC(=O)[C@]1(NC(=O)C2CCN(C(=O)C3CC3)CC2)CCCc2ccccc21)c1ccc(-c2c3nc(c(-c4cccc(S(=O)(=O)[O-])c4F)c4ccc([nH]4)c(-c4cccc(S(=O)(=O)[O-])c4F)c4nc(c(-c5cccc(S(=O)(=O)[O-])c5F)c5ccc2[nH]5)C=C4)C=C3)cc1
REMARK SMILES IDX 5 1 4 2 3 3 1 4 2 5 34 7 35 8 96 9 36 10 95 11 37 12 38 13
REMARK SMILES IDX 39 14 89 15 40 16 94 17 88 18 90 19 41 20 93 21 87 22 86 23
REMARK SMILES IDX 42 25 74 26 54 27 73 28 55 29 58 30 72 31 91 32 56 33 57 34
REMARK SMILES IDX 71 36 92 37 59 38 43 39 44 40 52 41 45 42 47 43 53 44 46 45
REMARK SMILES IDX 48 46 49 47 50 48 51 49 75 50 76 51 84 52 77 53 79 54 85 55
REMARK SMILES IDX 78 56 80 57 81 58 82 59 83 60 60 61 61 62 69 63 62 64 64 65
REMARK SMILES IDX 70 66 63 67 65 68 66 69 67 70 68 71 6 72 7 73 8 74 9 76
REMARK SMILES IDX 10 77 25 78 33 79 26 80 28 81 32 82 27 83 29 84 31 85 30 86
REMARK SMILES IDX 11 87 12 88 13 90 14 91 15 92 24 93 16 94 23 95 17 96 18 97
REMARK SMILES IDX 19 98 20 99 21 100 22 101
REMARK H PARENT 3 6 90 24 58 35 7 75 11 89
REMARK Flexibility Score: inf
ROOT
ATOM      1  C   UNL     1       5.444  -2.568  -0.452  1.00  0.00     0.042 C 
ENDROOT
BRANCH   1   2
ATOM      2  C   UNL     1       5.019  -0.590  -1.129  1.00  0.00     0.118 C 
BRANCH   2   3
ATOM      3  N   UNL     1       3.615   0.257  -1.238  1.00  0.00    -0.352 N 
ATOM      4  O   UNL     1       1.701   1.353  -0.896  1.00  0.00    -0.269 OA
ATOM      5  C   UNL     1       2.854   1.147  -0.514  1.00  0.00     0.251 C 
ATOM      6  H   UNL     1       3.177   0.066  -2.098  1.00  0.00     0.163 HD
BRANCH   5   7
ATOM      7  C   UNL     1       3.339   1.828   0.691  1.00  0.00     0.039 A 
ATOM      8  C   UNL     1       4.640   2.302   0.717  1.00  0.00     0.014 A 
ATOM      9  C   UNL     1       2.471   2.083   1.769  1.00  0.00     0.014 A 
ATOM     10  C   UNL     1       5.124   2.884   1.877  1.00  0.00     0.010 A 
ATOM     11  C   UNL     1       2.941   2.743   2.914  1.00  0.00     0.010 A 
ATOM     12  C   UNL     1       4.289   3.107   2.992  1.00  0.00    -0.014 A 
BRANCH  12  13
ATOM     13  C   UNL     1       4.910   3.799   4.146  1.00  0.00     0.031 A 
ATOM     14  C   UNL     1       5.311   3.084   5.398  1.00  0.00     0.074 A 
ATOM     15  C   UNL     1       5.340   5.053   3.925  1.00  0.00     0.049 A 
ATOM     16  N   UNL     1       6.340   3.316   6.171  1.00  0.00    -0.248 NA
ATOM     17  C   UNL     1       4.484   1.952   5.832  1.00  0.00     0.031 C 
ATOM     18  C   UNL     1       4.992   5.857   2.753  1.00  0.00     0.029 A 
ATOM     19  N   UNL     1       6.208   5.835   4.635  1.00  0.00    -0.354 N 
ATOM     20  C   UNL     1       6.348   2.291   7.110  1.00  0.00     0.074 A 
ATOM     21  C   UNL     1       5.200   1.457   6.836  1.00  0.00     0.031 C 
ATOM     22  C   UNL     1       5.683   7.002   2.795  1.00  0.00     0.029 A 
ATOM     23  C   UNL     1       6.481   7.028   4.017  1.00  0.00     0.049 A 
ATOM     24  H   UNL     1       6.596   5.569   5.500  1.00  0.00     0.167 HD
ATOM     25  C   UNL     1       7.226   2.083   8.118  1.00  0.00     0.034 A 
ATOM     26  C   UNL     1       7.283   8.038   4.398  1.00  0.00     0.034 A 
ATOM     27  C   UNL     1       8.220   3.044   8.518  1.00  0.00     0.049 A 
ATOM     28  C   UNL     1       8.116   7.866   5.629  1.00  0.00     0.074 A 
ATOM     29  C   UNL     1       9.115   2.971   9.570  1.00  0.00     0.029 A 
ATOM     30  N   UNL     1       8.375   4.298   7.946  1.00  0.00    -0.354 N 
ATOM     31  N   UNL     1       8.271   6.797   6.373  1.00  0.00    -0.248 NA
ATOM     32  C   UNL     1       8.898   9.027   6.063  1.00  0.00     0.031 C 
ATOM     33  C   UNL     1       9.743   4.217   9.691  1.00  0.00     0.029 A 
ATOM     34  C   UNL     1       9.287   5.042   8.675  1.00  0.00     0.049 A 
ATOM     35  H   UNL     1       7.905   4.613   7.140  1.00  0.00     0.167 HD
ATOM     36  C   UNL     1       9.177   7.151   7.363  1.00  0.00     0.074 A 
ATOM     37  C   UNL     1       9.555   8.527   7.101  1.00  0.00     0.031 C 
ATOM     38  C   UNL     1       9.645   6.411   8.399  1.00  0.00     0.034 A 
BRANCH  25  39
ATOM     39  C   UNL     1       7.133   0.797   8.893  1.00  0.00     0.023 A 
ATOM     40  C   UNL     1       7.725  -0.369   8.364  1.00  0.00     0.012 A 
ATOM     41  C   UNL     1       6.565   0.760  10.180  1.00  0.00     0.148 A 
ATOM     42  C   UNL     1       7.761  -1.548   9.110  1.00  0.00     0.002 A 
ATOM     43  C   UNL     1       6.621  -0.413  10.925  1.00  0.00     0.091 A 
ATOM     44  F   UNL     1       5.982   1.872  10.650  1.00  0.00    -0.205 F 
ATOM     45  C   UNL     1       7.220  -1.567  10.393  1.00  0.00     0.022 A 
BRANCH  43  46
ATOM     46  S   UNL     1       5.985  -0.526  12.601  1.00  0.00     0.127 S 
ATOM     47  O   UNL     1       4.812  -1.380  12.413  1.00  0.00    -0.237 OA
ATOM     48  O   UNL     1       7.094  -1.162  13.312  1.00  0.00    -0.237 OA
ATOM     49  O   UNL     1       5.700   0.841  13.016  1.00  0.00    -0.744 OA
ENDBRANCH  43  46
ENDBRANCH  25  39
BRANCH  26  50
ATOM     50  C   UNL     1       7.292   9.280   3.582  1.00  0.00     0.023 A 
ATOM     51  C   UNL     1       8.429   9.652   2.847  1.00  0.00     0.012 A 
ATOM     52  C   UNL     1       6.103  10.026   3.442  1.00  0.00     0.148 A 
ATOM     53  C   UNL     1       8.375  10.741   1.974  1.00  0.00     0.002 A 
ATOM     54  C   UNL     1       6.032  11.050   2.511  1.00  0.00     0.091 A 
ATOM     55  F   UNL     1       5.042   9.681   4.187  1.00  0.00    -0.205 F 
ATOM     56  C   UNL     1       7.172  11.422   1.786  1.00  0.00     0.022 A 
BRANCH  54  57
ATOM     57  S   UNL     1       4.462  11.807   2.079  1.00  0.00     0.127 S 
ATOM     58  O   UNL     1       4.508  13.052   2.840  1.00  0.00    -0.237 OA
ATOM     59  O   UNL     1       4.582  11.964   0.629  1.00  0.00    -0.237 OA
ATOM     60  O   UNL     1       3.447  10.843   2.486  1.00  0.00    -0.744 OA
ENDBRANCH  54  57
ENDBRANCH  26  50
BRANCH  38  61
ATOM     61  C   UNL     1      10.611   7.088   9.333  1.00  0.00     0.023 A 
ATOM     62  C   UNL     1      10.153   8.097  10.204  1.00  0.00     0.012 A 
ATOM     63  C   UNL     1      11.965   6.706   9.366  1.00  0.00     0.148 A 
ATOM     64  C   UNL     1      11.041   8.752  11.056  1.00  0.00     0.002 A 
ATOM     65  C   UNL     1      12.833   7.327  10.255  1.00  0.00     0.091 A 
ATOM     66  F   UNL     1      12.386   5.757   8.517  1.00  0.00    -0.205 F 
ATOM     67  C   UNL     1      12.377   8.361  11.088  1.00  0.00     0.022 A 
BRANCH  65  68
ATOM     68  S   UNL     1      14.545   6.816  10.424  1.00  0.00     0.127 S 
ATOM     69  O   UNL     1      15.243   7.859   9.676  1.00  0.00    -0.237 OA
ATOM     70  O   UNL     1      14.746   6.867  11.873  1.00  0.00    -0.237 OA
ATOM     71  O   UNL     1      14.617   5.476   9.856  1.00  0.00    -0.744 OA
ENDBRANCH  65  68
ENDBRANCH  38  61
ENDBRANCH  12  13
ENDBRANCH   5   7
ENDBRANCH   2   3
ENDBRANCH   1   2
BRANCH   1  72
ATOM     72  C   UNL     1       4.636  -4.193  -0.785  1.00  0.00     0.117 C 
BRANCH  72  73
ATOM     73  N   UNL     1       4.045  -4.626  -2.145  1.00  0.00    -0.354 N 
ATOM     74  C   UNL     1       4.562  -4.901  -3.414  1.00  0.00     0.250 C 
ATOM     75  H   UNL     1       3.068  -4.736  -2.108  1.00  0.00     0.163 HD
ATOM     76  O   UNL     1       3.844  -4.752  -4.403  1.00  0.00    -0.272 OA
BRANCH  74  77
ATOM     77  C   UNL     1       5.894  -5.683  -3.444  1.00  0.00     0.145 C 
ATOM     78  C   UNL     1       6.845  -5.554  -4.664  1.00  0.00     0.044 C 
ATOM     79  C   UNL     1       5.427  -7.162  -3.263  1.00  0.00    -0.010 A 
ATOM     80  C   UNL     1       6.494  -6.349  -5.900  1.00  0.00     0.008 C 
ATOM     81  C   UNL     1       5.383  -8.013  -4.397  1.00  0.00    -0.042 A 
ATOM     82  C   UNL     1       4.633  -7.532  -2.157  1.00  0.00     0.007 A 
ATOM     83  C   UNL     1       6.301  -7.812  -5.571  1.00  0.00     0.036 C 
ATOM     84  C   UNL     1       4.464  -9.076  -4.458  1.00  0.00     0.004 A 
ATOM     85  C   UNL     1       3.687  -8.560  -2.250  1.00  0.00     0.000 A 
ATOM     86  C   UNL     1       3.580  -9.311  -3.412  1.00  0.00     0.000 A 
BRANCH  77  87
ATOM     87  N   UNL     1       6.584  -5.000  -2.363  1.00  0.00    -0.338 N 
ATOM     88  C   UNL     1       6.857  -3.663  -2.563  1.00  0.00     0.224 C 
ATOM     89  H   UNL     1       6.842  -5.464  -1.534  1.00  0.00     0.164 HD
ATOM     90  O   UNL     1       8.057  -3.453  -2.793  1.00  0.00    -0.275 OA
BRANCH  88  91
ATOM     91  C   UNL     1       5.766  -2.357  -2.495  1.00  0.00     0.082 C 
ATOM     92  C   UNL     1       7.058  -1.262  -1.585  1.00  0.00     0.035 C 
ATOM     93  C   UNL     1       3.909  -2.176  -1.764  1.00  0.00     0.035 C 
ATOM     94  C   UNL     1       6.846  -0.913   0.229  1.00  0.00     0.120 C 
ATOM     95  C   UNL     1       3.694  -1.656   0.162  1.00  0.00     0.120 C 
ATOM     96  N   UNL     1       5.207  -0.916   0.977  1.00  0.00    -0.342 N 
ATOM     97  C   UNL     1       5.383  -0.544   2.308  1.00  0.00     0.225 C 
ATOM     98  O   UNL     1       6.503  -0.249   2.729  1.00  0.00    -0.275 OA
BRANCH  97  99
ATOM     99  C   UNL     1       4.288  -0.434   3.267  1.00  0.00     0.079 C 
ATOM    100  C   UNL     1       3.026  -1.202   3.434  1.00  0.00     0.014 C 
ATOM    101  C   UNL     1       4.197  -1.519   4.316  1.00  0.00     0.014 C 
ENDBRANCH  97  99
ENDBRANCH  88  91
ENDBRANCH  77  87
ENDBRANCH  74  77
ENDBRANCH  72  73
ENDBRANCH   1  72
TORSDOF 16
