REMARK SMILES CC(C)COc1ccc(CC(=O)NCCCNC(=O)c2ccc(-c3c4nc(c(-c5cccc(S(=O)(=O)[O-])c5F)c5ccc([nH]5)c(-c5cccc(S(=O)(=O)[O-])c5F)c5nc(c(-c6cccc(S(=O)(=O)[O-])c6F)c6ccc3[nH]6)C=C5)C=C4)cc2)cc1
REMARK SMILES IDX 14 1 13 2 11 3 12 4 10 6 9 7 6 8 7 9 84 10 8 11 83 12 5 13
REMARK SMILES IDX 4 14 2 15 1 16 3 17 15 18 16 19 17 20 18 21 19 23 20 24
REMARK SMILES IDX 21 25 82 26 22 27 81 28 23 29 24 30 25 31 75 32 26 33 80 34
REMARK SMILES IDX 74 35 76 36 27 37 79 38 73 39 72 40 28 42 60 43 40 44 59 45
REMARK SMILES IDX 41 46 44 47 58 48 77 49 42 50 43 51 57 53 78 54 45 55 29 56
REMARK SMILES IDX 30 57 38 58 31 59 33 60 39 61 32 62 34 63 35 64 36 65 37 66
REMARK SMILES IDX 61 67 62 68 70 69 63 70 65 71 71 72 64 73 66 74 67 75 68 76
REMARK SMILES IDX 69 77 46 78 47 79 55 80 48 81 50 82 56 83 49 84 51 85 52 86
REMARK SMILES IDX 53 87 54 88
REMARK H PARENT 13 5 17 22 76 41 44 52
REMARK Flexibility Score: inf
ROOT
ATOM      1  C   UNL     1       1.708   3.894  -4.489  1.00  0.00     0.117 C 
ENDROOT
BRANCH   1   2
ATOM      2  N   UNL     1       0.596   4.823  -4.554  1.00  0.00    -0.356 N 
ATOM      3  C   UNL     1      -0.282   5.203  -3.580  1.00  0.00     0.224 C 
ATOM      4  O   UNL     1      -1.166   6.009  -3.882  1.00  0.00    -0.275 OA
ATOM      5  H   UNL     1       0.453   5.243  -5.433  1.00  0.00     0.163 HD
BRANCH   3   6
ATOM      6  C   UNL     1      -0.125   4.716  -2.149  1.00  0.00     0.135 C 
BRANCH   6   7
ATOM      7  C   UNL     1      -0.447   3.259  -1.938  1.00  0.00    -0.038 A 
ATOM      8  C   UNL     1      -0.964   0.532  -1.586  1.00  0.00     0.119 A 
ATOM      9  C   UNL     1      -2.026   1.424  -1.699  1.00  0.00     0.047 A 
ATOM     10  C   UNL     1       0.337   0.979  -1.752  1.00  0.00     0.047 A 
ATOM     11  C   UNL     1      -1.768   2.787  -1.899  1.00  0.00     0.008 A 
ATOM     12  C   UNL     1       0.598   2.338  -1.819  1.00  0.00     0.008 A 
BRANCH   8  13
ATOM     13  O   UNL     1      -1.189  -0.795  -1.367  1.00  0.00    -0.493 OA
BRANCH  13  14
ATOM     14  C   UNL     1      -0.918  -1.197  -0.005  1.00  0.00     0.232 C 
BRANCH  14  15
ATOM     15  C   UNL     1       0.583  -1.445   0.286  1.00  0.00     0.020 C 
ATOM     16  C   UNL     1       1.233  -0.276   1.044  1.00  0.00     0.011 C 
ATOM     17  C   UNL     1       0.793  -2.704   1.129  1.00  0.00     0.011 C 
ENDBRANCH  14  15
ENDBRANCH  13  14
ENDBRANCH   8  13
ENDBRANCH   6   7
ENDBRANCH   3   6
ENDBRANCH   1   2
BRANCH   1  18
ATOM     18  C   UNL     1       1.324   2.495  -4.969  1.00  0.00     0.042 C 
BRANCH  18  19
ATOM     19  C   UNL     1       1.163   2.389  -6.478  1.00  0.00     0.118 C 
BRANCH  19  20
ATOM     20  N   UNL     1       2.420   2.599  -7.183  1.00  0.00    -0.352 N 
ATOM     21  C   UNL     1       3.053   1.799  -8.102  1.00  0.00     0.251 C 
ATOM     22  H   UNL     1       2.884   3.440  -6.969  1.00  0.00     0.163 HD
ATOM     23  O   UNL     1       4.204   2.059  -8.437  1.00  0.00    -0.269 OA
BRANCH  21  24
ATOM     24  C   UNL     1       2.356   0.626  -8.674  1.00  0.00     0.039 A 
ATOM     25  C   UNL     1       3.068  -0.563  -8.855  1.00  0.00     0.014 A 
ATOM     26  C   UNL     1       1.013   0.702  -9.050  1.00  0.00     0.014 A 
ATOM     27  C   UNL     1       2.418  -1.690  -9.364  1.00  0.00     0.010 A 
ATOM     28  C   UNL     1       0.348  -0.443  -9.477  1.00  0.00     0.010 A 
ATOM     29  C   UNL     1       1.045  -1.647  -9.651  1.00  0.00    -0.014 A 
BRANCH  29  30
ATOM     30  C   UNL     1       0.313  -2.837 -10.157  1.00  0.00     0.031 A 
ATOM     31  C   UNL     1      -0.350  -2.785 -11.509  1.00  0.00     0.074 A 
ATOM     32  C   UNL     1       0.163  -3.920  -9.368  1.00  0.00     0.049 A 
ATOM     33  N   UNL     1      -1.143  -3.657 -12.073  1.00  0.00    -0.248 NA
ATOM     34  C   UNL     1      -0.112  -1.579 -12.322  1.00  0.00     0.031 C 
ATOM     35  C   UNL     1       0.706  -4.066  -8.016  1.00  0.00     0.029 A 
ATOM     36  N   UNL     1      -0.524  -5.090  -9.576  1.00  0.00    -0.354 N 
ATOM     37  C   UNL     1      -1.526  -3.094 -13.286  1.00  0.00     0.074 A 
ATOM     38  C   UNL     1      -0.908  -1.788 -13.360  1.00  0.00     0.031 C 
ATOM     39  C   UNL     1       0.321  -5.250  -7.512  1.00  0.00     0.029 A 
ATOM     40  C   UNL     1      -0.526  -5.929  -8.485  1.00  0.00     0.049 A 
ATOM     41  H   UNL     1      -0.973  -5.308 -10.425  1.00  0.00     0.167 HD
ATOM     42  C   UNL     1      -2.296  -3.627 -14.263  1.00  0.00     0.034 A 
ATOM     43  C   UNL     1      -1.161  -7.101  -8.284  1.00  0.00     0.034 A 
ATOM     44  C   UNL     1      -2.877  -4.940 -14.200  1.00  0.00     0.049 A 
ATOM     45  C   UNL     1      -2.000  -7.677  -9.395  1.00  0.00     0.074 A 
ATOM     46  C   UNL     1      -3.626  -5.594 -15.162  1.00  0.00     0.029 A 
ATOM     47  N   UNL     1      -2.773  -5.799 -13.118  1.00  0.00    -0.354 N 
ATOM     48  N   UNL     1      -2.247  -7.182 -10.584  1.00  0.00    -0.248 NA
ATOM     49  C   UNL     1      -2.618  -8.989  -9.154  1.00  0.00     0.031 C 
ATOM     50  C   UNL     1      -3.994  -6.842 -14.652  1.00  0.00     0.029 A 
ATOM     51  C   UNL     1      -3.441  -6.979 -13.389  1.00  0.00     0.049 A 
ATOM     52  H   UNL     1      -2.296  -5.598 -12.281  1.00  0.00     0.167 HD
ATOM     53  C   UNL     1      -3.001  -8.143 -11.247  1.00  0.00     0.074 A 
ATOM     54  C   UNL     1      -3.162  -9.254 -10.333  1.00  0.00     0.031 C 
ATOM     55  C   UNL     1      -3.524  -8.106 -12.497  1.00  0.00     0.034 A 
BRANCH  42  56
ATOM     56  C   UNL     1      -2.511  -2.816 -15.514  1.00  0.00     0.023 A 
ATOM     57  C   UNL     1      -1.440  -2.630 -16.412  1.00  0.00     0.012 A 
ATOM     58  C   UNL     1      -3.784  -2.310 -15.844  1.00  0.00     0.148 A 
ATOM     59  C   UNL     1      -1.623  -1.930 -17.603  1.00  0.00     0.002 A 
ATOM     60  C   UNL     1      -3.971  -1.655 -17.055  1.00  0.00     0.091 A 
ATOM     61  F   UNL     1      -4.786  -2.484 -14.970  1.00  0.00    -0.205 F 
ATOM     62  C   UNL     1      -2.890  -1.454 -17.930  1.00  0.00     0.022 A 
BRANCH  60  63
ATOM     63  S   UNL     1      -5.577  -1.076 -17.611  1.00  0.00     0.127 S 
ATOM     64  O   UNL     1      -5.380   0.374 -17.623  1.00  0.00    -0.237 OA
ATOM     65  O   UNL     1      -5.680  -1.687 -18.936  1.00  0.00    -0.237 OA
ATOM     66  O   UNL     1      -6.543  -1.561 -16.636  1.00  0.00    -0.744 OA
ENDBRANCH  60  63
ENDBRANCH  42  56
BRANCH  43  67
ATOM     67  C   UNL     1      -1.006  -7.835  -6.994  1.00  0.00     0.023 A 
ATOM     68  C   UNL     1      -0.326  -9.069  -6.974  1.00  0.00     0.012 A 
ATOM     69  C   UNL     1      -1.540  -7.328  -5.793  1.00  0.00     0.148 A 
ATOM     70  C   UNL     1      -0.229  -9.810  -5.795  1.00  0.00     0.002 A 
ATOM     71  C   UNL     1      -1.387  -8.043  -4.610  1.00  0.00     0.091 A 
ATOM     72  F   UNL     1      -2.190  -6.157  -5.831  1.00  0.00    -0.205 F 
ATOM     73  C   UNL     1      -0.753  -9.295  -4.613  1.00  0.00     0.022 A 
BRANCH  71  74
ATOM     74  S   UNL     1      -1.918  -7.399  -3.020  1.00  0.00     0.127 S 
ATOM     75  O   UNL     1      -3.081  -8.233  -2.732  1.00  0.00    -0.237 OA
ATOM     76  O   UNL     1      -0.748  -7.661  -2.181  1.00  0.00    -0.237 OA
ATOM     77  O   UNL     1      -2.189  -5.985  -3.242  1.00  0.00    -0.744 OA
ENDBRANCH  71  74
ENDBRANCH  43  67
BRANCH  55  78
ATOM     78  C   UNL     1      -4.251  -9.327 -12.995  1.00  0.00     0.023 A 
ATOM     79  C   UNL     1      -5.527  -9.648 -12.495  1.00  0.00     0.012 A 
ATOM     80  C   UNL     1      -3.698 -10.100 -14.036  1.00  0.00     0.148 A 
ATOM     81  C   UNL     1      -6.230 -10.740 -13.004  1.00  0.00     0.002 A 
ATOM     82  C   UNL     1      -4.427 -11.152 -14.574  1.00  0.00     0.091 A 
ATOM     83  F   UNL     1      -2.474  -9.785 -14.486  1.00  0.00    -0.205 F 
ATOM     84  C   UNL     1      -5.687 -11.482 -14.051  1.00  0.00     0.022 A 
BRANCH  82  85
ATOM     85  S   UNL     1      -3.854 -12.097 -15.990  1.00  0.00     0.127 S 
ATOM     86  O   UNL     1      -3.579 -13.400 -15.387  1.00  0.00    -0.237 OA
ATOM     87  O   UNL     1      -5.021 -12.067 -16.872  1.00  0.00    -0.237 OA
ATOM     88  O   UNL     1      -2.688 -11.391 -16.503  1.00  0.00    -0.744 OA
ENDBRANCH  82  85
ENDBRANCH  55  78
ENDBRANCH  29  30
ENDBRANCH  21  24
ENDBRANCH  19  20
ENDBRANCH  18  19
ENDBRANCH   1  18
TORSDOF 17
