REMARK SMILES CC1=C(C)C[C@@H](C(=O)Nc2sc3c(c2C#N)CCC3)[C@H](C(=O)NCCCNC(=O)c2ccc(-c3c4nc(c(-c5cccc(S(=O)(=O)[O-])c5F)c5ccc([nH]5)c(-c5cccc(S(=O)(=O)[O-])c5F)c5nc(c(-c6cccc(S(=O)(=O)[O-])c6F)c6ccc3[nH]6)C=C5)C=C4)cc2)C1
REMARK SMILES IDX 25 1 24 2 23 3 21 4 22 5 20 7 1 8 2 9 3 10 93 11 4 12 5 13
REMARK SMILES IDX 6 14 7 15 8 16 9 17 10 19 11 20 14 21 12 22 13 23 19 24
REMARK SMILES IDX 17 25 18 26 15 27 16 28 26 29 27 30 28 31 29 33 30 34 31 35
REMARK SMILES IDX 92 36 32 37 91 38 33 39 34 40 35 41 85 42 36 43 90 44 84 45
REMARK SMILES IDX 86 46 37 47 89 48 83 49 82 50 38 52 70 53 50 54 69 55 51 56
REMARK SMILES IDX 54 57 68 58 87 59 52 60 53 61 67 63 88 64 55 65 39 66 40 67
REMARK SMILES IDX 48 68 41 69 43 70 49 71 42 72 44 73 45 74 46 75 47 76 71 77
REMARK SMILES IDX 72 78 80 79 73 80 75 81 81 82 74 83 76 84 77 85 78 86 79 87
REMARK SMILES IDX 56 88 57 89 65 90 58 91 60 92 66 93 59 94 61 95 62 96 63 97
REMARK SMILES IDX 64 98
REMARK H PARENT 23 6 9 18 27 32 86 51 54 62
REMARK Flexibility Score: inf
ROOT
ATOM      1  C   UNL     1      -0.135   2.958  -4.212  1.00  0.00     0.042 C 
ENDROOT
BRANCH   1   2
ATOM      2  C   UNL     1       1.054   2.813  -3.282  1.00  0.00     0.117 C 
BRANCH   2   3
ATOM      3  N   UNL     1       1.585   4.042  -2.737  1.00  0.00    -0.356 N 
ATOM      4  C   UNL     1       1.707   4.425  -1.433  1.00  0.00     0.224 C 
ATOM      5  O   UNL     1       2.382   5.425  -1.186  1.00  0.00    -0.275 OA
ATOM      6  H   UNL     1       1.905   4.695  -3.401  1.00  0.00     0.163 HD
BRANCH   4   7
ATOM      7  C   UNL     1       1.019   3.663  -0.292  1.00  0.00     0.095 C 
ATOM      8  C   UNL     1       0.928  -0.240  -0.809  1.00  0.00     0.039 C 
ATOM      9  C   UNL     1       0.386   1.141  -0.546  1.00  0.00    -0.074 C 
ATOM     10  C   UNL     1      -0.915   1.448  -0.745  1.00  0.00    -0.074 C 
ATOM     11  C   UNL     1       1.454   2.187  -0.282  1.00  0.00     0.045 C 
ATOM     12  C   UNL     1      -1.970   0.442  -1.139  1.00  0.00     0.039 C 
ATOM     13  C   UNL     1      -1.432   2.865  -0.737  1.00  0.00     0.045 C 
ATOM     14  C   UNL     1      -0.482   3.972  -0.270  1.00  0.00     0.095 C 
BRANCH  14  15
ATOM     15  C   UNL     1      -1.039   4.622   1.011  1.00  0.00     0.229 C 
ATOM     16  O   UNL     1      -1.563   5.741   0.939  1.00  0.00    -0.274 OA
ATOM     17  N   UNL     1      -1.177   3.977   2.208  1.00  0.00    -0.316 N 
ATOM     18  H   UNL     1      -1.652   4.469   2.917  1.00  0.00     0.170 HD
BRANCH  17  19
ATOM     19  C   UNL     1      -0.729   2.728   2.533  1.00  0.00     0.114 A 
ATOM     20  S   UNL     1      -1.962   1.562   2.811  1.00  0.00    -0.121 S 
ATOM     21  C   UNL     1       0.532   2.235   2.814  1.00  0.00     0.090 A 
ATOM     22  C   UNL     1      -0.804   0.355   2.883  1.00  0.00     0.011 A 
ATOM     23  C   UNL     1       0.481   0.821   2.849  1.00  0.00    -0.014 A 
ATOM     24  C   UNL     1      -0.911  -1.116   2.988  1.00  0.00     0.047 C 
ATOM     25  C   UNL     1       1.465  -0.288   2.862  1.00  0.00     0.038 C 
ATOM     26  C   UNL     1       0.559  -1.551   2.699  1.00  0.00     0.010 C 
BRANCH  21  27
ATOM     27  C   UNL     1       1.709   3.017   2.998  1.00  0.00     0.103 C 
ATOM     28  N   UNL     1       2.706   3.605   3.163  1.00  0.00    -0.192 NA
ENDBRANCH  21  27
ENDBRANCH  17  19
ENDBRANCH  14  15
ENDBRANCH   4   7
ENDBRANCH   2   3
ENDBRANCH   1   2
BRANCH   1  29
ATOM     29  C   UNL     1       0.341   3.042  -5.636  1.00  0.00     0.118 C 
BRANCH  29  30
ATOM     30  N   UNL     1       1.005   1.801  -6.074  1.00  0.00    -0.352 N 
ATOM     31  C   UNL     1       1.649   1.579  -7.277  1.00  0.00     0.251 C 
ATOM     32  H   UNL     1       0.988   1.048  -5.440  1.00  0.00     0.163 HD
ATOM     33  O   UNL     1       1.909   0.452  -7.675  1.00  0.00    -0.269 OA
BRANCH  31  34
ATOM     34  C   UNL     1       2.029   2.773  -8.041  1.00  0.00     0.039 A 
ATOM     35  C   UNL     1       1.643   2.957  -9.367  1.00  0.00     0.014 A 
ATOM     36  C   UNL     1       2.605   3.796  -7.293  1.00  0.00     0.014 A 
ATOM     37  C   UNL     1       1.772   4.231  -9.907  1.00  0.00     0.010 A 
ATOM     38  C   UNL     1       2.469   5.078  -7.739  1.00  0.00     0.010 A 
ATOM     39  C   UNL     1       2.153   5.296  -9.069  1.00  0.00    -0.014 A 
BRANCH  39  40
ATOM     40  C   UNL     1       2.085   6.683  -9.505  1.00  0.00     0.031 A 
ATOM     41  C   UNL     1       0.755   7.032 -10.063  1.00  0.00     0.074 A 
ATOM     42  C   UNL     1       3.066   7.580  -9.248  1.00  0.00     0.049 A 
ATOM     43  N   UNL     1       0.425   7.031 -11.312  1.00  0.00    -0.248 NA
ATOM     44  C   UNL     1      -0.400   7.130  -9.154  1.00  0.00     0.031 C 
ATOM     45  C   UNL     1       4.268   7.395  -8.415  1.00  0.00     0.029 A 
ATOM     46  N   UNL     1       3.157   8.893  -9.591  1.00  0.00    -0.354 N 
ATOM     47  C   UNL     1      -0.891   7.481 -11.337  1.00  0.00     0.074 A 
ATOM     48  C   UNL     1      -1.411   7.229 -10.023  1.00  0.00     0.031 C 
ATOM     49  C   UNL     1       4.818   8.596  -8.125  1.00  0.00     0.029 A 
ATOM     50  C   UNL     1       4.138   9.609  -8.904  1.00  0.00     0.049 A 
ATOM     51  H   UNL     1       2.575   9.306 -10.270  1.00  0.00     0.167 HD
ATOM     52  C   UNL     1      -1.283   8.362 -12.301  1.00  0.00     0.034 A 
ATOM     53  C   UNL     1       4.377  10.942  -8.981  1.00  0.00     0.034 A 
ATOM     54  C   UNL     1      -0.251   8.470 -13.309  1.00  0.00     0.049 A 
ATOM     55  C   UNL     1       3.814  11.393 -10.268  1.00  0.00     0.074 A 
ATOM     56  C   UNL     1       0.293   7.659 -14.281  1.00  0.00     0.029 A 
ATOM     57  N   UNL     1       0.668   9.450 -13.025  1.00  0.00    -0.354 N 
ATOM     58  N   UNL     1       4.288  11.006 -11.418  1.00  0.00    -0.248 NA
ATOM     59  C   UNL     1       2.468  11.947 -10.293  1.00  0.00     0.031 C 
ATOM     60  C   UNL     1       1.658   8.058 -14.397  1.00  0.00     0.029 A 
ATOM     61  C   UNL     1       1.888   9.150 -13.559  1.00  0.00     0.049 A 
ATOM     62  H   UNL     1       0.472  10.262 -12.505  1.00  0.00     0.167 HD
ATOM     63  C   UNL     1       3.155  10.811 -12.189  1.00  0.00     0.074 A 
ATOM     64  C   UNL     1       2.105  11.578 -11.526  1.00  0.00     0.031 C 
ATOM     65  C   UNL     1       3.101   9.787 -13.090  1.00  0.00     0.034 A 
BRANCH  52  66
ATOM     66  C   UNL     1      -2.268   9.510 -12.123  1.00  0.00     0.023 A 
ATOM     67  C   UNL     1      -2.527  10.302 -13.268  1.00  0.00     0.012 A 
ATOM     68  C   UNL     1      -2.707  10.033 -10.885  1.00  0.00     0.148 A 
ATOM     69  C   UNL     1      -3.122  11.566 -13.179  1.00  0.00     0.002 A 
ATOM     70  C   UNL     1      -3.353  11.264 -10.806  1.00  0.00     0.091 A 
ATOM     71  F   UNL     1      -2.406   9.413  -9.746  1.00  0.00    -0.205 F 
ATOM     72  C   UNL     1      -3.536  12.048 -11.946  1.00  0.00     0.022 A 
BRANCH  70  73
ATOM     73  S   UNL     1      -3.933  11.931  -9.239  1.00  0.00     0.127 S 
ATOM     74  O   UNL     1      -3.052  13.083  -9.069  1.00  0.00    -0.237 OA
ATOM     75  O   UNL     1      -5.325  12.253  -9.555  1.00  0.00    -0.237 OA
ATOM     76  O   UNL     1      -3.772  10.858  -8.265  1.00  0.00    -0.744 OA
ENDBRANCH  70  73
ENDBRANCH  52  66
BRANCH  53  77
ATOM     77  C   UNL     1       4.883  11.910  -7.981  1.00  0.00     0.023 A 
ATOM     78  C   UNL     1       5.507  13.105  -8.395  1.00  0.00     0.012 A 
ATOM     79  C   UNL     1       4.461  11.808  -6.639  1.00  0.00     0.148 A 
ATOM     80  C   UNL     1       5.670  14.180  -7.509  1.00  0.00     0.002 A 
ATOM     81  C   UNL     1       4.618  12.881  -5.764  1.00  0.00     0.091 A 
ATOM     82  F   UNL     1       3.826  10.692  -6.256  1.00  0.00    -0.205 F 
ATOM     83  C   UNL     1       5.212  14.073  -6.199  1.00  0.00     0.022 A 
BRANCH  81  84
ATOM     84  S   UNL     1       4.005  12.848  -4.074  1.00  0.00     0.127 S 
ATOM     85  O   UNL     1       5.222  13.131  -3.313  1.00  0.00    -0.237 OA
ATOM     86  O   UNL     1       3.026  13.932  -4.088  1.00  0.00    -0.237 OA
ATOM     87  O   UNL     1       3.459  11.512  -3.877  1.00  0.00    -0.744 OA
ENDBRANCH  81  84
ENDBRANCH  53  77
BRANCH  65  88
ATOM     88  C   UNL     1       4.405   9.185 -13.532  1.00  0.00     0.023 A 
ATOM     89  C   UNL     1       5.232   8.408 -12.696  1.00  0.00     0.012 A 
ATOM     90  C   UNL     1       4.742   9.326 -14.886  1.00  0.00     0.148 A 
ATOM     91  C   UNL     1       6.382   7.795 -13.207  1.00  0.00     0.002 A 
ATOM     92  C   UNL     1       5.855   8.680 -15.399  1.00  0.00     0.091 A 
ATOM     93  F   UNL     1       3.942  10.077 -15.659  1.00  0.00    -0.205 F 
ATOM     94  C   UNL     1       6.686   7.921 -14.562  1.00  0.00     0.022 A 
BRANCH  92  95
ATOM     95  S   UNL     1       6.222   8.715 -17.153  1.00  0.00     0.127 S 
ATOM     96  O   UNL     1       7.388   9.594 -17.203  1.00  0.00    -0.237 OA
ATOM     97  O   UNL     1       6.501   7.307 -17.440  1.00  0.00    -0.237 OA
ATOM     98  O   UNL     1       5.023   9.227 -17.805  1.00  0.00    -0.744 OA
ENDBRANCH  92  95
ENDBRANCH  65  88
ENDBRANCH  39  40
ENDBRANCH  31  34
ENDBRANCH  29  30
ENDBRANCH   1  29
TORSDOF 16
