REMARK SMILES Cc1c(C(=O)NCCCNC(=O)c2ccc(-c3c4nc(c(-c5cccc(S(=O)(=O)[O-])c5F)c5ccc([nH]5)c(-c5cccc(S(=O)(=O)[O-])c5F)c5nc(c(-c6cccc(S(=O)(=O)[O-])c6F)c6ccc3[nH]6)C=C5)C=C4)cc2)oc2c1/C(=N/NC(=O)C(c1ccccc1)c1ccccc1)CCC2
REMARK SMILES IDX 8 1 7 2 6 3 4 4 5 5 3 7 1 8 2 9 78 10 76 11 77 12 79 13
REMARK SMILES IDX 99 14 80 15 97 16 98 17 81 18 82 19 83 21 84 22 85 23 86 24
REMARK SMILES IDX 90 25 87 26 89 27 88 28 91 29 92 30 96 31 93 32 95 33 94 34
REMARK SMILES IDX 9 35 10 36 11 37 12 39 13 40 14 41 75 42 15 43 74 44 16 45
REMARK SMILES IDX 17 46 18 47 68 48 19 49 73 50 67 51 69 52 20 53 72 54 66 55
REMARK SMILES IDX 65 56 21 58 53 59 33 60 52 61 34 62 37 63 51 64 70 65 35 66
REMARK SMILES IDX 36 67 50 69 71 70 38 71 22 72 23 73 31 74 24 75 26 76 32 77
REMARK SMILES IDX 25 78 27 79 28 80 29 81 30 82 54 83 55 84 63 85 56 86 58 87
REMARK SMILES IDX 64 88 57 89 59 90 60 91 61 92 62 93 39 94 40 95 48 96 41 97
REMARK SMILES IDX 43 98 49 99 42 100 44 101 45 102 46 103 47 104
REMARK H PARENT 6 6 81 20 10 38 69 57 37 68
REMARK Flexibility Score: inf
ROOT
ATOM      1  C   UNL     1       1.961  -6.360  -0.306  1.00  0.00     0.042 C 
ENDROOT
BRANCH   1   2
ATOM      2  C   UNL     1       1.192  -5.713   0.864  1.00  0.00     0.118 C 
BRANCH   2   3
ATOM      3  N   UNL     1       1.932  -4.691   1.624  1.00  0.00    -0.349 N 
ATOM      4  C   UNL     1       2.008  -3.300   1.445  1.00  0.00     0.287 C 
ATOM      5  O   UNL     1       2.438  -2.622   2.360  1.00  0.00    -0.266 OA
ATOM      6  H   UNL     1       2.459  -5.040   2.379  1.00  0.00     0.163 HD
BRANCH   4   7
ATOM      7  C   UNL     1       1.502  -2.748   0.200  1.00  0.00     0.195 A 
ATOM      8  C   UNL     1       1.380  -0.176   0.392  1.00  0.00     0.049 C 
ATOM      9  C   UNL     1       1.165  -1.475  -0.295  1.00  0.00     0.010 A 
ATOM     10  C   UNL     1       0.453  -1.722  -1.526  1.00  0.00     0.043 A 
ATOM     11  O   UNL     1       1.224  -3.673  -0.736  1.00  0.00    -0.455 OA
ATOM     12  C   UNL     1       0.489  -3.098  -1.658  1.00  0.00     0.114 A 
ATOM     13  C   UNL     1      -0.345  -0.993  -2.520  1.00  0.00     0.072 C 
ATOM     14  C   UNL     1      -0.229  -4.026  -2.542  1.00  0.00     0.076 C 
ATOM     15  N   UNL     1      -0.287   0.294  -2.677  1.00  0.00    -0.177 NA
ATOM     16  C   UNL     1      -1.264  -1.928  -3.228  1.00  0.00     0.059 C 
ATOM     17  C   UNL     1      -0.652  -3.223  -3.732  1.00  0.00     0.014 C 
BRANCH  15  18
ATOM     18  N   UNL     1      -0.974   1.141  -3.548  1.00  0.00    -0.246 N 
ATOM     19  C   UNL     1      -1.834   1.194  -4.632  1.00  0.00     0.252 C 
ATOM     20  H   UNL     1      -0.765   2.067  -3.289  1.00  0.00     0.193 HD
ATOM     21  O   UNL     1      -2.078   2.351  -5.035  1.00  0.00    -0.272 OA
BRANCH  19  22
ATOM     22  C   UNL     1      -2.548   0.021  -5.416  1.00  0.00     0.140 C 
BRANCH  22  23
ATOM     23  C   UNL     1      -1.452  -0.808  -6.186  1.00  0.00    -0.031 A 
ATOM     24  C   UNL     1      -1.647  -2.084  -6.736  1.00  0.00     0.005 A 
ATOM     25  C   UNL     1      -0.132  -0.296  -6.271  1.00  0.00     0.005 A 
ATOM     26  C   UNL     1      -0.552  -2.882  -7.126  1.00  0.00     0.000 A 
ATOM     27  C   UNL     1       0.957  -1.085  -6.653  1.00  0.00     0.000 A 
ATOM     28  C   UNL     1       0.751  -2.397  -7.043  1.00  0.00     0.000 A 
ENDBRANCH  22  23
BRANCH  22  29
ATOM     29  C   UNL     1      -3.632  -0.602  -4.447  1.00  0.00    -0.031 A 
ATOM     30  C   UNL     1      -4.109   0.209  -3.387  1.00  0.00     0.005 A 
ATOM     31  C   UNL     1      -4.037  -1.949  -4.418  1.00  0.00     0.005 A 
ATOM     32  C   UNL     1      -4.693  -0.337  -2.240  1.00  0.00     0.000 A 
ATOM     33  C   UNL     1      -4.643  -2.498  -3.271  1.00  0.00     0.000 A 
ATOM     34  C   UNL     1      -4.917  -1.702  -2.162  1.00  0.00     0.000 A 
ENDBRANCH  22  29
ENDBRANCH  19  22
ENDBRANCH  15  18
ENDBRANCH   4   7
ENDBRANCH   2   3
ENDBRANCH   1   2
BRANCH   1  35
ATOM     35  C   UNL     1       2.841  -7.522   0.126  1.00  0.00     0.118 C 
BRANCH  35  36
ATOM     36  N   UNL     1       2.050  -8.669   0.583  1.00  0.00    -0.352 N 
ATOM     37  C   UNL     1       2.448  -9.759   1.327  1.00  0.00     0.251 C 
ATOM     38  H   UNL     1       1.101  -8.660   0.320  1.00  0.00     0.163 HD
ATOM     39  O   UNL     1       1.762 -10.776   1.349  1.00  0.00    -0.269 OA
BRANCH  37  40
ATOM     40  C   UNL     1       3.715  -9.696   2.074  1.00  0.00     0.039 A 
ATOM     41  C   UNL     1       4.593 -10.783   2.066  1.00  0.00     0.014 A 
ATOM     42  C   UNL     1       4.048  -8.516   2.733  1.00  0.00     0.014 A 
ATOM     43  C   UNL     1       5.856 -10.632   2.631  1.00  0.00     0.010 A 
ATOM     44  C   UNL     1       5.340  -8.322   3.164  1.00  0.00     0.010 A 
ATOM     45  C   UNL     1       6.242  -9.383   3.143  1.00  0.00    -0.014 A 
BRANCH  45  46
ATOM     46  C   UNL     1       7.642  -9.138   3.495  1.00  0.00     0.031 A 
ATOM     47  C   UNL     1       8.611  -9.474   2.414  1.00  0.00     0.074 A 
ATOM     48  C   UNL     1       8.027  -8.458   4.597  1.00  0.00     0.049 A 
ATOM     49  N   UNL     1       9.490 -10.423   2.413  1.00  0.00    -0.248 NA
ATOM     50  C   UNL     1       8.488  -8.780   1.122  1.00  0.00     0.031 C 
ATOM     51  C   UNL     1       7.157  -7.798   5.579  1.00  0.00     0.029 A 
ATOM     52  N   UNL     1       9.276  -8.073   4.994  1.00  0.00    -0.354 N 
ATOM     53  C   UNL     1      10.207 -10.264   1.228  1.00  0.00     0.074 A 
ATOM     54  C   UNL     1       9.408  -9.412   0.390  1.00  0.00     0.031 C 
ATOM     55  C   UNL     1       7.871  -6.889   6.274  1.00  0.00     0.029 A 
ATOM     56  C   UNL     1       9.270  -7.033   5.921  1.00  0.00     0.049 A 
ATOM     57  H   UNL     1      10.102  -8.491   4.658  1.00  0.00     0.167 HD
ATOM     58  C   UNL     1      11.528 -10.593   1.164  1.00  0.00     0.034 A 
ATOM     59  C   UNL     1      10.331  -6.312   6.352  1.00  0.00     0.034 A 
ATOM     60  C   UNL     1      11.915 -11.372   2.315  1.00  0.00     0.049 A 
ATOM     61  C   UNL     1      11.539  -7.122   6.103  1.00  0.00     0.074 A 
ATOM     62  C   UNL     1      11.605 -12.604   2.846  1.00  0.00     0.029 A 
ATOM     63  N   UNL     1      12.511 -10.640   3.310  1.00  0.00    -0.354 N 
ATOM     64  N   UNL     1      11.801  -8.230   6.736  1.00  0.00    -0.248 NA
ATOM     65  C   UNL     1      12.336  -6.878   4.911  1.00  0.00     0.031 C 
ATOM     66  C   UNL     1      11.758 -12.461   4.258  1.00  0.00     0.029 A 
ATOM     67  C   UNL     1      12.199 -11.165   4.532  1.00  0.00     0.049 A 
ATOM     68  H   UNL     1      13.080  -9.850   3.165  1.00  0.00     0.167 HD
ATOM     69  C   UNL     1      12.417  -9.020   5.781  1.00  0.00     0.074 A 
ATOM     70  C   UNL     1      12.898  -8.082   4.774  1.00  0.00     0.031 C 
ATOM     71  C   UNL     1      12.182 -10.364   5.739  1.00  0.00     0.034 A 
BRANCH  58  72
ATOM     72  C   UNL     1      12.593  -9.852   0.364  1.00  0.00     0.023 A 
ATOM     73  C   UNL     1      13.911 -10.371   0.427  1.00  0.00     0.012 A 
ATOM     74  C   UNL     1      12.457  -8.548  -0.167  1.00  0.00     0.148 A 
ATOM     75  C   UNL     1      15.028  -9.609   0.067  1.00  0.00     0.002 A 
ATOM     76  C   UNL     1      13.566  -7.821  -0.594  1.00  0.00     0.091 A 
ATOM     77  F   UNL     1      11.275  -7.933  -0.148  1.00  0.00    -0.205 F 
ATOM     78  C   UNL     1      14.856  -8.332  -0.446  1.00  0.00     0.022 A 
BRANCH  76  79
ATOM     79  S   UNL     1      13.398  -6.178  -1.307  1.00  0.00     0.127 S 
ATOM     80  O   UNL     1      13.923  -5.340  -0.233  1.00  0.00    -0.237 OA
ATOM     81  O   UNL     1      14.252  -6.279  -2.490  1.00  0.00    -0.237 OA
ATOM     82  O   UNL     1      11.980  -6.023  -1.607  1.00  0.00    -0.744 OA
ENDBRANCH  76  79
ENDBRANCH  58  72
BRANCH  59  83
ATOM     83  C   UNL     1      10.421  -4.923   6.850  1.00  0.00     0.023 A 
ATOM     84  C   UNL     1      11.527  -4.538   7.635  1.00  0.00     0.012 A 
ATOM     85  C   UNL     1       9.594  -3.910   6.320  1.00  0.00     0.148 A 
ATOM     86  C   UNL     1      11.835  -3.188   7.837  1.00  0.00     0.002 A 
ATOM     87  C   UNL     1       9.902  -2.568   6.525  1.00  0.00     0.091 A 
ATOM     88  F   UNL     1       8.564  -4.262   5.539  1.00  0.00    -0.205 F 
ATOM     89  C   UNL     1      11.031  -2.204   7.271  1.00  0.00     0.022 A 
BRANCH  87  90
ATOM     90  S   UNL     1       8.935  -1.240   5.796  1.00  0.00     0.127 S 
ATOM     91  O   UNL     1       8.754  -0.337   6.934  1.00  0.00    -0.237 OA
ATOM     92  O   UNL     1       9.837  -0.747   4.760  1.00  0.00    -0.237 OA
ATOM     93  O   UNL     1       7.705  -1.863   5.324  1.00  0.00    -0.744 OA
ENDBRANCH  87  90
ENDBRANCH  59  83
BRANCH  71  94
ATOM     94  C   UNL     1      11.652 -11.016   6.989  1.00  0.00     0.023 A 
ATOM     95  C   UNL     1      10.402 -10.692   7.553  1.00  0.00     0.012 A 
ATOM     96  C   UNL     1      12.401 -12.062   7.553  1.00  0.00     0.148 A 
ATOM     97  C   UNL     1       9.928 -11.371   8.678  1.00  0.00     0.002 A 
ATOM     98  C   UNL     1      11.904 -12.769   8.639  1.00  0.00     0.091 A 
ATOM     99  F   UNL     1      13.592 -12.357   7.008  1.00  0.00    -0.205 F 
ATOM    100  C   UNL     1      10.673 -12.419   9.214  1.00  0.00     0.022 A 
BRANCH  98 101
ATOM    101  S   UNL     1      12.767 -14.203   9.283  1.00  0.00     0.127 S 
ATOM    102  O   UNL     1      13.448 -13.651  10.453  1.00  0.00    -0.237 OA
ATOM    103  O   UNL     1      11.671 -15.123   9.591  1.00  0.00    -0.237 OA
ATOM    104  O   UNL     1      13.634 -14.659   8.203  1.00  0.00    -0.744 OA
ENDBRANCH  98 101
ENDBRANCH  71  94
ENDBRANCH  45  46
ENDBRANCH  37  40
ENDBRANCH  35  36
ENDBRANCH   1  35
TORSDOF 17
