REMARK SMILES O=C(COc1ccccc1/C=C1\N=C(c2ccccc2OC(F)F)OC1=O)NCCCNC(=O)c1ccc(-c2c3nc(c(-c4cccc(S(=O)(=O)[O-])c4F)c4ccc([nH]4)c(-c4cccc(S(=O)(=O)[O-])c4F)c4nc(c(-c5cccc(S(=O)(=O)[O-])c5F)c5ccc2[nH]5)C=C4)C=C3)cc1
REMARK SMILES IDX 1 1 2 2 28 3 3 5 4 6 5 7 6 8 10 9 7 10 9 11 8 12 11 13 12 14
REMARK SMILES IDX 13 15 26 16 14 17 25 18 27 19 15 20 16 21 20 22 17 23 19 24
REMARK SMILES IDX 18 25 21 26 22 27 23 28 24 29 29 30 30 31 31 32 32 33 33 34
REMARK SMILES IDX 34 36 35 37 36 38 97 39 37 40 96 41 38 42 39 43 40 44 90 45
REMARK SMILES IDX 41 46 95 47 89 48 91 49 42 50 94 51 88 52 87 53 43 55 75 56
REMARK SMILES IDX 55 57 74 58 56 59 59 60 73 61 92 62 57 63 58 64 72 66 93 67
REMARK SMILES IDX 60 68 44 69 45 70 53 71 46 72 48 73 54 74 47 75 49 76 50 77
REMARK SMILES IDX 51 78 52 79 76 80 77 81 85 82 78 83 80 84 86 85 79 86 81 87
REMARK SMILES IDX 82 88 83 89 84 90 61 91 62 92 70 93 63 94 65 95 71 96 64 97
REMARK SMILES IDX 66 98 67 99 68 100 69 101
REMARK H PARENT 28 4 32 35 91 54 59 65
REMARK Flexibility Score: inf
ROOT
ATOM      1  O   UNL     1       1.820  -0.042  -1.704  1.00  0.00    -0.271 OA
ATOM      2  C   UNL     1       2.522   0.296  -0.760  1.00  0.00     0.257 C 
ATOM      3  N   UNL     1       2.894  -0.502   0.368  1.00  0.00    -0.353 N 
ATOM      4  H   UNL     1       3.700  -0.067   0.727  1.00  0.00     0.163 HD
ENDROOT
BRANCH   2   5
ATOM      5  C   UNL     1       2.979   1.766  -0.564  1.00  0.00     0.329 C 
BRANCH   5   6
ATOM      6  O   UNL     1       3.776   1.991   0.602  1.00  0.00    -0.483 OA
BRANCH   6   7
ATOM      7  C   UNL     1       3.193   2.574   1.706  1.00  0.00     0.127 A 
ATOM      8  C   UNL     1       3.913   3.668   2.199  1.00  0.00     0.047 A 
ATOM      9  C   UNL     1       2.106   2.067   2.458  1.00  0.00     0.019 A 
ATOM     10  C   UNL     1       3.552   4.279   3.401  1.00  0.00     0.004 A 
ATOM     11  C   UNL     1       1.749   2.698   3.659  1.00  0.00     0.012 A 
ATOM     12  C   UNL     1       2.471   3.794   4.131  1.00  0.00     0.001 A 
BRANCH   9  13
ATOM     13  C   UNL     1       1.329   0.878   2.107  1.00  0.00     0.048 C 
ATOM     14  C   UNL     1       1.938  -0.309   1.952  1.00  0.00     0.153 C 
ATOM     15  N   UNL     1       3.730  -0.564   2.093  1.00  0.00    -0.205 NA
ATOM     16  C   UNL     1       1.339  -1.463   0.403  1.00  0.00     0.363 C 
ATOM     17  C   UNL     1       4.279  -1.571   0.952  1.00  0.00     0.235 C 
ATOM     18  O   UNL     1       2.969  -2.201  -0.150  1.00  0.00    -0.402 OA
ATOM     19  O   UNL     1       0.232  -1.842   0.067  1.00  0.00    -0.244 OA
BRANCH  17  20
ATOM     20  C   UNL     1       5.700  -1.998   0.825  1.00  0.00     0.080 A 
ATOM     21  C   UNL     1       6.306  -2.004   2.109  1.00  0.00     0.017 A 
ATOM     22  C   UNL     1       6.500  -2.340  -0.278  1.00  0.00     0.138 A 
ATOM     23  C   UNL     1       7.632  -2.381   2.320  1.00  0.00     0.001 A 
ATOM     24  C   UNL     1       7.849  -2.705  -0.035  1.00  0.00     0.047 A 
ATOM     25  C   UNL     1       8.409  -2.738   1.238  1.00  0.00     0.004 A 
BRANCH  22  26
ATOM     26  O   UNL     1       6.308  -2.375  -1.624  1.00  0.00    -0.434 OA
BRANCH  26  27
ATOM     27  C   UNL     1       5.069  -2.146  -2.244  1.00  0.00     0.542 C 
ATOM     28  F   UNL     1       4.233  -3.143  -1.903  1.00  0.00    -0.167 F 
ATOM     29  F   UNL     1       4.602  -0.951  -1.840  1.00  0.00    -0.167 F 
ENDBRANCH  26  27
ENDBRANCH  22  26
ENDBRANCH  17  20
ENDBRANCH   9  13
ENDBRANCH   6   7
ENDBRANCH   5   6
ENDBRANCH   2   5
BRANCH   3  30
ATOM     30  C   UNL     1       2.558  -2.187   1.666  1.00  0.00     0.117 C 
BRANCH  30  31
ATOM     31  C   UNL     1       2.374  -3.828   1.254  1.00  0.00     0.042 C 
BRANCH  31  32
ATOM     32  C   UNL     1       3.642  -4.673   1.282  1.00  0.00     0.118 C 
BRANCH  32  33
ATOM     33  N   UNL     1       4.366  -4.597   2.548  1.00  0.00    -0.352 N 
ATOM     34  C   UNL     1       5.383  -5.412   2.981  1.00  0.00     0.251 C 
ATOM     35  H   UNL     1       4.093  -3.878   3.163  1.00  0.00     0.163 HD
ATOM     36  O   UNL     1       5.909  -5.241   4.075  1.00  0.00    -0.269 OA
BRANCH  34  37
ATOM     37  C   UNL     1       5.755  -6.553   2.132  1.00  0.00     0.039 A 
ATOM     38  C   UNL     1       5.501  -7.836   2.618  1.00  0.00     0.014 A 
ATOM     39  C   UNL     1       6.203  -6.347   0.826  1.00  0.00     0.014 A 
ATOM     40  C   UNL     1       5.632  -8.924   1.760  1.00  0.00     0.010 A 
ATOM     41  C   UNL     1       6.277  -7.428  -0.043  1.00  0.00     0.010 A 
ATOM     42  C   UNL     1       5.982  -8.721   0.415  1.00  0.00    -0.014 A 
BRANCH  42  43
ATOM     43  C   UNL     1       6.009  -9.858  -0.532  1.00  0.00     0.031 A 
ATOM     44  C   UNL     1       7.311 -10.307  -1.124  1.00  0.00     0.074 A 
ATOM     45  C   UNL     1       4.849 -10.435  -0.901  1.00  0.00     0.049 A 
ATOM     46  N   UNL     1       7.537 -11.276  -1.970  1.00  0.00    -0.248 NA
ATOM     47  C   UNL     1       8.516  -9.557  -0.731  1.00  0.00     0.031 C 
ATOM     48  C   UNL     1       3.518 -10.023  -0.448  1.00  0.00     0.029 A 
ATOM     49  N   UNL     1       4.600 -11.475  -1.759  1.00  0.00    -0.354 N 
ATOM     50  C   UNL     1       8.900 -11.239  -2.231  1.00  0.00     0.074 A 
ATOM     51  C   UNL     1       9.446 -10.130  -1.481  1.00  0.00     0.031 C 
ATOM     52  C   UNL     1       2.594 -10.806  -1.028  1.00  0.00     0.029 A 
ATOM     53  C   UNL     1       3.262 -11.756  -1.911  1.00  0.00     0.049 A 
ATOM     54  H   UNL     1       5.311 -11.974  -2.222  1.00  0.00     0.167 HD
ATOM     55  C   UNL     1       9.634 -12.073  -3.004  1.00  0.00     0.034 A 
ATOM     56  C   UNL     1       2.647 -12.674  -2.681  1.00  0.00     0.034 A 
ATOM     57  C   UNL     1       9.084 -13.189  -3.723  1.00  0.00     0.049 A 
ATOM     58  C   UNL     1       3.491 -13.604  -3.511  1.00  0.00     0.074 A 
ATOM     59  C   UNL     1       9.750 -14.146  -4.466  1.00  0.00     0.029 A 
ATOM     60  N   UNL     1       7.732 -13.489  -3.801  1.00  0.00    -0.354 N 
ATOM     61  N   UNL     1       4.797 -13.666  -3.611  1.00  0.00    -0.248 NA
ATOM     62  C   UNL     1       2.779 -14.614  -4.307  1.00  0.00     0.031 C 
ATOM     63  C   UNL     1       8.797 -15.010  -5.017  1.00  0.00     0.029 A 
ATOM     64  C   UNL     1       7.540 -14.607  -4.595  1.00  0.00     0.049 A 
ATOM     65  H   UNL     1       7.014 -12.982  -3.358  1.00  0.00     0.167 HD
ATOM     66  C   UNL     1       5.066 -14.735  -4.457  1.00  0.00     0.074 A 
ATOM     67  C   UNL     1       3.786 -15.310  -4.819  1.00  0.00     0.031 C 
ATOM     68  C   UNL     1       6.261 -15.191  -4.908  1.00  0.00     0.034 A 
BRANCH  55  69
ATOM     69  C   UNL     1      11.118 -11.833  -3.071  1.00  0.00     0.023 A 
ATOM     70  C   UNL     1      11.919 -12.112  -1.944  1.00  0.00     0.012 A 
ATOM     71  C   UNL     1      11.727 -11.376  -4.255  1.00  0.00     0.148 A 
ATOM     72  C   UNL     1      13.297 -11.907  -1.982  1.00  0.00     0.002 A 
ATOM     73  C   UNL     1      13.107 -11.215  -4.300  1.00  0.00     0.091 A 
ATOM     74  F   UNL     1      10.947 -11.093  -5.307  1.00  0.00    -0.205 F 
ATOM     75  C   UNL     1      13.892 -11.469  -3.162  1.00  0.00     0.022 A 
BRANCH  73  76
ATOM     76  S   UNL     1      13.978 -10.724  -5.792  1.00  0.00     0.127 S 
ATOM     77  O   UNL     1      14.415  -9.372  -5.447  1.00  0.00    -0.237 OA
ATOM     78  O   UNL     1      15.053 -11.714  -5.859  1.00  0.00    -0.237 OA
ATOM     79  O   UNL     1      13.005 -10.809  -6.872  1.00  0.00    -0.744 OA
ENDBRANCH  73  76
ENDBRANCH  55  69
BRANCH  56  80
ATOM     80  C   UNL     1       1.162 -12.799  -2.656  1.00  0.00     0.023 A 
ATOM     81  C   UNL     1       0.572 -13.934  -2.069  1.00  0.00     0.012 A 
ATOM     82  C   UNL     1       0.333 -11.792  -3.189  1.00  0.00     0.148 A 
ATOM     83  C   UNL     1      -0.816 -14.082  -2.041  1.00  0.00     0.002 A 
ATOM     84  C   UNL     1      -1.049 -11.920  -3.110  1.00  0.00     0.091 A 
ATOM     85  F   UNL     1       0.914 -10.725  -3.754  1.00  0.00    -0.205 F 
ATOM     86  C   UNL     1      -1.626 -13.071  -2.552  1.00  0.00     0.022 A 
BRANCH  84  87
ATOM     87  S   UNL     1      -2.170 -10.616  -3.628  1.00  0.00     0.127 S 
ATOM     88  O   UNL     1      -2.772 -11.198  -4.824  1.00  0.00    -0.237 OA
ATOM     89  O   UNL     1      -3.064 -10.511  -2.474  1.00  0.00    -0.237 OA
ATOM     90  O   UNL     1      -1.332  -9.444  -3.847  1.00  0.00    -0.744 OA
ENDBRANCH  84  87
ENDBRANCH  56  80
BRANCH  68  91
ATOM     91  C   UNL     1       6.247 -16.382  -5.829  1.00  0.00     0.023 A 
ATOM     92  C   UNL     1       5.798 -16.233  -7.156  1.00  0.00     0.012 A 
ATOM     93  C   UNL     1       6.752 -17.626  -5.404  1.00  0.00     0.148 A 
ATOM     94  C   UNL     1       5.822 -17.314  -8.037  1.00  0.00     0.002 A 
ATOM     95  C   UNL     1       6.821 -18.684  -6.302  1.00  0.00     0.091 A 
ATOM     96  F   UNL     1       7.159 -17.751  -4.132  1.00  0.00    -0.205 F 
ATOM     97  C   UNL     1       6.344 -18.534  -7.614  1.00  0.00     0.022 A 
BRANCH  95  98
ATOM     98  S   UNL     1       7.568 -20.261  -5.877  1.00  0.00     0.127 S 
ATOM     99  O   UNL     1       6.398 -21.135  -5.804  1.00  0.00    -0.237 OA
ATOM    100  O   UNL     1       8.443 -20.508  -7.024  1.00  0.00    -0.237 OA
ATOM    101  O   UNL     1       8.268 -20.048  -4.618  1.00  0.00    -0.744 OA
ENDBRANCH  95  98
ENDBRANCH  68  91
ENDBRANCH  42  43
ENDBRANCH  34  37
ENDBRANCH  32  33
ENDBRANCH  31  32
ENDBRANCH  30  31
ENDBRANCH   3  30
TORSDOF 19
