REMARK SMILES CS(=O)(=O)c1ccc(/C=C(/C(=O)NCCCNC(=O)c2ccc(-c3c4nc(c(-c5cccc(S(=O)(=O)[O-])c5F)c5ccc([nH]5)c(-c5cccc(S(=O)(=O)[O-])c5F)c5nc(c(-c6cccc(S(=O)(=O)[O-])c6F)c6ccc3[nH]6)C=C5)C=C4)cc2)c2ccc(O)cc2)cc1
REMARK SMILES IDX 15 1 14 2 13 3 11 4 12 5 10 7 9 8 8 9 5 10 6 11 91 12 7 13
REMARK SMILES IDX 90 14 2 15 1 16 3 17 4 18 83 19 84 20 89 21 85 22 88 23
REMARK SMILES IDX 86 24 87 25 16 27 17 28 18 29 19 31 20 32 21 33 82 34 22 35
REMARK SMILES IDX 81 36 23 37 24 38 25 39 75 40 26 41 80 42 74 43 76 44 27 45
REMARK SMILES IDX 79 46 73 47 72 48 28 50 60 51 40 52 59 53 41 54 44 55 58 56
REMARK SMILES IDX 77 57 42 58 43 59 57 61 78 62 45 63 29 64 30 65 38 66 31 67
REMARK SMILES IDX 33 68 39 69 32 70 34 71 35 72 36 73 37 74 61 75 62 76 70 77
REMARK SMILES IDX 63 78 65 79 71 80 64 81 66 82 67 83 68 84 69 85 46 86 47 87
REMARK SMILES IDX 55 88 48 89 50 90 56 91 49 92 51 93 52 94 53 95 54 96
REMARK H PARENT 13 6 87 26 17 30 76 49 44 60
REMARK Flexibility Score: inf
ROOT
ATOM      1  C   UNL     1       3.249  -7.061   6.710  1.00  0.00     0.042 C 
ENDROOT
BRANCH   1   2
ATOM      2  C   UNL     1       3.740  -7.235   5.271  1.00  0.00     0.118 C 
BRANCH   2   3
ATOM      3  N   UNL     1       2.924  -8.195   4.549  1.00  0.00    -0.352 N 
ATOM      4  C   UNL     1       1.949  -8.097   3.608  1.00  0.00     0.251 C 
ATOM      5  O   UNL     1       1.492  -9.166   3.196  1.00  0.00    -0.269 OA
ATOM      6  H   UNL     1       3.122  -9.127   4.798  1.00  0.00     0.163 HD
BRANCH   4   7
ATOM      7  C   UNL     1       1.488  -6.789   3.004  1.00  0.00     0.047 C 
ATOM      8  C   UNL     1       1.443  -5.643   3.722  1.00  0.00     0.022 C 
BRANCH   8   9
ATOM      9  C   UNL     1       1.106  -4.268   3.284  1.00  0.00    -0.025 A 
ATOM     10  C   UNL     1       0.674  -1.625   2.438  1.00  0.00     0.067 A 
ATOM     11  C   UNL     1      -0.196  -2.636   2.030  1.00  0.00     0.021 A 
ATOM     12  C   UNL     1       1.718  -1.904   3.319  1.00  0.00     0.021 A 
ATOM     13  C   UNL     1       0.013  -3.948   2.470  1.00  0.00     0.009 A 
ATOM     14  C   UNL     1       1.931  -3.223   3.734  1.00  0.00     0.009 A 
BRANCH  10  15
ATOM     15  S   UNL     1       0.427   0.032   1.848  1.00  0.00     0.175 S 
ATOM     16  C   UNL     1       1.168   0.002   0.236  1.00  0.00     0.163 C 
ATOM     17  O   UNL     1       1.212   0.927   2.671  1.00  0.00    -0.224 OA
ATOM     18  O   UNL     1      -1.002   0.229   1.673  1.00  0.00    -0.224 OA
ENDBRANCH  10  15
ENDBRANCH   8   9
BRANCH   7  19
ATOM     19  C   UNL     1       0.904  -6.850   1.639  1.00  0.00    -0.013 A 
ATOM     20  C   UNL     1      -0.318  -7.523   1.459  1.00  0.00     0.013 A 
ATOM     21  C   UNL     1       1.478  -6.184   0.547  1.00  0.00     0.013 A 
ATOM     22  C   UNL     1      -0.975  -7.495   0.230  1.00  0.00     0.047 A 
ATOM     23  C   UNL     1       0.810  -6.144  -0.683  1.00  0.00     0.047 A 
ATOM     24  C   UNL     1      -0.418  -6.787  -0.824  1.00  0.00     0.115 A 
BRANCH  24  25
ATOM     25  O   UNL     1      -1.123  -6.730  -1.989  1.00  0.00    -0.508 OA
ATOM     26  H   UNL     1      -1.947  -7.171  -2.060  1.00  0.00     0.293 HD
ENDBRANCH  24  25
ENDBRANCH   7  19
ENDBRANCH   4   7
ENDBRANCH   2   3
ENDBRANCH   1   2
BRANCH   1  27
ATOM     27  C   UNL     1       3.450  -8.297   7.590  1.00  0.00     0.118 C 
BRANCH  27  28
ATOM     28  N   UNL     1       4.858  -8.576   7.839  1.00  0.00    -0.352 N 
ATOM     29  C   UNL     1       5.540  -8.688   9.025  1.00  0.00     0.251 C 
ATOM     30  H   UNL     1       5.405  -8.704   7.030  1.00  0.00     0.163 HD
ATOM     31  O   UNL     1       6.769  -8.721   9.006  1.00  0.00    -0.269 OA
BRANCH  29  32
ATOM     32  C   UNL     1       4.820  -8.763  10.317  1.00  0.00     0.039 A 
ATOM     33  C   UNL     1       5.331  -8.060  11.413  1.00  0.00     0.014 A 
ATOM     34  C   UNL     1       3.684  -9.563  10.471  1.00  0.00     0.014 A 
ATOM     35  C   UNL     1       4.676  -8.118  12.647  1.00  0.00     0.010 A 
ATOM     36  C   UNL     1       2.999  -9.573  11.686  1.00  0.00     0.010 A 
ATOM     37  C   UNL     1       3.490  -8.857  12.788  1.00  0.00    -0.014 A 
BRANCH  37  38
ATOM     38  C   UNL     1       2.744  -8.881  14.073  1.00  0.00     0.031 A 
ATOM     39  C   UNL     1       2.591 -10.166  14.843  1.00  0.00     0.074 A 
ATOM     40  C   UNL     1       2.124  -7.764  14.501  1.00  0.00     0.049 A 
ATOM     41  N   UNL     1       1.919 -10.393  15.943  1.00  0.00    -0.248 NA
ATOM     42  C   UNL     1       3.259 -11.357  14.293  1.00  0.00     0.031 C 
ATOM     43  C   UNL     1       2.130  -6.476  13.805  1.00  0.00     0.029 A 
ATOM     44  N   UNL     1       1.342  -7.540  15.607  1.00  0.00    -0.354 N 
ATOM     45  C   UNL     1       2.049 -11.754  16.194  1.00  0.00     0.074 A 
ATOM     46  C   UNL     1       2.844 -12.307  15.119  1.00  0.00     0.031 C 
ATOM     47  C   UNL     1       1.385  -5.599  14.496  1.00  0.00     0.029 A 
ATOM     48  C   UNL     1       0.829  -6.265  15.670  1.00  0.00     0.049 A 
ATOM     49  H   UNL     1       1.165  -8.226  16.290  1.00  0.00     0.167 HD
ATOM     50  C   UNL     1       1.574 -12.473  17.240  1.00  0.00     0.034 A 
ATOM     51  C   UNL     1      -0.000  -5.697  16.568  1.00  0.00     0.034 A 
ATOM     52  C   UNL     1       0.832 -11.912  18.336  1.00  0.00     0.049 A 
ATOM     53  C   UNL     1      -0.464  -6.504  17.750  1.00  0.00     0.074 A 
ATOM     54  C   UNL     1       0.390 -12.539  19.488  1.00  0.00     0.029 A 
ATOM     55  N   UNL     1       0.419 -10.591  18.418  1.00  0.00    -0.354 N 
ATOM     56  N   UNL     1      -0.192  -7.749  18.056  1.00  0.00    -0.248 NA
ATOM     57  C   UNL     1      -1.317  -5.817  18.732  1.00  0.00     0.031 C 
ATOM     58  C   UNL     1      -0.298 -11.599  20.262  1.00  0.00     0.029 A 
ATOM     59  C   UNL     1      -0.274 -10.383  19.598  1.00  0.00     0.049 A 
ATOM     60  H   UNL     1       0.594  -9.902  17.737  1.00  0.00     0.167 HD
ATOM     61  C   UNL     1      -0.811  -7.986  19.278  1.00  0.00     0.074 A 
ATOM     62  C   UNL     1      -1.454  -6.747  19.667  1.00  0.00     0.031 C 
ATOM     63  C   UNL     1      -0.858  -9.130  20.003  1.00  0.00     0.034 A 
BRANCH  50  64
ATOM     64  C   UNL     1       1.902 -13.943  17.284  1.00  0.00     0.023 A 
ATOM     65  C   UNL     1       3.217 -14.348  17.595  1.00  0.00     0.012 A 
ATOM     66  C   UNL     1       0.908 -14.921  17.082  1.00  0.00     0.148 A 
ATOM     67  C   UNL     1       3.545 -15.700  17.673  1.00  0.00     0.002 A 
ATOM     68  C   UNL     1       1.235 -16.268  17.201  1.00  0.00     0.091 A 
ATOM     69  F   UNL     1      -0.331 -14.519  16.766  1.00  0.00    -0.205 F 
ATOM     70  C   UNL     1       2.553 -16.659  17.486  1.00  0.00     0.022 A 
BRANCH  68  71
ATOM     71  S   UNL     1       0.011 -17.576  17.051  1.00  0.00     0.127 S 
ATOM     72  O   UNL     1       0.330 -18.128  15.736  1.00  0.00    -0.237 OA
ATOM     73  O   UNL     1       0.350 -18.448  18.177  1.00  0.00    -0.237 OA
ATOM     74  O   UNL     1      -1.286 -16.923  17.162  1.00  0.00    -0.744 OA
ENDBRANCH  68  71
ENDBRANCH  50  64
BRANCH  51  75
ATOM     75  C   UNL     1      -0.379  -4.263  16.422  1.00  0.00     0.023 A 
ATOM     76  C   UNL     1       0.159  -3.316  17.316  1.00  0.00     0.012 A 
ATOM     77  C   UNL     1      -1.227  -3.827  15.387  1.00  0.00     0.148 A 
ATOM     78  C   UNL     1      -0.163  -1.964  17.198  1.00  0.00     0.002 A 
ATOM     79  C   UNL     1      -1.500  -2.471  15.242  1.00  0.00     0.091 A 
ATOM     80  F   UNL     1      -1.740  -4.745  14.556  1.00  0.00    -0.205 F 
ATOM     81  C   UNL     1      -0.982  -1.540  16.155  1.00  0.00     0.022 A 
BRANCH  79  82
ATOM     82  S   UNL     1      -2.433  -1.827  13.848  1.00  0.00     0.127 S 
ATOM     83  O   UNL     1      -3.719  -1.516  14.466  1.00  0.00    -0.237 OA
ATOM     84  O   UNL     1      -1.636  -0.662  13.460  1.00  0.00    -0.237 OA
ATOM     85  O   UNL     1      -2.441  -2.898  12.860  1.00  0.00    -0.744 OA
ENDBRANCH  79  82
ENDBRANCH  51  75
BRANCH  63  86
ATOM     86  C   UNL     1      -1.606  -9.100  21.309  1.00  0.00     0.023 A 
ATOM     87  C   UNL     1      -3.015  -9.081  21.304  1.00  0.00     0.012 A 
ATOM     88  C   UNL     1      -0.919  -9.170  22.537  1.00  0.00     0.148 A 
ATOM     89  C   UNL     1      -3.728  -9.105  22.502  1.00  0.00     0.002 A 
ATOM     90  C   UNL     1      -1.637  -9.237  23.725  1.00  0.00     0.091 A 
ATOM     91  F   UNL     1       0.422  -9.165  22.522  1.00  0.00    -0.205 F 
ATOM     92  C   UNL     1      -3.040  -9.195  23.710  1.00  0.00     0.022 A 
BRANCH  90  93
ATOM     93  S   UNL     1      -0.834  -9.447  25.319  1.00  0.00     0.127 S 
ATOM     94  O   UNL     1      -0.925  -8.100  25.879  1.00  0.00    -0.237 OA
ATOM     95  O   UNL     1      -1.689 -10.438  25.973  1.00  0.00    -0.237 OA
ATOM     96  O   UNL     1       0.514  -9.917  25.026  1.00  0.00    -0.744 OA
ENDBRANCH  90  93
ENDBRANCH  63  86
ENDBRANCH  37  38
ENDBRANCH  29  32
ENDBRANCH  27  28
ENDBRANCH   1  27
TORSDOF 17
