REMARK SMILES CC1=C2C(=O)N(C[C@H]3CCCO3)C(=O)N=C2S[C@@H]1C(=O)NCCCNC(=O)c1ccc(-c2c3nc(c(-c4cccc(S(=O)(=O)[O-])c4F)c4ccc([nH]4)c(-c4cccc(S(=O)(=O)[O-])c4F)c4nc(c(-c5cccc(S(=O)(=O)[O-])c5F)c5ccc2[nH]5)C=C4)C=C3)cc1
REMARK SMILES IDX 23 1 22 2 21 3 19 4 20 5 18 7 1 8 2 9 3 10 4 11 16 12 17 13
REMARK SMILES IDX 5 14 6 15 15 16 13 17 14 18 7 19 8 20 9 21 12 22 10 23 11 24
REMARK SMILES IDX 24 25 25 26 26 27 27 29 28 30 29 31 90 32 30 33 89 34 31 35
REMARK SMILES IDX 32 36 33 37 83 38 34 39 88 40 82 41 84 42 35 43 87 44 81 45
REMARK SMILES IDX 80 46 36 48 68 49 48 50 67 51 49 52 52 53 66 54 85 55 50 56
REMARK SMILES IDX 51 57 65 59 86 60 53 61 37 62 38 63 46 64 39 65 41 66 47 67
REMARK SMILES IDX 40 68 42 69 43 70 44 71 45 72 69 73 70 74 78 75 71 76 73 77
REMARK SMILES IDX 79 78 72 79 74 80 75 81 76 82 77 83 54 84 55 85 63 86 56 87
REMARK SMILES IDX 58 88 64 89 57 90 59 91 60 92 61 93 62 94
REMARK H PARENT 21 6 25 28 84 47 52 58
REMARK Flexibility Score: inf
ROOT
ATOM      1  C   UNL     1      -4.627  -1.788   6.738  1.00  0.00     0.042 C 
ENDROOT
BRANCH   1   2
ATOM      2  C   UNL     1      -3.858  -2.707   5.802  1.00  0.00     0.117 C 
BRANCH   2   3
ATOM      3  N   UNL     1      -4.062  -4.113   6.107  1.00  0.00    -0.355 N 
ATOM      4  C   UNL     1      -4.748  -5.090   5.448  1.00  0.00     0.237 C 
ATOM      5  O   UNL     1      -4.707  -6.227   5.932  1.00  0.00    -0.273 OA
ATOM      6  H   UNL     1      -3.628  -4.413   6.938  1.00  0.00     0.163 HD
BRANCH   4   7
ATOM      7  C   UNL     1      -5.491  -4.849   4.125  1.00  0.00     0.169 C 
ATOM      8  C   UNL     1      -3.392  -4.925   2.632  1.00  0.00     0.042 C 
ATOM      9  C   UNL     1      -4.653  -4.228   3.040  1.00  0.00    -0.035 C 
ATOM     10  C   UNL     1      -5.139  -3.087   2.528  1.00  0.00     0.073 C 
ATOM     11  C   UNL     1      -4.577  -2.187   1.528  1.00  0.00     0.264 C 
ATOM     12  C   UNL     1      -6.435  -2.703   3.059  1.00  0.00     0.116 C 
ATOM     13  S   UNL     1      -6.922  -3.743   4.361  1.00  0.00    -0.087 SA
ATOM     14  O   UNL     1      -3.367  -2.053   1.405  1.00  0.00    -0.268 OA
ATOM     15  N   UNL     1      -5.546  -1.490   0.853  1.00  0.00    -0.256 N 
ATOM     16  N   UNL     1      -7.145  -1.734   2.625  1.00  0.00    -0.186 NA
ATOM     17  C   UNL     1      -6.720  -1.066   1.496  1.00  0.00     0.351 C 
ATOM     18  O   UNL     1      -7.379  -0.138   1.045  1.00  0.00    -0.246 OA
BRANCH  15  19
ATOM     19  C   UNL     1      -5.417  -1.216  -0.577  1.00  0.00     0.163 C 
BRANCH  19  20
ATOM     20  C   UNL     1      -4.069  -0.788  -1.192  1.00  0.00     0.138 C 
ATOM     21  C   UNL     1      -3.015  -1.864  -1.428  1.00  0.00     0.036 C 
ATOM     22  O   UNL     1      -4.370  -0.348  -2.548  1.00  0.00    -0.376 OA
ATOM     23  C   UNL     1      -3.492  -2.557  -2.674  1.00  0.00     0.031 C 
ATOM     24  C   UNL     1      -4.083  -1.416  -3.468  1.00  0.00     0.160 C 
ENDBRANCH  19  20
ENDBRANCH  15  19
ENDBRANCH   4   7
ENDBRANCH   2   3
ENDBRANCH   1   2
BRANCH   1  25
ATOM     25  C   UNL     1      -4.038  -1.736   8.139  1.00  0.00     0.118 C 
BRANCH  25  26
ATOM     26  N   UNL     1      -2.707  -1.140   8.157  1.00  0.00    -0.352 N 
ATOM     27  C   UNL     1      -2.244  -0.056   8.861  1.00  0.00     0.251 C 
ATOM     28  H   UNL     1      -2.042  -1.580   7.580  1.00  0.00     0.163 HD
ATOM     29  O   UNL     1      -1.140   0.413   8.597  1.00  0.00    -0.269 OA
BRANCH  27  30
ATOM     30  C   UNL     1      -3.076   0.546   9.923  1.00  0.00     0.039 A 
ATOM     31  C   UNL     1      -3.162   1.938  10.014  1.00  0.00     0.014 A 
ATOM     32  C   UNL     1      -3.764  -0.263  10.831  1.00  0.00     0.014 A 
ATOM     33  C   UNL     1      -3.988   2.518  10.980  1.00  0.00     0.010 A 
ATOM     34  C   UNL     1      -4.645   0.313  11.737  1.00  0.00     0.010 A 
ATOM     35  C   UNL     1      -4.759   1.708  11.828  1.00  0.00    -0.014 A 
BRANCH  35  36
ATOM     36  C   UNL     1      -5.689   2.283  12.830  1.00  0.00     0.031 A 
ATOM     37  C   UNL     1      -5.462   2.022  14.294  1.00  0.00     0.074 A 
ATOM     38  C   UNL     1      -6.797   2.929  12.418  1.00  0.00     0.049 A 
ATOM     39  N   UNL     1      -6.227   2.314  15.313  1.00  0.00    -0.248 NA
ATOM     40  C   UNL     1      -4.227   1.305  14.658  1.00  0.00     0.031 C 
ATOM     41  C   UNL     1      -7.168   3.172  11.022  1.00  0.00     0.029 A 
ATOM     42  N   UNL     1      -7.836   3.467  13.135  1.00  0.00    -0.354 N 
ATOM     43  C   UNL     1      -5.596   1.774  16.427  1.00  0.00     0.074 A 
ATOM     44  C   UNL     1      -4.397   1.115  15.958  1.00  0.00     0.031 C 
ATOM     45  C   UNL     1      -8.351   3.806  10.985  1.00  0.00     0.029 A 
ATOM     46  C   UNL     1      -8.835   3.991  12.349  1.00  0.00     0.049 A 
ATOM     47  H   UNL     1      -7.864   3.477  14.119  1.00  0.00     0.167 HD
ATOM     48  C   UNL     1      -5.966   1.846  17.727  1.00  0.00     0.034 A 
ATOM     49  C   UNL     1     -10.011   4.553  12.690  1.00  0.00     0.034 A 
ATOM     50  C   UNL     1      -7.118   2.567  18.194  1.00  0.00     0.049 A 
ATOM     51  C   UNL     1     -10.357   4.694  14.148  1.00  0.00     0.074 A 
ATOM     52  C   UNL     1      -7.527   2.782  19.498  1.00  0.00     0.029 A 
ATOM     53  N   UNL     1      -8.039   3.199  17.374  1.00  0.00    -0.354 N 
ATOM     54  N   UNL     1      -9.672   4.308  15.197  1.00  0.00    -0.248 NA
ATOM     55  C   UNL     1     -11.616   5.380  14.471  1.00  0.00     0.031 C 
ATOM     56  C   UNL     1      -8.697   3.549  19.466  1.00  0.00     0.029 A 
ATOM     57  C   UNL     1      -9.012   3.813  18.142  1.00  0.00     0.049 A 
ATOM     58  H   UNL     1      -8.005   3.210  16.390  1.00  0.00     0.167 HD
ATOM     59  C   UNL     1     -10.397   4.735  16.303  1.00  0.00     0.074 A 
ATOM     60  C   UNL     1     -11.566   5.423  15.796  1.00  0.00     0.031 C 
ATOM     61  C   UNL     1     -10.129   4.556  17.620  1.00  0.00     0.034 A 
BRANCH  48  62
ATOM     62  C   UNL     1      -5.071   1.191  18.744  1.00  0.00     0.023 A 
ATOM     63  C   UNL     1      -3.837   1.792  19.065  1.00  0.00     0.012 A 
ATOM     64  C   UNL     1      -5.466   0.019  19.419  1.00  0.00     0.148 A 
ATOM     65  C   UNL     1      -2.995   1.221  20.018  1.00  0.00     0.002 A 
ATOM     66  C   UNL     1      -4.638  -0.522  20.396  1.00  0.00     0.091 A 
ATOM     67  F   UNL     1      -6.630  -0.554  19.082  1.00  0.00    -0.205 F 
ATOM     68  C   UNL     1      -3.400   0.072  20.690  1.00  0.00     0.022 A 
BRANCH  66  69
ATOM     69  S   UNL     1      -5.107  -1.961  21.365  1.00  0.00     0.127 S 
ATOM     70  O   UNL     1      -4.306  -3.012  20.741  1.00  0.00    -0.237 OA
ATOM     71  O   UNL     1      -4.675  -1.585  22.712  1.00  0.00    -0.237 OA
ATOM     72  O   UNL     1      -6.550  -2.090  21.210  1.00  0.00    -0.744 OA
ENDBRANCH  66  69
ENDBRANCH  48  62
BRANCH  49  73
ATOM     73  C   UNL     1     -10.903   5.105  11.632  1.00  0.00     0.023 A 
ATOM     74  C   UNL     1     -11.006   6.502  11.487  1.00  0.00     0.012 A 
ATOM     75  C   UNL     1     -11.608   4.268  10.748  1.00  0.00     0.148 A 
ATOM     76  C   UNL     1     -11.816   7.056  10.496  1.00  0.00     0.002 A 
ATOM     77  C   UNL     1     -12.376   4.827   9.732  1.00  0.00     0.091 A 
ATOM     78  F   UNL     1     -11.511   2.941  10.912  1.00  0.00    -0.205 F 
ATOM     79  C   UNL     1     -12.492   6.220   9.612  1.00  0.00     0.022 A 
BRANCH  77  80
ATOM     80  S   UNL     1     -13.177   3.820   8.477  1.00  0.00     0.127 S 
ATOM     81  O   UNL     1     -14.564   3.822   8.932  1.00  0.00    -0.237 OA
ATOM     82  O   UNL     1     -12.927   4.590   7.258  1.00  0.00    -0.237 OA
ATOM     83  O   UNL     1     -12.491   2.535   8.521  1.00  0.00    -0.744 OA
ENDBRANCH  77  80
ENDBRANCH  49  73
BRANCH  61  84
ATOM     84  C   UNL     1     -11.091   5.144  18.615  1.00  0.00     0.023 A 
ATOM     85  C   UNL     1     -12.325   4.505  18.848  1.00  0.00     0.012 A 
ATOM     86  C   UNL     1     -10.735   6.269  19.384  1.00  0.00     0.148 A 
ATOM     87  C   UNL     1     -13.199   4.990  19.820  1.00  0.00     0.002 A 
ATOM     88  C   UNL     1     -11.593   6.722  20.378  1.00  0.00     0.091 A 
ATOM     89  F   UNL     1      -9.565   6.874  19.130  1.00  0.00    -0.205 F 
ATOM     90  C   UNL     1     -12.828   6.089  20.592  1.00  0.00     0.022 A 
BRANCH  88  91
ATOM     91  S   UNL     1     -11.152   8.074  21.477  1.00  0.00     0.127 S 
ATOM     92  O   UNL     1     -11.920   9.181  20.912  1.00  0.00    -0.237 OA
ATOM     93  O   UNL     1     -11.635   7.596  22.773  1.00  0.00    -0.237 OA
ATOM     94  O   UNL     1      -9.703   8.200  21.387  1.00  0.00    -0.744 OA
ENDBRANCH  88  91
ENDBRANCH  61  84
ENDBRANCH  35  36
ENDBRANCH  27  30
ENDBRANCH  25  26
ENDBRANCH   1  25
TORSDOF 15
