REMARK SMILES CC(C)c1noc(C[N@@H+]2[C@@H](C(=O)NCCCNC(=O)c3ccc(-c4c5nc(c(-c6cccc(S(=O)(=O)[O-])c6F)c6ccc([nH]6)c(-c6cccc(S(=O)(=O)[O-])c6F)c6nc(c(-c7cccc(S(=O)(=O)[O-])c7F)c7ccc4[nH]7)C=C6)C=C5)cc3)C[C@H]3CCCC[C@@H]32)n1
REMARK SMILES IDX 15 1 14 2 13 3 11 4 12 5 10 7 9 8 89 9 83 11 84 12 88 13
REMARK SMILES IDX 85 14 87 15 86 16 8 17 7 18 4 19 5 20 90 21 6 22 2 23 1 24
REMARK SMILES IDX 3 25 16 26 17 27 18 28 19 30 20 31 21 32 82 33 22 34 81 35
REMARK SMILES IDX 23 36 24 37 25 38 75 39 26 40 80 41 74 42 76 43 27 44 79 45
REMARK SMILES IDX 73 46 72 47 28 49 60 50 40 51 59 52 41 53 44 54 58 55 77 56
REMARK SMILES IDX 42 57 43 58 57 60 78 61 45 62 29 63 30 64 38 65 31 66 33 67
REMARK SMILES IDX 39 68 32 69 34 70 35 71 36 72 37 73 61 74 62 75 70 76 63 77
REMARK SMILES IDX 65 78 71 79 64 80 66 81 67 82 68 83 69 84 46 85 47 86 55 87
REMARK SMILES IDX 48 88 50 89 56 90 49 91 51 92 52 93 53 94 54 95
REMARK H PARENT 13 6 9 10 17 29 76 48 44 59
REMARK Flexibility Score: inf
ROOT
ATOM      1  C   UNL     1      -8.061   2.631   1.171  1.00  0.00     0.042 C 
ENDROOT
BRANCH   1   2
ATOM      2  C   UNL     1      -7.244   2.308   2.415  1.00  0.00     0.118 C 
BRANCH   2   3
ATOM      3  N   UNL     1      -7.642   1.046   3.019  1.00  0.00    -0.351 N 
ATOM      4  C   UNL     1      -6.913  -0.105   3.168  1.00  0.00     0.278 C 
ATOM      5  O   UNL     1      -7.454  -1.062   3.724  1.00  0.00    -0.268 OA
ATOM      6  H   UNL     1      -8.562   1.015   3.369  1.00  0.00     0.163 HD
BRANCH   4   7
ATOM      7  C   UNL     1      -5.447  -0.096   2.686  1.00  0.00     0.275 C 
ATOM      8  N   UNL     1      -4.883  -1.477   2.639  1.00  0.00    -0.314 N 
ATOM      9  C   UNL     1      -4.077  -1.615   3.860  1.00  0.00     0.188 C 
ATOM     10  H   UNL     1      -5.598  -2.204   2.654  1.00  0.00     0.349 HD
ATOM     11  C   UNL     1      -4.603   0.700   3.702  1.00  0.00     0.085 C 
ATOM     12  C   UNL     1      -3.463  -0.233   4.051  1.00  0.00     0.054 C 
ATOM     13  C   UNL     1      -3.026  -2.718   3.999  1.00  0.00     0.065 C 
ATOM     14  C   UNL     1      -2.844  -0.093   5.429  1.00  0.00     0.010 C 
ATOM     15  C   UNL     1      -2.240  -2.564   5.312  1.00  0.00     0.006 C 
ATOM     16  C   UNL     1      -1.734  -1.138   5.565  1.00  0.00     0.001 C 
BRANCH   8  17
ATOM     17  C   UNL     1      -4.244  -1.799   1.344  1.00  0.00     0.364 C 
BRANCH  17  18
ATOM     18  C   UNL     1      -2.986  -1.062   1.007  1.00  0.00     0.281 A 
ATOM     19  C   UNL     1      -1.050  -0.276   0.923  1.00  0.00     0.174 A 
ATOM     20  N   UNL     1      -1.815   0.765   0.567  1.00  0.00    -0.062 NA
ATOM     21  N   UNL     1      -1.735  -1.435   1.174  1.00  0.00    -0.191 NA
ATOM     22  O   UNL     1      -3.109   0.237   0.603  1.00  0.00    -0.333 OA
BRANCH  19  23
ATOM     23  C   UNL     1       0.426  -0.192   1.110  1.00  0.00     0.055 C 
ATOM     24  C   UNL     1       1.142   0.096  -0.207  1.00  0.00     0.016 C 
ATOM     25  C   UNL     1       0.816   0.829   2.181  1.00  0.00     0.016 C 
ENDBRANCH  19  23
ENDBRANCH  17  18
ENDBRANCH   8  17
ENDBRANCH   4   7
ENDBRANCH   2   3
ENDBRANCH   1   2
BRANCH   1  26
ATOM     26  C   UNL     1      -9.535   2.903   1.453  1.00  0.00     0.118 C 
BRANCH  26  27
ATOM     27  N   UNL     1      -9.741   4.069   2.306  1.00  0.00    -0.352 N 
ATOM     28  C   UNL     1     -10.415   5.239   2.058  1.00  0.00     0.251 C 
ATOM     29  H   UNL     1      -9.333   4.007   3.200  1.00  0.00     0.163 HD
ATOM     30  O   UNL     1     -10.321   6.173   2.853  1.00  0.00    -0.269 OA
BRANCH  28  31
ATOM     31  C   UNL     1     -11.228   5.391   0.832  1.00  0.00     0.039 A 
ATOM     32  C   UNL     1     -11.127   6.576   0.098  1.00  0.00     0.014 A 
ATOM     33  C   UNL     1     -12.082   4.372   0.403  1.00  0.00     0.014 A 
ATOM     34  C   UNL     1     -11.808   6.699  -1.116  1.00  0.00     0.010 A 
ATOM     35  C   UNL     1     -12.701   4.466  -0.841  1.00  0.00     0.010 A 
ATOM     36  C   UNL     1     -12.557   5.623  -1.621  1.00  0.00    -0.014 A 
BRANCH  36  37
ATOM     37  C   UNL     1     -13.136   5.659  -2.990  1.00  0.00     0.031 A 
ATOM     38  C   UNL     1     -14.622   5.558  -3.198  1.00  0.00     0.074 A 
ATOM     39  C   UNL     1     -12.306   5.671  -4.053  1.00  0.00     0.049 A 
ATOM     40  N   UNL     1     -15.291   5.467  -4.318  1.00  0.00    -0.248 NA
ATOM     41  C   UNL     1     -15.465   5.537  -1.991  1.00  0.00     0.031 C 
ATOM     42  C   UNL     1     -10.843   5.693  -3.983  1.00  0.00     0.029 A 
ATOM     43  N   UNL     1     -12.571   5.625  -5.400  1.00  0.00    -0.354 N 
ATOM     44  C   UNL     1     -16.628   5.352  -3.955  1.00  0.00     0.074 A 
ATOM     45  C   UNL     1     -16.673   5.355  -2.509  1.00  0.00     0.031 C 
ATOM     46  C   UNL     1     -10.340   5.649  -5.226  1.00  0.00     0.029 A 
ATOM     47  C   UNL     1     -11.439   5.554  -6.180  1.00  0.00     0.049 A 
ATOM     48  H   UNL     1     -13.482   5.643  -5.771  1.00  0.00     0.167 HD
ATOM     49  C   UNL     1     -17.720   5.276  -4.753  1.00  0.00     0.034 A 
ATOM     50  C   UNL     1     -11.299   5.399  -7.512  1.00  0.00     0.034 A 
ATOM     51  C   UNL     1     -17.674   5.296  -6.192  1.00  0.00     0.049 A 
ATOM     52  C   UNL     1     -12.529   5.317  -8.373  1.00  0.00     0.074 A 
ATOM     53  C   UNL     1     -18.731   5.300  -7.085  1.00  0.00     0.029 A 
ATOM     54  N   UNL     1     -16.513   5.302  -6.949  1.00  0.00    -0.354 N 
ATOM     55  N   UNL     1     -13.790   5.370  -8.018  1.00  0.00    -0.248 NA
ATOM     56  C   UNL     1     -12.319   5.186  -9.822  1.00  0.00     0.031 C 
ATOM     57  C   UNL     1     -18.210   5.278  -8.382  1.00  0.00     0.029 A 
ATOM     58  C   UNL     1     -16.827   5.292  -8.298  1.00  0.00     0.049 A 
ATOM     59  H   UNL     1     -15.599   5.312  -6.582  1.00  0.00     0.167 HD
ATOM     60  C   UNL     1     -14.521   5.303  -9.198  1.00  0.00     0.074 A 
ATOM     61  C   UNL     1     -13.562   5.241 -10.281  1.00  0.00     0.031 C 
ATOM     62  C   UNL     1     -15.865   5.275  -9.370  1.00  0.00     0.034 A 
BRANCH  49  63
ATOM     63  C   UNL     1     -19.072   5.217  -4.092  1.00  0.00     0.023 A 
ATOM     64  C   UNL     1     -19.587   6.371  -3.467  1.00  0.00     0.012 A 
ATOM     65  C   UNL     1     -19.867   4.056  -4.161  1.00  0.00     0.148 A 
ATOM     66  C   UNL     1     -20.859   6.364  -2.897  1.00  0.00     0.002 A 
ATOM     67  C   UNL     1     -21.151   4.069  -3.629  1.00  0.00     0.091 A 
ATOM     68  F   UNL     1     -19.354   2.964  -4.745  1.00  0.00    -0.205 F 
ATOM     69  C   UNL     1     -21.645   5.218  -2.988  1.00  0.00     0.022 A 
BRANCH  67  70
ATOM     70  S   UNL     1     -22.274   2.674  -3.761  1.00  0.00     0.127 S 
ATOM     71  O   UNL     1     -22.384   2.251  -2.366  1.00  0.00    -0.237 OA
ATOM     72  O   UNL     1     -23.479   3.301  -4.304  1.00  0.00    -0.237 OA
ATOM     73  O   UNL     1     -21.629   1.719  -4.651  1.00  0.00    -0.744 OA
ENDBRANCH  67  70
ENDBRANCH  49  63
BRANCH  50  74
ATOM     74  C   UNL     1      -9.938   5.332  -8.118  1.00  0.00     0.023 A 
ATOM     75  C   UNL     1      -9.492   6.382  -8.944  1.00  0.00     0.012 A 
ATOM     76  C   UNL     1      -9.083   4.240  -7.875  1.00  0.00     0.148 A 
ATOM     77  C   UNL     1      -8.236   6.326  -9.549  1.00  0.00     0.002 A 
ATOM     78  C   UNL     1      -7.810   4.220  -8.431  1.00  0.00     0.091 A 
ATOM     79  F   UNL     1      -9.530   3.243  -7.097  1.00  0.00    -0.205 F 
ATOM     80  C   UNL     1      -7.391   5.251  -9.285  1.00  0.00     0.022 A 
BRANCH  78  81
ATOM     81  S   UNL     1      -6.610   2.944  -8.032  1.00  0.00     0.127 S 
ATOM     82  O   UNL     1      -6.576   2.167  -9.268  1.00  0.00    -0.237 OA
ATOM     83  O   UNL     1      -5.406   3.732  -7.765  1.00  0.00    -0.237 OA
ATOM     84  O   UNL     1      -7.144   2.257  -6.863  1.00  0.00    -0.744 OA
ENDBRANCH  78  81
ENDBRANCH  50  74
BRANCH  62  85
ATOM     85  C   UNL     1     -16.387   5.195 -10.781  1.00  0.00     0.023 A 
ATOM     86  C   UNL     1     -16.256   3.994 -11.507  1.00  0.00     0.012 A 
ATOM     87  C   UNL     1     -17.064   6.284 -11.364  1.00  0.00     0.148 A 
ATOM     88  C   UNL     1     -16.759   3.889 -12.803  1.00  0.00     0.002 A 
ATOM     89  C   UNL     1     -17.608   6.156 -12.636  1.00  0.00     0.091 A 
ATOM     90  F   UNL     1     -17.165   7.423 -10.663  1.00  0.00    -0.205 F 
ATOM     91  C   UNL     1     -17.445   4.965 -13.362  1.00  0.00     0.022 A 
BRANCH  89  92
ATOM     92  S   UNL     1     -18.586   7.452 -13.405  1.00  0.00     0.127 S 
ATOM     93  O   UNL     1     -17.703   7.890 -14.485  1.00  0.00    -0.237 OA
ATOM     94  O   UNL     1     -19.774   6.721 -13.847  1.00  0.00    -0.237 OA
ATOM     95  O   UNL     1     -18.835   8.441 -12.365  1.00  0.00    -0.744 OA
ENDBRANCH  89  92
ENDBRANCH  62  85
ENDBRANCH  36  37
ENDBRANCH  28  31
ENDBRANCH  26  27
ENDBRANCH   1  26
TORSDOF 16
