REMARK SMILES C[C@@H](C(=O)NCCCNC(=O)c1ccc(-c2c3nc(c(-c4cccc(S(=O)(=O)[O-])c4F)c4ccc([nH]4)c(-c4cccc(S(=O)(=O)[O-])c4F)c4nc(c(-c5cccc(S(=O)(=O)[O-])c5F)c5ccc2[nH]5)C=C4)C=C3)cc1)c1ccc(Cc2cccs2)cc1F
REMARK SMILES IDX 7 1 6 2 5 3 3 4 4 5 2 7 1 8 75 9 76 10 86 11 77 12 85 13
REMARK SMILES IDX 87 14 78 15 79 16 80 17 81 18 84 19 82 20 83 21 8 22 9 23
REMARK SMILES IDX 10 24 11 26 12 27 13 28 74 29 14 30 73 31 15 32 16 33 17 34
REMARK SMILES IDX 67 35 18 36 72 37 66 38 68 39 19 40 71 41 65 42 64 43 20 45
REMARK SMILES IDX 52 46 32 47 51 48 33 49 36 50 50 51 69 52 34 53 35 54 49 56
REMARK SMILES IDX 70 57 37 58 21 59 22 60 30 61 23 62 25 63 31 64 24 65 26 66
REMARK SMILES IDX 27 67 28 68 29 69 53 70 54 71 62 72 55 73 57 74 63 75 56 76
REMARK SMILES IDX 58 77 59 78 60 79 61 80 38 81 39 82 47 83 40 84 42 85 48 86
REMARK SMILES IDX 41 87 43 88 44 89 45 90 46 91
REMARK H PARENT 5 6 9 25 68 44 36 55
REMARK Flexibility Score: inf
ROOT
ATOM      1  C   UNL     1       4.225   0.406   1.231  1.00  0.00     0.042 C 
ENDROOT
BRANCH   1   2
ATOM      2  C   UNL     1       3.363  -0.659   1.902  1.00  0.00     0.117 C 
BRANCH   2   3
ATOM      3  N   UNL     1       2.305  -0.063   2.693  1.00  0.00    -0.356 N 
ATOM      4  C   UNL     1       0.977   0.085   2.425  1.00  0.00     0.227 C 
ATOM      5  O   UNL     1       0.318   0.714   3.256  1.00  0.00    -0.274 OA
ATOM      6  H   UNL     1       2.593   0.292   3.565  1.00  0.00     0.163 HD
BRANCH   4   7
ATOM      7  C   UNL     1       0.363  -0.549   1.166  1.00  0.00     0.108 C 
ATOM      8  C   UNL     1       0.816   0.140  -0.126  1.00  0.00     0.023 C 
BRANCH   7   9
ATOM      9  C   UNL     1      -1.158  -0.561   1.234  1.00  0.00    -0.000 A 
ATOM     10  C   UNL     1      -1.894   0.628   1.131  1.00  0.00     0.008 A 
ATOM     11  C   UNL     1      -1.859  -1.754   1.418  1.00  0.00     0.127 A 
ATOM     12  C   UNL     1      -3.287   0.612   1.185  1.00  0.00     0.004 A 
ATOM     13  C   UNL     1      -3.253  -1.776   1.494  1.00  0.00     0.043 A 
ATOM     14  F   UNL     1      -1.195  -2.915   1.514  1.00  0.00    -0.207 F 
ATOM     15  C   UNL     1      -3.986  -0.587   1.377  1.00  0.00    -0.040 A 
BRANCH  15  16
ATOM     16  C   UNL     1      -5.497  -0.591   1.439  1.00  0.00     0.082 C 
BRANCH  16  17
ATOM     17  C   UNL     1      -6.068  -0.015   2.709  1.00  0.00     0.009 A 
ATOM     18  C   UNL     1      -5.952   1.269   3.212  1.00  0.00     0.016 A 
ATOM     19  S   UNL     1      -7.064  -0.982   3.719  1.00  0.00    -0.149 S 
ATOM     20  C   UNL     1      -6.673   1.454   4.426  1.00  0.00     0.012 A 
ATOM     21  C   UNL     1      -7.333   0.309   4.808  1.00  0.00     0.065 A 
ENDBRANCH  16  17
ENDBRANCH  15  16
ENDBRANCH   7   9
ENDBRANCH   4   7
ENDBRANCH   2   3
ENDBRANCH   1   2
BRANCH   1  22
ATOM     22  C   UNL     1       4.972   1.303   2.211  1.00  0.00     0.118 C 
BRANCH  22  23
ATOM     23  N   UNL     1       5.961   0.575   2.996  1.00  0.00    -0.352 N 
ATOM     24  C   UNL     1       7.316   0.779   3.091  1.00  0.00     0.251 C 
ATOM     25  H   UNL     1       5.607  -0.169   3.535  1.00  0.00     0.163 HD
ATOM     26  O   UNL     1       8.024  -0.051   3.656  1.00  0.00    -0.269 OA
BRANCH  24  27
ATOM     27  C   UNL     1       7.918   1.991   2.497  1.00  0.00     0.039 A 
ATOM     28  C   UNL     1       9.080   1.873   1.730  1.00  0.00     0.014 A 
ATOM     29  C   UNL     1       7.327   3.240   2.694  1.00  0.00     0.014 A 
ATOM     30  C   UNL     1       9.615   3.003   1.106  1.00  0.00     0.010 A 
ATOM     31  C   UNL     1       7.811   4.346   2.007  1.00  0.00     0.010 A 
ATOM     32  C   UNL     1       8.966   4.242   1.214  1.00  0.00    -0.014 A 
BRANCH  32  33
ATOM     33  C   UNL     1       9.466   5.462   0.531  1.00  0.00     0.031 A 
ATOM     34  C   UNL     1       9.865   6.657   1.351  1.00  0.00     0.074 A 
ATOM     35  C   UNL     1       9.433   5.543  -0.813  1.00  0.00     0.049 A 
ATOM     36  N   UNL     1      10.153   7.870   0.960  1.00  0.00    -0.248 NA
ATOM     37  C   UNL     1       9.904   6.471   2.812  1.00  0.00     0.031 C 
ATOM     38  C   UNL     1       9.006   4.473  -1.716  1.00  0.00     0.029 A 
ATOM     39  N   UNL     1       9.717   6.593  -1.651  1.00  0.00    -0.354 N 
ATOM     40  C   UNL     1      10.352   8.604   2.123  1.00  0.00     0.074 A 
ATOM     41  C   UNL     1      10.123   7.707   3.234  1.00  0.00     0.031 C 
ATOM     42  C   UNL     1       9.040   4.926  -2.979  1.00  0.00     0.029 A 
ATOM     43  C   UNL     1       9.447   6.328  -2.974  1.00  0.00     0.049 A 
ATOM     44  H   UNL     1      10.079   7.453  -1.336  1.00  0.00     0.167 HD
ATOM     45  C   UNL     1      10.715   9.902   2.257  1.00  0.00     0.034 A 
ATOM     46  C   UNL     1       9.495   7.129  -4.056  1.00  0.00     0.034 A 
ATOM     47  C   UNL     1      10.980  10.776   1.147  1.00  0.00     0.049 A 
ATOM     48  C   UNL     1       9.935   8.559  -3.892  1.00  0.00     0.074 A 
ATOM     49  C   UNL     1      11.438  12.081   1.170  1.00  0.00     0.029 A 
ATOM     50  N   UNL     1      10.801  10.437  -0.186  1.00  0.00    -0.354 N 
ATOM     51  N   UNL     1      10.251   9.201  -2.794  1.00  0.00    -0.248 NA
ATOM     52  C   UNL     1      10.059   9.364  -5.115  1.00  0.00     0.031 C 
ATOM     53  C   UNL     1      11.507  12.541  -0.149  1.00  0.00     0.029 A 
ATOM     54  C   UNL     1      11.132  11.509  -0.995  1.00  0.00     0.049 A 
ATOM     55  H   UNL     1      10.484   9.562  -0.508  1.00  0.00     0.167 HD
ATOM     56  C   UNL     1      10.655  10.470  -3.196  1.00  0.00     0.074 A 
ATOM     57  C   UNL     1      10.545  10.504  -4.640  1.00  0.00     0.031 C 
ATOM     58  C   UNL     1      11.075  11.510  -2.435  1.00  0.00     0.034 A 
BRANCH  45  59
ATOM     59  C   UNL     1      10.874  10.440   3.656  1.00  0.00     0.023 A 
ATOM     60  C   UNL     1      11.930   9.978   4.469  1.00  0.00     0.012 A 
ATOM     61  C   UNL     1       9.993  11.417   4.160  1.00  0.00     0.148 A 
ATOM     62  C   UNL     1      12.075  10.438   5.777  1.00  0.00     0.002 A 
ATOM     63  C   UNL     1      10.176  11.909   5.447  1.00  0.00     0.091 A 
ATOM     64  F   UNL     1       8.982  11.831   3.384  1.00  0.00    -0.205 F 
ATOM     65  C   UNL     1      11.204  11.409   6.263  1.00  0.00     0.022 A 
BRANCH  63  66
ATOM     66  S   UNL     1       9.159  13.223   6.129  1.00  0.00     0.127 S 
ATOM     67  O   UNL     1       8.316  12.487   7.069  1.00  0.00    -0.237 OA
ATOM     68  O   UNL     1      10.156  14.091   6.756  1.00  0.00    -0.237 OA
ATOM     69  O   UNL     1       8.466  13.820   4.996  1.00  0.00    -0.744 OA
ENDBRANCH  63  66
ENDBRANCH  45  59
BRANCH  46  70
ATOM     70  C   UNL     1       9.162   6.571  -5.397  1.00  0.00     0.023 A 
ATOM     71  C   UNL     1      10.193   6.353  -6.331  1.00  0.00     0.012 A 
ATOM     72  C   UNL     1       7.844   6.199  -5.727  1.00  0.00     0.148 A 
ATOM     73  C   UNL     1       9.915   5.795  -7.579  1.00  0.00     0.002 A 
ATOM     74  C   UNL     1       7.583   5.592  -6.950  1.00  0.00     0.091 A 
ATOM     75  F   UNL     1       6.879   6.418  -4.824  1.00  0.00    -0.205 F 
ATOM     76  C   UNL     1       8.614   5.404  -7.884  1.00  0.00     0.022 A 
BRANCH  74  77
ATOM     77  S   UNL     1       5.968   4.934  -7.379  1.00  0.00     0.127 S 
ATOM     78  O   UNL     1       5.584   5.788  -8.500  1.00  0.00    -0.237 OA
ATOM     79  O   UNL     1       6.294   3.554  -7.739  1.00  0.00    -0.237 OA
ATOM     80  O   UNL     1       5.153   5.067  -6.180  1.00  0.00    -0.744 OA
ENDBRANCH  74  77
ENDBRANCH  46  70
BRANCH  58  81
ATOM     81  C   UNL     1      11.518  12.767  -3.136  1.00  0.00     0.023 A 
ATOM     82  C   UNL     1      10.568  13.635  -3.707  1.00  0.00     0.012 A 
ATOM     83  C   UNL     1      12.878  13.141  -3.120  1.00  0.00     0.148 A 
ATOM     84  C   UNL     1      10.966  14.848  -4.268  1.00  0.00     0.002 A 
ATOM     85  C   UNL     1      13.260  14.373  -3.634  1.00  0.00     0.091 A 
ATOM     86  F   UNL     1      13.767  12.290  -2.588  1.00  0.00    -0.205 F 
ATOM     87  C   UNL     1      12.307  15.223  -4.218  1.00  0.00     0.022 A 
BRANCH  85  88
ATOM     88  S   UNL     1      14.945  14.985  -3.520  1.00  0.00     0.127 S 
ATOM     89  O   UNL     1      15.366  14.963  -4.920  1.00  0.00    -0.237 OA
ATOM     90  O   UNL     1      14.750  16.323  -2.962  1.00  0.00    -0.237 OA
ATOM     91  O   UNL     1      15.652  14.060  -2.644  1.00  0.00    -0.744 OA
ENDBRANCH  85  88
ENDBRANCH  58  81
ENDBRANCH  32  33
ENDBRANCH  24  27
ENDBRANCH  22  23
ENDBRANCH   1  22
TORSDOF 16
