REMARK SMILES C[C@@H]1CCC[C@](CCSc2ccccc2)(C(=O)NCCCNC(=O)c2ccc(-c3c4nc(c(-c5cccc(S(=O)(=O)[O-])c5F)c5ccc([nH]5)c(-c5cccc(S(=O)(=O)[O-])c5F)c5nc(c(-c6cccc(S(=O)(=O)[O-])c6F)c6ccc3[nH]6)C=C5)C=C4)cc2)C1
REMARK SMILES IDX 19 1 18 2 16 3 17 4 6 6 1 7 2 8 3 9 88 10 4 11 5 12 7 13
REMARK SMILES IDX 8 14 9 15 10 16 11 17 15 18 12 19 14 20 13 21 20 22 21 23
REMARK SMILES IDX 22 24 23 25 24 27 25 28 26 29 87 30 27 31 86 32 28 33 29 34
REMARK SMILES IDX 30 35 80 36 31 37 85 38 79 39 81 40 32 41 84 42 78 43 77 44
REMARK SMILES IDX 33 46 65 47 45 48 64 49 46 50 49 51 63 52 82 53 47 54 48 55
REMARK SMILES IDX 62 57 83 58 50 59 34 60 35 61 43 62 36 63 38 64 44 65 37 66
REMARK SMILES IDX 39 67 40 68 41 69 42 70 66 71 67 72 75 73 68 74 70 75 76 76
REMARK SMILES IDX 69 77 71 78 72 79 73 80 74 81 51 82 52 83 60 84 53 85 55 86
REMARK SMILES IDX 61 87 54 88 56 89 57 90 58 91 59 92
REMARK H PARENT 18 5 22 26 81 45 49 56
REMARK Flexibility Score: inf
ROOT
ATOM      1  C   UNL     1      -0.492   1.208   2.226  1.00  0.00     0.117 C 
ENDROOT
BRANCH   1   2
ATOM      2  N   UNL     1      -1.543   0.232   2.316  1.00  0.00    -0.356 N 
ATOM      3  C   UNL     1      -2.031  -0.685   1.460  1.00  0.00     0.226 C 
ATOM      4  O   UNL     1      -3.099  -1.183   1.845  1.00  0.00    -0.274 OA
ATOM      5  H   UNL     1      -2.002   0.234   3.187  1.00  0.00     0.163 HD
BRANCH   3   6
ATOM      6  C   UNL     1      -1.425  -1.067   0.077  1.00  0.00     0.050 C 
ATOM      7  C   UNL     1       2.164   0.278   0.238  1.00  0.00     0.007 C 
ATOM      8  C   UNL     1       0.966  -0.065  -0.670  1.00  0.00    -0.013 C 
ATOM      9  C   UNL     1       0.248   1.168  -1.234  1.00  0.00     0.003 C 
ATOM     10  C   UNL     1       0.107  -1.182  -0.052  1.00  0.00     0.020 C 
ATOM     11  C   UNL     1      -1.271   1.240  -1.083  1.00  0.00     0.001 C 
ATOM     12  C   UNL     1      -1.980  -0.104  -0.996  1.00  0.00     0.017 C 
BRANCH   6  13
ATOM     13  C   UNL     1      -2.022  -2.512  -0.217  1.00  0.00     0.028 C 
BRANCH  13  14
ATOM     14  C   UNL     1      -1.375  -3.746   0.464  1.00  0.00     0.076 C 
BRANCH  14  15
ATOM     15  S   UNL     1      -1.606  -4.025   2.262  1.00  0.00    -0.126 SA
BRANCH  15  16
ATOM     16  C   UNL     1      -0.222  -3.175   3.004  1.00  0.00     0.007 A 
ATOM     17  C   UNL     1      -0.472  -2.295   4.064  1.00  0.00     0.015 A 
ATOM     18  C   UNL     1       1.101  -3.372   2.594  1.00  0.00     0.015 A 
ATOM     19  C   UNL     1       0.565  -1.559   4.645  1.00  0.00     0.001 A 
ATOM     20  C   UNL     1       2.139  -2.630   3.169  1.00  0.00     0.001 A 
ATOM     21  C   UNL     1       1.869  -1.713   4.183  1.00  0.00     0.000 A 
ENDBRANCH  15  16
ENDBRANCH  14  15
ENDBRANCH  13  14
ENDBRANCH   6  13
ENDBRANCH   3   6
ENDBRANCH   1   2
BRANCH   1  22
ATOM     22  C   UNL     1      -1.002   2.592   2.584  1.00  0.00     0.042 C 
BRANCH  22  23
ATOM     23  C   UNL     1      -1.085   2.785   4.088  1.00  0.00     0.118 C 
BRANCH  23  24
ATOM     24  N   UNL     1       0.238   2.960   4.684  1.00  0.00    -0.352 N 
ATOM     25  C   UNL     1       0.819   4.099   5.190  1.00  0.00     0.251 C 
ATOM     26  H   UNL     1       0.792   2.147   4.730  1.00  0.00     0.163 HD
ATOM     27  O   UNL     1       2.023   4.126   5.431  1.00  0.00    -0.269 OA
BRANCH  25  28
ATOM     28  C   UNL     1      -0.019   5.293   5.418  1.00  0.00     0.039 A 
ATOM     29  C   UNL     1       0.421   6.545   4.983  1.00  0.00     0.014 A 
ATOM     30  C   UNL     1      -1.274   5.154   6.012  1.00  0.00     0.014 A 
ATOM     31  C   UNL     1      -0.445   7.640   5.058  1.00  0.00     0.010 A 
ATOM     32  C   UNL     1      -2.170   6.212   5.974  1.00  0.00     0.010 A 
ATOM     33  C   UNL     1      -1.766   7.470   5.503  1.00  0.00    -0.014 A 
BRANCH  33  34
ATOM     34  C   UNL     1      -2.762   8.573   5.476  1.00  0.00     0.031 A 
ATOM     35  C   UNL     1      -3.468   8.974   6.746  1.00  0.00     0.074 A 
ATOM     36  C   UNL     1      -3.135   9.109   4.295  1.00  0.00     0.049 A 
ATOM     37  N   UNL     1      -4.464   9.804   6.909  1.00  0.00    -0.248 NA
ATOM     38  C   UNL     1      -3.031   8.318   7.993  1.00  0.00     0.031 C 
ATOM     39  C   UNL     1      -2.606   8.726   2.983  1.00  0.00     0.029 A 
ATOM     40  N   UNL     1      -4.080  10.061   4.000  1.00  0.00    -0.354 N 
ATOM     41  C   UNL     1      -4.815   9.717   8.251  1.00  0.00     0.074 A 
ATOM     42  C   UNL     1      -3.945   8.735   8.856  1.00  0.00     0.031 C 
ATOM     43  C   UNL     1      -3.232   9.432   2.029  1.00  0.00     0.029 A 
ATOM     44  C   UNL     1      -4.232  10.291   2.651  1.00  0.00     0.049 A 
ATOM     45  H   UNL     1      -4.601  10.534   4.689  1.00  0.00     0.167 HD
ATOM     46  C   UNL     1      -5.757  10.415   8.927  1.00  0.00     0.034 A 
ATOM     47  C   UNL     1      -5.092  11.092   1.990  1.00  0.00     0.034 A 
ATOM     48  C   UNL     1      -6.551  11.456   8.339  1.00  0.00     0.049 A 
ATOM     49  C   UNL     1      -6.065  11.924   2.782  1.00  0.00     0.074 A 
ATOM     50  C   UNL     1      -7.413  12.336   8.968  1.00  0.00     0.029 A 
ATOM     51  N   UNL     1      -6.586  11.754   6.987  1.00  0.00    -0.354 N 
ATOM     52  N   UNL     1      -6.234  11.980   4.081  1.00  0.00    -0.248 NA
ATOM     53  C   UNL     1      -6.944  12.826   2.023  1.00  0.00     0.031 C 
ATOM     54  C   UNL     1      -7.991  13.151   7.990  1.00  0.00     0.029 A 
ATOM     55  C   UNL     1      -7.471  12.791   6.757  1.00  0.00     0.049 A 
ATOM     56  H   UNL     1      -6.059  11.296   6.293  1.00  0.00     0.167 HD
ATOM     57  C   UNL     1      -7.218  12.938   4.296  1.00  0.00     0.074 A 
ATOM     58  C   UNL     1      -7.585  13.460   2.996  1.00  0.00     0.031 C 
ATOM     59  C   UNL     1      -7.784  13.336   5.462  1.00  0.00     0.034 A 
BRANCH  46  60
ATOM     60  C   UNL     1      -5.941  10.128  10.393  1.00  0.00     0.023 A 
ATOM     61  C   UNL     1      -4.958  10.542  11.315  1.00  0.00     0.012 A 
ATOM     62  C   UNL     1      -7.123   9.525  10.865  1.00  0.00     0.148 A 
ATOM     63  C   UNL     1      -5.136  10.335  12.682  1.00  0.00     0.002 A 
ATOM     64  C   UNL     1      -7.314   9.364  12.232  1.00  0.00     0.091 A 
ATOM     65  F   UNL     1      -8.036   9.121   9.970  1.00  0.00    -0.205 F 
ATOM     66  C   UNL     1      -6.317   9.758  13.141  1.00  0.00     0.022 A 
BRANCH  64  67
ATOM     67  S   UNL     1      -8.832   8.708  12.932  1.00  0.00     0.127 S 
ATOM     68  O   UNL     1      -8.374   7.434  13.487  1.00  0.00    -0.237 OA
ATOM     69  O   UNL     1      -9.171   9.721  13.932  1.00  0.00    -0.237 OA
ATOM     70  O   UNL     1      -9.774   8.602  11.827  1.00  0.00    -0.744 OA
ENDBRANCH  64  67
ENDBRANCH  46  60
BRANCH  47  71
ATOM     71  C   UNL     1      -5.041  11.185   0.502  1.00  0.00     0.023 A 
ATOM     72  C   UNL     1      -4.593  12.377  -0.101  1.00  0.00     0.012 A 
ATOM     73  C   UNL     1      -5.419  10.105  -0.318  1.00  0.00     0.148 A 
ATOM     74  C   UNL     1      -4.560  12.505  -1.490  1.00  0.00     0.002 A 
ATOM     75  C   UNL     1      -5.329  10.219  -1.702  1.00  0.00     0.091 A 
ATOM     76  F   UNL     1      -5.858   8.982   0.269  1.00  0.00    -0.205 F 
ATOM     77  C   UNL     1      -4.918  11.424  -2.290  1.00  0.00     0.022 A 
BRANCH  75  78
ATOM     78  S   UNL     1      -5.637   8.829  -2.797  1.00  0.00     0.127 S 
ATOM     79  O   UNL     1      -6.962   9.148  -3.322  1.00  0.00    -0.237 OA
ATOM     80  O   UNL     1      -4.545   8.951  -3.764  1.00  0.00    -0.237 OA
ATOM     81  O   UNL     1      -5.552   7.645  -1.951  1.00  0.00    -0.744 OA
ENDBRANCH  75  78
ENDBRANCH  47  71
BRANCH  59  82
ATOM     82  C   UNL     1      -8.846  14.399   5.399  1.00  0.00     0.023 A 
ATOM     83  C   UNL     1     -10.127  14.072   4.914  1.00  0.00     0.012 A 
ATOM     84  C   UNL     1      -8.605  15.688   5.910  1.00  0.00     0.148 A 
ATOM     85  C   UNL     1     -11.148  15.021   4.917  1.00  0.00     0.002 A 
ATOM     86  C   UNL     1      -9.639  16.614   5.955  1.00  0.00     0.091 A 
ATOM     87  F   UNL     1      -7.373  15.980   6.352  1.00  0.00    -0.205 F 
ATOM     88  C   UNL     1     -10.908  16.286   5.449  1.00  0.00     0.022 A 
BRANCH  86  89
ATOM     89  S   UNL     1      -9.453  18.232   6.712  1.00  0.00     0.127 S 
ATOM     90  O   UNL     1      -9.502  19.113   5.547  1.00  0.00    -0.237 OA
ATOM     91  O   UNL     1     -10.627  18.304   7.582  1.00  0.00    -0.237 OA
ATOM     92  O   UNL     1      -8.178  18.203   7.417  1.00  0.00    -0.744 OA
ENDBRANCH  86  89
ENDBRANCH  59  82
ENDBRANCH  33  34
ENDBRANCH  25  28
ENDBRANCH  23  24
ENDBRANCH  22  23
ENDBRANCH   1  22
TORSDOF 17
