REMARK SMILES Cc1ccc(C(=O)NCCCNC(=O)c2ccc(-c3c4nc(c(-c5cccc(S(=O)(=O)[O-])c5F)c5ccc([nH]5)c(-c5cccc(S(=O)(=O)[O-])c5F)c5nc(c(-c6cccc(S(=O)(=O)[O-])c6F)c6ccc3[nH]6)C=C5)C=C4)cc2)cc1N1C(=O)/C(=C\c2nc3ccccc3n2C)SC1=S
REMARK SMILES IDX 10 1 9 2 8 3 6 4 7 5 5 7 1 8 2 9 3 10 79 11 4 12 78 13 80 14
REMARK SMILES IDX 81 15 96 16 82 17 83 18 95 19 97 20 84 21 85 22 86 23 93 24
REMARK SMILES IDX 87 25 92 26 94 27 88 28 91 29 89 30 90 31 11 32 12 33 13 34
REMARK SMILES IDX 14 36 15 37 16 38 77 39 17 40 76 41 18 42 19 43 20 44 70 45
REMARK SMILES IDX 21 46 75 47 69 48 71 49 22 50 74 51 68 52 67 53 23 55 55 56
REMARK SMILES IDX 35 57 54 58 36 59 39 60 53 61 72 62 37 63 38 64 52 66 73 67
REMARK SMILES IDX 40 68 24 69 25 70 33 71 26 72 28 73 34 74 27 75 29 76 30 77
REMARK SMILES IDX 31 78 32 79 56 80 57 81 65 82 58 83 60 84 66 85 59 86 61 87
REMARK SMILES IDX 62 88 63 89 64 90 41 91 42 92 50 93 43 94 45 95 51 96 44 97
REMARK SMILES IDX 46 98 47 99 48 100 49 101
REMARK H PARENT 8 6 12 35 71 54 39 65
REMARK Flexibility Score: inf
ROOT
ATOM      1  C   UNL     1      -2.994   3.391  -0.825  1.00  0.00     0.042 C 
ENDROOT
BRANCH   1   2
ATOM      2  C   UNL     1      -3.353   2.537   0.391  1.00  0.00     0.118 C 
BRANCH   2   3
ATOM      3  N   UNL     1      -3.737   1.175   0.028  1.00  0.00    -0.352 N 
ATOM      4  C   UNL     1      -3.007   0.021  -0.166  1.00  0.00     0.251 C 
ATOM      5  O   UNL     1      -3.627  -1.034  -0.316  1.00  0.00    -0.269 OA
ATOM      6  H   UNL     1      -4.705   1.059  -0.104  1.00  0.00     0.163 HD
BRANCH   4   7
ATOM      7  C   UNL     1      -1.512  -0.037  -0.184  1.00  0.00     0.041 A 
ATOM      8  C   UNL     1       2.818  -0.349   0.087  1.00  0.00     0.046 C 
ATOM      9  C   UNL     1       1.335  -0.186  -0.075  1.00  0.00    -0.027 A 
ATOM     10  C   UNL     1       0.532  -1.344  -0.013  1.00  0.00     0.006 A 
ATOM     11  C   UNL     1       0.699   1.048  -0.240  1.00  0.00     0.054 A 
ATOM     12  C   UNL     1      -0.870  -1.268  -0.045  1.00  0.00     0.014 A 
ATOM     13  C   UNL     1      -0.699   1.075  -0.342  1.00  0.00     0.041 A 
BRANCH  11  14
ATOM     14  N   UNL     1       1.351   2.319  -0.136  1.00  0.00    -0.261 N 
ATOM     15  C   UNL     1       0.887   3.219   0.819  1.00  0.00     0.270 C 
ATOM     16  C   UNL     1       2.203   2.852  -1.085  1.00  0.00     0.152 C 
ATOM     17  O   UNL     1      -0.164   3.114   1.453  1.00  0.00    -0.268 OA
ATOM     18  C   UNL     1       1.720   4.454   0.834  1.00  0.00     0.084 C 
ATOM     19  S   UNL     1       2.641   4.511  -0.622  1.00  0.00    -0.054 SA
ATOM     20  S   UNL     1       2.733   2.188  -2.525  1.00  0.00    -0.051 S 
ATOM     21  C   UNL     1       1.769   5.380   1.810  1.00  0.00     0.068 C 
BRANCH  21  22
ATOM     22  C   UNL     1       1.141   5.136   3.062  1.00  0.00     0.134 A 
ATOM     23  N   UNL     1       1.028   3.981   3.689  1.00  0.00    -0.229 NA
ATOM     24  N   UNL     1       0.504   6.120   3.792  1.00  0.00    -0.328 N 
ATOM     25  C   UNL     1       0.006   4.152   4.582  1.00  0.00     0.089 A 
ATOM     26  C   UNL     1      -0.363   5.491   4.662  1.00  0.00     0.068 A 
ATOM     27  C   UNL     1       0.718   7.544   3.707  1.00  0.00     0.152 C 
ATOM     28  C   UNL     1      -0.678   3.191   5.338  1.00  0.00     0.030 A 
ATOM     29  C   UNL     1      -1.412   5.931   5.479  1.00  0.00     0.028 A 
ATOM     30  C   UNL     1      -1.746   3.604   6.139  1.00  0.00     0.002 A 
ATOM     31  C   UNL     1      -2.106   4.952   6.205  1.00  0.00     0.002 A 
ENDBRANCH  21  22
ENDBRANCH  11  14
ENDBRANCH   4   7
ENDBRANCH   2   3
ENDBRANCH   1   2
BRANCH   1  32
ATOM     32  C   UNL     1      -4.176   4.096  -1.450  1.00  0.00     0.118 C 
BRANCH  32  33
ATOM     33  N   UNL     1      -4.230   5.525  -1.180  1.00  0.00    -0.352 N 
ATOM     34  C   UNL     1      -5.040   6.479  -1.783  1.00  0.00     0.251 C 
ATOM     35  H   UNL     1      -3.616   5.857  -0.485  1.00  0.00     0.163 HD
ATOM     36  O   UNL     1      -4.839   7.671  -1.583  1.00  0.00    -0.269 OA
BRANCH  34  37
ATOM     37  C   UNL     1      -6.217   6.008  -2.554  1.00  0.00     0.039 A 
ATOM     38  C   UNL     1      -7.470   6.391  -2.072  1.00  0.00     0.014 A 
ATOM     39  C   UNL     1      -6.093   4.915  -3.405  1.00  0.00     0.014 A 
ATOM     40  C   UNL     1      -8.523   5.491  -2.156  1.00  0.00     0.010 A 
ATOM     41  C   UNL     1      -7.088   3.967  -3.382  1.00  0.00     0.010 A 
ATOM     42  C   UNL     1      -8.266   4.228  -2.680  1.00  0.00    -0.014 A 
BRANCH  42  43
ATOM     43  C   UNL     1      -9.228   3.146  -2.691  1.00  0.00     0.031 A 
ATOM     44  C   UNL     1     -10.258   3.198  -3.744  1.00  0.00     0.074 A 
ATOM     45  C   UNL     1      -9.071   2.085  -1.867  1.00  0.00     0.049 A 
ATOM     46  N   UNL     1     -11.399   2.611  -3.684  1.00  0.00    -0.248 NA
ATOM     47  C   UNL     1     -10.076   3.998  -4.953  1.00  0.00     0.031 C 
ATOM     48  C   UNL     1      -9.731   0.791  -1.981  1.00  0.00     0.029 A 
ATOM     49  N   UNL     1      -8.379   1.993  -0.652  1.00  0.00    -0.354 N 
ATOM     50  C   UNL     1     -11.963   2.698  -4.942  1.00  0.00     0.074 A 
ATOM     51  C   UNL     1     -11.175   3.681  -5.641  1.00  0.00     0.031 C 
ATOM     52  C   UNL     1      -9.655   0.158  -0.798  1.00  0.00     0.029 A 
ATOM     53  C   UNL     1      -9.128   1.117   0.158  1.00  0.00     0.049 A 
ATOM     54  H   UNL     1      -7.540   2.448  -0.412  1.00  0.00     0.167 HD
ATOM     55  C   UNL     1     -12.913   1.786  -5.293  1.00  0.00     0.034 A 
ATOM     56  C   UNL     1      -9.749   1.478   1.326  1.00  0.00     0.034 A 
ATOM     57  C   UNL     1     -13.224   0.922  -4.139  1.00  0.00     0.049 A 
ATOM     58  C   UNL     1     -11.256   1.282   1.277  1.00  0.00     0.074 A 
ATOM     59  C   UNL     1     -12.745  -0.322  -3.761  1.00  0.00     0.029 A 
ATOM     60  N   UNL     1     -13.841   1.462  -3.013  1.00  0.00    -0.354 N 
ATOM     61  N   UNL     1     -11.915   0.988   0.191  1.00  0.00    -0.248 NA
ATOM     62  C   UNL     1     -12.140   1.441   2.429  1.00  0.00     0.031 C 
ATOM     63  C   UNL     1     -12.994  -0.483  -2.371  1.00  0.00     0.029 A 
ATOM     64  C   UNL     1     -13.663   0.639  -1.908  1.00  0.00     0.049 A 
ATOM     65  H   UNL     1     -14.337   2.313  -3.002  1.00  0.00     0.167 HD
ATOM     66  C   UNL     1     -13.261   1.062   0.425  1.00  0.00     0.074 A 
ATOM     67  C   UNL     1     -13.347   1.256   1.865  1.00  0.00     0.031 C 
ATOM     68  C   UNL     1     -14.179   1.026  -0.593  1.00  0.00     0.034 A 
BRANCH  55  69
ATOM     69  C   UNL     1     -13.310   1.429  -6.724  1.00  0.00     0.023 A 
ATOM     70  C   UNL     1     -13.930   0.171  -6.913  1.00  0.00     0.012 A 
ATOM     71  C   UNL     1     -13.075   2.174  -7.907  1.00  0.00     0.148 A 
ATOM     72  C   UNL     1     -14.212  -0.354  -8.180  1.00  0.00     0.002 A 
ATOM     73  C   UNL     1     -13.316   1.634  -9.177  1.00  0.00     0.091 A 
ATOM     74  F   UNL     1     -12.678   3.443  -7.830  1.00  0.00    -0.205 F 
ATOM     75  C   UNL     1     -13.880   0.365  -9.316  1.00  0.00     0.022 A 
BRANCH  73  76
ATOM     76  S   UNL     1     -12.889   2.495 -10.706  1.00  0.00     0.127 S 
ATOM     77  O   UNL     1     -12.039   1.514 -11.384  1.00  0.00    -0.237 OA
ATOM     78  O   UNL     1     -14.196   2.696 -11.328  1.00  0.00    -0.237 OA
ATOM     79  O   UNL     1     -12.194   3.715 -10.312  1.00  0.00    -0.744 OA
ENDBRANCH  73  76
ENDBRANCH  55  69
BRANCH  56  80
ATOM     80  C   UNL     1      -9.065   2.596   2.041  1.00  0.00     0.023 A 
ATOM     81  C   UNL     1      -7.723   2.364   2.416  1.00  0.00     0.012 A 
ATOM     82  C   UNL     1      -9.512   3.917   1.889  1.00  0.00     0.148 A 
ATOM     83  C   UNL     1      -6.791   3.397   2.346  1.00  0.00     0.002 A 
ATOM     84  C   UNL     1      -8.576   4.945   1.839  1.00  0.00     0.091 A 
ATOM     85  F   UNL     1     -10.822   4.147   1.728  1.00  0.00    -0.205 F 
ATOM     86  C   UNL     1      -7.207   4.672   1.978  1.00  0.00     0.022 A 
BRANCH  84  87
ATOM     87  S   UNL     1      -9.090   6.629   1.497  1.00  0.00     0.127 S 
ATOM     88  O   UNL     1      -9.451   7.103   2.830  1.00  0.00    -0.237 OA
ATOM     89  O   UNL     1      -7.877   7.230   0.948  1.00  0.00    -0.237 OA
ATOM     90  O   UNL     1     -10.179   6.489   0.541  1.00  0.00    -0.744 OA
ENDBRANCH  84  87
ENDBRANCH  56  80
BRANCH  68  91
ATOM     91  C   UNL     1     -15.658   1.333  -0.433  1.00  0.00     0.023 A 
ATOM     92  C   UNL     1     -16.160   2.074   0.654  1.00  0.00     0.012 A 
ATOM     93  C   UNL     1     -16.592   0.981  -1.441  1.00  0.00     0.148 A 
ATOM     94  C   UNL     1     -17.524   2.349   0.801  1.00  0.00     0.002 A 
ATOM     95  C   UNL     1     -17.925   1.374  -1.356  1.00  0.00     0.091 A 
ATOM     96  F   UNL     1     -16.204   0.234  -2.484  1.00  0.00    -0.205 F 
ATOM     97  C   UNL     1     -18.405   2.013  -0.213  1.00  0.00     0.022 A 
BRANCH  95  98
ATOM     98  S   UNL     1     -19.039   1.220  -2.759  1.00  0.00     0.127 S 
ATOM     99  O   UNL     1     -19.777   0.004  -2.426  1.00  0.00    -0.237 OA
ATOM    100  O   UNL     1     -19.823   2.454  -2.668  1.00  0.00    -0.237 OA
ATOM    101  O   UNL     1     -18.177   1.149  -3.931  1.00  0.00    -0.744 OA
ENDBRANCH  95  98
ENDBRANCH  68  91
ENDBRANCH  42  43
ENDBRANCH  34  37
ENDBRANCH  32  33
ENDBRANCH   1  32
TORSDOF 15
