REMARK SMILES O=C(CSc1ccc(NC(=O)c2cccc3ccccc23)cc1)NCCCNC(=O)c1ccc(-c2c3nc(c(-c4cccc(S(=O)(=O)[O-])c4F)c4ccc([nH]4)c(-c4cccc(S(=O)(=O)[O-])c4F)c4nc(c(-c5cccc(S(=O)(=O)[O-])c5F)c5ccc2[nH]5)C=C4)C=C3)cc1
REMARK SMILES IDX 25 1 24 2 1 3 2 4 3 6 4 7 5 8 6 9 23 10 7 11 22 12 8 13 9 14
REMARK SMILES IDX 10 15 11 17 12 18 13 19 21 20 14 21 16 22 20 23 15 24 17 25
REMARK SMILES IDX 19 26 18 27 26 28 27 29 28 30 29 31 30 33 31 34 32 35 93 36
REMARK SMILES IDX 33 37 92 38 34 39 35 40 36 41 86 42 37 43 91 44 85 45 87 46
REMARK SMILES IDX 38 47 90 48 84 49 83 50 39 52 71 53 51 54 70 55 52 56 55 57
REMARK SMILES IDX 69 58 88 59 53 60 54 61 68 63 89 64 56 65 40 66 41 67 49 68
REMARK SMILES IDX 42 69 44 70 50 71 43 72 45 73 46 74 47 75 48 76 72 77 73 78
REMARK SMILES IDX 81 79 74 80 76 81 82 82 75 83 77 84 78 85 79 86 80 87 57 88
REMARK SMILES IDX 58 89 66 90 59 91 61 92 67 93 60 94 62 95 63 96 64 97 65 98
REMARK H PARENT 24 5 9 16 28 32 87 51 55 62
REMARK Flexibility Score: inf
ROOT
ATOM      1  C   UNL     1       2.232   0.856   2.285  1.00  0.00     0.117 C 
ENDROOT
BRANCH   1   2
ATOM      2  N   UNL     1       2.852   0.355   1.078  1.00  0.00    -0.355 N 
ATOM      3  O   UNL     1       0.916  -0.360   0.064  1.00  0.00    -0.274 OA
ATOM      4  C   UNL     1       2.132  -0.192   0.038  1.00  0.00     0.230 C 
ATOM      5  H   UNL     1       3.832   0.408   0.996  1.00  0.00     0.163 HD
BRANCH   4   6
ATOM      6  C   UNL     1       2.970  -0.627  -1.151  1.00  0.00     0.174 C 
BRANCH   6   7
ATOM      7  S   UNL     1       4.160   0.658  -1.663  1.00  0.00    -0.116 SA
BRANCH   7   8
ATOM      8  C   UNL     1       3.116   2.103  -1.749  1.00  0.00     0.008 A 
ATOM      9  C   UNL     1       3.606   3.297  -1.212  1.00  0.00     0.017 A 
ATOM     10  C   UNL     1       1.867   2.104  -2.371  1.00  0.00     0.017 A 
ATOM     11  C   UNL     1       2.900   4.492  -1.371  1.00  0.00     0.027 A 
ATOM     12  C   UNL     1       1.170   3.302  -2.543  1.00  0.00     0.027 A 
ATOM     13  C   UNL     1       1.736   4.513  -2.130  1.00  0.00     0.041 A 
BRANCH  13  14
ATOM     14  N   UNL     1       1.133   5.678  -2.621  1.00  0.00    -0.322 N 
ATOM     15  C   UNL     1       1.597   6.952  -2.844  1.00  0.00     0.256 C 
ATOM     16  H   UNL     1       0.184   5.560  -2.854  1.00  0.00     0.170 HD
ATOM     17  O   UNL     1       0.800   7.783  -3.292  1.00  0.00    -0.269 OA
BRANCH  15  18
ATOM     18  C   UNL     1       2.985   7.415  -2.596  1.00  0.00     0.048 A 
ATOM     19  C   UNL     1       3.056   8.568  -1.793  1.00  0.00     0.014 A 
ATOM     20  C   UNL     1       4.168   6.856  -3.170  1.00  0.00    -0.006 A 
ATOM     21  C   UNL     1       4.272   9.193  -1.554  1.00  0.00     0.001 A 
ATOM     22  C   UNL     1       5.400   7.513  -2.905  1.00  0.00    -0.018 A 
ATOM     23  C   UNL     1       4.232   5.682  -3.965  1.00  0.00     0.009 A 
ATOM     24  C   UNL     1       5.431   8.677  -2.122  1.00  0.00     0.009 A 
ATOM     25  C   UNL     1       6.607   6.995  -3.403  1.00  0.00     0.009 A 
ATOM     26  C   UNL     1       5.450   5.127  -4.370  1.00  0.00     0.001 A 
ATOM     27  C   UNL     1       6.637   5.791  -4.100  1.00  0.00     0.001 A 
ENDBRANCH  15  18
ENDBRANCH  13  14
ENDBRANCH   7   8
ENDBRANCH   6   7
ENDBRANCH   4   6
ENDBRANCH   1   2
BRANCH   1  28
ATOM     28  C   UNL     1       2.531  -0.028   3.489  1.00  0.00     0.042 C 
BRANCH  28  29
ATOM     29  C   UNL     1       4.007  -0.097   3.872  1.00  0.00     0.118 C 
BRANCH  29  30
ATOM     30  N   UNL     1       4.553   1.188   4.284  1.00  0.00    -0.352 N 
ATOM     31  C   UNL     1       5.276   1.532   5.400  1.00  0.00     0.251 C 
ATOM     32  H   UNL     1       4.377   1.931   3.662  1.00  0.00     0.163 HD
ATOM     33  O   UNL     1       5.517   2.720   5.606  1.00  0.00    -0.269 OA
BRANCH  31  34
ATOM     34  C   UNL     1       5.745   0.507   6.363  1.00  0.00     0.039 A 
ATOM     35  C   UNL     1       5.712   0.815   7.726  1.00  0.00     0.014 A 
ATOM     36  C   UNL     1       6.248  -0.729   5.948  1.00  0.00     0.014 A 
ATOM     37  C   UNL     1       6.130  -0.131   8.667  1.00  0.00     0.010 A 
ATOM     38  C   UNL     1       6.585  -1.702   6.891  1.00  0.00     0.010 A 
ATOM     39  C   UNL     1       6.538  -1.413   8.262  1.00  0.00    -0.014 A 
BRANCH  39  40
ATOM     40  C   UNL     1       6.882  -2.449   9.274  1.00  0.00     0.031 A 
ATOM     41  C   UNL     1       8.263  -3.048   9.344  1.00  0.00     0.074 A 
ATOM     42  C   UNL     1       5.925  -2.886  10.118  1.00  0.00     0.049 A 
ATOM     43  N   UNL     1       8.741  -3.918  10.198  1.00  0.00    -0.248 NA
ATOM     44  C   UNL     1       9.227  -2.639   8.310  1.00  0.00     0.031 C 
ATOM     45  C   UNL     1       4.523  -2.463  10.095  1.00  0.00     0.029 A 
ATOM     46  N   UNL     1       5.981  -3.788  11.151  1.00  0.00    -0.354 N 
ATOM     47  C   UNL     1      10.045  -4.178   9.793  1.00  0.00     0.074 A 
ATOM     48  C   UNL     1      10.272  -3.405   8.592  1.00  0.00     0.031 C 
ATOM     49  C   UNL     1       3.859  -3.083  11.084  1.00  0.00     0.029 A 
ATOM     50  C   UNL     1       4.777  -3.967  11.793  1.00  0.00     0.049 A 
ATOM     51  H   UNL     1       6.804  -4.262  11.409  1.00  0.00     0.167 HD
ATOM     52  C   UNL     1      10.979  -4.965  10.381  1.00  0.00     0.034 A 
ATOM     53  C   UNL     1       4.447  -4.751  12.838  1.00  0.00     0.034 A 
ATOM     54  C   UNL     1      10.761  -5.714  11.591  1.00  0.00     0.049 A 
ATOM     55  C   UNL     1       5.517  -5.571  13.505  1.00  0.00     0.074 A 
ATOM     56  C   UNL     1      11.669  -6.474  12.309  1.00  0.00     0.029 A 
ATOM     57  N   UNL     1       9.549  -5.812  12.256  1.00  0.00    -0.354 N 
ATOM     58  N   UNL     1       6.789  -5.671  13.205  1.00  0.00    -0.248 NA
ATOM     59  C   UNL     1       5.114  -6.350  14.684  1.00  0.00     0.031 C 
ATOM     60  C   UNL     1      10.998  -7.057  13.389  1.00  0.00     0.029 A 
ATOM     61  C   UNL     1       9.682  -6.626  13.370  1.00  0.00     0.049 A 
ATOM     62  H   UNL     1       8.716  -5.368  11.978  1.00  0.00     0.167 HD
ATOM     63  C   UNL     1       7.345  -6.493  14.178  1.00  0.00     0.074 A 
ATOM     64  C   UNL     1       6.276  -6.837  15.093  1.00  0.00     0.031 C 
ATOM     65  C   UNL     1       8.623  -6.934  14.297  1.00  0.00     0.034 A 
BRANCH  52  66
ATOM     66  C   UNL     1      12.348  -5.022   9.747  1.00  0.00     0.023 A 
ATOM     67  C   UNL     1      13.188  -3.889   9.796  1.00  0.00     0.012 A 
ATOM     68  C   UNL     1      12.829  -6.210   9.162  1.00  0.00     0.148 A 
ATOM     69  C   UNL     1      14.466  -3.925   9.240  1.00  0.00     0.002 A 
ATOM     70  C   UNL     1      14.123  -6.253   8.654  1.00  0.00     0.091 A 
ATOM     71  F   UNL     1      12.014  -7.272   9.108  1.00  0.00    -0.205 F 
ATOM     72  C   UNL     1      14.937  -5.108   8.680  1.00  0.00     0.022 A 
BRANCH  70  73
ATOM     73  S   UNL     1      14.856  -7.751   7.986  1.00  0.00     0.127 S 
ATOM     74  O   UNL     1      14.948  -7.425   6.564  1.00  0.00    -0.237 OA
ATOM     75  O   UNL     1      16.140  -7.803   8.685  1.00  0.00    -0.237 OA
ATOM     76  O   UNL     1      13.937  -8.831   8.319  1.00  0.00    -0.744 OA
ENDBRANCH  70  73
ENDBRANCH  52  66
BRANCH  53  77
ATOM     77  C   UNL     1       3.053  -4.742  13.365  1.00  0.00     0.023 A 
ATOM     78  C   UNL     1       2.788  -4.175  14.628  1.00  0.00     0.012 A 
ATOM     79  C   UNL     1       1.987  -5.273  12.614  1.00  0.00     0.148 A 
ATOM     80  C   UNL     1       1.494  -4.174  15.150  1.00  0.00     0.002 A 
ATOM     81  C   UNL     1       0.692  -5.214  13.113  1.00  0.00     0.091 A 
ATOM     82  F   UNL     1       2.261  -5.815  11.419  1.00  0.00    -0.205 F 
ATOM     83  C   UNL     1       0.445  -4.683  14.389  1.00  0.00     0.022 A 
BRANCH  81  84
ATOM     84  S   UNL     1      -0.736  -5.721  12.150  1.00  0.00     0.127 S 
ATOM     85  O   UNL     1      -1.164  -6.923  12.859  1.00  0.00    -0.237 OA
ATOM     86  O   UNL     1      -1.622  -4.567  12.295  1.00  0.00    -0.237 OA
ATOM     87  O   UNL     1      -0.240  -5.930  10.794  1.00  0.00    -0.744 OA
ENDBRANCH  81  84
ENDBRANCH  53  77
BRANCH  65  88
ATOM     88  C   UNL     1       8.946  -7.805  15.485  1.00  0.00     0.023 A 
ATOM     89  C   UNL     1       8.420  -9.110  15.572  1.00  0.00     0.012 A 
ATOM     90  C   UNL     1       9.795  -7.336  16.508  1.00  0.00     0.148 A 
ATOM     91  C   UNL     1       8.685  -9.911  16.683  1.00  0.00     0.002 A 
ATOM     92  C   UNL     1      10.100  -8.161  17.584  1.00  0.00     0.091 A 
ATOM     93  F   UNL     1      10.274  -6.087  16.422  1.00  0.00    -0.205 F 
ATOM     94  C   UNL     1       9.532  -9.441  17.683  1.00  0.00     0.022 A 
BRANCH  92  95
ATOM     95  S   UNL     1      11.260  -7.673  18.866  1.00  0.00     0.127 S 
ATOM     96  O   UNL     1      10.363  -7.355  19.975  1.00  0.00    -0.237 OA
ATOM     97  O   UNL     1      12.051  -8.890  19.051  1.00  0.00    -0.237 OA
ATOM     98  O   UNL     1      12.008  -6.548  18.320  1.00  0.00    -0.744 OA
ENDBRANCH  92  95
ENDBRANCH  65  88
ENDBRANCH  39  40
ENDBRANCH  31  34
ENDBRANCH  29  30
ENDBRANCH  28  29
ENDBRANCH   1  28
TORSDOF 17
