REMARK SMILES CC[NH2+][C@]1(C(=O)NCCCNC(=O)c2ccc(-c3c4nc(c(-c5cccc(S(=O)(=O)[O-])c5F)c5ccc([nH]5)c(-c5cccc(S(=O)(=O)[O-])c5F)c5nc(c(-c6cccc(S(=O)(=O)[O-])c6F)c6ccc3[nH]6)C=C5)C=C4)cc2)CC[C@@H](Sc2ccc(OC)cc2)C1
REMARK SMILES IDX 9 1 8 2 7 3 5 4 6 5 4 7 77 8 89 9 78 10 79 11 3 12 2 15 1 16
REMARK SMILES IDX 80 17 81 18 82 19 88 20 83 21 87 22 84 23 85 24 86 25 10 26
REMARK SMILES IDX 11 27 12 28 13 30 14 31 15 32 76 33 16 34 75 35 17 36 18 37
REMARK SMILES IDX 19 38 69 39 20 40 74 41 68 42 70 43 21 44 73 45 67 46 66 47
REMARK SMILES IDX 22 49 54 50 34 51 53 52 35 53 38 54 52 55 71 56 36 57 37 58
REMARK SMILES IDX 51 60 72 61 39 62 23 63 24 64 32 65 25 66 27 67 33 68 26 69
REMARK SMILES IDX 28 70 29 71 30 72 31 73 55 74 56 75 64 76 57 77 59 78 65 79
REMARK SMILES IDX 58 80 60 81 61 82 62 83 63 84 40 85 41 86 49 87 42 88 44 89
REMARK SMILES IDX 50 90 43 91 45 92 46 93 47 94 48 95
REMARK H PARENT 7 6 3 13 3 14 11 29 70 48 38 59
REMARK Flexibility Score: inf
ROOT
ATOM      1  C   UNL     1       2.160   1.520   2.650  1.00  0.00     0.042 C 
ENDROOT
BRANCH   1   2
ATOM      2  C   UNL     1       1.851   2.599   1.639  1.00  0.00     0.118 C 
BRANCH   2   3
ATOM      3  N   UNL     1       1.602   2.125   0.304  1.00  0.00    -0.351 N 
ATOM      4  C   UNL     1       0.854   2.699  -0.680  1.00  0.00     0.281 C 
ATOM      5  O   UNL     1       0.778   2.046  -1.730  1.00  0.00    -0.268 OA
ATOM      6  H   UNL     1       2.030   1.269   0.070  1.00  0.00     0.163 HD
BRANCH   4   7
ATOM      7  C   UNL     1       0.238   4.140  -0.563  1.00  0.00     0.176 C 
ATOM      8  C   UNL     1       1.277   5.169  -1.046  1.00  0.00     0.080 C 
ATOM      9  C   UNL     1      -0.861   4.310  -1.644  1.00  0.00     0.094 C 
ATOM     10  C   UNL     1       0.464   6.379  -1.491  1.00  0.00     0.022 C 
ATOM     11  C   UNL     1      -0.865   5.802  -1.992  1.00  0.00     0.058 C 
BRANCH   7  12
ATOM     12  N   UNL     1      -0.462   4.424   0.716  1.00  0.00    -0.334 N 
ATOM     13  H   UNL     1      -1.359   4.847   0.477  1.00  0.00     0.347 HD
ATOM     14  H   UNL     1      -0.494   3.518   1.183  1.00  0.00     0.347 HD
BRANCH  12  15
ATOM     15  C   UNL     1       0.176   5.299   1.694  1.00  0.00     0.257 C 
ATOM     16  C   UNL     1      -0.302   5.017   3.120  1.00  0.00     0.071 C 
ENDBRANCH  12  15
ENDBRANCH   7  12
BRANCH  11  17
ATOM     17  S   UNL     1      -1.259   6.142  -3.758  1.00  0.00    -0.122 SA
BRANCH  17  18
ATOM     18  C   UNL     1       0.260   5.715  -4.590  1.00  0.00     0.008 A 
ATOM     19  C   UNL     1       1.089   6.735  -5.063  1.00  0.00     0.019 A 
ATOM     20  C   UNL     1       0.613   4.388  -4.844  1.00  0.00     0.019 A 
ATOM     21  C   UNL     1       2.269   6.426  -5.748  1.00  0.00     0.047 A 
ATOM     22  C   UNL     1       1.802   4.079  -5.516  1.00  0.00     0.047 A 
ATOM     23  C   UNL     1       2.634   5.098  -5.975  1.00  0.00     0.118 A 
BRANCH  23  24
ATOM     24  O   UNL     1       3.804   4.931  -6.662  1.00  0.00    -0.497 OA
ATOM     25  C   UNL     1       4.235   3.591  -6.870  1.00  0.00     0.278 C 
ENDBRANCH  23  24
ENDBRANCH  17  18
ENDBRANCH  11  17
ENDBRANCH   4   7
ENDBRANCH   2   3
ENDBRANCH   1   2
BRANCH   1  26
ATOM     26  C   UNL     1       3.587   1.029   2.571  1.00  0.00     0.118 C 
BRANCH  26  27
ATOM     27  N   UNL     1       4.556   2.063   2.932  1.00  0.00    -0.352 N 
ATOM     28  C   UNL     1       5.186   2.343   4.123  1.00  0.00     0.251 C 
ATOM     29  H   UNL     1       4.800   2.666   2.193  1.00  0.00     0.163 HD
ATOM     30  O   UNL     1       5.789   3.409   4.249  1.00  0.00    -0.269 OA
BRANCH  28  31
ATOM     31  C   UNL     1       5.122   1.391   5.252  1.00  0.00     0.039 A 
ATOM     32  C   UNL     1       5.053   1.863   6.566  1.00  0.00     0.014 A 
ATOM     33  C   UNL     1       5.131   0.019   5.015  1.00  0.00     0.014 A 
ATOM     34  C   UNL     1       4.904   0.957   7.620  1.00  0.00     0.010 A 
ATOM     35  C   UNL     1       4.812  -0.861   6.035  1.00  0.00     0.010 A 
ATOM     36  C   UNL     1       4.730  -0.412   7.358  1.00  0.00    -0.014 A 
BRANCH  36  37
ATOM     37  C   UNL     1       4.497  -1.409   8.434  1.00  0.00     0.031 A 
ATOM     38  C   UNL     1       5.409  -2.605   8.558  1.00  0.00     0.074 A 
ATOM     39  C   UNL     1       3.406  -1.307   9.218  1.00  0.00     0.049 A 
ATOM     40  N   UNL     1       5.308  -3.642   9.348  1.00  0.00    -0.248 NA
ATOM     41  C   UNL     1       6.558  -2.672   7.636  1.00  0.00     0.031 C 
ATOM     42  C   UNL     1       2.392  -0.253   9.128  1.00  0.00     0.029 A 
ATOM     43  N   UNL     1       2.951  -2.117  10.227  1.00  0.00    -0.354 N 
ATOM     44  C   UNL     1       6.338  -4.500   8.979  1.00  0.00     0.074 A 
ATOM     45  C   UNL     1       7.014  -3.894   7.856  1.00  0.00     0.031 C 
ATOM     46  C   UNL     1       1.447  -0.470  10.056  1.00  0.00     0.029 A 
ATOM     47  C   UNL     1       1.762  -1.698  10.777  1.00  0.00     0.049 A 
ATOM     48  H   UNL     1       3.430  -2.923  10.528  1.00  0.00     0.167 HD
ATOM     49  C   UNL     1       6.719  -5.669   9.547  1.00  0.00     0.034 A 
ATOM     50  C   UNL     1       1.005  -2.247  11.747  1.00  0.00     0.034 A 
ATOM     51  C   UNL     1       6.080  -6.234  10.702  1.00  0.00     0.049 A 
ATOM     52  C   UNL     1       1.479  -3.511  12.409  1.00  0.00     0.074 A 
ATOM     53  C   UNL     1       6.446  -7.353  11.427  1.00  0.00     0.029 A 
ATOM     54  N   UNL     1       4.936  -5.725  11.298  1.00  0.00    -0.354 N 
ATOM     55  N   UNL     1       2.548  -4.226  12.150  1.00  0.00    -0.248 NA
ATOM     56  C   UNL     1       0.666  -4.026  13.518  1.00  0.00     0.031 C 
ATOM     57  C   UNL     1       5.502  -7.539  12.443  1.00  0.00     0.029 A 
ATOM     58  C   UNL     1       4.573  -6.513  12.375  1.00  0.00     0.049 A 
ATOM     59  H   UNL     1       4.454  -4.920  10.998  1.00  0.00     0.167 HD
ATOM     60  C   UNL     1       2.555  -5.254  13.085  1.00  0.00     0.074 A 
ATOM     61  C   UNL     1       1.393  -5.056  13.928  1.00  0.00     0.031 C 
ATOM     62  C   UNL     1       3.436  -6.275  13.228  1.00  0.00     0.034 A 
BRANCH  49  63
ATOM     63  C   UNL     1       7.909  -6.380   8.951  1.00  0.00     0.023 A 
ATOM     64  C   UNL     1       9.193  -5.803   9.047  1.00  0.00     0.012 A 
ATOM     65  C   UNL     1       7.762  -7.629   8.317  1.00  0.00     0.148 A 
ATOM     66  C   UNL     1      10.300  -6.427   8.474  1.00  0.00     0.002 A 
ATOM     67  C   UNL     1       8.880  -8.272   7.797  1.00  0.00     0.091 A 
ATOM     68  F   UNL     1       6.534  -8.155   8.214  1.00  0.00    -0.205 F 
ATOM     69  C   UNL     1      10.145  -7.665   7.858  1.00  0.00     0.022 A 
BRANCH  67  70
ATOM     70  S   UNL     1       8.800  -9.908   7.061  1.00  0.00     0.127 S 
ATOM     71  O   UNL     1       9.019  -9.606   5.647  1.00  0.00    -0.237 OA
ATOM     72  O   UNL     1       9.913 -10.594   7.717  1.00  0.00    -0.237 OA
ATOM     73  O   UNL     1       7.483 -10.433   7.391  1.00  0.00    -0.744 OA
ENDBRANCH  67  70
ENDBRANCH  49  63
BRANCH  50  74
ATOM     74  C   UNL     1      -0.240  -1.560  12.191  1.00  0.00     0.023 A 
ATOM     75  C   UNL     1      -0.275  -0.936  13.453  1.00  0.00     0.012 A 
ATOM     76  C   UNL     1      -1.367  -1.475  11.352  1.00  0.00     0.148 A 
ATOM     77  C   UNL     1      -1.420  -0.263  13.883  1.00  0.00     0.002 A 
ATOM     78  C   UNL     1      -2.484  -0.756  11.762  1.00  0.00     0.091 A 
ATOM     79  F   UNL     1      -1.314  -2.079  10.156  1.00  0.00    -0.205 F 
ATOM     80  C   UNL     1      -2.519  -0.164  13.034  1.00  0.00     0.022 A 
BRANCH  78  81
ATOM     81  S   UNL     1      -3.890  -0.458  10.686  1.00  0.00     0.127 S 
ATOM     82  O   UNL     1      -4.947  -1.206  11.361  1.00  0.00    -0.237 OA
ATOM     83  O   UNL     1      -4.020   0.998  10.760  1.00  0.00    -0.237 OA
ATOM     84  O   UNL     1      -3.500  -0.961   9.376  1.00  0.00    -0.744 OA
ENDBRANCH  78  81
ENDBRANCH  50  74
BRANCH  62  85
ATOM     85  C   UNL     1       3.207  -7.241  14.360  1.00  0.00     0.023 A 
ATOM     86  C   UNL     1       2.141  -8.160  14.299  1.00  0.00     0.012 A 
ATOM     87  C   UNL     1       4.102  -7.287  15.447  1.00  0.00     0.148 A 
ATOM     88  C   UNL     1       1.949  -9.088  15.322  1.00  0.00     0.002 A 
ATOM     89  C   UNL     1       3.936  -8.250  16.434  1.00  0.00     0.091 A 
ATOM     90  F   UNL     1       5.100  -6.393  15.493  1.00  0.00    -0.205 F 
ATOM     91  C   UNL     1       2.853  -9.141  16.381  1.00  0.00     0.022 A 
BRANCH  89  92
ATOM     92  S   UNL     1       5.107  -8.460  17.779  1.00  0.00     0.127 S 
ATOM     93  O   UNL     1       4.333  -7.987  18.925  1.00  0.00    -0.237 OA
ATOM     94  O   UNL     1       5.346  -9.904  17.758  1.00  0.00    -0.237 OA
ATOM     95  O   UNL     1       6.268  -7.650  17.434  1.00  0.00    -0.744 OA
ENDBRANCH  89  92
ENDBRANCH  62  85
ENDBRANCH  36  37
ENDBRANCH  28  31
ENDBRANCH  26  27
ENDBRANCH   1  26
TORSDOF 18
