REMARK SMILES CS(=O)(=O)c1ccc(C2=NN(c3ccc(C(=O)NCCCNC(=O)c4ccc(-c5c6nc(c(-c7cccc(S(=O)(=O)[O-])c7F)c7ccc([nH]7)c(-c7cccc(S(=O)(=O)[O-])c7F)c7nc(c(-c8cccc(S(=O)(=O)[O-])c8F)c8ccc5[nH]8)C=C7)C=C6)cc4)cc3)[C@H](c3cccs3)C2)cc1
REMARK SMILES IDX 20 1 19 2 18 3 16 4 17 5 15 7 12 8 13 9 89 10 14 11 88 12
REMARK SMILES IDX 11 13 9 14 10 15 96 16 90 17 8 18 5 19 6 20 98 21 7 22 97 23
REMARK SMILES IDX 2 24 1 25 3 26 4 27 91 28 92 29 95 30 93 31 94 32 21 33
REMARK SMILES IDX 22 34 23 35 24 37 25 38 26 39 87 40 27 41 86 42 28 43 29 44
REMARK SMILES IDX 30 45 80 46 31 47 85 48 79 49 81 50 32 51 84 52 78 53 77 54
REMARK SMILES IDX 33 56 65 57 45 58 64 59 46 60 49 61 63 62 82 63 47 64 48 65
REMARK SMILES IDX 62 67 83 68 50 69 34 70 35 71 43 72 36 73 38 74 44 75 37 76
REMARK SMILES IDX 39 77 40 78 41 79 42 80 66 81 67 82 75 83 68 84 70 85 76 86
REMARK SMILES IDX 69 87 71 88 72 89 73 90 74 91 51 92 52 93 60 94 53 95 55 96
REMARK SMILES IDX 61 97 54 98 56 99 57 100 58 101 59 102
REMARK H PARENT 18 6 22 36 81 55 49 66
REMARK Flexibility Score: inf
ROOT
ATOM      1  C   UNL     1       6.937   0.473  13.157  1.00  0.00     0.042 C 
ENDROOT
BRANCH   1   2
ATOM      2  C   UNL     1       6.968   1.983  12.930  1.00  0.00     0.118 C 
BRANCH   2   3
ATOM      3  N   UNL     1       8.026   2.359  12.008  1.00  0.00    -0.352 N 
ATOM      4  C   UNL     1       7.993   2.720  10.685  1.00  0.00     0.251 C 
ATOM      5  O   UNL     1       9.041   3.098  10.162  1.00  0.00    -0.269 OA
ATOM      6  H   UNL     1       8.928   2.353  12.404  1.00  0.00     0.163 HD
BRANCH   4   7
ATOM      7  C   UNL     1       6.733   2.740   9.895  1.00  0.00     0.039 A 
ATOM      8  C   UNL     1       4.346   2.978   8.412  1.00  0.00     0.060 A 
ATOM      9  C   UNL     1       5.437   3.808   8.139  1.00  0.00     0.029 A 
ATOM     10  C   UNL     1       4.495   1.978   9.373  1.00  0.00     0.029 A 
ATOM     11  C   UNL     1       6.620   3.697   8.879  1.00  0.00     0.016 A 
ATOM     12  C   UNL     1       5.684   1.842  10.089  1.00  0.00     0.016 A 
BRANCH   8  13
ATOM     13  N   UNL     1       3.157   3.096   7.721  1.00  0.00    -0.257 N 
ATOM     14  C   UNL     1       1.961   3.098   5.980  1.00  0.00     0.071 C 
ATOM     15  N   UNL     1       3.101   2.693   6.435  1.00  0.00    -0.176 NA
ATOM     16  C   UNL     1       1.132   3.934   6.914  1.00  0.00     0.091 C 
ATOM     17  C   UNL     1       1.982   3.836   8.194  1.00  0.00     0.154 C 
BRANCH  14  18
ATOM     18  C   UNL     1       1.502   2.746   4.635  1.00  0.00    -0.002 A 
ATOM     19  C   UNL     1       0.742   1.999   2.074  1.00  0.00     0.067 A 
ATOM     20  C   UNL     1       1.144   1.017   2.981  1.00  0.00     0.021 A 
ATOM     21  C   UNL     1       0.725   3.353   2.442  1.00  0.00     0.021 A 
ATOM     22  C   UNL     1       1.538   1.397   4.263  1.00  0.00     0.011 A 
ATOM     23  C   UNL     1       1.096   3.729   3.734  1.00  0.00     0.011 A 
BRANCH  19  24
ATOM     24  S   UNL     1       0.264   1.589   0.412  1.00  0.00     0.175 S 
ATOM     25  C   UNL     1       0.967   0.007   0.039  1.00  0.00     0.163 C 
ATOM     26  O   UNL     1       0.907   2.558  -0.455  1.00  0.00    -0.224 OA
ATOM     27  O   UNL     1      -1.181   1.448   0.428  1.00  0.00    -0.224 OA
ENDBRANCH  19  24
ENDBRANCH  14  18
BRANCH  17  28
ATOM     28  C   UNL     1       1.297   3.271   9.432  1.00  0.00     0.030 A 
ATOM     29  C   UNL     1       1.751   3.381  10.739  1.00  0.00     0.017 A 
ATOM     30  S   UNL     1      -0.155   2.358   9.383  1.00  0.00    -0.147 S 
ATOM     31  C   UNL     1       0.921   2.708  11.681  1.00  0.00     0.012 A 
ATOM     32  C   UNL     1      -0.168   2.129  11.075  1.00  0.00     0.065 A 
ENDBRANCH  17  28
ENDBRANCH   8  13
ENDBRANCH   4   7
ENDBRANCH   2   3
ENDBRANCH   1   2
BRANCH   1  33
ATOM     33  C   UNL     1       8.077  -0.025  14.037  1.00  0.00     0.118 C 
BRANCH  33  34
ATOM     34  N   UNL     1       7.955   0.452  15.408  1.00  0.00    -0.352 N 
ATOM     35  C   UNL     1       7.865  -0.258  16.579  1.00  0.00     0.251 C 
ATOM     36  H   UNL     1       7.932   1.431  15.509  1.00  0.00     0.163 HD
ATOM     37  O   UNL     1       7.533   0.321  17.610  1.00  0.00    -0.269 OA
BRANCH  35  38
ATOM     38  C   UNL     1       8.159  -1.706  16.600  1.00  0.00     0.039 A 
ATOM     39  C   UNL     1       7.356  -2.547  17.377  1.00  0.00     0.014 A 
ATOM     40  C   UNL     1       9.236  -2.233  15.882  1.00  0.00     0.014 A 
ATOM     41  C   UNL     1       7.602  -3.921  17.389  1.00  0.00     0.010 A 
ATOM     42  C   UNL     1       9.428  -3.611  15.831  1.00  0.00     0.010 A 
ATOM     43  C   UNL     1       8.620  -4.469  16.591  1.00  0.00    -0.014 A 
BRANCH  43  44
ATOM     44  C   UNL     1       8.846  -5.935  16.527  1.00  0.00     0.031 A 
ATOM     45  C   UNL     1      10.159  -6.522  16.972  1.00  0.00     0.074 A 
ATOM     46  C   UNL     1       7.899  -6.728  15.987  1.00  0.00     0.049 A 
ATOM     47  N   UNL     1      10.559  -7.767  16.934  1.00  0.00    -0.248 NA
ATOM     48  C   UNL     1      11.164  -5.587  17.504  1.00  0.00     0.031 C 
ATOM     49  C   UNL     1       6.616  -6.266  15.450  1.00  0.00     0.029 A 
ATOM     50  N   UNL     1       7.879  -8.083  15.773  1.00  0.00    -0.354 N 
ATOM     51  C   UNL     1      11.869  -7.760  17.399  1.00  0.00     0.074 A 
ATOM     52  C   UNL     1      12.208  -6.383  17.682  1.00  0.00     0.031 C 
ATOM     53  C   UNL     1       5.934  -7.319  14.975  1.00  0.00     0.029 A 
ATOM     54  C   UNL     1       6.742  -8.523  15.136  1.00  0.00     0.049 A 
ATOM     55  H   UNL     1       8.608  -8.683  16.048  1.00  0.00     0.167 HD
ATOM     56  C   UNL     1      12.705  -8.807  17.596  1.00  0.00     0.034 A 
ATOM     57  C   UNL     1       6.394  -9.755  14.715  1.00  0.00     0.034 A 
ATOM     58  C   UNL     1      12.350 -10.177  17.341  1.00  0.00     0.049 A 
ATOM     59  C   UNL     1       7.330 -10.904  14.972  1.00  0.00     0.074 A 
ATOM     60  C   UNL     1      13.093 -11.318  17.588  1.00  0.00     0.029 A 
ATOM     61  N   UNL     1      11.158 -10.593  16.770  1.00  0.00    -0.354 N 
ATOM     62  N   UNL     1       8.504 -10.897  15.554  1.00  0.00    -0.248 NA
ATOM     63  C   UNL     1       6.878 -12.237  14.548  1.00  0.00     0.031 C 
ATOM     64  C   UNL     1      12.365 -12.421  17.132  1.00  0.00     0.029 A 
ATOM     65  C   UNL     1      11.149 -11.971  16.643  1.00  0.00     0.049 A 
ATOM     66  H   UNL     1      10.425  -9.996  16.494  1.00  0.00     0.167 HD
ATOM     67  C   UNL     1       8.912 -12.225  15.605  1.00  0.00     0.074 A 
ATOM     68  C   UNL     1       7.852 -13.010  15.008  1.00  0.00     0.031 C 
ATOM     69  C   UNL     1      10.065 -12.745  16.094  1.00  0.00     0.034 A 
BRANCH  56  70
ATOM     70  C   UNL     1      14.077  -8.517  18.150  1.00  0.00     0.023 A 
ATOM     71  C   UNL     1      14.216  -8.085  19.485  1.00  0.00     0.012 A 
ATOM     72  C   UNL     1      15.232  -8.728  17.371  1.00  0.00     0.148 A 
ATOM     73  C   UNL     1      15.477  -7.831  20.024  1.00  0.00     0.002 A 
ATOM     74  C   UNL     1      16.487  -8.521  17.930  1.00  0.00     0.091 A 
ATOM     75  F   UNL     1      15.081  -9.121  16.098  1.00  0.00    -0.205 F 
ATOM     76  C   UNL     1      16.611  -8.059  19.250  1.00  0.00     0.022 A 
BRANCH  74  77
ATOM     77  S   UNL     1      18.012  -8.867  17.046  1.00  0.00     0.127 S 
ATOM     78  O   UNL     1      18.546  -7.521  16.842  1.00  0.00    -0.237 OA
ATOM     79  O   UNL     1      18.752  -9.675  18.016  1.00  0.00    -0.237 OA
ATOM     80  O   UNL     1      17.624  -9.575  15.834  1.00  0.00    -0.744 OA
ENDBRANCH  74  77
ENDBRANCH  56  70
BRANCH  57  81
ATOM     81  C   UNL     1       5.074  -9.973  14.056  1.00  0.00     0.023 A 
ATOM     82  C   UNL     1       4.074 -10.699  14.731  1.00  0.00     0.012 A 
ATOM     83  C   UNL     1       4.797  -9.444  12.781  1.00  0.00     0.148 A 
ATOM     84  C   UNL     1       2.835 -10.928  14.132  1.00  0.00     0.002 A 
ATOM     85  C   UNL     1       3.541  -9.625  12.214  1.00  0.00     0.091 A 
ATOM     86  F   UNL     1       5.765  -8.761  12.153  1.00  0.00    -0.205 F 
ATOM     87  C   UNL     1       2.565 -10.383  12.879  1.00  0.00     0.022 A 
BRANCH  85  88
ATOM     88  S   UNL     1       3.059  -8.851  10.667  1.00  0.00     0.127 S 
ATOM     89  O   UNL     1       2.939 -10.004   9.779  1.00  0.00    -0.237 OA
ATOM     90  O   UNL     1       1.792  -8.217  11.031  1.00  0.00    -0.237 OA
ATOM     91  O   UNL     1       4.128  -7.914  10.345  1.00  0.00    -0.744 OA
ENDBRANCH  85  88
ENDBRANCH  57  81
BRANCH  69  92
ATOM     92  C   UNL     1      10.228 -14.243  16.060  1.00  0.00     0.023 A 
ATOM     93  C   UNL     1      10.443 -14.905  14.836  1.00  0.00     0.012 A 
ATOM     94  C   UNL     1      10.244 -14.982  17.259  1.00  0.00     0.148 A 
ATOM     95  C   UNL     1      10.639 -16.285  14.803  1.00  0.00     0.002 A 
ATOM     96  C   UNL     1      10.494 -16.348  17.224  1.00  0.00     0.091 A 
ATOM     97  F   UNL     1      10.019 -14.335  18.413  1.00  0.00    -0.205 F 
ATOM     98  C   UNL     1      10.677 -17.004  15.996  1.00  0.00     0.022 A 
BRANCH  96  99
ATOM     99  S   UNL     1      10.662 -17.336  18.714  1.00  0.00     0.127 S 
ATOM    100  O   UNL     1       9.452 -18.155  18.667  1.00  0.00    -0.237 OA
ATOM    101  O   UNL     1      11.904 -18.068  18.461  1.00  0.00    -0.237 OA
ATOM    102  O   UNL     1      10.732 -16.391  19.820  1.00  0.00    -0.744 OA
ENDBRANCH  96  99
ENDBRANCH  69  92
ENDBRANCH  43  44
ENDBRANCH  35  38
ENDBRANCH  33  34
ENDBRANCH   1  33
TORSDOF 17
