REMARK SMILES CCOc1cc(/C=N/O)cc(Cl)c1OCc1ccc(C(=O)NCCCNC(=O)c2ccc(-c3c4nc(c(-c5cccc(S(=O)(=O)[O-])c5F)c5ccc([nH]5)c(-c5cccc(S(=O)(=O)[O-])c5F)c5nc(c(-c6cccc(S(=O)(=O)[O-])c6F)c6ccc3[nH]6)C=C5)C=C4)cc2)cc1
REMARK SMILES IDX 23 1 22 2 20 3 21 4 19 6 16 7 17 8 93 9 18 10 92 11 15 12
REMARK SMILES IDX 14 13 13 14 4 15 5 16 6 17 11 18 10 19 12 20 3 21 2 22 1 23
REMARK SMILES IDX 7 24 8 25 9 26 24 28 25 29 26 30 27 31 28 33 29 34 30 35
REMARK SMILES IDX 91 36 31 37 90 38 32 39 33 40 34 41 84 42 35 43 89 44 83 45
REMARK SMILES IDX 85 46 36 47 88 48 82 49 81 50 37 52 69 53 49 54 68 55 50 56
REMARK SMILES IDX 53 57 67 58 86 59 51 60 52 61 66 63 87 64 54 65 38 66 39 67
REMARK SMILES IDX 47 68 40 69 42 70 48 71 41 72 43 73 44 74 45 75 46 76 70 77
REMARK SMILES IDX 71 78 79 79 72 80 74 81 80 82 73 83 75 84 76 85 77 86 78 87
REMARK SMILES IDX 55 88 56 89 64 90 57 91 59 92 65 93 58 94 60 95 61 96 62 97
REMARK SMILES IDX 63 98
REMARK H PARENT 22 5 9 27 26 32 85 51 53 62
REMARK Flexibility Score: inf
ROOT
ATOM      1  C   UNL     1       7.287   4.638   8.212  1.00  0.00     0.118 C 
ENDROOT
BRANCH   1   2
ATOM      2  N   UNL     1       6.769   3.292   8.375  1.00  0.00    -0.352 N 
ATOM      3  C   UNL     1       5.694   2.635   7.833  1.00  0.00     0.251 C 
ATOM      4  O   UNL     1       5.553   1.447   8.129  1.00  0.00    -0.269 OA
ATOM      5  H   UNL     1       7.293   2.740   8.999  1.00  0.00     0.163 HD
BRANCH   3   6
ATOM      6  C   UNL     1       4.747   3.254   6.863  1.00  0.00     0.039 A 
ATOM      7  C   UNL     1       3.055   4.248   4.825  1.00  0.00    -0.011 A 
ATOM      8  C   UNL     1       3.244   2.873   4.980  1.00  0.00     0.008 A 
ATOM      9  C   UNL     1       3.624   5.109   5.776  1.00  0.00     0.008 A 
ATOM     10  C   UNL     1       4.098   2.385   5.973  1.00  0.00     0.014 A 
ATOM     11  C   UNL     1       4.445   4.614   6.796  1.00  0.00     0.014 A 
BRANCH   7  12
ATOM     12  C   UNL     1       2.264   4.845   3.678  1.00  0.00     0.265 C 
BRANCH  12  13
ATOM     13  O   UNL     1       1.993   3.993   2.566  1.00  0.00    -0.483 OA
BRANCH  13  14
ATOM     14  C   UNL     1       2.959   3.425   1.780  1.00  0.00     0.180 A 
ATOM     15  C   UNL     1       2.454   2.396   0.953  1.00  0.00     0.163 A 
ATOM     16  C   UNL     1       3.287   1.653   0.116  1.00  0.00     0.060 A 
ATOM     17  C   UNL     1       4.656   1.881   0.128  1.00  0.00     0.001 A 
ATOM     18  C   UNL     1       4.335   3.700   1.707  1.00  0.00     0.087 A 
ATOM     19  C   UNL     1       5.181   2.906   0.910  1.00  0.00     0.034 A 
ATOM     20  Cl  UNL     1       5.130   5.035   2.467  1.00  0.00    -0.080 Cl
BRANCH  15  21
ATOM     21  O   UNL     1       1.095   2.202   0.867  1.00  0.00    -0.490 OA
BRANCH  21  22
ATOM     22  C   UNL     1       0.656   0.954   1.417  1.00  0.00     0.226 C 
ATOM     23  C   UNL     1       0.499  -0.106   0.336  1.00  0.00     0.049 C 
ENDBRANCH  21  22
ENDBRANCH  15  21
BRANCH  17  24
ATOM     24  C   UNL     1       5.554   1.065  -0.710  1.00  0.00     0.162 C 
ATOM     25  N   UNL     1       5.100   0.120  -1.471  1.00  0.00    -0.097 NA
BRANCH  25  26
ATOM     26  O   UNL     1       6.168  -0.484  -2.141  1.00  0.00    -0.411 OA
ATOM     27  H   UNL     1       6.010  -1.191  -2.735  1.00  0.00     0.330 HD
ENDBRANCH  25  26
ENDBRANCH  17  24
ENDBRANCH  13  14
ENDBRANCH  12  13
ENDBRANCH   7  12
ENDBRANCH   3   6
ENDBRANCH   1   2
BRANCH   1  28
ATOM     28  C   UNL     1       6.880   5.535   9.380  1.00  0.00     0.042 C 
BRANCH  28  29
ATOM     29  C   UNL     1       7.590   5.197  10.690  1.00  0.00     0.118 C 
BRANCH  29  30
ATOM     30  N   UNL     1       9.015   5.489  10.631  1.00  0.00    -0.352 N 
ATOM     31  C   UNL     1       9.792   6.279  11.439  1.00  0.00     0.251 C 
ATOM     32  H   UNL     1       9.497   5.048   9.895  1.00  0.00     0.163 HD
ATOM     33  O   UNL     1      10.932   6.558  11.076  1.00  0.00    -0.269 OA
BRANCH  31  34
ATOM     34  C   UNL     1       9.280   6.798  12.728  1.00  0.00     0.039 A 
ATOM     35  C   UNL     1       9.656   8.086  13.125  1.00  0.00     0.014 A 
ATOM     36  C   UNL     1       8.496   6.012  13.578  1.00  0.00     0.014 A 
ATOM     37  C   UNL     1       9.219   8.594  14.351  1.00  0.00     0.010 A 
ATOM     38  C   UNL     1       8.002   6.546  14.767  1.00  0.00     0.010 A 
ATOM     39  C   UNL     1       8.372   7.835  15.175  1.00  0.00    -0.014 A 
BRANCH  39  40
ATOM     40  C   UNL     1       7.871   8.385  16.461  1.00  0.00     0.031 A 
ATOM     41  C   UNL     1       8.265   7.757  17.771  1.00  0.00     0.074 A 
ATOM     42  C   UNL     1       7.018   9.428  16.446  1.00  0.00     0.049 A 
ATOM     43  N   UNL     1       7.945   8.117  18.988  1.00  0.00    -0.248 NA
ATOM     44  C   UNL     1       9.108   6.552  17.707  1.00  0.00     0.031 C 
ATOM     45  C   UNL     1       6.500  10.075  15.239  1.00  0.00     0.029 A 
ATOM     46  N   UNL     1       6.429  10.120  17.473  1.00  0.00    -0.354 N 
ATOM     47  C   UNL     1       8.523   7.174  19.830  1.00  0.00     0.074 A 
ATOM     48  C   UNL     1       9.176   6.200  18.983  1.00  0.00     0.031 C 
ATOM     49  C   UNL     1       5.691  11.086  15.595  1.00  0.00     0.029 A 
ATOM     50  C   UNL     1       5.616  11.146  17.051  1.00  0.00     0.049 A 
ATOM     51  H   UNL     1       6.574   9.902  18.422  1.00  0.00     0.167 HD
ATOM     52  C   UNL     1       8.542   7.139  21.185  1.00  0.00     0.034 A 
ATOM     53  C   UNL     1       4.903  12.043  17.758  1.00  0.00     0.034 A 
ATOM     54  C   UNL     1       7.919   8.128  22.025  1.00  0.00     0.049 A 
ATOM     55  C   UNL     1       4.973  12.009  19.261  1.00  0.00     0.074 A 
ATOM     56  C   UNL     1       7.935   8.224  23.405  1.00  0.00     0.029 A 
ATOM     57  N   UNL     1       7.160   9.193  21.561  1.00  0.00    -0.354 N 
ATOM     58  N   UNL     1       5.653  11.202  20.038  1.00  0.00    -0.248 NA
ATOM     59  C   UNL     1       4.210  13.039  19.981  1.00  0.00     0.031 C 
ATOM     60  C   UNL     1       7.174   9.340  23.776  1.00  0.00     0.029 A 
ATOM     61  C   UNL     1       6.701   9.951  22.626  1.00  0.00     0.049 A 
ATOM     62  H   UNL     1       6.976   9.383  20.613  1.00  0.00     0.167 HD
ATOM     63  C   UNL     1       5.431  11.647  21.337  1.00  0.00     0.074 A 
ATOM     64  C   UNL     1       4.572  12.810  21.236  1.00  0.00     0.031 C 
ATOM     65  C   UNL     1       5.885  11.133  22.507  1.00  0.00     0.034 A 
BRANCH  52  66
ATOM     66  C   UNL     1       9.316   6.020  21.838  1.00  0.00     0.023 A 
ATOM     67  C   UNL     1      10.725   6.011  21.751  1.00  0.00     0.012 A 
ATOM     68  C   UNL     1       8.666   4.997  22.555  1.00  0.00     0.148 A 
ATOM     69  C   UNL     1      11.469   4.980  22.323  1.00  0.00     0.002 A 
ATOM     70  C   UNL     1       9.418   3.996  23.162  1.00  0.00     0.091 A 
ATOM     71  F   UNL     1       7.326   5.004  22.611  1.00  0.00    -0.205 F 
ATOM     72  C   UNL     1      10.817   3.978  23.035  1.00  0.00     0.022 A 
BRANCH  70  73
ATOM     73  S   UNL     1       8.674   2.705  24.166  1.00  0.00     0.127 S 
ATOM     74  O   UNL     1       8.730   1.558  23.263  1.00  0.00    -0.237 OA
ATOM     75  O   UNL     1       9.591   2.629  25.305  1.00  0.00    -0.237 OA
ATOM     76  O   UNL     1       7.339   3.182  24.499  1.00  0.00    -0.744 OA
ENDBRANCH  70  73
ENDBRANCH  52  66
BRANCH  53  77
ATOM     77  C   UNL     1       4.152  13.117  17.049  1.00  0.00     0.023 A 
ATOM     78  C   UNL     1       4.629  14.442  17.113  1.00  0.00     0.012 A 
ATOM     79  C   UNL     1       3.007  12.836  16.280  1.00  0.00     0.148 A 
ATOM     80  C   UNL     1       3.963  15.471  16.449  1.00  0.00     0.002 A 
ATOM     81  C   UNL     1       2.379  13.858  15.577  1.00  0.00     0.091 A 
ATOM     82  F   UNL     1       2.566  11.571  16.238  1.00  0.00    -0.205 F 
ATOM     83  C   UNL     1       2.845  15.178  15.673  1.00  0.00     0.022 A 
BRANCH  81  84
ATOM     84  S   UNL     1       1.014  13.557  14.448  1.00  0.00     0.127 S 
ATOM     85  O   UNL     1      -0.101  14.183  15.153  1.00  0.00    -0.237 OA
ATOM     86  O   UNL     1       1.457  14.261  13.245  1.00  0.00    -0.237 OA
ATOM     87  O   UNL     1       0.936  12.109  14.302  1.00  0.00    -0.744 OA
ENDBRANCH  81  84
ENDBRANCH  53  77
BRANCH  65  88
ATOM     88  C   UNL     1       5.483  11.843  23.775  1.00  0.00     0.023 A 
ATOM     89  C   UNL     1       4.151  11.766  24.230  1.00  0.00     0.012 A 
ATOM     90  C   UNL     1       6.433  12.551  24.537  1.00  0.00     0.148 A 
ATOM     91  C   UNL     1       3.762  12.419  25.398  1.00  0.00     0.002 A 
ATOM     92  C   UNL     1       6.048  13.158  25.727  1.00  0.00     0.091 A 
ATOM     93  F   UNL     1       7.691  12.633  24.080  1.00  0.00    -0.205 F 
ATOM     94  C   UNL     1       4.711  13.106  26.152  1.00  0.00     0.022 A 
BRANCH  92  95
ATOM     95  S   UNL     1       7.228  13.980  26.804  1.00  0.00     0.127 S 
ATOM     96  O   UNL     1       6.987  15.388  26.493  1.00  0.00    -0.237 OA
ATOM     97  O   UNL     1       6.782  13.565  28.135  1.00  0.00    -0.237 OA
ATOM     98  O   UNL     1       8.536  13.464  26.423  1.00  0.00    -0.744 OA
ENDBRANCH  92  95
ENDBRANCH  65  88
ENDBRANCH  39  40
ENDBRANCH  31  34
ENDBRANCH  29  30
ENDBRANCH  28  29
ENDBRANCH   1  28
TORSDOF 20
