REMARK SMILES O=C(NCCCNC(=O)c1cc(N2C(=O)C[C@H](Nc3ccccc3O)C2=O)ccc1O)c1ccc(-c2c3nc(c(-c4cccc(S(=O)(=O)[O-])c4F)c4ccc([nH]4)c(-c4cccc(S(=O)(=O)[O-])c4F)c4nc(c(-c5cccc(S(=O)(=O)[O-])c5F)c5ccc2[nH]5)C=C4)C=C3)cc1
REMARK SMILES IDX 5 1 4 2 3 3 1 4 2 5 32 7 33 8 94 9 34 10 93 11 35 12 36 13
REMARK SMILES IDX 37 14 87 15 38 16 92 17 86 18 88 19 39 20 91 21 85 22 84 23
REMARK SMILES IDX 40 25 72 26 52 27 71 28 53 29 56 30 70 31 89 32 54 33 55 34
REMARK SMILES IDX 69 36 90 37 57 38 41 39 42 40 50 41 43 42 45 43 51 44 44 45
REMARK SMILES IDX 46 46 47 47 48 48 49 49 73 50 74 51 82 52 75 53 77 54 83 55
REMARK SMILES IDX 76 56 78 57 79 58 80 59 81 60 58 61 59 62 67 63 60 64 62 65
REMARK SMILES IDX 68 66 61 67 63 68 64 69 65 70 66 71 6 72 7 73 8 74 9 76
REMARK SMILES IDX 10 77 11 78 30 79 12 80 29 81 28 82 31 83 13 85 14 86 26 87
REMARK SMILES IDX 15 88 16 89 17 90 27 91 18 92 19 94 20 95 24 96 21 97 23 98
REMARK SMILES IDX 22 99 25 100
REMARK H PARENT 3 6 88 24 56 35 7 75 31 84 18 93 25 101
REMARK Flexibility Score: inf
ROOT
ATOM      1  C   UNL     1       4.944  -2.010  -1.491  1.00  0.00     0.042 C 
ENDROOT
BRANCH   1   2
ATOM      2  C   UNL     1       4.596  -0.546  -1.260  1.00  0.00     0.118 C 
BRANCH   2   3
ATOM      3  N   UNL     1       3.165  -0.322  -1.093  1.00  0.00    -0.352 N 
ATOM      4  O   UNL     1       1.212  -0.030  -0.019  1.00  0.00    -0.269 OA
ATOM      5  C   UNL     1       2.439   0.020   0.024  1.00  0.00     0.251 C 
ATOM      6  H   UNL     1       2.632  -0.434  -1.913  1.00  0.00     0.163 HD
BRANCH   5   7
ATOM      7  C   UNL     1       3.124   0.413   1.275  1.00  0.00     0.039 A 
ATOM      8  C   UNL     1       4.251   1.235   1.248  1.00  0.00     0.014 A 
ATOM      9  C   UNL     1       2.622  -0.033   2.502  1.00  0.00     0.014 A 
ATOM     10  C   UNL     1       4.980   1.450   2.411  1.00  0.00     0.010 A 
ATOM     11  C   UNL     1       3.296   0.280   3.688  1.00  0.00     0.010 A 
ATOM     12  C   UNL     1       4.508   0.985   3.649  1.00  0.00    -0.014 A 
BRANCH  12  13
ATOM     13  C   UNL     1       5.275   1.307   4.881  1.00  0.00     0.031 A 
ATOM     14  C   UNL     1       5.868   0.225   5.743  1.00  0.00     0.074 A 
ATOM     15  C   UNL     1       5.460   2.603   5.205  1.00  0.00     0.049 A 
ATOM     16  N   UNL     1       6.620   0.345   6.808  1.00  0.00    -0.248 NA
ATOM     17  C   UNL     1       5.575  -1.170   5.376  1.00  0.00     0.031 C 
ATOM     18  C   UNL     1       4.894   3.740   4.475  1.00  0.00     0.029 A 
ATOM     19  N   UNL     1       6.184   3.186   6.213  1.00  0.00    -0.354 N 
ATOM     20  C   UNL     1       6.852  -0.948   7.264  1.00  0.00     0.074 A 
ATOM     21  C   UNL     1       6.155  -1.841   6.363  1.00  0.00     0.031 C 
ATOM     22  C   UNL     1       5.333   4.880   5.024  1.00  0.00     0.029 A 
ATOM     23  C   UNL     1       6.166   4.561   6.177  1.00  0.00     0.049 A 
ATOM     24  H   UNL     1       6.670   2.670   6.897  1.00  0.00     0.167 HD
ATOM     25  C   UNL     1       7.594  -1.355   8.322  1.00  0.00     0.034 A 
ATOM     26  C   UNL     1       6.753   5.468   6.981  1.00  0.00     0.034 A 
ATOM     27  C   UNL     1       8.329  -0.466   9.184  1.00  0.00     0.049 A 
ATOM     28  C   UNL     1       7.605   4.985   8.119  1.00  0.00     0.074 A 
ATOM     29  C   UNL     1       9.166  -0.787  10.238  1.00  0.00     0.029 A 
ATOM     30  N   UNL     1       8.316   0.918   9.092  1.00  0.00    -0.354 N 
ATOM     31  N   UNL     1       7.917   3.756   8.450  1.00  0.00    -0.248 NA
ATOM     32  C   UNL     1       8.204   6.013   8.979  1.00  0.00     0.031 C 
ATOM     33  C   UNL     1       9.651   0.404  10.792  1.00  0.00     0.029 A 
ATOM     34  C   UNL     1       9.124   1.466  10.075  1.00  0.00     0.049 A 
ATOM     35  H   UNL     1       7.808   1.435   8.427  1.00  0.00     0.167 HD
ATOM     36  C   UNL     1       8.766   3.862   9.544  1.00  0.00     0.074 A 
ATOM     37  C   UNL     1       8.942   5.277   9.800  1.00  0.00     0.031 C 
ATOM     38  C   UNL     1       9.329   2.876  10.285  1.00  0.00     0.034 A 
BRANCH  25  39
ATOM     39  C   UNL     1       7.690  -2.835   8.585  1.00  0.00     0.023 A 
ATOM     40  C   UNL     1       8.498  -3.637   7.754  1.00  0.00     0.012 A 
ATOM     41  C   UNL     1       7.039  -3.422   9.688  1.00  0.00     0.148 A 
ATOM     42  C   UNL     1       8.635  -5.003   7.999  1.00  0.00     0.002 A 
ATOM     43  C   UNL     1       7.209  -4.779   9.948  1.00  0.00     0.091 A 
ATOM     44  F   UNL     1       6.254  -2.651  10.455  1.00  0.00    -0.205 F 
ATOM     45  C   UNL     1       8.000  -5.571   9.100  1.00  0.00     0.022 A 
BRANCH  43  46
ATOM     46  S   UNL     1       6.488  -5.580  11.386  1.00  0.00     0.127 S 
ATOM     47  O   UNL     1       5.346  -6.275  10.794  1.00  0.00    -0.237 OA
ATOM     48  O   UNL     1       7.571  -6.459  11.831  1.00  0.00    -0.237 OA
ATOM     49  O   UNL     1       6.163  -4.507  12.315  1.00  0.00    -0.744 OA
ENDBRANCH  43  46
ENDBRANCH  25  39
BRANCH  26  50
ATOM     50  C   UNL     1       6.604   6.920   6.685  1.00  0.00     0.023 A 
ATOM     51  C   UNL     1       7.716   7.645   6.215  1.00  0.00     0.012 A 
ATOM     52  C   UNL     1       5.361   7.569   6.803  1.00  0.00     0.148 A 
ATOM     53  C   UNL     1       7.596   8.995   5.886  1.00  0.00     0.002 A 
ATOM     54  C   UNL     1       5.234   8.898   6.417  1.00  0.00     0.091 A 
ATOM     55  F   UNL     1       4.318   6.868   7.272  1.00  0.00    -0.205 F 
ATOM     56  C   UNL     1       6.354   9.618   5.972  1.00  0.00     0.022 A 
BRANCH  54  57
ATOM     57  S   UNL     1       3.639   9.723   6.358  1.00  0.00     0.127 S 
ATOM     58  O   UNL     1       3.683  10.546   7.563  1.00  0.00    -0.237 OA
ATOM     59  O   UNL     1       3.724  10.466   5.100  1.00  0.00    -0.237 OA
ATOM     60  O   UNL     1       2.652   8.651   6.349  1.00  0.00    -0.744 OA
ENDBRANCH  54  57
ENDBRANCH  26  50
BRANCH  38  61
ATOM     61  C   UNL     1      10.203   3.295  11.437  1.00  0.00     0.023 A 
ATOM     62  C   UNL     1       9.609   3.808  12.607  1.00  0.00     0.012 A 
ATOM     63  C   UNL     1      11.600   3.130  11.384  1.00  0.00     0.148 A 
ATOM     64  C   UNL     1      10.395   4.179  13.696  1.00  0.00     0.002 A 
ATOM     65  C   UNL     1      12.374   3.462  12.489  1.00  0.00     0.091 A 
ATOM     66  F   UNL     1      12.149   2.663  10.252  1.00  0.00    -0.205 F 
ATOM     67  C   UNL     1      11.775   3.997  13.642  1.00  0.00     0.022 A 
BRANCH  65  68
ATOM     68  S   UNL     1      14.147   3.176  12.531  1.00  0.00     0.127 S 
ATOM     69  O   UNL     1      14.673   4.513  12.265  1.00  0.00    -0.237 OA
ATOM     70  O   UNL     1      14.358   2.698  13.898  1.00  0.00    -0.237 OA
ATOM     71  O   UNL     1      14.409   2.178  11.502  1.00  0.00    -0.744 OA
ENDBRANCH  65  68
ENDBRANCH  38  61
ENDBRANCH  12  13
ENDBRANCH   5   7
ENDBRANCH   2   3
ENDBRANCH   1   2
BRANCH   1  72
ATOM     72  C   UNL     1       4.420  -2.568  -2.805  1.00  0.00     0.118 C 
BRANCH  72  73
ATOM     73  N   UNL     1       4.974  -1.867  -3.950  1.00  0.00    -0.352 N 
ATOM     74  C   UNL     1       5.786  -2.339  -4.945  1.00  0.00     0.255 C 
ATOM     75  H   UNL     1       4.731  -0.915  -4.020  1.00  0.00     0.163 HD
ATOM     76  O   UNL     1       6.271  -1.558  -5.762  1.00  0.00    -0.269 OA
BRANCH  74  77
ATOM     77  C   UNL     1       6.120  -3.773  -5.042  1.00  0.00     0.083 A 
ATOM     78  C   UNL     1       7.481  -4.104  -5.134  1.00  0.00     0.044 A 
ATOM     79  C   UNL     1       5.149  -4.767  -5.186  1.00  0.00     0.128 A 
ATOM     80  C   UNL     1       7.881  -5.419  -5.407  1.00  0.00     0.053 A 
ATOM     81  C   UNL     1       5.535  -6.086  -5.407  1.00  0.00     0.049 A 
ATOM     82  C   UNL     1       6.892  -6.403  -5.540  1.00  0.00     0.031 A 
BRANCH  79  83
ATOM     83  O   UNL     1       3.819  -4.456  -5.139  1.00  0.00    -0.507 OA
ATOM     84  H   UNL     1       3.550  -3.571  -4.991  1.00  0.00     0.293 HD
ENDBRANCH  79  83
BRANCH  80  85
ATOM     85  N   UNL     1       9.253  -5.723  -5.598  1.00  0.00    -0.249 N 
ATOM     86  C   UNL     1       9.724  -6.641  -6.502  1.00  0.00     0.236 C 
ATOM     87  C   UNL     1      10.268  -5.136  -4.879  1.00  0.00     0.256 C 
ATOM     88  O   UNL     1       9.081  -7.362  -7.255  1.00  0.00    -0.274 OA
ATOM     89  C   UNL     1      11.220  -6.583  -6.539  1.00  0.00     0.136 C 
ATOM     90  C   UNL     1      11.604  -5.654  -5.401  1.00  0.00     0.179 C 
ATOM     91  O   UNL     1      10.141  -4.406  -3.903  1.00  0.00    -0.272 OA
BRANCH  90  92
ATOM     92  N   UNL     1      12.333  -6.414  -4.371  1.00  0.00    -0.370 N 
ATOM     93  H   UNL     1      11.912  -7.151  -3.873  1.00  0.00     0.161 HD
BRANCH  92  94
ATOM     94  C   UNL     1      13.665  -6.029  -4.138  1.00  0.00     0.077 A 
ATOM     95  C   UNL     1      14.689  -6.963  -4.311  1.00  0.00     0.029 A 
ATOM     96  C   UNL     1      13.994  -4.773  -3.599  1.00  0.00     0.138 A 
ATOM     97  C   UNL     1      16.010  -6.641  -3.981  1.00  0.00     0.002 A 
ATOM     98  C   UNL     1      15.306  -4.445  -3.264  1.00  0.00     0.048 A 
ATOM     99  C   UNL     1      16.317  -5.384  -3.458  1.00  0.00     0.004 A 
BRANCH  96 100
ATOM    100  O   UNL     1      12.991  -3.868  -3.388  1.00  0.00    -0.506 OA
ATOM    101  H   UNL     1      12.108  -4.086  -3.613  1.00  0.00     0.293 HD
ENDBRANCH  96 100
ENDBRANCH  92  94
ENDBRANCH  90  92
ENDBRANCH  80  85
ENDBRANCH  74  77
ENDBRANCH  72  73
ENDBRANCH   1  72
TORSDOF 18
