REMARK SMILES CC(C)N1C[C@H](C(=O)N[C@@H]2C=C[C@@H](C(=O)NCCCNC(=O)c3ccc(-c4c5nc(c(-c6cccc(S(=O)(=O)[O-])c6F)c6ccc([nH]6)c(-c6cccc(S(=O)(=O)[O-])c6F)c6nc(c(-c7cccc(S(=O)(=O)[O-])c7F)c7ccc4[nH]7)C=C6)C=C5)cc3)C2)CC1=O
REMARK SMILES IDX 18 1 17 2 16 3 14 4 15 5 13 7 10 8 11 9 86 10 12 11 9 12
REMARK SMILES IDX 7 13 8 14 6 16 4 17 5 18 88 19 87 20 89 21 2 22 1 23 3 24
REMARK SMILES IDX 19 25 20 26 21 27 22 29 23 30 24 31 85 32 25 33 84 34 26 35
REMARK SMILES IDX 27 36 28 37 78 38 29 39 83 40 77 41 79 42 30 43 82 44 76 45
REMARK SMILES IDX 75 46 31 48 63 49 43 50 62 51 44 52 47 53 61 54 80 55 45 56
REMARK SMILES IDX 46 57 60 59 81 60 48 61 32 62 33 63 41 64 34 65 36 66 42 67
REMARK SMILES IDX 35 68 37 69 38 70 39 71 40 72 64 73 65 74 73 75 66 76 68 77
REMARK SMILES IDX 74 78 67 79 69 80 70 81 71 82 72 83 49 84 50 85 58 86 51 87
REMARK SMILES IDX 53 88 59 89 52 90 54 91 55 92 56 93 57 94
REMARK H PARENT 16 6 9 15 20 28 79 47 47 58
REMARK Flexibility Score: inf
ROOT
ATOM      1  C   UNL     1       2.580   0.337   2.389  1.00  0.00     0.042 C 
ENDROOT
BRANCH   1   2
ATOM      2  C   UNL     1       2.434   1.601   1.555  1.00  0.00     0.117 C 
BRANCH   2   3
ATOM      3  N   UNL     1       3.482   1.732   0.559  1.00  0.00    -0.356 N 
ATOM      4  C   UNL     1       3.444   1.696  -0.801  1.00  0.00     0.227 C 
ATOM      5  O   UNL     1       4.504   1.909  -1.398  1.00  0.00    -0.274 OA
ATOM      6  H   UNL     1       4.381   1.870   0.934  1.00  0.00     0.163 HD
BRANCH   4   7
ATOM      7  C   UNL     1       2.158   1.440  -1.591  1.00  0.00     0.103 C 
ATOM      8  C   UNL     1      -0.010   0.450  -0.942  1.00  0.00     0.106 C 
ATOM      9  C   UNL     1      -0.050   1.944  -0.988  1.00  0.00    -0.006 C 
ATOM     10  C   UNL     1       1.453   0.112  -1.289  1.00  0.00     0.047 C 
ATOM     11  C   UNL     1       1.119   2.485  -1.342  1.00  0.00    -0.016 C 
BRANCH   8  12
ATOM     12  N   UNL     1      -0.941  -0.064  -1.924  1.00  0.00    -0.350 N 
ATOM     13  C   UNL     1      -2.256  -0.407  -1.795  1.00  0.00     0.225 C 
ATOM     14  O   UNL     1      -2.833  -0.862  -2.782  1.00  0.00    -0.275 OA
ATOM     15  H   UNL     1      -0.567  -0.185  -2.827  1.00  0.00     0.164 HD
BRANCH  13  16
ATOM     16  C   UNL     1      -2.973  -0.143  -0.479  1.00  0.00     0.107 C 
ATOM     17  N   UNL     1      -4.836   1.237  -0.870  1.00  0.00    -0.339 N 
ATOM     18  C   UNL     1      -3.457   1.295  -0.459  1.00  0.00     0.133 C 
ATOM     19  C   UNL     1      -5.350  -0.048  -0.772  1.00  0.00     0.223 C 
ATOM     20  C   UNL     1      -4.248  -0.972  -0.319  1.00  0.00     0.115 C 
ATOM     21  O   UNL     1      -6.514  -0.375  -0.960  1.00  0.00    -0.275 OA
BRANCH  17  22
ATOM     22  C   UNL     1      -5.629   2.399  -1.279  1.00  0.00     0.078 C 
ATOM     23  C   UNL     1      -4.919   3.740  -1.070  1.00  0.00     0.031 C 
ATOM     24  C   UNL     1      -6.052   2.274  -2.746  1.00  0.00     0.031 C 
ENDBRANCH  17  22
ENDBRANCH  13  16
ENDBRANCH   8  12
ENDBRANCH   4   7
ENDBRANCH   2   3
ENDBRANCH   1   2
BRANCH   1  25
ATOM     25  C   UNL     1       3.808   0.340   3.289  1.00  0.00     0.118 C 
BRANCH  25  26
ATOM     26  N   UNL     1       3.756   1.391   4.297  1.00  0.00    -0.352 N 
ATOM     27  C   UNL     1       3.721   1.302   5.667  1.00  0.00     0.251 C 
ATOM     28  H   UNL     1       3.744   2.309   3.939  1.00  0.00     0.163 HD
ATOM     29  O   UNL     1       3.466   2.305   6.328  1.00  0.00    -0.269 OA
BRANCH  27  30
ATOM     30  C   UNL     1       3.972   0.010   6.341  1.00  0.00     0.039 A 
ATOM     31  C   UNL     1       3.195  -0.337   7.449  1.00  0.00     0.014 A 
ATOM     32  C   UNL     1       4.978  -0.851   5.896  1.00  0.00     0.014 A 
ATOM     33  C   UNL     1       3.385  -1.575   8.067  1.00  0.00     0.010 A 
ATOM     34  C   UNL     1       5.101  -2.120   6.451  1.00  0.00     0.010 A 
ATOM     35  C   UNL     1       4.314  -2.494   7.549  1.00  0.00    -0.014 A 
BRANCH  35  36
ATOM     36  C   UNL     1       4.469  -3.849   8.136  1.00  0.00     0.031 A 
ATOM     37  C   UNL     1       5.789  -4.281   8.717  1.00  0.00     0.074 A 
ATOM     38  C   UNL     1       3.445  -4.723   8.070  1.00  0.00     0.049 A 
ATOM     39  N   UNL     1       6.127  -5.438   9.223  1.00  0.00    -0.248 NA
ATOM     40  C   UNL     1       6.881  -3.293   8.703  1.00  0.00     0.031 C 
ATOM     41  C   UNL     1       2.140  -4.453   7.463  1.00  0.00     0.029 A 
ATOM     42  N   UNL     1       3.348  -6.024   8.496  1.00  0.00    -0.354 N 
ATOM     43  C   UNL     1       7.473  -5.331   9.553  1.00  0.00     0.074 A 
ATOM     44  C   UNL     1       7.901  -4.008   9.154  1.00  0.00     0.031 C 
ATOM     45  C   UNL     1       1.371  -5.548   7.564  1.00  0.00     0.029 A 
ATOM     46  C   UNL     1       2.138  -6.611   8.207  1.00  0.00     0.049 A 
ATOM     47  H   UNL     1       4.076  -6.494   8.964  1.00  0.00     0.167 HD
ATOM     48  C   UNL     1       8.275  -6.239  10.159  1.00  0.00     0.034 A 
ATOM     49  C   UNL     1       1.698  -7.866   8.422  1.00  0.00     0.034 A 
ATOM     50  C   UNL     1       7.838  -7.542  10.583  1.00  0.00     0.049 A 
ATOM     51  C   UNL     1       2.601  -8.849   9.115  1.00  0.00     0.074 A 
ATOM     52  C   UNL     1       8.549  -8.501  11.282  1.00  0.00     0.029 A 
ATOM     53  N   UNL     1       6.584  -8.076  10.334  1.00  0.00    -0.354 N 
ATOM     54  N   UNL     1       3.821  -8.676   9.561  1.00  0.00    -0.248 NA
ATOM     55  C   UNL     1       2.054 -10.190   9.367  1.00  0.00     0.031 C 
ATOM     56  C   UNL     1       7.736  -9.631  11.423  1.00  0.00     0.029 A 
ATOM     57  C   UNL     1       6.504  -9.359  10.850  1.00  0.00     0.049 A 
ATOM     58  H   UNL     1       5.856  -7.612   9.861  1.00  0.00     0.167 HD
ATOM     59  C   UNL     1       4.175  -9.871  10.176  1.00  0.00     0.074 A 
ATOM     60  C   UNL     1       3.031 -10.752  10.064  1.00  0.00     0.031 C 
ATOM     61  C   UNL     1       5.346 -10.212  10.771  1.00  0.00     0.034 A 
BRANCH  48  62
ATOM     62  C   UNL     1       9.703  -5.838  10.434  1.00  0.00     0.023 A 
ATOM     63  C   UNL     1       9.979  -4.853  11.405  1.00  0.00     0.012 A 
ATOM     64  C   UNL     1      10.772  -6.468   9.768  1.00  0.00     0.148 A 
ATOM     65  C   UNL     1      11.292  -4.471  11.679  1.00  0.00     0.002 A 
ATOM     66  C   UNL     1      12.080  -6.118  10.082  1.00  0.00     0.091 A 
ATOM     67  F   UNL     1      10.492  -7.387   8.834  1.00  0.00    -0.205 F 
ATOM     68  C   UNL     1      12.341  -5.111  11.025  1.00  0.00     0.022 A 
BRANCH  66  69
ATOM     69  S   UNL     1      13.504  -6.939   9.357  1.00  0.00     0.127 S 
ATOM     70  O   UNL     1      14.048  -5.884   8.503  1.00  0.00    -0.237 OA
ATOM     71  O   UNL     1      14.313  -7.247  10.537  1.00  0.00    -0.237 OA
ATOM     72  O   UNL     1      12.983  -8.104   8.656  1.00  0.00    -0.744 OA
ENDBRANCH  66  69
ENDBRANCH  48  62
BRANCH  49  73
ATOM     73  C   UNL     1       0.314  -8.247   8.023  1.00  0.00     0.023 A 
ATOM     74  C   UNL     1      -0.651  -8.502   9.017  1.00  0.00     0.012 A 
ATOM     75  C   UNL     1      -0.058  -8.330   6.667  1.00  0.00     0.148 A 
ATOM     76  C   UNL     1      -1.952  -8.867   8.668  1.00  0.00     0.002 A 
ATOM     77  C   UNL     1      -1.370  -8.635   6.327  1.00  0.00     0.091 A 
ATOM     78  F   UNL     1       0.877  -8.090   5.737  1.00  0.00    -0.205 F 
ATOM     79  C   UNL     1      -2.314  -8.923   7.325  1.00  0.00     0.022 A 
BRANCH  77  80
ATOM     80  S   UNL     1      -1.960  -8.596   4.631  1.00  0.00     0.127 S 
ATOM     81  O   UNL     1      -2.245 -10.007   4.382  1.00  0.00    -0.237 OA
ATOM     82  O   UNL     1      -3.139  -7.737   4.745  1.00  0.00    -0.237 OA
ATOM     83  O   UNL     1      -0.873  -8.023   3.849  1.00  0.00    -0.744 OA
ENDBRANCH  77  80
ENDBRANCH  49  73
BRANCH  61  84
ATOM     84  C   UNL     1       5.443 -11.583  11.387  1.00  0.00     0.023 A 
ATOM     85  C   UNL     1       5.508 -12.725  10.564  1.00  0.00     0.012 A 
ATOM     86  C   UNL     1       5.540 -11.733  12.785  1.00  0.00     0.148 A 
ATOM     87  C   UNL     1       5.631 -13.996  11.124  1.00  0.00     0.002 A 
ATOM     88  C   UNL     1       5.718 -12.997  13.332  1.00  0.00     0.091 A 
ATOM     89  F   UNL     1       5.460 -10.636  13.552  1.00  0.00    -0.205 F 
ATOM     90  C   UNL     1       5.748 -14.131  12.505  1.00  0.00     0.022 A 
BRANCH  88  91
ATOM     91  S   UNL     1       5.978 -13.259  15.090  1.00  0.00     0.127 S 
ATOM     92  O   UNL     1       4.728 -13.909  15.482  1.00  0.00    -0.237 OA
ATOM     93  O   UNL     1       7.150 -14.134  15.102  1.00  0.00    -0.237 OA
ATOM     94  O   UNL     1       6.201 -11.940  15.666  1.00  0.00    -0.744 OA
ENDBRANCH  88  91
ENDBRANCH  61  84
ENDBRANCH  35  36
ENDBRANCH  27  30
ENDBRANCH  25  26
ENDBRANCH   1  25
TORSDOF 16
