REMARK SMILES O=C(NCCCNC(=O)c1cccc(Nc2ccnc3ccc(F)cc23)c1)c1ccc(-c2c3nc(c(-c4cccc(S(=O)(=O)[O-])c4F)c4ccc([nH]4)c(-c4cccc(S(=O)(=O)[O-])c4F)c4nc(c(-c5cccc(S(=O)(=O)[O-])c5F)c5ccc2[nH]5)C=C4)C=C3)cc1
REMARK SMILES IDX 4 1 3 2 1 3 2 4 28 6 29 7 90 8 30 9 89 10 31 11 32 12 33 13
REMARK SMILES IDX 83 14 34 15 88 16 82 17 84 18 35 19 87 20 81 21 80 22 36 24
REMARK SMILES IDX 68 25 48 26 67 27 49 28 52 29 66 30 85 31 50 32 51 33 65 35
REMARK SMILES IDX 86 36 53 37 37 38 38 39 46 40 39 41 41 42 47 43 40 44 42 45
REMARK SMILES IDX 43 46 44 47 45 48 69 49 70 50 78 51 71 52 73 53 79 54 72 55
REMARK SMILES IDX 74 56 75 57 76 58 77 59 54 60 55 61 63 62 56 63 58 64 64 65
REMARK SMILES IDX 57 66 59 67 60 68 61 69 62 70 5 71 6 72 7 73 8 74 9 76 10 77
REMARK SMILES IDX 11 78 27 79 12 80 14 81 13 82 15 83 16 85 17 86 26 87 18 88
REMARK SMILES IDX 20 89 25 90 19 91 21 92 23 93 22 94 24 95
REMARK H PARENT 3 5 84 23 52 34 7 75 15 84
REMARK Flexibility Score: inf
ROOT
ATOM      1  C   UNL     1       4.600  -1.241   0.790  1.00  0.00     0.118 C 
ENDROOT
BRANCH   1   2
ATOM      2  N   UNL     1       3.170  -1.054   0.599  1.00  0.00    -0.352 N 
ATOM      3  O   UNL     1       1.218  -0.076   0.117  1.00  0.00    -0.269 OA
ATOM      4  C   UNL     1       2.447  -0.022   0.051  1.00  0.00     0.251 C 
ATOM      5  H   UNL     1       2.620  -1.805   0.921  1.00  0.00     0.163 HD
BRANCH   4   6
ATOM      6  C   UNL     1       3.094   1.154  -0.582  1.00  0.00     0.039 A 
ATOM      7  C   UNL     1       4.204   1.036  -1.422  1.00  0.00     0.014 A 
ATOM      8  C   UNL     1       2.520   2.415  -0.379  1.00  0.00     0.014 A 
ATOM      9  C   UNL     1       4.815   2.181  -1.944  1.00  0.00     0.010 A 
ATOM     10  C   UNL     1       3.093   3.554  -0.955  1.00  0.00     0.010 A 
ATOM     11  C   UNL     1       4.270   3.454  -1.712  1.00  0.00    -0.014 A 
BRANCH  11  12
ATOM     12  C   UNL     1       4.909   4.673  -2.280  1.00  0.00     0.031 A 
ATOM     13  C   UNL     1       5.481   5.734  -1.375  1.00  0.00     0.074 A 
ATOM     14  C   UNL     1       4.933   4.855  -3.615  1.00  0.00     0.049 A 
ATOM     15  N   UNL     1       6.025   6.882  -1.689  1.00  0.00    -0.248 NA
ATOM     16  C   UNL     1       5.427   5.474   0.072  1.00  0.00     0.031 C 
ATOM     17  C   UNL     1       4.378   3.926  -4.600  1.00  0.00     0.029 A 
ATOM     18  N   UNL     1       5.419   5.894  -4.372  1.00  0.00    -0.354 N 
ATOM     19  C   UNL     1       6.338   7.500  -0.484  1.00  0.00     0.074 A 
ATOM     20  C   UNL     1       5.915   6.602   0.569  1.00  0.00     0.031 C 
ATOM     21  C   UNL     1       4.546   4.438  -5.829  1.00  0.00     0.029 A 
ATOM     22  C   UNL     1       5.178   5.750  -5.718  1.00  0.00     0.049 A 
ATOM     23  H   UNL     1       5.893   6.666  -3.987  1.00  0.00     0.167 HD
ATOM     24  C   UNL     1       6.935   8.699  -0.270  1.00  0.00     0.034 A 
ATOM     25  C   UNL     1       5.413   6.586  -6.749  1.00  0.00     0.034 A 
ATOM     26  C   UNL     1       7.379   9.580  -1.318  1.00  0.00     0.049 A 
ATOM     27  C   UNL     1       6.084   7.906  -6.490  1.00  0.00     0.074 A 
ATOM     28  C   UNL     1       8.057  10.782  -1.201  1.00  0.00     0.029 A 
ATOM     29  N   UNL     1       7.178   9.367  -2.673  1.00  0.00    -0.354 N 
ATOM     30  N   UNL     1       6.492   8.413  -5.353  1.00  0.00    -0.248 NA
ATOM     31  C   UNL     1       6.359   8.755  -7.659  1.00  0.00     0.031 C 
ATOM     32  C   UNL     1       8.240  11.308  -2.485  1.00  0.00     0.029 A 
ATOM     33  C   UNL     1       7.708  10.418  -3.403  1.00  0.00     0.049 A 
ATOM     34  H   UNL     1       6.726   8.582  -3.060  1.00  0.00     0.167 HD
ATOM     35  C   UNL     1       7.104   9.620  -5.669  1.00  0.00     0.074 A 
ATOM     36  C   UNL     1       7.022   9.764  -7.109  1.00  0.00     0.031 C 
ATOM     37  C   UNL     1       7.673  10.528  -4.840  1.00  0.00     0.034 A 
BRANCH  24  38
ATOM     38  C   UNL     1       7.169   9.120   1.159  1.00  0.00     0.023 A 
ATOM     39  C   UNL     1       8.155   8.467   1.927  1.00  0.00     0.012 A 
ATOM     40  C   UNL     1       6.452  10.192   1.726  1.00  0.00     0.148 A 
ATOM     41  C   UNL     1       8.393   8.846   3.249  1.00  0.00     0.002 A 
ATOM     42  C   UNL     1       6.726  10.592   3.030  1.00  0.00     0.091 A 
ATOM     43  F   UNL     1       5.505  10.790   0.990  1.00  0.00    -0.205 F 
ATOM     44  C   UNL     1       7.686   9.912   3.796  1.00  0.00     0.022 A 
BRANCH  42  45
ATOM     45  S   UNL     1       5.922  12.007   3.792  1.00  0.00     0.127 S 
ATOM     46  O   UNL     1       4.967  11.356   4.687  1.00  0.00    -0.237 OA
ATOM     47  O   UNL     1       7.036  12.671   4.469  1.00  0.00    -0.237 OA
ATOM     48  O   UNL     1       5.340  12.771   2.697  1.00  0.00    -0.744 OA
ENDBRANCH  42  45
ENDBRANCH  24  38
BRANCH  25  49
ATOM     49  C   UNL     1       5.039   6.166  -8.129  1.00  0.00     0.023 A 
ATOM     50  C   UNL     1       6.050   5.829  -9.049  1.00  0.00     0.012 A 
ATOM     51  C   UNL     1       3.689   6.037  -8.509  1.00  0.00     0.148 A 
ATOM     52  C   UNL     1       5.722   5.386 -10.331  1.00  0.00     0.002 A 
ATOM     53  C   UNL     1       3.370   5.541  -9.767  1.00  0.00     0.091 A 
ATOM     54  F   UNL     1       2.745   6.373  -7.619  1.00  0.00    -0.205 F 
ATOM     55  C   UNL     1       4.385   5.229 -10.685  1.00  0.00     0.022 A 
BRANCH  53  56
ATOM     56  S   UNL     1       1.682   5.176 -10.263  1.00  0.00     0.127 S 
ATOM     57  O   UNL     1       1.462   6.160 -11.319  1.00  0.00    -0.237 OA
ATOM     58  O   UNL     1       1.799   3.792 -10.723  1.00  0.00    -0.237 OA
ATOM     59  O   UNL     1       0.872   5.346  -9.065  1.00  0.00    -0.744 OA
ENDBRANCH  53  56
ENDBRANCH  25  49
BRANCH  37  60
ATOM     60  C   UNL     1       8.310  11.747  -5.457  1.00  0.00     0.023 A 
ATOM     61  C   UNL     1       7.503  12.780  -5.971  1.00  0.00     0.012 A 
ATOM     62  C   UNL     1       9.710  11.906  -5.436  1.00  0.00     0.148 A 
ATOM     63  C   UNL     1       8.082  13.945  -6.477  1.00  0.00     0.002 A 
ATOM     64  C   UNL     1      10.277  13.088  -5.896  1.00  0.00     0.091 A 
ATOM     65  F   UNL     1      10.460  10.902  -4.960  1.00  0.00    -0.205 F 
ATOM     66  C   UNL     1       9.466  14.104  -6.426  1.00  0.00     0.022 A 
BRANCH  64  67
ATOM     67  S   UNL     1      12.038  13.422  -5.780  1.00  0.00     0.127 S 
ATOM     68  O   UNL     1      12.447  13.356  -7.182  1.00  0.00    -0.237 OA
ATOM     69  O   UNL     1      12.062  14.765  -5.201  1.00  0.00    -0.237 OA
ATOM     70  O   UNL     1      12.589  12.383  -4.921  1.00  0.00    -0.744 OA
ENDBRANCH  64  67
ENDBRANCH  37  60
ENDBRANCH  11  12
ENDBRANCH   4   6
ENDBRANCH   1   2
BRANCH   1  71
ATOM     71  C   UNL     1       5.014  -1.392   2.255  1.00  0.00     0.042 C 
BRANCH  71  72
ATOM     72  C   UNL     1       4.367  -2.537   3.031  1.00  0.00     0.118 C 
BRANCH  72  73
ATOM     73  N   UNL     1       4.596  -3.861   2.476  1.00  0.00    -0.352 N 
ATOM     74  C   UNL     1       5.221  -4.935   3.063  1.00  0.00     0.251 C 
ATOM     75  H   UNL     1       4.260  -4.008   1.562  1.00  0.00     0.163 HD
ATOM     76  O   UNL     1       5.095  -6.069   2.609  1.00  0.00    -0.269 OA
BRANCH  74  77
ATOM     77  C   UNL     1       6.136  -4.712   4.197  1.00  0.00     0.041 A 
ATOM     78  C   UNL     1       7.425  -4.271   3.881  1.00  0.00     0.014 A 
ATOM     79  C   UNL     1       5.754  -4.970   5.526  1.00  0.00     0.039 A 
ATOM     80  C   UNL     1       8.340  -4.051   4.899  1.00  0.00     0.003 A 
ATOM     81  C   UNL     1       6.670  -4.731   6.559  1.00  0.00     0.039 A 
ATOM     82  C   UNL     1       7.958  -4.270   6.220  1.00  0.00     0.026 A 
BRANCH  81  83
ATOM     83  N   UNL     1       6.303  -4.773   7.924  1.00  0.00    -0.355 N 
ATOM     84  H   UNL     1       5.765  -5.538   8.233  1.00  0.00     0.167 HD
BRANCH  83  85
ATOM     85  C   UNL     1       6.660  -3.782   8.877  1.00  0.00     0.050 A 
ATOM     86  C   UNL     1       6.621  -2.443   8.464  1.00  0.00     0.047 A 
ATOM     87  C   UNL     1       7.143  -4.079  10.180  1.00  0.00     0.027 A 
ATOM     88  C   UNL     1       7.093  -1.462   9.304  1.00  0.00     0.114 A 
ATOM     89  C   UNL     1       7.550  -2.974  10.975  1.00  0.00     0.072 A 
ATOM     90  C   UNL     1       7.289  -5.379  10.723  1.00  0.00     0.051 A 
ATOM     91  N   UNL     1       7.540  -1.707  10.546  1.00  0.00    -0.256 NA
ATOM     92  C   UNL     1       8.005  -3.185  12.268  1.00  0.00     0.032 A 
ATOM     93  C   UNL     1       7.772  -5.552  12.020  1.00  0.00     0.124 A 
ATOM     94  C   UNL     1       8.112  -4.464  12.806  1.00  0.00     0.041 A 
ATOM     95  F   UNL     1       7.914  -6.787  12.519  1.00  0.00    -0.207 F 
ENDBRANCH  83  85
ENDBRANCH  81  83
ENDBRANCH  74  77
ENDBRANCH  72  73
ENDBRANCH  71  72
ENDBRANCH   1  71
TORSDOF 15
