REMARK SMILES C[C@H]1CC[C@H]([NH2+]Cc2c(C(=O)NCCCNC(=O)c3ccc(-c4c5nc(c(-c6cccc(S(=O)(=O)[O-])c6F)c6ccc([nH]6)c(-c6cccc(S(=O)(=O)[O-])c6F)c6nc(c(-c7cccc(S(=O)(=O)[O-])c7F)c7ccc4[nH]7)C=C6)C=C5)cc3)n(Cc3ccccc3F)c3ccccc23)CC1
REMARK SMILES IDX 14 1 13 2 12 3 10 4 11 5 9 7 8 8 96 9 82 10 91 11 95 12
REMARK SMILES IDX 92 13 94 14 93 15 7 16 6 17 5 20 1 21 2 22 3 23 98 24 4 25
REMARK SMILES IDX 97 26 83 27 84 28 85 29 89 30 86 31 88 32 90 33 87 34 15 35
REMARK SMILES IDX 16 36 17 37 18 39 19 40 20 41 81 42 21 43 80 44 22 45 23 46
REMARK SMILES IDX 24 47 74 48 25 49 79 50 73 51 75 52 26 53 78 54 72 55 71 56
REMARK SMILES IDX 27 58 59 59 39 60 58 61 40 62 43 63 57 64 76 65 41 66 42 67
REMARK SMILES IDX 56 69 77 70 44 71 28 72 29 73 37 74 30 75 32 76 38 77 31 78
REMARK SMILES IDX 33 79 34 80 35 81 36 82 60 83 61 84 69 85 62 86 64 87 70 88
REMARK SMILES IDX 63 89 65 90 66 91 67 92 68 93 45 94 46 95 54 96 47 97 49 98
REMARK SMILES IDX 55 99 48 100 50 101 51 102 52 103 53 104
REMARK H PARENT 12 6 6 18 6 19 16 38 75 57 43 68
REMARK Flexibility Score: inf
ROOT
ATOM      1  C   UNL     1      -4.418   1.694   2.329  1.00  0.00     0.042 C 
ENDROOT
BRANCH   1   2
ATOM      2  C   UNL     1      -3.788   0.445   1.722  1.00  0.00     0.118 C 
BRANCH   2   3
ATOM      3  N   UNL     1      -2.823  -0.263   2.521  1.00  0.00    -0.351 N 
ATOM      4  C   UNL     1      -2.250  -1.505   2.337  1.00  0.00     0.268 C 
ATOM      5  O   UNL     1      -1.337  -1.736   3.136  1.00  0.00    -0.268 OA
ATOM      6  H   UNL     1      -2.523   0.215   3.328  1.00  0.00     0.163 HD
BRANCH   4   7
ATOM      7  C   UNL     1      -2.694  -2.507   1.349  1.00  0.00     0.117 A 
ATOM      8  C   UNL     1      -3.358  -2.434   0.107  1.00  0.00     0.045 A 
ATOM      9  C   UNL     1      -3.873  -3.748  -0.146  1.00  0.00     0.009 A 
ATOM     10  N   UNL     1      -2.309  -3.874   1.422  1.00  0.00    -0.331 N 
ATOM     11  C   UNL     1      -3.019  -4.627   0.494  1.00  0.00     0.049 A 
ATOM     12  C   UNL     1      -4.871  -4.259  -1.004  1.00  0.00     0.011 A 
ATOM     13  C   UNL     1      -2.990  -5.989   0.137  1.00  0.00     0.027 A 
ATOM     14  C   UNL     1      -4.965  -5.635  -1.217  1.00  0.00     0.001 A 
ATOM     15  C   UNL     1      -4.003  -6.484  -0.689  1.00  0.00     0.002 A 
BRANCH   8  16
ATOM     16  C   UNL     1      -3.611  -1.365  -0.922  1.00  0.00     0.300 C 
BRANCH  16  17
ATOM     17  N   UNL     1      -2.700  -0.241  -0.941  1.00  0.00    -0.340 N 
ATOM     18  H   UNL     1      -3.120   0.444  -1.569  1.00  0.00     0.346 HD
ATOM     19  H   UNL     1      -2.608  -0.053   0.058  1.00  0.00     0.346 HD
BRANCH  17  20
ATOM     20  C   UNL     1      -1.296  -0.326  -1.333  1.00  0.00     0.182 C 
ATOM     21  C   UNL     1       3.006   0.033  -0.318  1.00  0.00     0.007 C 
ATOM     22  C   UNL     1       1.489  -0.081  -0.281  1.00  0.00    -0.014 C 
ATOM     23  C   UNL     1       1.007  -1.369  -0.954  1.00  0.00     0.009 C 
ATOM     24  C   UNL     1       0.817   1.116  -0.955  1.00  0.00     0.009 C 
ATOM     25  C   UNL     1      -0.500  -1.510  -0.778  1.00  0.00     0.065 C 
ATOM     26  C   UNL     1      -0.699   1.014  -0.839  1.00  0.00     0.065 C 
ENDBRANCH  17  20
ENDBRANCH  16  17
ENDBRANCH   8  16
BRANCH  10  27
ATOM     27  C   UNL     1      -1.232  -4.458   2.241  1.00  0.00     0.161 C 
BRANCH  27  28
ATOM     28  C   UNL     1      -1.696  -5.170   3.493  1.00  0.00     0.008 A 
ATOM     29  C   UNL     1      -2.484  -6.334   3.453  1.00  0.00     0.008 A 
ATOM     30  C   UNL     1      -1.282  -4.734   4.754  1.00  0.00     0.128 A 
ATOM     31  C   UNL     1      -2.879  -6.999   4.616  1.00  0.00     0.001 A 
ATOM     32  C   UNL     1      -1.683  -5.383   5.924  1.00  0.00     0.039 A 
ATOM     33  F   UNL     1      -0.441  -3.697   4.869  1.00  0.00    -0.207 F 
ATOM     34  C   UNL     1      -2.490  -6.514   5.857  1.00  0.00     0.003 A 
ENDBRANCH  27  28
ENDBRANCH  10  27
ENDBRANCH   4   7
ENDBRANCH   2   3
ENDBRANCH   1   2
BRANCH   1  35
ATOM     35  C   UNL     1      -3.566   2.977   2.276  1.00  0.00     0.118 C 
BRANCH  35  36
ATOM     36  N   UNL     1      -2.907   3.280   1.013  1.00  0.00    -0.352 N 
ATOM     37  C   UNL     1      -3.050   4.303   0.108  1.00  0.00     0.251 C 
ATOM     38  H   UNL     1      -2.223   2.620   0.757  1.00  0.00     0.163 HD
ATOM     39  O   UNL     1      -2.030   4.666  -0.482  1.00  0.00    -0.269 OA
BRANCH  37  40
ATOM     40  C   UNL     1      -4.360   4.875  -0.300  1.00  0.00     0.039 A 
ATOM     41  C   UNL     1      -5.582   4.389   0.155  1.00  0.00     0.014 A 
ATOM     42  C   UNL     1      -4.350   5.825  -1.340  1.00  0.00     0.014 A 
ATOM     43  C   UNL     1      -6.760   4.747  -0.487  1.00  0.00     0.010 A 
ATOM     44  C   UNL     1      -5.529   6.200  -1.977  1.00  0.00     0.010 A 
ATOM     45  C   UNL     1      -6.726   5.611  -1.585  1.00  0.00    -0.014 A 
BRANCH  45  46
ATOM     46  C   UNL     1      -7.995   5.894  -2.245  1.00  0.00     0.031 A 
ATOM     47  C   UNL     1      -9.021   6.554  -1.391  1.00  0.00     0.074 A 
ATOM     48  C   UNL     1      -8.234   5.641  -3.547  1.00  0.00     0.049 A 
ATOM     49  N   UNL     1     -10.161   6.080  -0.999  1.00  0.00    -0.248 NA
ATOM     50  C   UNL     1      -8.678   7.860  -0.812  1.00  0.00     0.031 C 
ATOM     51  C   UNL     1      -7.284   5.253  -4.591  1.00  0.00     0.029 A 
ATOM     52  N   UNL     1      -9.398   5.808  -4.235  1.00  0.00    -0.354 N 
ATOM     53  C   UNL     1     -10.764   7.104  -0.271  1.00  0.00     0.074 A 
ATOM     54  C   UNL     1      -9.759   8.119  -0.076  1.00  0.00     0.031 C 
ATOM     55  C   UNL     1      -7.851   5.463  -5.801  1.00  0.00     0.029 A 
ATOM     56  C   UNL     1      -9.232   5.870  -5.613  1.00  0.00     0.049 A 
ATOM     57  H   UNL     1     -10.276   5.879  -3.795  1.00  0.00     0.167 HD
ATOM     58  C   UNL     1     -12.102   7.146  -0.022  1.00  0.00     0.034 A 
ATOM     59  C   UNL     1     -10.150   6.315  -6.506  1.00  0.00     0.034 A 
ATOM     60  C   UNL     1     -12.756   5.896  -0.276  1.00  0.00     0.049 A 
ATOM     61  C   UNL     1     -11.477   6.214  -5.849  1.00  0.00     0.074 A 
ATOM     62  C   UNL     1     -12.654   4.619   0.238  1.00  0.00     0.029 A 
ATOM     63  N   UNL     1     -13.449   5.773  -1.456  1.00  0.00    -0.354 N 
ATOM     64  N   UNL     1     -12.046   5.083  -5.536  1.00  0.00    -0.248 NA
ATOM     65  C   UNL     1     -11.999   7.388  -5.167  1.00  0.00     0.031 C 
ATOM     66  C   UNL     1     -12.842   3.761  -0.884  1.00  0.00     0.029 A 
ATOM     67  C   UNL     1     -13.081   4.570  -1.997  1.00  0.00     0.049 A 
ATOM     68  H   UNL     1     -14.084   6.422  -1.837  1.00  0.00     0.167 HD
ATOM     69  C   UNL     1     -12.688   5.335  -4.331  1.00  0.00     0.074 A 
ATOM     70  C   UNL     1     -12.711   6.790  -4.208  1.00  0.00     0.031 C 
ATOM     71  C   UNL     1     -12.888   4.345  -3.412  1.00  0.00     0.034 A 
BRANCH  58  72
ATOM     72  C   UNL     1     -12.880   8.415   0.176  1.00  0.00     0.023 A 
ATOM     73  C   UNL     1     -14.145   8.346   0.795  1.00  0.00     0.012 A 
ATOM     74  C   UNL     1     -12.526   9.631  -0.450  1.00  0.00     0.148 A 
ATOM     75  C   UNL     1     -15.018   9.440   0.789  1.00  0.00     0.002 A 
ATOM     76  C   UNL     1     -13.365  10.736  -0.390  1.00  0.00     0.091 A 
ATOM     77  F   UNL     1     -11.432   9.682  -1.218  1.00  0.00    -0.205 F 
ATOM     78  C   UNL     1     -14.622  10.641   0.211  1.00  0.00     0.022 A 
BRANCH  76  79
ATOM     79  S   UNL     1     -12.867  12.314  -1.086  1.00  0.00     0.127 S 
ATOM     80  O   UNL     1     -13.627  12.331  -2.339  1.00  0.00    -0.237 OA
ATOM     81  O   UNL     1     -13.341  13.256  -0.067  1.00  0.00    -0.237 OA
ATOM     82  O   UNL     1     -11.425  12.242  -1.206  1.00  0.00    -0.744 OA
ENDBRANCH  76  79
ENDBRANCH  58  72
BRANCH  59  83
ATOM     83  C   UNL     1      -9.956   7.051  -7.780  1.00  0.00     0.023 A 
ATOM     84  C   UNL     1     -11.038   7.181  -8.675  1.00  0.00     0.012 A 
ATOM     85  C   UNL     1      -8.815   7.854  -8.007  1.00  0.00     0.148 A 
ATOM     86  C   UNL     1     -11.004   8.104  -9.729  1.00  0.00     0.002 A 
ATOM     87  C   UNL     1      -8.777   8.758  -9.067  1.00  0.00     0.091 A 
ATOM     88  F   UNL     1      -7.803   7.811  -7.132  1.00  0.00    -0.205 F 
ATOM     89  C   UNL     1      -9.877   8.897  -9.921  1.00  0.00     0.022 A 
BRANCH  87  90
ATOM     90  S   UNL     1      -7.351   9.811  -9.368  1.00  0.00     0.127 S 
ATOM     91  O   UNL     1      -7.208   9.727 -10.822  1.00  0.00    -0.237 OA
ATOM     92  O   UNL     1      -7.817  11.103  -8.872  1.00  0.00    -0.237 OA
ATOM     93  O   UNL     1      -6.251   9.204  -8.627  1.00  0.00    -0.744 OA
ENDBRANCH  87  90
ENDBRANCH  59  83
BRANCH  71  94
ATOM     94  C   UNL     1     -12.573   2.926  -3.809  1.00  0.00     0.023 A 
ATOM     95  C   UNL     1     -11.248   2.513  -4.063  1.00  0.00     0.012 A 
ATOM     96  C   UNL     1     -13.581   1.954  -3.696  1.00  0.00     0.148 A 
ATOM     97  C   UNL     1     -10.935   1.160  -4.207  1.00  0.00     0.002 A 
ATOM     98  C   UNL     1     -13.259   0.606  -3.800  1.00  0.00     0.091 A 
ATOM     99  F   UNL     1     -14.830   2.367  -3.434  1.00  0.00    -0.205 F 
ATOM    100  C   UNL     1     -11.938   0.205  -4.060  1.00  0.00     0.022 A 
BRANCH  98 101
ATOM    101  S   UNL     1     -14.467  -0.686  -3.500  1.00  0.00     0.127 S 
ATOM    102  O   UNL     1     -14.612  -1.283  -4.826  1.00  0.00    -0.237 OA
ATOM    103  O   UNL     1     -13.780  -1.531  -2.521  1.00  0.00    -0.237 OA
ATOM    104  O   UNL     1     -15.657  -0.019  -2.985  1.00  0.00    -0.744 OA
ENDBRANCH  98 101
ENDBRANCH  71  94
ENDBRANCH  45  46
ENDBRANCH  37  40
ENDBRANCH  35  36
ENDBRANCH   1  35
TORSDOF 18
