REMARK SMILES CC(C)[C@H]1CC[C@@H](C)/C(=C/c2ccc(NC(=O)CCC(=O)NCCCNC(=O)c3ccc(-c4c5nc(c(-c6cccc(S(=O)(=O)[O-])c6F)c6ccc([nH]6)c(-c6cccc(S(=O)(=O)[O-])c6F)c6nc(c(-c7cccc(S(=O)(=O)[O-])c7F)c7ccc4[nH]7)C=C6)C=C5)cc3)cc2)C1=O
REMARK SMILES IDX 23 1 22 2 20 3 21 4 19 6 18 7 16 8 15 9 17 11 14 12 11 13
REMARK SMILES IDX 12 14 93 15 13 16 92 17 10 18 4 19 5 20 94 21 6 22 9 23
REMARK SMILES IDX 95 24 7 25 8 26 2 27 1 28 3 29 24 30 25 31 26 32 27 33 28 35
REMARK SMILES IDX 29 36 30 37 91 38 31 39 90 40 32 41 33 42 34 43 84 44 35 45
REMARK SMILES IDX 89 46 83 47 85 48 36 49 88 50 82 51 81 52 37 54 69 55 49 56
REMARK SMILES IDX 68 57 50 58 53 59 67 60 86 61 51 62 52 63 66 65 87 66 54 67
REMARK SMILES IDX 38 68 39 69 47 70 40 71 42 72 48 73 41 74 43 75 44 76 45 77
REMARK SMILES IDX 46 78 70 79 71 80 79 81 72 82 74 83 80 84 73 85 75 86 76 87
REMARK SMILES IDX 77 88 78 89 55 90 56 91 64 92 57 93 59 94 65 95 58 96 60 97
REMARK SMILES IDX 61 98 62 99 63 100
REMARK H PARENT 22 5 15 10 26 34 85 53 53 64
REMARK Flexibility Score: inf
ROOT
ATOM      1  C   UNL     1       4.490   7.246  -0.207  1.00  0.00     0.117 C 
ENDROOT
BRANCH   1   2
ATOM      2  N   UNL     1       3.628   6.786  -1.284  1.00  0.00    -0.356 N 
ATOM      3  C   UNL     1       2.991   7.486  -2.265  1.00  0.00     0.220 C 
ATOM      4  O   UNL     1       2.520   6.864  -3.219  1.00  0.00    -0.275 OA
ATOM      5  H   UNL     1       3.480   5.813  -1.308  1.00  0.00     0.163 HD
BRANCH   3   6
ATOM      6  C   UNL     1       2.862   8.991  -2.187  1.00  0.00     0.110 C 
BRANCH   6   7
ATOM      7  C   UNL     1       1.496   9.466  -1.706  1.00  0.00     0.110 C 
BRANCH   7   8
ATOM      8  C   UNL     1       1.189   9.061  -0.281  1.00  0.00     0.224 C 
ATOM      9  N   UNL     1       0.585   7.876   0.029  1.00  0.00    -0.326 N 
ATOM     10  H   UNL     1       0.431   7.726   0.989  1.00  0.00     0.169 HD
ATOM     11  O   UNL     1       1.605   9.764   0.646  1.00  0.00    -0.275 OA
BRANCH   9  12
ATOM     12  C   UNL     1       0.150   6.843  -0.810  1.00  0.00     0.041 A 
ATOM     13  C   UNL     1      -0.392   4.686  -2.521  1.00  0.00    -0.025 A 
ATOM     14  C   UNL     1      -0.809   5.976  -2.855  1.00  0.00     0.010 A 
ATOM     15  C   UNL     1       0.269   4.480  -1.305  1.00  0.00     0.010 A 
ATOM     16  C   UNL     1      -0.543   7.048  -1.999  1.00  0.00     0.027 A 
ATOM     17  C   UNL     1       0.475   5.542  -0.426  1.00  0.00     0.027 A 
BRANCH  13  18
ATOM     18  C   UNL     1      -0.698   3.581  -3.436  1.00  0.00     0.015 C 
ATOM     19  C   UNL     1      -1.209   0.925  -1.057  1.00  0.00     0.063 C 
ATOM     20  C   UNL     1      -1.607  -0.245  -1.974  1.00  0.00     0.013 C 
ATOM     21  C   UNL     1      -1.765   2.207  -1.670  1.00  0.00     0.162 C 
ATOM     22  C   UNL     1      -1.144  -0.010  -3.418  1.00  0.00     0.009 C 
ATOM     23  C   UNL     1      -1.335   2.450  -3.086  1.00  0.00    -0.001 C 
ATOM     24  O   UNL     1      -2.497   3.004  -1.096  1.00  0.00    -0.294 OA
ATOM     25  C   UNL     1      -1.664   1.311  -4.014  1.00  0.00     0.020 C 
ATOM     26  C   UNL     1      -3.175   1.268  -4.290  1.00  0.00     0.013 C 
BRANCH  19  27
ATOM     27  C   UNL     1      -1.580   0.681   0.425  1.00  0.00    -0.007 C 
ATOM     28  C   UNL     1      -0.891   1.692   1.350  1.00  0.00     0.008 C 
ATOM     29  C   UNL     1      -3.083   0.637   0.710  1.00  0.00     0.008 C 
ENDBRANCH  19  27
ENDBRANCH  13  18
ENDBRANCH   9  12
ENDBRANCH   7   8
ENDBRANCH   6   7
ENDBRANCH   3   6
ENDBRANCH   1   2
BRANCH   1  30
ATOM     30  C   UNL     1       3.949   6.982   1.194  1.00  0.00     0.042 C 
BRANCH  30  31
ATOM     31  C   UNL     1       3.696   5.518   1.538  1.00  0.00     0.118 C 
BRANCH  31  32
ATOM     32  N   UNL     1       4.907   4.736   1.702  1.00  0.00    -0.352 N 
ATOM     33  C   UNL     1       5.270   3.893   2.728  1.00  0.00     0.251 C 
ATOM     34  H   UNL     1       5.564   4.821   0.974  1.00  0.00     0.163 HD
ATOM     35  O   UNL     1       6.373   3.363   2.709  1.00  0.00    -0.269 OA
BRANCH  33  36
ATOM     36  C   UNL     1       4.353   3.652   3.869  1.00  0.00     0.039 A 
ATOM     37  C   UNL     1       4.870   3.761   5.163  1.00  0.00     0.014 A 
ATOM     38  C   UNL     1       3.013   3.297   3.683  1.00  0.00     0.014 A 
ATOM     39  C   UNL     1       4.038   3.557   6.268  1.00  0.00     0.010 A 
ATOM     40  C   UNL     1       2.170   3.147   4.789  1.00  0.00     0.010 A 
ATOM     41  C   UNL     1       2.675   3.266   6.094  1.00  0.00    -0.014 A 
BRANCH  41  42
ATOM     42  C   UNL     1       1.787   3.080   7.275  1.00  0.00     0.031 A 
ATOM     43  C   UNL     1       1.179   1.735   7.574  1.00  0.00     0.074 A 
ATOM     44  C   UNL     1       1.493   4.132   8.066  1.00  0.00     0.049 A 
ATOM     45  N   UNL     1       0.418   1.380   8.578  1.00  0.00    -0.248 NA
ATOM     46  C   UNL     1       1.442   0.652   6.612  1.00  0.00     0.031 C 
ATOM     47  C   UNL     1       1.950   5.507   7.851  1.00  0.00     0.029 A 
ATOM     48  N   UNL     1       0.726   4.214   9.203  1.00  0.00    -0.354 N 
ATOM     49  C   UNL     1       0.086   0.049   8.355  1.00  0.00     0.074 A 
ATOM     50  C   UNL     1       0.706  -0.335   7.105  1.00  0.00     0.031 C 
ATOM     51  C   UNL     1       1.461   6.291   8.826  1.00  0.00     0.029 A 
ATOM     52  C   UNL     1       0.646   5.483   9.729  1.00  0.00     0.049 A 
ATOM     53  H   UNL     1       0.275   3.436   9.605  1.00  0.00     0.167 HD
ATOM     54  C   UNL     1      -0.641  -0.790   9.133  1.00  0.00     0.034 A 
ATOM     55  C   UNL     1      -0.003   5.944  10.817  1.00  0.00     0.034 A 
ATOM     56  C   UNL     1      -1.212  -0.429  10.402  1.00  0.00     0.049 A 
ATOM     57  C   UNL     1      -0.761   4.977  11.690  1.00  0.00     0.074 A 
ATOM     58  C   UNL     1      -1.872  -1.240  11.309  1.00  0.00     0.029 A 
ATOM     59  N   UNL     1      -1.202   0.847  10.942  1.00  0.00    -0.354 N 
ATOM     60  N   UNL     1      -0.897   3.680  11.561  1.00  0.00    -0.248 NA
ATOM     61  C   UNL     1      -1.419   5.532  12.883  1.00  0.00     0.031 C 
ATOM     62  C   UNL     1      -2.279  -0.449  12.389  1.00  0.00     0.029 A 
ATOM     63  C   UNL     1      -1.854   0.850  12.163  1.00  0.00     0.049 A 
ATOM     64  H   UNL     1      -0.792   1.636  10.519  1.00  0.00     0.167 HD
ATOM     65  C   UNL     1      -1.619   3.260  12.672  1.00  0.00     0.074 A 
ATOM     66  C   UNL     1      -1.873   4.437  13.476  1.00  0.00     0.031 C 
ATOM     67  C   UNL     1      -2.047   2.013  12.990  1.00  0.00     0.034 A 
BRANCH  54  68
ATOM     68  C   UNL     1      -0.812  -2.211   8.663  1.00  0.00     0.023 A 
ATOM     69  C   UNL     1       0.281  -3.099   8.727  1.00  0.00     0.012 A 
ATOM     70  C   UNL     1      -2.065  -2.688   8.230  1.00  0.00     0.148 A 
ATOM     71  C   UNL     1       0.139  -4.430   8.340  1.00  0.00     0.002 A 
ATOM     72  C   UNL     1      -2.209  -4.027   7.884  1.00  0.00     0.091 A 
ATOM     73  F   UNL     1      -3.088  -1.825   8.157  1.00  0.00    -0.205 F 
ATOM     74  C   UNL     1      -1.106  -4.896   7.929  1.00  0.00     0.022 A 
BRANCH  72  75
ATOM     75  S   UNL     1      -3.789  -4.742   7.415  1.00  0.00     0.127 S 
ATOM     76  O   UNL     1      -3.603  -4.949   5.979  1.00  0.00    -0.237 OA
ATOM     77  O   UNL     1      -3.820  -5.972   8.208  1.00  0.00    -0.237 OA
ATOM     78  O   UNL     1      -4.798  -3.759   7.781  1.00  0.00    -0.744 OA
ENDBRANCH  72  75
ENDBRANCH  54  68
BRANCH  55  79
ATOM     79  C   UNL     1       0.100   7.382  11.197  1.00  0.00     0.023 A 
ATOM     80  C   UNL     1       0.829   7.740  12.349  1.00  0.00     0.012 A 
ATOM     81  C   UNL     1      -0.509   8.393  10.430  1.00  0.00     0.148 A 
ATOM     82  C   UNL     1       0.919   9.073  12.750  1.00  0.00     0.002 A 
ATOM     83  C   UNL     1      -0.372   9.725  10.806  1.00  0.00     0.091 A 
ATOM     84  F   UNL     1      -1.214   8.032   9.348  1.00  0.00    -0.205 F 
ATOM     85  C   UNL     1       0.327  10.066  11.974  1.00  0.00     0.022 A 
BRANCH  83  86
ATOM     86  S   UNL     1      -0.995  11.074   9.796  1.00  0.00     0.127 S 
ATOM     87  O   UNL     1      -2.171  11.495  10.553  1.00  0.00    -0.237 OA
ATOM     88  O   UNL     1       0.125  12.016   9.821  1.00  0.00    -0.237 OA
ATOM     89  O   UNL     1      -1.254  10.489   8.487  1.00  0.00    -0.744 OA
ENDBRANCH  83  86
ENDBRANCH  55  79
BRANCH  67  90
ATOM     90  C   UNL     1      -2.805   1.836  14.280  1.00  0.00     0.023 A 
ATOM     91  C   UNL     1      -4.129   2.308  14.384  1.00  0.00     0.012 A 
ATOM     92  C   UNL     1      -2.235   1.136  15.362  1.00  0.00     0.148 A 
ATOM     93  C   UNL     1      -4.862   2.113  15.555  1.00  0.00     0.002 A 
ATOM     94  C   UNL     1      -2.988   0.903  16.508  1.00  0.00     0.091 A 
ATOM     95  F   UNL     1      -0.968   0.711  15.254  1.00  0.00    -0.205 F 
ATOM     96  C   UNL     1      -4.297   1.401  16.610  1.00  0.00     0.022 A 
BRANCH  94  97
ATOM     97  S   UNL     1      -2.373  -0.087  17.875  1.00  0.00     0.127 S 
ATOM     98  O   UNL     1      -2.055   0.938  18.867  1.00  0.00    -0.237 OA
ATOM     99  O   UNL     1      -3.532  -0.918  18.206  1.00  0.00    -0.237 OA
ATOM    100  O   UNL     1      -1.234  -0.828  17.349  1.00  0.00    -0.744 OA
ENDBRANCH  94  97
ENDBRANCH  67  90
ENDBRANCH  41  42
ENDBRANCH  33  36
ENDBRANCH  31  32
ENDBRANCH  30  31
ENDBRANCH   1  30
TORSDOF 18
