REMARK SMILES C[C@H]1CS(=O)(=O)N(c2cccc(C(=O)Nc3ccc(O)c(C(=O)NCCCNC(=O)c4ccc(-c5c6nc(c(-c7cccc(S(=O)(=O)[O-])c7F)c7ccc([nH]7)c(-c7cccc(S(=O)(=O)[O-])c7F)c7nc(c(-c8cccc(S(=O)(=O)[O-])c8F)c8ccc5[nH]8)C=C7)C=C6)cc4)c3)c2)C1=O
REMARK SMILES IDX 26 1 25 2 24 3 22 4 23 5 21 7 16 8 17 9 94 10 18 11 19 12
REMARK SMILES IDX 15 13 13 14 14 15 12 17 8 18 9 19 95 20 10 21 11 22 7 23
REMARK SMILES IDX 1 24 2 25 3 26 96 27 4 28 97 29 5 30 6 31 20 32 27 34 28 35
REMARK SMILES IDX 29 36 30 38 31 39 32 40 93 41 33 42 92 43 34 44 35 45 36 46
REMARK SMILES IDX 86 47 37 48 91 49 85 50 87 51 38 52 90 53 84 54 83 55 39 57
REMARK SMILES IDX 71 58 51 59 70 60 52 61 55 62 69 63 88 64 53 65 54 66 68 68
REMARK SMILES IDX 89 69 56 70 40 71 41 72 49 73 42 74 44 75 50 76 43 77 45 78
REMARK SMILES IDX 46 79 47 80 48 81 72 82 73 83 81 84 74 85 76 86 82 87 75 88
REMARK SMILES IDX 77 89 78 90 79 91 80 92 57 93 58 94 66 95 59 96 61 97 67 98
REMARK SMILES IDX 60 99 62 100 63 101 64 102 65 103
REMARK H PARENT 24 6 15 16 20 33 28 37 87 56 55 67
REMARK Flexibility Score: inf
ROOT
ATOM      1  C   UNL     1      -3.787   1.118   2.672  1.00  0.00     0.042 C 
ENDROOT
BRANCH   1   2
ATOM      2  C   UNL     1      -2.852   2.175   2.127  1.00  0.00     0.118 C 
BRANCH   2   3
ATOM      3  N   UNL     1      -2.404   1.814   0.778  1.00  0.00    -0.352 N 
ATOM      4  C   UNL     1      -2.438   2.328  -0.488  1.00  0.00     0.255 C 
ATOM      5  O   UNL     1      -1.837   1.685  -1.357  1.00  0.00    -0.269 OA
ATOM      6  H   UNL     1      -1.941   0.945   0.787  1.00  0.00     0.163 HD
BRANCH   4   7
ATOM      7  C   UNL     1      -3.002   3.644  -0.865  1.00  0.00     0.083 A 
ATOM      8  C   UNL     1      -3.753   5.785  -0.104  1.00  0.00     0.042 A 
ATOM      9  C   UNL     1      -3.512   6.362  -1.344  1.00  0.00     0.030 A 
ATOM     10  C   UNL     1      -3.705   4.410   0.047  1.00  0.00     0.043 A 
ATOM     11  C   UNL     1      -2.982   5.569  -2.359  1.00  0.00     0.049 A 
ATOM     12  C   UNL     1      -2.662   4.236  -2.094  1.00  0.00     0.128 A 
BRANCH   8  13
ATOM     13  N   UNL     1      -3.923   6.598   1.015  1.00  0.00    -0.322 N 
ATOM     14  C   UNL     1      -3.352   6.502   2.276  1.00  0.00     0.255 C 
ATOM     15  O   UNL     1      -3.852   7.199   3.163  1.00  0.00    -0.269 OA
ATOM     16  H   UNL     1      -4.542   7.354   0.893  1.00  0.00     0.170 HD
BRANCH  14  17
ATOM     17  C   UNL     1      -2.111   5.695   2.626  1.00  0.00     0.042 A 
ATOM     18  C   UNL     1      -0.119   4.306   2.178  1.00  0.00     0.061 A 
ATOM     19  C   UNL     1       0.120   4.216   3.551  1.00  0.00     0.027 A 
ATOM     20  C   UNL     1      -1.190   5.114   1.728  1.00  0.00     0.041 A 
ATOM     21  C   UNL     1      -0.726   4.850   4.457  1.00  0.00     0.003 A 
ATOM     22  C   UNL     1      -1.842   5.554   3.999  1.00  0.00     0.014 A 
BRANCH  18  23
ATOM     23  N   UNL     1       0.635   3.458   1.296  1.00  0.00    -0.207 N 
ATOM     24  C   UNL     1       0.732   0.063  -0.119  1.00  0.00     0.019 C 
ATOM     25  C   UNL     1       1.410   1.361   0.327  1.00  0.00     0.094 C 
ATOM     26  C   UNL     1       1.533   2.376  -0.811  1.00  0.00     0.173 C 
ATOM     27  C   UNL     1       0.676   2.050   1.472  1.00  0.00     0.244 C 
ATOM     28  S   UNL     1       1.394   3.998  -0.091  1.00  0.00     0.242 S 
ATOM     29  O   UNL     1       0.229   1.438   2.435  1.00  0.00    -0.273 OA
ATOM     30  O   UNL     1       2.716   4.462   0.260  1.00  0.00    -0.206 OA
ATOM     31  O   UNL     1       0.489   4.787  -0.897  1.00  0.00    -0.206 OA
ENDBRANCH  18  23
ENDBRANCH  14  17
ENDBRANCH   8  13
BRANCH  12  32
ATOM     32  O   UNL     1      -1.964   3.582  -3.078  1.00  0.00    -0.507 OA
ATOM     33  H   UNL     1      -1.762   4.022  -3.880  1.00  0.00     0.293 HD
ENDBRANCH  12  32
ENDBRANCH   4   7
ENDBRANCH   2   3
ENDBRANCH   1   2
BRANCH   1  34
ATOM     34  C   UNL     1      -3.045  -0.184   2.942  1.00  0.00     0.118 C 
BRANCH  34  35
ATOM     35  N   UNL     1      -2.130  -0.079   4.074  1.00  0.00    -0.352 N 
ATOM     36  C   UNL     1      -2.279  -0.554   5.356  1.00  0.00     0.251 C 
ATOM     37  H   UNL     1      -1.287   0.398   3.894  1.00  0.00     0.163 HD
ATOM     38  O   UNL     1      -1.527  -0.181   6.252  1.00  0.00    -0.269 OA
BRANCH  36  39
ATOM     39  C   UNL     1      -3.370  -1.508   5.648  1.00  0.00     0.039 A 
ATOM     40  C   UNL     1      -4.152  -1.335   6.790  1.00  0.00     0.014 A 
ATOM     41  C   UNL     1      -3.636  -2.560   4.769  1.00  0.00     0.014 A 
ATOM     42  C   UNL     1      -5.251  -2.172   7.003  1.00  0.00     0.010 A 
ATOM     43  C   UNL     1      -4.796  -3.308   4.917  1.00  0.00     0.010 A 
ATOM     44  C   UNL     1      -5.610  -3.135   6.044  1.00  0.00    -0.014 A 
BRANCH  44  45
ATOM     45  C   UNL     1      -6.828  -3.972   6.195  1.00  0.00     0.031 A 
ATOM     46  C   UNL     1      -6.714  -5.474   6.229  1.00  0.00     0.074 A 
ATOM     47  C   UNL     1      -8.044  -3.388   6.205  1.00  0.00     0.049 A 
ATOM     48  N   UNL     1      -7.664  -6.371   6.286  1.00  0.00    -0.248 NA
ATOM     49  C   UNL     1      -5.358  -6.045   6.159  1.00  0.00     0.031 C 
ATOM     50  C   UNL     1      -8.295  -1.950   6.090  1.00  0.00     0.029 A 
ATOM     51  N   UNL     1      -9.300  -3.936   6.289  1.00  0.00    -0.354 N 
ATOM     52  C   UNL     1      -7.027  -7.604   6.217  1.00  0.00     0.074 A 
ATOM     53  C   UNL     1      -5.612  -7.342   6.073  1.00  0.00     0.031 C 
ATOM     54  C   UNL     1      -9.619  -1.729   6.122  1.00  0.00     0.029 A 
ATOM     55  C   UNL     1     -10.313  -3.008   6.219  1.00  0.00     0.049 A 
ATOM     56  H   UNL     1      -9.460  -4.902   6.390  1.00  0.00     0.167 HD
ATOM     57  C   UNL     1      -7.564  -8.845   6.297  1.00  0.00     0.034 A 
ATOM     58  C   UNL     1     -11.651  -3.169   6.218  1.00  0.00     0.034 A 
ATOM     59  C   UNL     1      -8.966  -9.102   6.481  1.00  0.00     0.049 A 
ATOM     60  C   UNL     1     -12.221  -4.556   6.342  1.00  0.00     0.074 A 
ATOM     61  C   UNL     1      -9.598 -10.318   6.668  1.00  0.00     0.029 A 
ATOM     62  N   UNL     1      -9.955  -8.131   6.487  1.00  0.00    -0.354 N 
ATOM     63  N   UNL     1     -11.591  -5.701   6.436  1.00  0.00    -0.248 NA
ATOM     64  C   UNL     1     -13.686  -4.670   6.395  1.00  0.00     0.031 C 
ATOM     65  C   UNL     1     -10.975 -10.086   6.749  1.00  0.00     0.029 A 
ATOM     66  C   UNL     1     -11.195  -8.721   6.658  1.00  0.00     0.049 A 
ATOM     67  H   UNL     1      -9.798  -7.165   6.386  1.00  0.00     0.167 HD
ATOM     68  C   UNL     1     -12.578  -6.667   6.598  1.00  0.00     0.074 A 
ATOM     69  C   UNL     1     -13.847  -5.968   6.609  1.00  0.00     0.031 C 
ATOM     70  C   UNL     1     -12.447  -8.011   6.715  1.00  0.00     0.034 A 
BRANCH  57  71
ATOM     71  C   UNL     1      -6.625 -10.022   6.226  1.00  0.00     0.023 A 
ATOM     72  C   UNL     1      -5.739 -10.277   7.293  1.00  0.00     0.012 A 
ATOM     73  C   UNL     1      -6.662 -10.910   5.133  1.00  0.00     0.148 A 
ATOM     74  C   UNL     1      -4.877 -11.373   7.256  1.00  0.00     0.002 A 
ATOM     75  C   UNL     1      -5.836 -12.027   5.127  1.00  0.00     0.091 A 
ATOM     76  F   UNL     1      -7.497 -10.641   4.119  1.00  0.00    -0.205 F 
ATOM     77  C   UNL     1      -4.934 -12.253   6.179  1.00  0.00     0.022 A 
BRANCH  75  78
ATOM     78  S   UNL     1      -5.892 -13.267   3.828  1.00  0.00     0.127 S 
ATOM     79  O   UNL     1      -4.599 -13.066   3.174  1.00  0.00    -0.237 OA
ATOM     80  O   UNL     1      -6.001 -14.508   4.594  1.00  0.00    -0.237 OA
ATOM     81  O   UNL     1      -7.057 -12.947   3.015  1.00  0.00    -0.744 OA
ENDBRANCH  75  78
ENDBRANCH  57  71
BRANCH  58  82
ATOM     82  C   UNL     1     -12.546  -1.978   6.146  1.00  0.00     0.023 A 
ATOM     83  C   UNL     1     -13.313  -1.616   7.271  1.00  0.00     0.012 A 
ATOM     84  C   UNL     1     -12.625  -1.195   4.979  1.00  0.00     0.148 A 
ATOM     85  C   UNL     1     -14.171  -0.516   7.222  1.00  0.00     0.002 A 
ATOM     86  C   UNL     1     -13.437  -0.067   4.956  1.00  0.00     0.091 A 
ATOM     87  F   UNL     1     -11.892  -1.561   3.918  1.00  0.00    -0.205 F 
ATOM     88  C   UNL     1     -14.226   0.263   6.069  1.00  0.00     0.022 A 
BRANCH  86  89
ATOM     89  S   UNL     1     -13.472   1.067   3.565  1.00  0.00     0.127 S 
ATOM     90  O   UNL     1     -14.817   0.854   3.038  1.00  0.00    -0.237 OA
ATOM     91  O   UNL     1     -13.264   2.357   4.224  1.00  0.00    -0.237 OA
ATOM     92  O   UNL     1     -12.380   0.655   2.693  1.00  0.00    -0.744 OA
ENDBRANCH  86  89
ENDBRANCH  58  82
BRANCH  70  93
ATOM     93  C   UNL     1     -13.701  -8.823   6.915  1.00  0.00     0.023 A 
ATOM     94  C   UNL     1     -14.613  -8.989   5.854  1.00  0.00     0.012 A 
ATOM     95  C   UNL     1     -13.935  -9.482   8.138  1.00  0.00     0.148 A 
ATOM     96  C   UNL     1     -15.757  -9.769   6.020  1.00  0.00     0.002 A 
ATOM     97  C   UNL     1     -15.048 -10.301   8.278  1.00  0.00     0.091 A 
ATOM     98  F   UNL     1     -13.063  -9.298   9.141  1.00  0.00    -0.205 F 
ATOM     99  C   UNL     1     -15.968 -10.434   7.226  1.00  0.00     0.022 A 
BRANCH  97 100
ATOM    100  S   UNL     1     -15.348 -11.275   9.757  1.00  0.00     0.127 S 
ATOM    101  O   UNL     1     -16.510 -10.596  10.330  1.00  0.00    -0.237 OA
ATOM    102  O   UNL     1     -15.628 -12.600   9.202  1.00  0.00    -0.237 OA
ATOM    103  O   UNL     1     -14.128 -11.195  10.548  1.00  0.00    -0.744 OA
ENDBRANCH  97 100
ENDBRANCH  70  93
ENDBRANCH  44  45
ENDBRANCH  36  39
ENDBRANCH  34  35
ENDBRANCH   1  34
TORSDOF 17
