REMARK SMILES O=C(CSc1ccc(Cl)cc1)Nc1ccc(C(=O)NCCCNC(=O)c2ccc(-c3c4nc(c(-c5cccc(S(=O)(=O)[O-])c5F)c5ccc([nH]5)c(-c5cccc(S(=O)(=O)[O-])c5F)c5nc(c(-c6cccc(S(=O)(=O)[O-])c6F)c6ccc3[nH]6)C=C5)C=C4)cc2)cc1
REMARK SMILES IDX 20 1 19 2 17 3 18 4 16 6 13 7 14 8 90 9 15 10 89 11 12 12
REMARK SMILES IDX 1 13 2 14 3 16 4 17 5 18 6 19 11 20 7 21 10 22 8 23 9 24
REMARK SMILES IDX 21 25 22 26 23 27 24 28 25 30 26 31 27 32 88 33 28 34 87 35
REMARK SMILES IDX 29 36 30 37 31 38 81 39 32 40 86 41 80 42 82 43 33 44 85 45
REMARK SMILES IDX 79 46 78 47 34 49 66 50 46 51 65 52 47 53 50 54 64 55 83 56
REMARK SMILES IDX 48 57 49 58 63 60 84 61 51 62 35 63 36 64 44 65 37 66 39 67
REMARK SMILES IDX 45 68 38 69 40 70 41 71 42 72 43 73 67 74 68 75 76 76 69 77
REMARK SMILES IDX 71 78 77 79 70 80 72 81 73 82 74 83 75 84 52 85 53 86 61 87
REMARK SMILES IDX 54 88 56 89 62 90 55 91 57 92 58 93 59 94 60 95
REMARK H PARENT 19 5 12 15 23 29 82 48 50 59
REMARK Flexibility Score: inf
ROOT
ATOM      1  C   UNL     1      -1.634   0.363   5.678  1.00  0.00     0.118 C 
ENDROOT
BRANCH   1   2
ATOM      2  N   UNL     1      -0.612   1.139   6.359  1.00  0.00    -0.352 N 
ATOM      3  C   UNL     1       0.646   1.536   5.982  1.00  0.00     0.251 C 
ATOM      4  O   UNL     1       1.267   2.276   6.746  1.00  0.00    -0.269 OA
ATOM      5  H   UNL     1      -0.871   1.436   7.261  1.00  0.00     0.163 HD
BRANCH   3   6
ATOM      6  C   UNL     1       1.259   1.173   4.673  1.00  0.00     0.039 A 
ATOM      7  C   UNL     1       2.378   0.720   2.125  1.00  0.00     0.041 A 
ATOM      8  C   UNL     1       2.781   1.821   2.881  1.00  0.00     0.027 A 
ATOM      9  C   UNL     1       1.494  -0.200   2.687  1.00  0.00     0.027 A 
ATOM     10  C   UNL     1       2.208   2.057   4.136  1.00  0.00     0.016 A 
ATOM     11  C   UNL     1       0.970   0.007   3.966  1.00  0.00     0.016 A 
BRANCH   7  12
ATOM     12  N   UNL     1       2.904   0.563   0.831  1.00  0.00    -0.325 N 
ATOM     13  O   UNL     1       1.187  -0.646  -0.164  1.00  0.00    -0.274 OA
ATOM     14  C   UNL     1       2.318  -0.162  -0.193  1.00  0.00     0.234 C 
ATOM     15  H   UNL     1       3.761   1.006   0.636  1.00  0.00     0.169 HD
BRANCH  14  16
ATOM     16  C   UNL     1       3.206  -0.394  -1.401  1.00  0.00     0.175 C 
BRANCH  16  17
ATOM     17  S   UNL     1       4.255   1.031  -1.840  1.00  0.00    -0.116 SA
BRANCH  17  18
ATOM     18  C   UNL     1       3.086   2.328  -2.218  1.00  0.00     0.008 A 
ATOM     19  C   UNL     1       3.557   3.644  -2.104  1.00  0.00     0.016 A 
ATOM     20  C   UNL     1       1.770   2.121  -2.645  1.00  0.00     0.016 A 
ATOM     21  C   UNL     1       2.729   4.732  -2.392  1.00  0.00     0.021 A 
ATOM     22  C   UNL     1       0.938   3.210  -2.934  1.00  0.00     0.021 A 
ATOM     23  C   UNL     1       1.420   4.510  -2.805  1.00  0.00     0.041 A 
ATOM     24  Cl  UNL     1       0.400   5.846  -3.168  1.00  0.00    -0.084 Cl
ENDBRANCH  17  18
ENDBRANCH  16  17
ENDBRANCH  14  16
ENDBRANCH   7  12
ENDBRANCH   3   6
ENDBRANCH   1   2
BRANCH   1  25
ATOM     25  C   UNL     1      -1.664  -1.081   6.180  1.00  0.00     0.042 C 
BRANCH  25  26
ATOM     26  C   UNL     1      -2.335  -1.236   7.542  1.00  0.00     0.118 C 
BRANCH  26  27
ATOM     27  N   UNL     1      -3.766  -0.980   7.473  1.00  0.00    -0.352 N 
ATOM     28  C   UNL     1      -4.824  -1.739   7.901  1.00  0.00     0.251 C 
ATOM     29  H   UNL     1      -4.013  -0.125   7.052  1.00  0.00     0.163 HD
ATOM     30  O   UNL     1      -5.958  -1.424   7.547  1.00  0.00    -0.269 OA
BRANCH  28  31
ATOM     31  C   UNL     1      -4.624  -2.919   8.773  1.00  0.00     0.039 A 
ATOM     32  C   UNL     1      -5.462  -4.025   8.597  1.00  0.00     0.014 A 
ATOM     33  C   UNL     1      -3.678  -2.923   9.802  1.00  0.00     0.014 A 
ATOM     34  C   UNL     1      -5.337  -5.136   9.433  1.00  0.00     0.010 A 
ATOM     35  C   UNL     1      -3.504  -4.061  10.587  1.00  0.00     0.010 A 
ATOM     36  C   UNL     1      -4.347  -5.170  10.428  1.00  0.00    -0.014 A 
BRANCH  36  37
ATOM     37  C   UNL     1      -4.198  -6.354  11.311  1.00  0.00     0.031 A 
ATOM     38  C   UNL     1      -4.452  -6.244  12.790  1.00  0.00     0.074 A 
ATOM     39  C   UNL     1      -3.781  -7.523  10.786  1.00  0.00     0.049 A 
ATOM     40  N   UNL     1      -4.402  -7.176  13.707  1.00  0.00    -0.248 NA
ATOM     41  C   UNL     1      -4.779  -4.907  13.314  1.00  0.00     0.031 C 
ATOM     42  C   UNL     1      -3.425  -7.736   9.382  1.00  0.00     0.029 A 
ATOM     43  N   UNL     1      -3.577  -8.746  11.371  1.00  0.00    -0.354 N 
ATOM     44  C   UNL     1      -4.655  -6.536  14.915  1.00  0.00     0.074 A 
ATOM     45  C   UNL     1      -4.818  -5.130  14.620  1.00  0.00     0.031 C 
ATOM     46  C   UNL     1      -3.071  -9.019   9.209  1.00  0.00     0.029 A 
ATOM     47  C   UNL     1      -3.155  -9.714  10.490  1.00  0.00     0.049 A 
ATOM     48  H   UNL     1      -3.719  -8.916  12.330  1.00  0.00     0.167 HD
ATOM     49  C   UNL     1      -4.774  -7.073  16.154  1.00  0.00     0.034 A 
ATOM     50  C   UNL     1      -2.882 -11.018  10.688  1.00  0.00     0.034 A 
ATOM     51  C   UNL     1      -4.655  -8.479  16.434  1.00  0.00     0.049 A 
ATOM     52  C   UNL     1      -3.071 -11.603  12.061  1.00  0.00     0.074 A 
ATOM     53  C   UNL     1      -4.856  -9.139  17.632  1.00  0.00     0.029 A 
ATOM     54  N   UNL     1      -4.293  -9.441  15.503  1.00  0.00    -0.354 N 
ATOM     55  N   UNL     1      -3.481 -11.015  13.159  1.00  0.00    -0.248 NA
ATOM     56  C   UNL     1      -2.797 -13.039  12.213  1.00  0.00     0.031 C 
ATOM     57  C   UNL     1      -4.593 -10.500  17.430  1.00  0.00     0.029 A 
ATOM     58  C   UNL     1      -4.252 -10.689  16.100  1.00  0.00     0.049 A 
ATOM     59  H   UNL     1      -4.094  -9.262  14.555  1.00  0.00     0.167 HD
ATOM     60  C   UNL     1      -3.551 -12.014  14.123  1.00  0.00     0.074 A 
ATOM     61  C   UNL     1      -3.156 -13.248  13.473  1.00  0.00     0.031 C 
ATOM     62  C   UNL     1      -3.903 -11.916  15.430  1.00  0.00     0.034 A 
BRANCH  49  63
ATOM     63  C   UNL     1      -5.101  -6.135  17.289  1.00  0.00     0.023 A 
ATOM     64  C   UNL     1      -6.378  -5.539  17.354  1.00  0.00     0.012 A 
ATOM     65  C   UNL     1      -4.162  -5.858  18.302  1.00  0.00     0.148 A 
ATOM     66  C   UNL     1      -6.698  -4.646  18.376  1.00  0.00     0.002 A 
ATOM     67  C   UNL     1      -4.505  -5.003  19.344  1.00  0.00     0.091 A 
ATOM     68  F   UNL     1      -2.944  -6.412  18.218  1.00  0.00    -0.205 F 
ATOM     69  C   UNL     1      -5.766  -4.385  19.375  1.00  0.00     0.022 A 
BRANCH  67  70
ATOM     70  S   UNL     1      -3.395  -4.671  20.718  1.00  0.00     0.127 S 
ATOM     71  O   UNL     1      -2.872  -3.353  20.365  1.00  0.00    -0.237 OA
ATOM     72  O   UNL     1      -4.305  -4.678  21.864  1.00  0.00    -0.237 OA
ATOM     73  O   UNL     1      -2.427  -5.759  20.714  1.00  0.00    -0.744 OA
ENDBRANCH  67  70
ENDBRANCH  49  63
BRANCH  50  74
ATOM     74  C   UNL     1      -2.513 -11.875   9.527  1.00  0.00     0.023 A 
ATOM     75  C   UNL     1      -3.452 -12.806   9.039  1.00  0.00     0.012 A 
ATOM     76  C   UNL     1      -1.278 -11.732   8.865  1.00  0.00     0.148 A 
ATOM     77  C   UNL     1      -3.161 -13.592   7.925  1.00  0.00     0.002 A 
ATOM     78  C   UNL     1      -1.015 -12.482   7.724  1.00  0.00     0.091 A 
ATOM     79  F   UNL     1      -0.398 -10.845   9.349  1.00  0.00    -0.205 F 
ATOM     80  C   UNL     1      -1.949 -13.423   7.261  1.00  0.00     0.022 A 
BRANCH  78  81
ATOM     81  S   UNL     1       0.460 -12.246   6.727  1.00  0.00     0.127 S 
ATOM     82  O   UNL     1       1.161 -13.512   6.923  1.00  0.00    -0.237 OA
ATOM     83  O   UNL     1      -0.107 -12.054   5.393  1.00  0.00    -0.237 OA
ATOM     84  O   UNL     1       1.123 -11.069   7.275  1.00  0.00    -0.744 OA
ENDBRANCH  78  81
ENDBRANCH  50  74
BRANCH  62  85
ATOM     85  C   UNL     1      -3.906 -13.181  16.248  1.00  0.00     0.023 A 
ATOM     86  C   UNL     1      -2.685 -13.771  16.630  1.00  0.00     0.012 A 
ATOM     87  C   UNL     1      -5.117 -13.741  16.702  1.00  0.00     0.148 A 
ATOM     88  C   UNL     1      -2.670 -14.916  17.427  1.00  0.00     0.002 A 
ATOM     89  C   UNL     1      -5.092 -14.853  17.535  1.00  0.00     0.091 A 
ATOM     90  F   UNL     1      -6.269 -13.178  16.310  1.00  0.00    -0.205 F 
ATOM     91  C   UNL     1      -3.871 -15.448  17.889  1.00  0.00     0.022 A 
BRANCH  89  92
ATOM     92  S   UNL     1      -6.585 -15.546  18.256  1.00  0.00     0.127 S 
ATOM     93  O   UNL     1      -6.753 -16.770  17.474  1.00  0.00    -0.237 OA
ATOM     94  O   UNL     1      -6.188 -15.762  19.648  1.00  0.00    -0.237 OA
ATOM     95  O   UNL     1      -7.622 -14.539  18.075  1.00  0.00    -0.744 OA
ENDBRANCH  89  92
ENDBRANCH  62  85
ENDBRANCH  36  37
ENDBRANCH  28  31
ENDBRANCH  26  27
ENDBRANCH  25  26
ENDBRANCH   1  25
TORSDOF 17
