REMARK SMILES Cc1cc(S(=O)(=O)Nc2ccc(Cl)cc2F)ccc1OCC(=O)NCCCNC(=O)c1ccc(-c2c3nc(c(-c4cccc(S(=O)(=O)[O-])c4F)c4ccc([nH]4)c(-c4cccc(S(=O)(=O)[O-])c4F)c4nc(c(-c5cccc(S(=O)(=O)[O-])c5F)c5ccc2[nH]5)C=C4)C=C3)cc1
REMARK SMILES IDX 25 1 24 2 22 3 23 4 21 6 20 7 19 8 1 9 2 10 3 11 4 12 18 13
REMARK SMILES IDX 17 14 5 15 6 16 7 17 8 18 9 20 10 21 15 22 11 23 14 24 16 25
REMARK SMILES IDX 12 26 13 27 26 28 27 29 28 30 29 31 30 33 31 34 32 35 93 36
REMARK SMILES IDX 33 37 92 38 34 39 35 40 36 41 86 42 37 43 91 44 85 45 87 46
REMARK SMILES IDX 38 47 90 48 84 49 83 50 39 52 71 53 51 54 70 55 52 56 55 57
REMARK SMILES IDX 69 58 88 59 53 60 54 61 68 63 89 64 56 65 40 66 41 67 49 68
REMARK SMILES IDX 42 69 44 70 50 71 43 72 45 73 46 74 47 75 48 76 72 77 73 78
REMARK SMILES IDX 81 79 74 80 76 81 82 82 75 83 77 84 78 85 79 86 80 87 57 88
REMARK SMILES IDX 58 89 66 90 59 91 61 92 67 93 60 94 62 95 63 96 64 97 65 98
REMARK H PARENT 24 5 8 19 28 32 87 51 55 62
REMARK Flexibility Score: inf
ROOT
ATOM      1  C   UNL     1       2.006   4.239   2.284  1.00  0.00     0.117 C 
ENDROOT
BRANCH   1   2
ATOM      2  N   UNL     1       2.831   3.042   2.267  1.00  0.00    -0.353 N 
ATOM      3  C   UNL     1       3.178   2.247   1.210  1.00  0.00     0.257 C 
ATOM      4  O   UNL     1       4.039   1.381   1.372  1.00  0.00    -0.271 OA
ATOM      5  H   UNL     1       3.191   2.764   3.140  1.00  0.00     0.163 HD
BRANCH   3   6
ATOM      6  C   UNL     1       2.538   2.482  -0.159  1.00  0.00     0.329 C 
BRANCH   6   7
ATOM      7  O   UNL     1       1.158   2.224  -0.281  1.00  0.00    -0.484 OA
BRANCH   7   8
ATOM      8  C   UNL     1       0.613   0.987  -0.090  1.00  0.00     0.123 A 
ATOM      9  C   UNL     1       2.567  -0.623  -0.653  1.00  0.00     0.048 C 
ATOM     10  C   UNL     1       1.142  -0.287  -0.328  1.00  0.00    -0.008 A 
ATOM     11  C   UNL     1       0.269  -1.399  -0.234  1.00  0.00     0.029 A 
ATOM     12  C   UNL     1      -1.076  -1.265   0.132  1.00  0.00     0.088 A 
ATOM     13  C   UNL     1      -0.723   1.091   0.340  1.00  0.00     0.048 A 
ATOM     14  C   UNL     1      -1.539  -0.024   0.526  1.00  0.00     0.026 A 
BRANCH  12  15
ATOM     15  S   UNL     1      -2.114  -2.693  -0.112  1.00  0.00     0.262 S 
ATOM     16  O   UNL     1      -1.998  -3.068  -1.508  1.00  0.00    -0.201 OA
ATOM     17  O   UNL     1      -1.759  -3.630   0.930  1.00  0.00    -0.201 OA
BRANCH  15  18
ATOM     18  N   UNL     1      -3.719  -2.320   0.198  1.00  0.00    -0.277 N 
ATOM     19  H   UNL     1      -4.252  -2.996   0.676  1.00  0.00     0.180 HD
BRANCH  18  20
ATOM     20  C   UNL     1      -4.381  -1.115  -0.169  1.00  0.00     0.085 A 
ATOM     21  C   UNL     1      -5.317  -0.636   0.757  1.00  0.00     0.031 A 
ATOM     22  C   UNL     1      -4.099  -0.342  -1.303  1.00  0.00     0.148 A 
ATOM     23  C   UNL     1      -5.855   0.645   0.622  1.00  0.00     0.023 A 
ATOM     24  C   UNL     1      -4.628   0.942  -1.439  1.00  0.00     0.062 A 
ATOM     25  F   UNL     1      -3.234  -0.764  -2.233  1.00  0.00    -0.205 F 
ATOM     26  C   UNL     1      -5.484   1.439  -0.461  1.00  0.00     0.044 A 
ATOM     27  Cl  UNL     1      -6.065   3.054  -0.568  1.00  0.00    -0.084 Cl
ENDBRANCH  18  20
ENDBRANCH  15  18
ENDBRANCH  12  15
ENDBRANCH   7   8
ENDBRANCH   6   7
ENDBRANCH   3   6
ENDBRANCH   1   2
BRANCH   1  28
ATOM     28  C   UNL     1       0.530   3.960   2.511  1.00  0.00     0.042 C 
BRANCH  28  29
ATOM     29  C   UNL     1       0.211   3.413   3.890  1.00  0.00     0.118 C 
BRANCH  29  30
ATOM     30  N   UNL     1      -0.099   4.443   4.864  1.00  0.00    -0.352 N 
ATOM     31  C   UNL     1      -0.511   4.330   6.177  1.00  0.00     0.251 C 
ATOM     32  H   UNL     1       0.000   5.367   4.537  1.00  0.00     0.163 HD
ATOM     33  O   UNL     1      -0.928   5.343   6.733  1.00  0.00    -0.269 OA
BRANCH  31  34
ATOM     34  C   UNL     1      -0.335   3.060   6.931  1.00  0.00     0.039 A 
ATOM     35  C   UNL     1       0.054   3.149   8.276  1.00  0.00     0.014 A 
ATOM     36  C   UNL     1      -0.357   1.815   6.307  1.00  0.00     0.014 A 
ATOM     37  C   UNL     1       0.661   2.060   8.901  1.00  0.00     0.010 A 
ATOM     38  C   UNL     1       0.299   0.757   6.892  1.00  0.00     0.010 A 
ATOM     39  C   UNL     1       0.880   0.911   8.152  1.00  0.00    -0.014 A 
BRANCH  39  40
ATOM     40  C   UNL     1       1.787  -0.160   8.520  1.00  0.00     0.031 A 
ATOM     41  C   UNL     1       1.314  -1.331   9.267  1.00  0.00     0.074 A 
ATOM     42  C   UNL     1       2.992  -0.162   7.909  1.00  0.00     0.049 A 
ATOM     43  N   UNL     1       2.085  -2.173   9.864  1.00  0.00    -0.248 NA
ATOM     44  C   UNL     1      -0.102  -1.635   9.397  1.00  0.00     0.031 C 
ATOM     45  C   UNL     1       3.896  -1.286   7.716  1.00  0.00     0.029 A 
ATOM     46  N   UNL     1       3.725   0.947   7.475  1.00  0.00    -0.354 N 
ATOM     47  C   UNL     1       1.315  -3.277  10.169  1.00  0.00     0.074 A 
ATOM     48  C   UNL     1      -0.048  -2.845   9.962  1.00  0.00     0.031 C 
ATOM     49  C   UNL     1       5.126  -0.806   7.470  1.00  0.00     0.029 A 
ATOM     50  C   UNL     1       5.073   0.629   7.700  1.00  0.00     0.049 A 
ATOM     51  H   UNL     1       3.368   1.780   7.090  1.00  0.00     0.167 HD
ATOM     52  C   UNL     1       1.933  -4.477  10.377  1.00  0.00     0.034 A 
ATOM     53  C   UNL     1       5.865   1.324   8.571  1.00  0.00     0.034 A 
ATOM     54  C   UNL     1       3.398  -4.329  10.308  1.00  0.00     0.049 A 
ATOM     55  C   UNL     1       6.429   0.452   9.680  1.00  0.00     0.074 A 
ATOM     56  C   UNL     1       4.318  -4.585   9.303  1.00  0.00     0.029 A 
ATOM     57  N   UNL     1       4.069  -3.579  11.268  1.00  0.00    -0.354 N 
ATOM     58  N   UNL     1       6.077  -0.787   9.890  1.00  0.00    -0.248 NA
ATOM     59  C   UNL     1       7.404   0.918  10.662  1.00  0.00     0.031 C 
ATOM     60  C   UNL     1       5.521  -3.901   9.622  1.00  0.00     0.029 A 
ATOM     61  C   UNL     1       5.346  -3.253  10.834  1.00  0.00     0.049 A 
ATOM     62  H   UNL     1       3.689  -3.316  12.137  1.00  0.00     0.167 HD
ATOM     63  C   UNL     1       6.613  -1.231  11.069  1.00  0.00     0.074 A 
ATOM     64  C   UNL     1       7.511  -0.158  11.463  1.00  0.00     0.031 C 
ATOM     65  C   UNL     1       6.211  -2.405  11.651  1.00  0.00     0.034 A 
BRANCH  52  66
ATOM     66  C   UNL     1       1.245  -5.837  10.286  1.00  0.00     0.023 A 
ATOM     67  C   UNL     1       2.063  -6.959  10.013  1.00  0.00     0.012 A 
ATOM     68  C   UNL     1      -0.141  -6.104  10.372  1.00  0.00     0.148 A 
ATOM     69  C   UNL     1       1.542  -8.226   9.721  1.00  0.00     0.002 A 
ATOM     70  C   UNL     1      -0.670  -7.349  10.013  1.00  0.00     0.091 A 
ATOM     71  F   UNL     1      -0.962  -5.194  10.901  1.00  0.00    -0.205 F 
ATOM     72  C   UNL     1       0.171  -8.412   9.679  1.00  0.00     0.022 A 
BRANCH  70  73
ATOM     73  S   UNL     1      -2.444  -7.639   9.873  1.00  0.00     0.127 S 
ATOM     74  O   UNL     1      -2.553  -8.277   8.559  1.00  0.00    -0.237 OA
ATOM     75  O   UNL     1      -2.709  -8.527  11.002  1.00  0.00    -0.237 OA
ATOM     76  O   UNL     1      -3.074  -6.325   9.944  1.00  0.00    -0.744 OA
ENDBRANCH  70  73
ENDBRANCH  52  66
BRANCH  53  77
ATOM     77  C   UNL     1       5.466   2.758   8.723  1.00  0.00     0.023 A 
ATOM     78  C   UNL     1       5.540   3.569   7.564  1.00  0.00     0.012 A 
ATOM     79  C   UNL     1       4.670   3.189   9.799  1.00  0.00     0.148 A 
ATOM     80  C   UNL     1       4.729   4.696   7.423  1.00  0.00     0.002 A 
ATOM     81  C   UNL     1       3.868   4.321   9.653  1.00  0.00     0.091 A 
ATOM     82  F   UNL     1       4.643   2.451  10.916  1.00  0.00    -0.205 F 
ATOM     83  C   UNL     1       3.864   5.049   8.453  1.00  0.00     0.022 A 
BRANCH  81  84
ATOM     84  S   UNL     1       2.719   4.819  10.944  1.00  0.00     0.127 S 
ATOM     85  O   UNL     1       3.541   5.735  11.730  1.00  0.00    -0.237 OA
ATOM     86  O   UNL     1       1.643   5.458  10.188  1.00  0.00    -0.237 OA
ATOM     87  O   UNL     1       2.332   3.574  11.591  1.00  0.00    -0.744 OA
ENDBRANCH  81  84
ENDBRANCH  53  77
BRANCH  65  88
ATOM     88  C   UNL     1       6.574  -2.857  13.054  1.00  0.00     0.023 A 
ATOM     89  C   UNL     1       6.957  -1.952  14.062  1.00  0.00     0.012 A 
ATOM     90  C   UNL     1       6.394  -4.209  13.449  1.00  0.00     0.148 A 
ATOM     91  C   UNL     1       7.214  -2.368  15.374  1.00  0.00     0.002 A 
ATOM     92  C   UNL     1       6.539  -4.596  14.779  1.00  0.00     0.091 A 
ATOM     93  F   UNL     1       6.096  -5.140  12.530  1.00  0.00    -0.205 F 
ATOM     94  C   UNL     1       6.982  -3.686  15.739  1.00  0.00     0.022 A 
BRANCH  92  95
ATOM     95  S   UNL     1       6.009  -6.226  15.327  1.00  0.00     0.127 S 
ATOM     96  O   UNL     1       7.235  -7.009  15.190  1.00  0.00    -0.237 OA
ATOM     97  O   UNL     1       5.598  -5.979  16.711  1.00  0.00    -0.237 OA
ATOM     98  O   UNL     1       4.912  -6.582  14.437  1.00  0.00    -0.744 OA
ENDBRANCH  92  95
ENDBRANCH  65  88
ENDBRANCH  39  40
ENDBRANCH  31  34
ENDBRANCH  29  30
ENDBRANCH  28  29
ENDBRANCH   1  28
TORSDOF 18
