REMARK SMILES O=C(NCCCNC(=O)c1ccc(N2C(=O)/C(=C\c3ccc4c(c3)OCO4)[NH+]=C2c2ccccc2)cc1)c1ccc(-c2c3nc(c(-c4cccc(S(=O)(=O)[O-])c4F)c4ccc([nH]4)c(-c4cccc(S(=O)(=O)[O-])c4F)c4nc(c(-c5cccc(S(=O)(=O)[O-])c5F)c5ccc2[nH]5)C=C4)C=C3)cc1
REMARK SMILES IDX 4 1 3 2 1 3 2 4 38 6 39 7 100 8 40 9 99 10 41 11 42 12 43 13
REMARK SMILES IDX 93 14 44 15 98 16 92 17 94 18 45 19 97 20 91 21 90 22 46 24
REMARK SMILES IDX 78 25 58 26 77 27 59 28 62 29 76 30 95 31 60 32 61 33 75 35
REMARK SMILES IDX 96 36 63 37 47 38 48 39 56 40 49 41 51 42 57 43 50 44 52 45
REMARK SMILES IDX 53 46 54 47 55 48 79 49 80 50 88 51 81 52 83 53 89 54 82 55
REMARK SMILES IDX 84 56 85 57 86 58 87 59 64 60 65 61 73 62 66 63 68 64 74 65
REMARK SMILES IDX 67 66 69 67 70 68 71 69 72 70 5 71 6 72 7 73 8 74 9 76 10 77
REMARK SMILES IDX 11 78 37 79 12 80 36 81 13 82 14 83 15 84 29 85 16 86 17 87
REMARK SMILES IDX 28 88 18 89 30 91 31 92 35 93 32 94 34 95 33 96 19 97 20 98
REMARK SMILES IDX 24 99 21 100 23 101 22 102 25 103 27 104 26 105
REMARK H PARENT 3 5 94 23 62 34 7 75 28 90
REMARK Flexibility Score: inf
ROOT
ATOM      1  C   UNL     1       4.580   1.043   0.866  1.00  0.00     0.118 C 
ENDROOT
BRANCH   1   2
ATOM      2  N   UNL     1       3.142   0.825   0.784  1.00  0.00    -0.352 N 
ATOM      3  O   UNL     1       1.216   0.037  -0.070  1.00  0.00    -0.269 OA
ATOM      4  C   UNL     1       2.435  -0.076   0.024  1.00  0.00     0.251 C 
ATOM      5  H   UNL     1       2.596   1.409   1.359  1.00  0.00     0.163 HD
BRANCH   4   6
ATOM      6  C   UNL     1       3.150  -1.158  -0.686  1.00  0.00     0.039 A 
ATOM      7  C   UNL     1       4.198  -1.835  -0.060  1.00  0.00     0.014 A 
ATOM      8  C   UNL     1       2.760  -1.515  -1.979  1.00  0.00     0.014 A 
ATOM      9  C   UNL     1       4.956  -2.752  -0.773  1.00  0.00     0.010 A 
ATOM     10  C   UNL     1       3.452  -2.524  -2.657  1.00  0.00     0.010 A 
ATOM     11  C   UNL     1       4.566  -3.139  -2.064  1.00  0.00    -0.014 A 
BRANCH  11  12
ATOM     12  C   UNL     1       5.249  -4.294  -2.696  1.00  0.00     0.031 A 
ATOM     13  C   UNL     1       6.012  -4.159  -3.981  1.00  0.00     0.074 A 
ATOM     14  C   UNL     1       5.154  -5.490  -2.079  1.00  0.00     0.049 A 
ATOM     15  N   UNL     1       6.662  -5.081  -4.643  1.00  0.00    -0.248 NA
ATOM     16  C   UNL     1       6.053  -2.830  -4.612  1.00  0.00     0.031 C 
ATOM     17  C   UNL     1       4.394  -5.743  -0.849  1.00  0.00     0.029 A 
ATOM     18  N   UNL     1       5.681  -6.715  -2.396  1.00  0.00    -0.354 N 
ATOM     19  C   UNL     1       7.149  -4.463  -5.787  1.00  0.00     0.074 A 
ATOM     20  C   UNL     1       6.731  -3.079  -5.727  1.00  0.00     0.031 C 
ATOM     21  C   UNL     1       4.516  -7.032  -0.509  1.00  0.00     0.029 A 
ATOM     22  C   UNL     1       5.297  -7.714  -1.531  1.00  0.00     0.049 A 
ATOM     23  H   UNL     1       6.275  -6.864  -3.166  1.00  0.00     0.167 HD
ATOM     24  C   UNL     1       7.880  -5.006  -6.790  1.00  0.00     0.034 A 
ATOM     25  C   UNL     1       5.510  -9.041  -1.575  1.00  0.00     0.034 A 
ATOM     26  C   UNL     1       8.314  -6.379  -6.822  1.00  0.00     0.049 A 
ATOM     27  C   UNL     1       6.326  -9.602  -2.702  1.00  0.00     0.074 A 
ATOM     28  C   UNL     1       9.139  -6.995  -7.748  1.00  0.00     0.029 A 
ATOM     29  N   UNL     1       7.940  -7.354  -5.910  1.00  0.00    -0.354 N 
ATOM     30  N   UNL     1       6.918  -8.969  -3.684  1.00  0.00    -0.248 NA
ATOM     31  C   UNL     1       6.523 -11.057  -2.715  1.00  0.00     0.031 C 
ATOM     32  C   UNL     1       9.226  -8.352  -7.422  1.00  0.00     0.029 A 
ATOM     33  C   UNL     1       8.488  -8.574  -6.271  1.00  0.00     0.049 A 
ATOM     34  H   UNL     1       7.370  -7.202  -5.123  1.00  0.00     0.167 HD
ATOM     35  C   UNL     1       7.571  -9.945  -4.424  1.00  0.00     0.074 A 
ATOM     36  C   UNL     1       7.336 -11.206  -3.751  1.00  0.00     0.031 C 
ATOM     37  C   UNL     1       8.279  -9.814  -5.571  1.00  0.00     0.034 A 
BRANCH  24  38
ATOM     38  C   UNL     1       8.285  -4.128  -7.944  1.00  0.00     0.023 A 
ATOM     39  C   UNL     1       9.327  -3.194  -7.783  1.00  0.00     0.012 A 
ATOM     40  C   UNL     1       7.725  -4.328  -9.223  1.00  0.00     0.148 A 
ATOM     41  C   UNL     1       9.799  -2.464  -8.875  1.00  0.00     0.002 A 
ATOM     42  C   UNL     1       8.228  -3.628 -10.312  1.00  0.00     0.091 A 
ATOM     43  F   UNL     1       6.725  -5.212  -9.349  1.00  0.00    -0.205 F 
ATOM     44  C   UNL     1       9.260  -2.691 -10.139  1.00  0.00     0.022 A 
BRANCH  42  45
ATOM     45  S   UNL     1       7.661  -3.906 -11.994  1.00  0.00     0.127 S 
ATOM     46  O   UNL     1       7.041  -2.620 -12.311  1.00  0.00    -0.237 OA
ATOM     47  O   UNL     1       8.915  -4.168 -12.700  1.00  0.00    -0.237 OA
ATOM     48  O   UNL     1       6.745  -5.036 -11.931  1.00  0.00    -0.744 OA
ENDBRANCH  42  45
ENDBRANCH  24  38
BRANCH  25  49
ATOM     49  C   UNL     1       4.926  -9.927  -0.530  1.00  0.00     0.023 A 
ATOM     50  C   UNL     1       5.773 -10.616   0.357  1.00  0.00     0.012 A 
ATOM     51  C   UNL     1       3.530 -10.081  -0.408  1.00  0.00     0.148 A 
ATOM     52  C   UNL     1       5.242 -11.476   1.319  1.00  0.00     0.002 A 
ATOM     53  C   UNL     1       3.007 -10.886   0.594  1.00  0.00     0.091 A 
ATOM     54  F   UNL     1       2.740  -9.428  -1.272  1.00  0.00    -0.205 F 
ATOM     55  C   UNL     1       3.860 -11.603   1.445  1.00  0.00     0.022 A 
BRANCH  53  56
ATOM     56  S   UNL     1       1.242 -10.983   0.912  1.00  0.00     0.127 S 
ATOM     57  O   UNL     1       0.909 -12.290   0.351  1.00  0.00    -0.237 OA
ATOM     58  O   UNL     1       1.191 -10.907   2.373  1.00  0.00    -0.237 OA
ATOM     59  O   UNL     1       0.662  -9.831   0.235  1.00  0.00    -0.744 OA
ENDBRANCH  53  56
ENDBRANCH  25  49
BRANCH  37  60
ATOM     60  C   UNL     1       8.867 -11.066  -6.164  1.00  0.00     0.023 A 
ATOM     61  C   UNL     1       8.021 -12.019  -6.765  1.00  0.00     0.012 A 
ATOM     62  C   UNL     1      10.260 -11.273  -6.174  1.00  0.00     0.148 A 
ATOM     63  C   UNL     1       8.548 -13.176  -7.334  1.00  0.00     0.002 A 
ATOM     64  C   UNL     1      10.783 -12.402  -6.791  1.00  0.00     0.091 A 
ATOM     65  F   UNL     1      11.046 -10.361  -5.582  1.00  0.00    -0.205 F 
ATOM     66  C   UNL     1       9.929 -13.362  -7.358  1.00  0.00     0.022 A 
BRANCH  64  67
ATOM     67  S   UNL     1      12.549 -12.682  -6.954  1.00  0.00     0.127 S 
ATOM     68  O   UNL     1      12.753 -13.825  -6.066  1.00  0.00    -0.237 OA
ATOM     69  O   UNL     1      12.683 -12.984  -8.379  1.00  0.00    -0.237 OA
ATOM     70  O   UNL     1      13.195 -11.445  -6.533  1.00  0.00    -0.744 OA
ENDBRANCH  64  67
ENDBRANCH  37  60
ENDBRANCH  11  12
ENDBRANCH   4   6
ENDBRANCH   1   2
BRANCH   1  71
ATOM     71  C   UNL     1       4.990   2.408   0.341  1.00  0.00     0.042 C 
BRANCH  71  72
ATOM     72  C   UNL     1       4.463   3.557   1.183  1.00  0.00     0.118 C 
BRANCH  72  73
ATOM     73  N   UNL     1       5.037   3.565   2.525  1.00  0.00    -0.352 N 
ATOM     74  C   UNL     1       5.895   4.478   3.087  1.00  0.00     0.251 C 
ATOM     75  H   UNL     1       4.773   2.815   3.105  1.00  0.00     0.163 HD
ATOM     76  O   UNL     1       6.437   4.264   4.165  1.00  0.00    -0.269 OA
BRANCH  74  77
ATOM     77  C   UNL     1       6.167   5.726   2.355  1.00  0.00     0.040 A 
ATOM     78  C   UNL     1       7.476   6.037   1.991  1.00  0.00     0.018 A 
ATOM     79  C   UNL     1       5.107   6.553   1.983  1.00  0.00     0.018 A 
ATOM     80  C   UNL     1       7.712   7.123   1.143  1.00  0.00     0.053 A 
ATOM     81  C   UNL     1       5.349   7.635   1.144  1.00  0.00     0.053 A 
ATOM     82  C   UNL     1       6.645   7.904   0.675  1.00  0.00     0.136 A 
BRANCH  82  83
ATOM     83  N   UNL     1       6.834   8.940  -0.265  1.00  0.00    -0.154 N 
ATOM     84  C   UNL     1       6.169  10.138  -0.197  1.00  0.00     0.385 C 
ATOM     85  C   UNL     1       7.635   8.981  -1.377  1.00  0.00     0.295 C 
ATOM     86  O   UNL     1       5.331  10.514   0.606  1.00  0.00    -0.236 OA
ATOM     87  C   UNL     1       6.735  10.900  -1.359  1.00  0.00     0.216 C 
ATOM     88  N   UNL     1       7.606  10.095  -2.056  1.00  0.00    -0.233 N 
ATOM     89  C   UNL     1       6.515  12.194  -1.639  1.00  0.00     0.068 C 
ATOM     90  H   UNL     1       8.098  10.310  -2.881  1.00  0.00     0.312 HD
BRANCH  85  91
ATOM     91  C   UNL     1       8.422   7.830  -1.844  1.00  0.00     0.065 A 
ATOM     92  C   UNL     1       9.790   8.000  -2.074  1.00  0.00     0.017 A 
ATOM     93  C   UNL     1       7.799   6.610  -2.127  1.00  0.00     0.017 A 
ATOM     94  C   UNL     1      10.543   6.933  -2.564  1.00  0.00     0.001 A 
ATOM     95  C   UNL     1       8.557   5.549  -2.621  1.00  0.00     0.001 A 
ATOM     96  C   UNL     1       9.926   5.711  -2.837  1.00  0.00     0.000 A 
ENDBRANCH  85  91
BRANCH  89  97
ATOM     97  C   UNL     1       5.846  13.059  -0.667  1.00  0.00    -0.017 A 
ATOM     98  C   UNL     1       4.450  13.265  -0.691  1.00  0.00     0.012 A 
ATOM     99  C   UNL     1       6.610  13.468   0.437  1.00  0.00     0.059 A 
ATOM    100  C   UNL     1       3.800  13.804   0.426  1.00  0.00     0.051 A 
ATOM    101  C   UNL     1       5.934  13.938   1.535  1.00  0.00     0.166 A 
ATOM    102  C   UNL     1       4.566  14.086   1.538  1.00  0.00     0.165 A 
ATOM    103  O   UNL     1       6.490  14.199   2.749  1.00  0.00    -0.454 OA
ATOM    104  O   UNL     1       4.101  14.454   2.765  1.00  0.00    -0.454 OA
ATOM    105  C   UNL     1       5.296  14.257   3.553  1.00  0.00     0.468 C 
ENDBRANCH  89  97
ENDBRANCH  82  83
ENDBRANCH  74  77
ENDBRANCH  72  73
ENDBRANCH  71  72
ENDBRANCH   1  71
TORSDOF 16
