REMARK SMILES C[C@H]([NH2+]Cc1ccccc1F)C(=O)NCCCNC(=O)c1ccc(-c2c3nc(c(-c4cccc(S(=O)(=O)[O-])c4F)c4ccc([nH]4)c(-c4cccc(S(=O)(=O)[O-])c4F)c4nc(c(-c5cccc(S(=O)(=O)[O-])c5F)c5ccc2[nH]5)C=C4)C=C3)cc1
REMARK SMILES IDX 16 1 15 2 14 3 12 4 13 5 2 7 1 8 3 9 4 12 5 13 6 14 10 15
REMARK SMILES IDX 7 16 9 17 11 18 8 19 17 20 18 21 19 22 20 24 21 25 22 26
REMARK SMILES IDX 83 27 23 28 82 29 24 30 25 31 26 32 76 33 27 34 81 35 75 36
REMARK SMILES IDX 77 37 28 38 80 39 74 40 73 41 29 43 61 44 41 45 60 46 42 47
REMARK SMILES IDX 45 48 59 49 78 50 43 51 44 52 58 54 79 55 46 56 30 57 31 58
REMARK SMILES IDX 39 59 32 60 34 61 40 62 33 63 35 64 36 65 37 66 38 67 62 68
REMARK SMILES IDX 63 69 71 70 64 71 66 72 72 73 65 74 67 75 68 76 69 77 70 78
REMARK SMILES IDX 47 79 48 80 56 81 49 82 51 83 57 84 50 85 52 86 53 87 54 88
REMARK SMILES IDX 55 89
REMARK H PARENT 14 6 3 10 3 11 18 23 77 42 45 53
REMARK Flexibility Score: inf
ROOT
ATOM      1  C   UNL     1      -1.416   2.643   0.597  1.00  0.00     0.042 C 
ENDROOT
BRANCH   1   2
ATOM      2  C   UNL     1      -1.017   1.711   1.734  1.00  0.00     0.118 C 
BRANCH   2   3
ATOM      3  N   UNL     1      -1.519   0.359   1.554  1.00  0.00    -0.351 N 
ATOM      4  C   UNL     1      -0.871  -0.826   1.349  1.00  0.00     0.277 C 
ATOM      5  O   UNL     1      -1.561  -1.850   1.315  1.00  0.00    -0.268 OA
ATOM      6  H   UNL     1      -2.500   0.285   1.584  1.00  0.00     0.163 HD
BRANCH   4   7
ATOM      7  C   UNL     1       0.668  -0.892   1.215  1.00  0.00     0.269 C 
ATOM      8  C   UNL     1       1.332  -0.580   2.558  1.00  0.00     0.086 C 
BRANCH   7   9
ATOM      9  N   UNL     1       1.089  -0.116   0.037  1.00  0.00    -0.332 N 
ATOM     10  H   UNL     1       0.567   0.761   0.035  1.00  0.00     0.347 HD
ATOM     11  H   UNL     1       0.901  -0.710  -0.770  1.00  0.00     0.347 HD
BRANCH   9  12
ATOM     12  C   UNL     1       2.511   0.210  -0.031  1.00  0.00     0.301 C 
BRANCH  12  13
ATOM     13  C   UNL     1       2.842   1.073  -1.227  1.00  0.00     0.042 A 
ATOM     14  C   UNL     1       2.149   2.269  -1.488  1.00  0.00     0.012 A 
ATOM     15  C   UNL     1       3.909   0.740  -2.068  1.00  0.00     0.132 A 
ATOM     16  C   UNL     1       2.490   3.071  -2.581  1.00  0.00     0.001 A 
ATOM     17  C   UNL     1       4.261   1.541  -3.153  1.00  0.00     0.040 A 
ATOM     18  F   UNL     1       4.633  -0.364  -1.826  1.00  0.00    -0.206 F 
ATOM     19  C   UNL     1       3.545   2.707  -3.414  1.00  0.00     0.003 A 
ENDBRANCH  12  13
ENDBRANCH   9  12
ENDBRANCH   7   9
ENDBRANCH   4   7
ENDBRANCH   2   3
ENDBRANCH   1   2
BRANCH   1  20
ATOM     20  C   UNL     1      -2.916   2.891   0.485  1.00  0.00     0.118 C 
BRANCH  20  21
ATOM     21  N   UNL     1      -3.463   3.574   1.651  1.00  0.00    -0.352 N 
ATOM     22  C   UNL     1      -3.998   4.834   1.772  1.00  0.00     0.251 C 
ATOM     23  H   UNL     1      -3.446   3.049   2.484  1.00  0.00     0.163 HD
ATOM     24  O   UNL     1      -4.234   5.284   2.892  1.00  0.00    -0.269 OA
BRANCH  22  25
ATOM     25  C   UNL     1      -4.269   5.657   0.573  1.00  0.00     0.039 A 
ATOM     26  C   UNL     1      -3.928   7.012   0.591  1.00  0.00     0.014 A 
ATOM     27  C   UNL     1      -4.861   5.102  -0.564  1.00  0.00     0.014 A 
ATOM     28  C   UNL     1      -4.099   7.786  -0.560  1.00  0.00     0.010 A 
ATOM     29  C   UNL     1      -4.951   5.851  -1.734  1.00  0.00     0.010 A 
ATOM     30  C   UNL     1      -4.565   7.199  -1.748  1.00  0.00    -0.014 A 
BRANCH  30  31
ATOM     31  C   UNL     1      -4.614   7.958  -3.025  1.00  0.00     0.031 A 
ATOM     32  C   UNL     1      -5.921   8.168  -3.740  1.00  0.00     0.074 A 
ATOM     33  C   UNL     1      -3.463   8.369  -3.594  1.00  0.00     0.049 A 
ATOM     34  N   UNL     1      -6.141   8.721  -4.904  1.00  0.00    -0.248 NA
ATOM     35  C   UNL     1      -7.137   7.673  -3.072  1.00  0.00     0.031 C 
ATOM     36  C   UNL     1      -2.125   8.165  -3.034  1.00  0.00     0.029 A 
ATOM     37  N   UNL     1      -3.228   9.017  -4.782  1.00  0.00    -0.354 N 
ATOM     38  C   UNL     1      -7.508   8.611  -5.126  1.00  0.00     0.074 A 
ATOM     39  C   UNL     1      -8.065   7.913  -3.988  1.00  0.00     0.031 C 
ATOM     40  C   UNL     1      -1.213   8.680  -3.872  1.00  0.00     0.029 A 
ATOM     41  C   UNL     1      -1.893   9.214  -5.048  1.00  0.00     0.049 A 
ATOM     42  H   UNL     1      -3.947   9.313  -5.385  1.00  0.00     0.167 HD
ATOM     43  C   UNL     1      -8.237   9.073  -6.169  1.00  0.00     0.034 A 
ATOM     44  C   UNL     1      -1.278   9.751  -6.122  1.00  0.00     0.034 A 
ATOM     45  C   UNL     1      -7.685   9.801  -7.280  1.00  0.00     0.049 A 
ATOM     46  C   UNL     1      -2.114  10.283  -7.254  1.00  0.00     0.074 A 
ATOM     47  C   UNL     1      -8.355  10.376  -8.345  1.00  0.00     0.029 A 
ATOM     48  N   UNL     1      -6.335  10.050  -7.476  1.00  0.00    -0.354 N 
ATOM     49  N   UNL     1      -3.418  10.290  -7.380  1.00  0.00    -0.248 NA
ATOM     50  C   UNL     1      -1.399  10.912  -8.374  1.00  0.00     0.031 C 
ATOM     51  C   UNL     1      -7.410  10.948  -9.200  1.00  0.00     0.029 A 
ATOM     52  C   UNL     1      -6.152  10.763  -8.648  1.00  0.00     0.049 A 
ATOM     53  H   UNL     1      -5.614   9.763  -6.870  1.00  0.00     0.167 HD
ATOM     54  C   UNL     1      -3.683  10.952  -8.574  1.00  0.00     0.074 A 
ATOM     55  C   UNL     1      -2.403  11.347  -9.124  1.00  0.00     0.031 C 
ATOM     56  C   UNL     1      -4.879  11.197  -9.164  1.00  0.00     0.034 A 
BRANCH  43  57
ATOM     57  C   UNL     1      -9.729   8.860  -6.142  1.00  0.00     0.023 A 
ATOM     58  C   UNL     1     -10.519   9.601  -5.240  1.00  0.00     0.012 A 
ATOM     59  C   UNL     1     -10.356   8.010  -7.074  1.00  0.00     0.148 A 
ATOM     60  C   UNL     1     -11.908   9.483  -5.250  1.00  0.00     0.002 A 
ATOM     61  C   UNL     1     -11.744   7.934  -7.110  1.00  0.00     0.091 A 
ATOM     62  F   UNL     1      -9.587   7.299  -7.910  1.00  0.00    -0.205 F 
ATOM     63  C   UNL     1     -12.520   8.661  -6.192  1.00  0.00     0.022 A 
BRANCH  61  64
ATOM     64  S   UNL     1     -12.634   6.977  -8.343  1.00  0.00     0.127 S 
ATOM     65  O   UNL     1     -13.232   5.925  -7.522  1.00  0.00    -0.237 OA
ATOM     66  O   UNL     1     -13.585   7.959  -8.864  1.00  0.00    -0.237 OA
ATOM     67  O   UNL     1     -11.635   6.525  -9.301  1.00  0.00    -0.744 OA
ENDBRANCH  61  64
ENDBRANCH  43  57
BRANCH  44  68
ATOM     68  C   UNL     1       0.208   9.872  -6.133  1.00  0.00     0.023 A 
ATOM     69  C   UNL     1       0.796  11.145  -6.012  1.00  0.00     0.012 A 
ATOM     70  C   UNL     1       1.037   8.734  -6.189  1.00  0.00     0.148 A 
ATOM     71  C   UNL     1       2.184  11.286  -5.969  1.00  0.00     0.002 A 
ATOM     72  C   UNL     1       2.416   8.876  -6.082  1.00  0.00     0.091 A 
ATOM     73  F   UNL     1       0.459   7.531  -6.315  1.00  0.00    -0.205 F 
ATOM     74  C   UNL     1       2.992  10.153  -5.990  1.00  0.00     0.022 A 
BRANCH  72  75
ATOM     75  S   UNL     1       3.522   7.467  -5.940  1.00  0.00     0.127 S 
ATOM     76  O   UNL     1       4.236   7.515  -7.213  1.00  0.00    -0.237 OA
ATOM     77  O   UNL     1       4.323   7.829  -4.769  1.00  0.00    -0.237 OA
ATOM     78  O   UNL     1       2.665   6.306  -5.737  1.00  0.00    -0.744 OA
ENDBRANCH  72  75
ENDBRANCH  44  68
BRANCH  56  79
ATOM     79  C   UNL     1      -4.885  11.959 -10.465  1.00  0.00     0.023 A 
ATOM     80  C   UNL     1      -4.440  11.333 -11.646  1.00  0.00     0.012 A 
ATOM     81  C   UNL     1      -5.436  13.254 -10.534  1.00  0.00     0.148 A 
ATOM     82  C   UNL     1      -4.521  11.994 -12.872  1.00  0.00     0.002 A 
ATOM     83  C   UNL     1      -5.562  13.886 -11.766  1.00  0.00     0.091 A 
ATOM     84  F   UNL     1      -5.838  13.839  -9.396  1.00  0.00    -0.205 F 
ATOM     85  C   UNL     1      -5.095  13.262 -12.934  1.00  0.00     0.022 A 
BRANCH  83  86
ATOM     86  S   UNL     1      -6.385  15.472 -11.957  1.00  0.00     0.127 S 
ATOM     87  O   UNL     1      -5.260  16.355 -12.262  1.00  0.00    -0.237 OA
ATOM     88  O   UNL     1      -7.286  15.220 -13.082  1.00  0.00    -0.237 OA
ATOM     89  O   UNL     1      -7.056  15.732 -10.690  1.00  0.00    -0.744 OA
ENDBRANCH  83  86
ENDBRANCH  56  79
ENDBRANCH  30  31
ENDBRANCH  22  25
ENDBRANCH  20  21
ENDBRANCH   1  20
TORSDOF 16
