REMARK SMILES Cc1ccc(S(=O)(=O)Nc2cc(C(=O)NCCCNC(=O)c3ccc(-c4c5nc(c(-c6cccc(S(=O)(=O)[O-])c6F)c6ccc([nH]6)c(-c6cccc(S(=O)(=O)[O-])c6F)c6nc(c(-c7cccc(S(=O)(=O)[O-])c7F)c7ccc4[nH]7)C=C6)C=C5)cc3)cnc2N2CCCC2)c(C)c1
REMARK SMILES IDX 17 1 16 2 15 3 13 4 14 5 12 7 10 8 11 9 87 10 86 11 85 12
REMARK SMILES IDX 9 13 6 15 7 16 8 17 5 18 1 19 2 20 3 21 95 22 4 23 93 24
REMARK SMILES IDX 94 25 88 26 89 27 92 28 90 29 91 30 18 31 19 32 20 33 21 35
REMARK SMILES IDX 22 36 23 37 84 38 24 39 83 40 25 41 26 42 27 43 77 44 28 45
REMARK SMILES IDX 82 46 76 47 78 48 29 49 81 50 75 51 74 52 30 54 62 55 42 56
REMARK SMILES IDX 61 57 43 58 46 59 60 60 79 61 44 62 45 63 59 65 80 66 47 67
REMARK SMILES IDX 31 68 32 69 40 70 33 71 35 72 41 73 34 74 36 75 37 76 38 77
REMARK SMILES IDX 39 78 63 79 64 80 72 81 65 82 67 83 73 84 66 85 68 86 69 87
REMARK SMILES IDX 70 88 71 89 48 90 49 91 57 92 50 93 52 94 58 95 51 96 53 97
REMARK SMILES IDX 54 98 55 99 56 100
REMARK H PARENT 15 6 9 14 19 34 78 53 46 64
REMARK Flexibility Score: inf
ROOT
ATOM      1  C   UNL     1       0.171  -1.701   3.760  1.00  0.00     0.042 C 
ENDROOT
BRANCH   1   2
ATOM      2  C   UNL     1       1.160  -1.715   2.598  1.00  0.00     0.118 C 
BRANCH   2   3
ATOM      3  N   UNL     1       2.045  -2.864   2.655  1.00  0.00    -0.352 N 
ATOM      4  C   UNL     1       2.033  -4.066   1.993  1.00  0.00     0.252 C 
ATOM      5  O   UNL     1       2.991  -4.821   2.156  1.00  0.00    -0.269 OA
ATOM      6  H   UNL     1       2.794  -2.762   3.286  1.00  0.00     0.163 HD
BRANCH   4   7
ATOM      7  C   UNL     1       0.965  -4.466   1.046  1.00  0.00     0.060 A 
ATOM      8  C   UNL     1      -1.188  -4.332  -0.005  1.00  0.00     0.092 A 
ATOM      9  C   UNL     1      -0.342  -3.994   1.048  1.00  0.00     0.046 A 
ATOM     10  C   UNL     1      -0.780  -5.298  -0.954  1.00  0.00     0.153 A 
ATOM     11  N   UNL     1       0.453  -5.837  -0.905  1.00  0.00    -0.236 NA
ATOM     12  C   UNL     1       1.300  -5.392   0.061  1.00  0.00     0.127 A 
BRANCH   8  13
ATOM     13  N   UNL     1      -2.463  -3.723  -0.160  1.00  0.00    -0.276 N 
ATOM     14  H   UNL     1      -3.225  -4.315  -0.355  1.00  0.00     0.180 HD
BRANCH  13  15
ATOM     15  S   UNL     1      -2.779  -2.090  -0.040  1.00  0.00     0.262 S 
ATOM     16  O   UNL     1      -2.986  -1.827   1.372  1.00  0.00    -0.201 OA
ATOM     17  O   UNL     1      -3.817  -1.842  -1.017  1.00  0.00    -0.201 OA
BRANCH  15  18
ATOM     18  C   UNL     1      -1.380  -1.074  -0.526  1.00  0.00     0.090 A 
ATOM     19  C   UNL     1       2.351   1.086  -0.434  1.00  0.00     0.044 C 
ATOM     20  C   UNL     1       1.042   0.362  -0.553  1.00  0.00    -0.051 A 
ATOM     21  C   UNL     1       0.963  -0.903  -1.138  1.00  0.00     0.005 A 
ATOM     22  C   UNL     1      -0.134   0.967  -0.102  1.00  0.00     0.008 A 
ATOM     23  C   UNL     1      -0.246  -1.611  -1.144  1.00  0.00     0.023 A 
ATOM     24  C   UNL     1      -1.357   0.272  -0.100  1.00  0.00    -0.030 A 
ATOM     25  C   UNL     1      -2.572   1.029   0.368  1.00  0.00     0.046 C 
ENDBRANCH  15  18
ENDBRANCH  13  15
ENDBRANCH   8  13
BRANCH  10  26
ATOM     26  N   UNL     1      -1.636  -5.766  -1.913  1.00  0.00    -0.355 N 
ATOM     27  C   UNL     1      -2.286  -5.031  -2.978  1.00  0.00     0.118 C 
ATOM     28  C   UNL     1      -2.048  -7.161  -1.860  1.00  0.00     0.118 C 
ATOM     29  C   UNL     1      -3.583  -5.819  -3.149  1.00  0.00     0.023 C 
ATOM     30  C   UNL     1      -3.127  -7.261  -2.943  1.00  0.00     0.023 C 
ENDBRANCH  10  26
ENDBRANCH   4   7
ENDBRANCH   2   3
ENDBRANCH   1   2
BRANCH   1  31
ATOM     31  C   UNL     1       0.784  -1.179   5.053  1.00  0.00     0.118 C 
BRANCH  31  32
ATOM     32  N   UNL     1       1.038   0.254   4.992  1.00  0.00    -0.352 N 
ATOM     33  C   UNL     1       0.724   1.235   5.899  1.00  0.00     0.251 C 
ATOM     34  H   UNL     1       1.502   0.564   4.182  1.00  0.00     0.163 HD
ATOM     35  O   UNL     1       0.855   2.413   5.575  1.00  0.00    -0.269 OA
BRANCH  33  36
ATOM     36  C   UNL     1       0.224   0.886   7.248  1.00  0.00     0.039 A 
ATOM     37  C   UNL     1      -0.790   1.668   7.810  1.00  0.00     0.014 A 
ATOM     38  C   UNL     1       0.773  -0.173   7.977  1.00  0.00     0.014 A 
ATOM     39  C   UNL     1      -1.274   1.370   9.086  1.00  0.00     0.010 A 
ATOM     40  C   UNL     1       0.244  -0.511   9.220  1.00  0.00     0.010 A 
ATOM     41  C   UNL     1      -0.769   0.269   9.796  1.00  0.00    -0.014 A 
BRANCH  41  42
ATOM     42  C   UNL     1      -1.269  -0.066  11.152  1.00  0.00     0.031 A 
ATOM     43  C   UNL     1      -0.349   0.031  12.340  1.00  0.00     0.074 A 
ATOM     44  C   UNL     1      -2.523  -0.532  11.305  1.00  0.00     0.049 A 
ATOM     45  N   UNL     1      -0.587  -0.257  13.593  1.00  0.00    -0.248 NA
ATOM     46  C   UNL     1       1.029   0.481  12.082  1.00  0.00     0.031 C 
ATOM     47  C   UNL     1      -3.481  -0.757  10.220  1.00  0.00     0.029 A 
ATOM     48  N   UNL     1      -3.200  -0.925  12.432  1.00  0.00    -0.354 N 
ATOM     49  C   UNL     1       0.616  -0.066  14.262  1.00  0.00     0.074 A 
ATOM     50  C   UNL     1       1.591   0.335  13.273  1.00  0.00     0.031 C 
ATOM     51  C   UNL     1      -4.622  -1.243  10.735  1.00  0.00     0.029 A 
ATOM     52  C   UNL     1      -4.474  -1.376  12.182  1.00  0.00     0.049 A 
ATOM     53  H   UNL     1      -2.810  -0.887  13.336  1.00  0.00     0.167 HD
ATOM     54  C   UNL     1       0.878  -0.178  15.586  1.00  0.00     0.034 A 
ATOM     55  C   UNL     1      -5.420  -1.834  13.025  1.00  0.00     0.034 A 
ATOM     56  C   UNL     1      -0.112  -0.503  16.576  1.00  0.00     0.049 A 
ATOM     57  C   UNL     1      -5.135  -1.854  14.502  1.00  0.00     0.074 A 
ATOM     58  C   UNL     1       0.027  -0.543  17.952  1.00  0.00     0.029 A 
ATOM     59  N   UNL     1      -1.429  -0.832  16.296  1.00  0.00    -0.354 N 
ATOM     60  N   UNL     1      -4.040  -1.506  15.134  1.00  0.00    -0.248 NA
ATOM     61  C   UNL     1      -6.227  -2.286  15.386  1.00  0.00     0.031 C 
ATOM     62  C   UNL     1      -1.211  -0.893  18.505  1.00  0.00     0.029 A 
ATOM     63  C   UNL     1      -2.118  -1.071  17.472  1.00  0.00     0.049 A 
ATOM     64  H   UNL     1      -1.817  -0.888  15.393  1.00  0.00     0.167 HD
ATOM     65  C   UNL     1      -4.319  -1.647  16.488  1.00  0.00     0.074 A 
ATOM     66  C   UNL     1      -5.695  -2.090  16.586  1.00  0.00     0.031 C 
ATOM     67  C   UNL     1      -3.505  -1.448  17.553  1.00  0.00     0.034 A 
BRANCH  54  68
ATOM     68  C   UNL     1       2.276   0.134  16.047  1.00  0.00     0.023 A 
ATOM     69  C   UNL     1       2.702   1.477  16.086  1.00  0.00     0.012 A 
ATOM     70  C   UNL     1       3.150  -0.882  16.482  1.00  0.00     0.148 A 
ATOM     71  C   UNL     1       3.986   1.804  16.520  1.00  0.00     0.002 A 
ATOM     72  C   UNL     1       4.416  -0.545  16.948  1.00  0.00     0.091 A 
ATOM     73  F   UNL     1       2.739  -2.156  16.412  1.00  0.00    -0.205 F 
ATOM     74  C   UNL     1       4.839   0.795  16.960  1.00  0.00     0.022 A 
BRANCH  72  75
ATOM     75  S   UNL     1       5.557  -1.771  17.598  1.00  0.00     0.127 S 
ATOM     76  O   UNL     1       6.471  -1.952  16.471  1.00  0.00    -0.237 OA
ATOM     77  O   UNL     1       6.140  -1.080  18.749  1.00  0.00    -0.237 OA
ATOM     78  O   UNL     1       4.740  -2.927  17.941  1.00  0.00    -0.744 OA
ENDBRANCH  72  75
ENDBRANCH  54  68
BRANCH  55  79
ATOM     79  C   UNL     1      -6.762  -2.206  12.495  1.00  0.00     0.023 A 
ATOM     80  C   UNL     1      -7.852  -1.347  12.735  1.00  0.00     0.012 A 
ATOM     81  C   UNL     1      -6.958  -3.365  11.722  1.00  0.00     0.148 A 
ATOM     82  C   UNL     1      -9.119  -1.647  12.233  1.00  0.00     0.002 A 
ATOM     83  C   UNL     1      -8.213  -3.634  11.184  1.00  0.00     0.091 A 
ATOM     84  F   UNL     1      -5.913  -4.181  11.519  1.00  0.00    -0.205 F 
ATOM     85  C   UNL     1      -9.297  -2.784  11.449  1.00  0.00     0.022 A 
BRANCH  83  86
ATOM     86  S   UNL     1      -8.491  -5.009  10.061  1.00  0.00     0.127 S 
ATOM     87  O   UNL     1      -9.100  -6.000  10.944  1.00  0.00    -0.237 OA
ATOM     88  O   UNL     1      -9.399  -4.424   9.073  1.00  0.00    -0.237 OA
ATOM     89  O   UNL     1      -7.175  -5.344   9.533  1.00  0.00    -0.744 OA
ENDBRANCH  83  86
ENDBRANCH  55  79
BRANCH  67  90
ATOM     90  C   UNL     1      -4.079  -1.687  18.923  1.00  0.00     0.023 A 
ATOM     91  C   UNL     1      -4.255  -3.009  19.376  1.00  0.00     0.012 A 
ATOM     92  C   UNL     1      -4.365  -0.614  19.788  1.00  0.00     0.148 A 
ATOM     93  C   UNL     1      -4.730  -3.259  20.663  1.00  0.00     0.002 A 
ATOM     94  C   UNL     1      -4.802  -0.871  21.083  1.00  0.00     0.091 A 
ATOM     95  F   UNL     1      -4.215   0.638  19.331  1.00  0.00    -0.205 F 
ATOM     96  C   UNL     1      -4.991  -2.192  21.519  1.00  0.00     0.022 A 
BRANCH  94  97
ATOM     97  S   UNL     1      -5.074   0.451  22.268  1.00  0.00     0.127 S 
ATOM     98  O   UNL     1      -6.518   0.651  22.169  1.00  0.00    -0.237 OA
ATOM     99  O   UNL     1      -4.628  -0.151  23.526  1.00  0.00    -0.237 OA
ATOM    100  O   UNL     1      -4.246   1.560  21.812  1.00  0.00    -0.744 OA
ENDBRANCH  94  97
ENDBRANCH  67  90
ENDBRANCH  41  42
ENDBRANCH  33  36
ENDBRANCH  31  32
ENDBRANCH   1  31
TORSDOF 17
