REMARK SMILES CC(=O)NS(=O)(=O)c1cc(-c2ccn(C(F)F)c(=O)c2)ccc1C(=O)NCCCNC(=O)c1ccc(-c2c3nc(c(-c4cccc(S(=O)(=O)[O-])c4F)c4ccc([nH]4)c(-c4cccc(S(=O)(=O)[O-])c4F)c4nc(c(-c5cccc(S(=O)(=O)[O-])c5F)c5ccc2[nH]5)C=C4)C=C3)cc1
REMARK SMILES IDX 28 1 27 2 26 3 24 4 25 5 23 7 8 8 9 9 10 10 22 11 21 12 5 13
REMARK SMILES IDX 6 14 7 15 4 16 1 17 2 18 3 19 11 21 12 22 20 23 13 24 18 25
REMARK SMILES IDX 14 26 19 27 15 28 16 29 17 30 29 31 30 32 31 33 32 35 33 36
REMARK SMILES IDX 34 37 95 38 35 39 94 40 36 41 37 42 38 43 88 44 39 45 93 46
REMARK SMILES IDX 87 47 89 48 40 49 92 50 86 51 85 52 41 54 73 55 53 56 72 57
REMARK SMILES IDX 54 58 57 59 71 60 90 61 55 62 56 63 70 65 91 66 58 67 42 68
REMARK SMILES IDX 43 69 51 70 44 71 46 72 52 73 45 74 47 75 48 76 49 77 50 78
REMARK SMILES IDX 74 79 75 80 83 81 76 82 78 83 84 84 77 85 79 86 80 87 81 88
REMARK SMILES IDX 82 89 59 90 60 91 68 92 61 93 63 94 69 95 62 96 64 97 65 98
REMARK SMILES IDX 66 99 67 100
REMARK H PARENT 26 6 4 20 30 34 89 53 57 64
REMARK Flexibility Score: inf
ROOT
ATOM      1  C   UNL     1       2.099   2.990  -4.745  1.00  0.00     0.042 C 
ENDROOT
BRANCH   1   2
ATOM      2  C   UNL     1       2.783   3.575  -3.503  1.00  0.00     0.118 C 
BRANCH   2   3
ATOM      3  N   UNL     1       1.820   4.127  -2.568  1.00  0.00    -0.352 N 
ATOM      4  C   UNL     1       1.563   3.891  -1.251  1.00  0.00     0.252 C 
ATOM      5  O   UNL     1       0.757   4.619  -0.669  1.00  0.00    -0.269 OA
ATOM      6  H   UNL     1       1.234   4.811  -2.966  1.00  0.00     0.163 HD
BRANCH   4   7
ATOM      7  C   UNL     1       2.254   2.873  -0.429  1.00  0.00     0.060 A 
ATOM      8  C   UNL     1       2.130   1.487  -0.572  1.00  0.00     0.101 A 
ATOM      9  C   UNL     1       2.553   0.635   0.462  1.00  0.00     0.031 A 
ATOM     10  C   UNL     1       3.011   1.156   1.678  1.00  0.00    -0.017 A 
ATOM     11  C   UNL     1       2.831   3.379   0.756  1.00  0.00     0.016 A 
ATOM     12  C   UNL     1       3.194   2.531   1.807  1.00  0.00     0.009 A 
BRANCH   8  13
ATOM     13  S   UNL     1       1.303   0.763  -1.955  1.00  0.00     0.264 S 
ATOM     14  O   UNL     1       2.331   0.540  -2.944  1.00  0.00    -0.201 OA
ATOM     15  O   UNL     1       0.103   1.517  -2.230  1.00  0.00    -0.201 OA
BRANCH  13  16
ATOM     16  N   UNL     1       0.857  -0.753  -1.472  1.00  0.00    -0.249 N 
ATOM     17  C   UNL     1      -0.906  -0.218   0.238  1.00  0.00     0.115 C 
ATOM     18  C   UNL     1      -0.202  -1.186  -0.665  1.00  0.00     0.230 C 
ATOM     19  O   UNL     1      -0.410  -2.390  -0.600  1.00  0.00    -0.274 OA
ATOM     20  H   UNL     1       1.434  -1.476  -1.809  1.00  0.00     0.183 HD
ENDBRANCH  13  16
ENDBRANCH   8  13
BRANCH  10  21
ATOM     21  C   UNL     1       3.004   0.266   2.853  1.00  0.00    -0.011 A 
ATOM     22  C   UNL     1       1.865   0.258   3.754  1.00  0.00     0.027 A 
ATOM     23  C   UNL     1       3.970  -0.654   3.009  1.00  0.00     0.080 A 
ATOM     24  C   UNL     1       1.723  -0.710   4.665  1.00  0.00     0.095 A 
ATOM     25  C   UNL     1       3.858  -1.699   4.070  1.00  0.00     0.255 A 
ATOM     26  N   UNL     1       2.683  -1.693   4.806  1.00  0.00    -0.258 N 
ATOM     27  O   UNL     1       4.778  -2.500   4.200  1.00  0.00    -0.269 OA
BRANCH  26  28
ATOM     28  C   UNL     1       2.489  -2.761   5.755  1.00  0.00     0.451 C 
ATOM     29  F   UNL     1       2.585  -3.973   5.155  1.00  0.00    -0.185 F 
ATOM     30  F   UNL     1       3.415  -2.707   6.743  1.00  0.00    -0.185 F 
ENDBRANCH  26  28
ENDBRANCH  10  21
ENDBRANCH   4   7
ENDBRANCH   2   3
ENDBRANCH   1   2
BRANCH   1  31
ATOM     31  C   UNL     1       1.427   4.037  -5.638  1.00  0.00     0.118 C 
BRANCH  31  32
ATOM     32  N   UNL     1       2.040   4.069  -6.956  1.00  0.00    -0.352 N 
ATOM     33  C   UNL     1       1.608   3.571  -8.159  1.00  0.00     0.251 C 
ATOM     34  H   UNL     1       2.912   4.525  -6.991  1.00  0.00     0.163 HD
ATOM     35  O   UNL     1       2.426   3.460  -9.072  1.00  0.00    -0.269 OA
BRANCH  33  36
ATOM     36  C   UNL     1       0.195   3.181  -8.400  1.00  0.00     0.039 A 
ATOM     37  C   UNL     1      -0.057   2.095  -9.249  1.00  0.00     0.014 A 
ATOM     38  C   UNL     1      -0.878   3.941  -7.927  1.00  0.00     0.014 A 
ATOM     39  C   UNL     1      -1.369   1.769  -9.617  1.00  0.00     0.010 A 
ATOM     40  C   UNL     1      -2.192   3.587  -8.255  1.00  0.00     0.010 A 
ATOM     41  C   UNL     1      -2.450   2.516  -9.126  1.00  0.00    -0.014 A 
BRANCH  41  42
ATOM     42  C   UNL     1      -3.842   2.237  -9.571  1.00  0.00     0.031 A 
ATOM     43  C   UNL     1      -4.567   3.226 -10.447  1.00  0.00     0.074 A 
ATOM     44  C   UNL     1      -4.480   1.123  -9.162  1.00  0.00     0.049 A 
ATOM     45  N   UNL     1      -5.801   3.195 -10.881  1.00  0.00    -0.248 NA
ATOM     46  C   UNL     1      -3.810   4.413 -10.879  1.00  0.00     0.031 C 
ATOM     47  C   UNL     1      -3.918   0.100  -8.281  1.00  0.00     0.029 A 
ATOM     48  N   UNL     1      -5.752   0.676  -9.424  1.00  0.00    -0.354 N 
ATOM     49  C   UNL     1      -5.987   4.378 -11.585  1.00  0.00     0.074 A 
ATOM     50  C   UNL     1      -4.737   5.105 -11.527  1.00  0.00     0.031 C 
ATOM     51  C   UNL     1      -4.837  -0.859  -8.081  1.00  0.00     0.029 A 
ATOM     52  C   UNL     1      -6.058  -0.513  -8.806  1.00  0.00     0.049 A 
ATOM     53  H   UNL     1      -6.385   1.161 -10.001  1.00  0.00     0.167 HD
ATOM     54  C   UNL     1      -7.087   4.813 -12.243  1.00  0.00     0.034 A 
ATOM     55  C   UNL     1      -7.189  -1.246  -8.825  1.00  0.00     0.034 A 
ATOM     56  C   UNL     1      -8.303   4.062 -12.390  1.00  0.00     0.049 A 
ATOM     57  C   UNL     1      -8.368  -0.781  -9.635  1.00  0.00     0.074 A 
ATOM     58  C   UNL     1      -9.440   4.397 -13.105  1.00  0.00     0.029 A 
ATOM     59  N   UNL     1      -8.533   2.817 -11.830  1.00  0.00    -0.354 N 
ATOM     60  N   UNL     1      -8.480   0.285 -10.387  1.00  0.00    -0.248 NA
ATOM     61  C   UNL     1      -9.566  -1.635  -9.620  1.00  0.00     0.031 C 
ATOM     62  C   UNL     1     -10.352   3.340 -12.996  1.00  0.00     0.029 A 
ATOM     63  C   UNL     1      -9.789   2.361 -12.193  1.00  0.00     0.049 A 
ATOM     64  H   UNL     1      -7.898   2.328 -11.259  1.00  0.00     0.167 HD
ATOM     65  C   UNL     1      -9.751   0.223 -10.948  1.00  0.00     0.074 A 
ATOM     66  C   UNL     1     -10.365  -0.997 -10.466  1.00  0.00     0.031 C 
ATOM     67  C   UNL     1     -10.362   1.112 -11.768  1.00  0.00     0.034 A 
BRANCH  54  68
ATOM     68  C   UNL     1      -6.996   6.146 -12.930  1.00  0.00     0.023 A 
ATOM     69  C   UNL     1      -6.441   6.210 -14.222  1.00  0.00     0.012 A 
ATOM     70  C   UNL     1      -7.492   7.316 -12.328  1.00  0.00     0.148 A 
ATOM     71  C   UNL     1      -6.370   7.426 -14.901  1.00  0.00     0.002 A 
ATOM     72  C   UNL     1      -7.434   8.522 -13.020  1.00  0.00     0.091 A 
ATOM     73  F   UNL     1      -7.990   7.245 -11.084  1.00  0.00    -0.205 F 
ATOM     74  C   UNL     1      -6.873   8.580 -14.305  1.00  0.00     0.022 A 
BRANCH  72  75
ATOM     75  S   UNL     1      -8.106  10.022 -12.297  1.00  0.00     0.127 S 
ATOM     76  O   UNL     1      -7.019  10.452 -11.421  1.00  0.00    -0.237 OA
ATOM     77  O   UNL     1      -8.320  10.883 -13.462  1.00  0.00    -0.237 OA
ATOM     78  O   UNL     1      -9.335   9.593 -11.642  1.00  0.00    -0.744 OA
ENDBRANCH  72  75
ENDBRANCH  54  68
BRANCH  55  79
ATOM     79  C   UNL     1      -7.224  -2.556  -8.120  1.00  0.00     0.023 A 
ATOM     80  C   UNL     1      -7.115  -3.737  -8.878  1.00  0.00     0.012 A 
ATOM     81  C   UNL     1      -7.317  -2.643  -6.721  1.00  0.00     0.148 A 
ATOM     82  C   UNL     1      -7.107  -4.984  -8.253  1.00  0.00     0.002 A 
ATOM     83  C   UNL     1      -7.272  -3.889  -6.101  1.00  0.00     0.091 A 
ATOM     84  F   UNL     1      -7.441  -1.513  -6.010  1.00  0.00    -0.205 F 
ATOM     85  C   UNL     1      -7.175  -5.061  -6.864  1.00  0.00     0.022 A 
BRANCH  83  86
ATOM     86  S   UNL     1      -7.250  -4.005  -4.309  1.00  0.00     0.127 S 
ATOM     87  O   UNL     1      -8.659  -3.834  -3.970  1.00  0.00    -0.237 OA
ATOM     88  O   UNL     1      -6.723  -5.350  -4.073  1.00  0.00    -0.237 OA
ATOM     89  O   UNL     1      -6.345  -2.936  -3.902  1.00  0.00    -0.744 OA
ENDBRANCH  83  86
ENDBRANCH  55  79
BRANCH  67  90
ATOM     90  C   UNL     1     -11.765   0.809 -12.207  1.00  0.00     0.023 A 
ATOM     91  C   UNL     1     -12.834   1.151 -11.356  1.00  0.00     0.012 A 
ATOM     92  C   UNL     1     -12.037   0.275 -13.479  1.00  0.00     0.148 A 
ATOM     93  C   UNL     1     -14.153   0.959 -11.764  1.00  0.00     0.002 A 
ATOM     94  C   UNL     1     -13.358   0.106 -13.887  1.00  0.00     0.091 A 
ATOM     95  F   UNL     1     -11.011  -0.067 -14.273  1.00  0.00    -0.205 F 
ATOM     96  C   UNL     1     -14.417   0.446 -13.032  1.00  0.00     0.022 A 
BRANCH  94  97
ATOM     97  S   UNL     1     -13.728  -0.496 -15.539  1.00  0.00     0.127 S 
ATOM     98  O   UNL     1     -13.549  -1.938 -15.389  1.00  0.00    -0.237 OA
ATOM     99  O   UNL     1     -15.116  -0.077 -15.743  1.00  0.00    -0.237 OA
ATOM    100  O   UNL     1     -12.770   0.188 -16.398  1.00  0.00    -0.744 OA
ENDBRANCH  94  97
ENDBRANCH  67  90
ENDBRANCH  41  42
ENDBRANCH  33  36
ENDBRANCH  31  32
ENDBRANCH   1  31
TORSDOF 17
