REMARK SMILES Cc1cc2n(n1)[C@H](C(F)(F)F)CCN2C(=O)c1cnn([C@@H](C)C(=O)NCCCNC(=O)c2ccc(-c3c4nc(c(-c5cccc(S(=O)(=O)[O-])c5F)c5ccc([nH]5)c(-c5cccc(S(=O)(=O)[O-])c5F)c5nc(c(-c6cccc(S(=O)(=O)[O-])c6F)c6ccc3[nH]6)C=C5)C=C4)cc2)c1
REMARK SMILES IDX 26 1 25 2 23 3 24 4 21 6 22 7 20 8 17 9 18 10 95 11 19 12
REMARK SMILES IDX 15 13 16 14 14 15 1 16 2 17 3 18 6 19 4 20 5 21 7 22 13 23
REMARK SMILES IDX 12 24 8 25 9 26 10 27 11 28 27 29 28 30 29 31 30 32 31 34
REMARK SMILES IDX 32 35 33 36 94 37 34 38 93 39 35 40 36 41 37 42 87 43 38 44
REMARK SMILES IDX 92 45 86 46 88 47 39 48 91 49 85 50 84 51 40 53 72 54 52 55
REMARK SMILES IDX 71 56 53 57 56 58 70 59 89 60 54 61 55 62 69 64 90 65 57 66
REMARK SMILES IDX 41 67 42 68 50 69 43 70 45 71 51 72 44 73 46 74 47 75 48 76
REMARK SMILES IDX 49 77 73 78 74 79 82 80 75 81 77 82 83 83 76 84 78 85 79 86
REMARK SMILES IDX 80 87 81 88 58 89 59 90 67 91 60 92 62 93 68 94 61 95 63 96
REMARK SMILES IDX 64 97 65 98 66 99
REMARK H PARENT 25 5 29 33 88 52 56 63
REMARK Flexibility Score: inf
ROOT
ATOM      1  C   UNL     1       2.545 -11.678  -0.904  1.00  0.00     0.117 C 
ENDROOT
BRANCH   1   2
ATOM      2  N   UNL     1       3.135 -11.563   0.421  1.00  0.00    -0.354 N 
ATOM      3  C   UNL     1       2.702 -10.950   1.558  1.00  0.00     0.244 C 
ATOM      4  O   UNL     1       3.418 -11.076   2.558  1.00  0.00    -0.273 OA
ATOM      5  H   UNL     1       4.007 -12.011   0.513  1.00  0.00     0.163 HD
BRANCH   3   6
ATOM      6  C   UNL     1       1.391 -10.182   1.687  1.00  0.00     0.193 C 
ATOM      7  C   UNL     1       0.136 -11.032   1.517  1.00  0.00     0.044 C 
BRANCH   6   8
ATOM      8  N   UNL     1       1.384  -8.943   0.918  1.00  0.00    -0.260 N 
ATOM      9  C   UNL     1       1.401  -6.817   0.315  1.00  0.00     0.078 A 
ATOM     10  C   UNL     1       1.565  -7.697  -0.769  1.00  0.00     0.149 A 
ATOM     11  C   UNL     1       1.347  -7.664   1.410  1.00  0.00     0.123 A 
ATOM     12  N   UNL     1       1.315  -8.959  -0.426  1.00  0.00    -0.180 NA
BRANCH   9  13
ATOM     13  C   UNL     1       1.383  -5.379   0.341  1.00  0.00     0.262 C 
ATOM     14  O   UNL     1       1.985  -4.705   1.167  1.00  0.00    -0.269 OA
BRANCH  13  15
ATOM     15  N   UNL     1       0.462  -4.771  -0.623  1.00  0.00    -0.293 N 
ATOM     16  C   UNL     1       0.918   0.214  -0.157  1.00  0.00     0.069 C 
ATOM     17  C   UNL     1       0.544  -1.163  -0.558  1.00  0.00     0.062 A 
ATOM     18  C   UNL     1       1.134  -2.379  -0.125  1.00  0.00     0.072 A 
ATOM     19  N   UNL     1      -0.470  -1.379  -1.406  1.00  0.00    -0.176 NA
ATOM     20  C   UNL     1       0.385  -3.373  -0.709  1.00  0.00     0.134 A 
ATOM     21  N   UNL     1      -0.551  -2.713  -1.461  1.00  0.00    -0.237 N 
ATOM     22  C   UNL     1      -1.542  -3.369  -2.284  1.00  0.00     0.216 C 
ATOM     23  C   UNL     1      -0.600  -5.546  -1.319  1.00  0.00     0.130 C 
ATOM     24  C   UNL     1      -1.112  -4.813  -2.563  1.00  0.00     0.059 C 
BRANCH  22  25
ATOM     25  C   UNL     1      -2.903  -3.302  -1.627  1.00  0.00     0.410 C 
ATOM     26  F   UNL     1      -3.817  -3.932  -2.409  1.00  0.00    -0.169 F 
ATOM     27  F   UNL     1      -2.915  -3.936  -0.433  1.00  0.00    -0.169 F 
ATOM     28  F   UNL     1      -3.350  -2.046  -1.442  1.00  0.00    -0.169 F 
ENDBRANCH  22  25
ENDBRANCH  13  15
ENDBRANCH   9  13
ENDBRANCH   6   8
ENDBRANCH   3   6
ENDBRANCH   1   2
BRANCH   1  29
ATOM     29  C   UNL     1       3.166 -10.733  -1.938  1.00  0.00     0.042 C 
BRANCH  29  30
ATOM     30  C   UNL     1       4.425 -11.280  -2.579  1.00  0.00     0.118 C 
BRANCH  30  31
ATOM     31  N   UNL     1       4.168 -12.431  -3.442  1.00  0.00    -0.352 N 
ATOM     32  C   UNL     1       5.104 -13.232  -4.066  1.00  0.00     0.251 C 
ATOM     33  H   UNL     1       3.223 -12.662  -3.595  1.00  0.00     0.163 HD
ATOM     34  O   UNL     1       4.784 -13.977  -4.984  1.00  0.00    -0.269 OA
BRANCH  32  35
ATOM     35  C   UNL     1       6.504 -13.128  -3.622  1.00  0.00     0.039 A 
ATOM     36  C   UNL     1       7.514 -12.852  -4.544  1.00  0.00     0.014 A 
ATOM     37  C   UNL     1       6.766 -13.162  -2.255  1.00  0.00     0.014 A 
ATOM     38  C   UNL     1       8.776 -12.495  -4.072  1.00  0.00     0.010 A 
ATOM     39  C   UNL     1       7.972 -12.678  -1.794  1.00  0.00     0.010 A 
ATOM     40  C   UNL     1       8.996 -12.364  -2.691  1.00  0.00    -0.014 A 
BRANCH  40  41
ATOM     41  C   UNL     1      10.240 -11.754  -2.202  1.00  0.00     0.031 A 
ATOM     42  C   UNL     1      10.612 -10.447  -2.822  1.00  0.00     0.074 A 
ATOM     43  C   UNL     1      10.899 -12.174  -1.099  1.00  0.00     0.049 A 
ATOM     44  N   UNL     1      11.687 -10.157  -3.482  1.00  0.00    -0.248 NA
ATOM     45  C   UNL     1       9.632  -9.350  -2.773  1.00  0.00     0.031 C 
ATOM     46  C   UNL     1      10.485 -13.241  -0.179  1.00  0.00     0.029 A 
ATOM     47  N   UNL     1      11.985 -11.632  -0.468  1.00  0.00    -0.354 N 
ATOM     48  C   UNL     1      11.625  -8.782  -3.719  1.00  0.00     0.074 A 
ATOM     49  C   UNL     1      10.273  -8.384  -3.434  1.00  0.00     0.031 C 
ATOM     50  C   UNL     1      11.106 -13.074   1.006  1.00  0.00     0.029 A 
ATOM     51  C   UNL     1      12.104 -12.034   0.857  1.00  0.00     0.049 A 
ATOM     52  H   UNL     1      12.618 -11.019  -0.907  1.00  0.00     0.167 HD
ATOM     53  C   UNL     1      12.759  -8.039  -3.861  1.00  0.00     0.034 A 
ATOM     54  C   UNL     1      12.950 -11.562   1.798  1.00  0.00     0.034 A 
ATOM     55  C   UNL     1      13.915  -8.875  -4.050  1.00  0.00     0.049 A 
ATOM     56  C   UNL     1      14.110 -10.957   1.115  1.00  0.00     0.074 A 
ATOM     57  C   UNL     1      14.454  -9.659  -5.044  1.00  0.00     0.029 A 
ATOM     58  N   UNL     1      14.567  -9.180  -2.886  1.00  0.00    -0.354 N 
ATOM     59  N   UNL     1      14.953 -11.644   0.394  1.00  0.00    -0.248 NA
ATOM     60  C   UNL     1      14.224  -9.509   0.999  1.00  0.00     0.031 C 
ATOM     61  C   UNL     1      15.312 -10.592  -4.387  1.00  0.00     0.029 A 
ATOM     62  C   UNL     1      15.271 -10.344  -3.016  1.00  0.00     0.049 A 
ATOM     63  H   UNL     1      14.533  -8.635  -2.067  1.00  0.00     0.167 HD
ATOM     64  C   UNL     1      15.368 -10.752  -0.575  1.00  0.00     0.074 A 
ATOM     65  C   UNL     1      15.068  -9.435  -0.034  1.00  0.00     0.031 C 
ATOM     66  C   UNL     1      15.579 -11.161  -1.859  1.00  0.00     0.034 A 
BRANCH  53  67
ATOM     67  C   UNL     1      12.957  -6.607  -3.378  1.00  0.00     0.023 A 
ATOM     68  C   UNL     1      14.208  -6.004  -3.667  1.00  0.00     0.012 A 
ATOM     69  C   UNL     1      12.155  -5.959  -2.413  1.00  0.00     0.148 A 
ATOM     70  C   UNL     1      14.664  -4.872  -2.981  1.00  0.00     0.002 A 
ATOM     71  C   UNL     1      12.582  -4.790  -1.786  1.00  0.00     0.091 A 
ATOM     72  F   UNL     1      11.028  -6.529  -1.980  1.00  0.00    -0.205 F 
ATOM     73  C   UNL     1      13.849  -4.261  -2.039  1.00  0.00     0.022 A 
BRANCH  71  74
ATOM     74  S   UNL     1      11.536  -3.943  -0.594  1.00  0.00     0.127 S 
ATOM     75  O   UNL     1      12.100  -4.404   0.670  1.00  0.00    -0.237 OA
ATOM     76  O   UNL     1      11.787  -2.537  -0.911  1.00  0.00    -0.237 OA
ATOM     77  O   UNL     1      10.179  -4.384  -0.897  1.00  0.00    -0.744 OA
ENDBRANCH  71  74
ENDBRANCH  53  67
BRANCH  54  78
ATOM     78  C   UNL     1      12.798 -11.557   3.267  1.00  0.00     0.023 A 
ATOM     79  C   UNL     1      13.932 -11.625   4.094  1.00  0.00     0.012 A 
ATOM     80  C   UNL     1      11.548 -11.261   3.857  1.00  0.00     0.148 A 
ATOM     81  C   UNL     1      13.832 -11.380   5.468  1.00  0.00     0.002 A 
ATOM     82  C   UNL     1      11.452 -11.022   5.223  1.00  0.00     0.091 A 
ATOM     83  F   UNL     1      10.475 -11.142   3.062  1.00  0.00    -0.205 F 
ATOM     84  C   UNL     1      12.596 -11.070   6.031  1.00  0.00     0.022 A 
BRANCH  82  85
ATOM     85  S   UNL     1       9.897 -10.603   6.022  1.00  0.00     0.127 S 
ATOM     86  O   UNL     1       9.871 -11.540   7.146  1.00  0.00    -0.237 OA
ATOM     87  O   UNL     1      10.114  -9.207   6.394  1.00  0.00    -0.237 OA
ATOM     88  O   UNL     1       8.861 -10.836   5.024  1.00  0.00    -0.744 OA
ENDBRANCH  82  85
ENDBRANCH  54  78
BRANCH  66  89
ATOM     89  C   UNL     1      15.878 -12.614  -2.097  1.00  0.00     0.023 A 
ATOM     90  C   UNL     1      14.939 -13.631  -1.836  1.00  0.00     0.012 A 
ATOM     91  C   UNL     1      17.097 -12.954  -2.709  1.00  0.00     0.148 A 
ATOM     92  C   UNL     1      15.221 -14.962  -2.151  1.00  0.00     0.002 A 
ATOM     93  C   UNL     1      17.354 -14.272  -3.065  1.00  0.00     0.091 A 
ATOM     94  F   UNL     1      17.983 -11.975  -2.949  1.00  0.00    -0.205 F 
ATOM     95  C   UNL     1      16.423 -15.281  -2.777  1.00  0.00     0.022 A 
BRANCH  93  96
ATOM     96  S   UNL     1      18.826 -14.718  -3.989  1.00  0.00     0.127 S 
ATOM     97  O   UNL     1      19.690 -15.264  -2.945  1.00  0.00    -0.237 OA
ATOM     98  O   UNL     1      18.315 -15.706  -4.941  1.00  0.00    -0.237 OA
ATOM     99  O   UNL     1      19.289 -13.483  -4.611  1.00  0.00    -0.744 OA
ENDBRANCH  93  96
ENDBRANCH  66  89
ENDBRANCH  40  41
ENDBRANCH  32  35
ENDBRANCH  30  31
ENDBRANCH  29  30
ENDBRANCH   1  29
TORSDOF 17
