REMARK SMILES O=C(NCCCNC(=O)[C@@H](CCO)NC(=O)c1c(F)ccc([N+](=O)[O-])c1F)c1ccc(-c2c3nc(c(-c4cccc(S(=O)(=O)[O-])c4F)c4ccc([nH]4)c(-c4cccc(S(=O)(=O)[O-])c4F)c4nc(c(-c5cccc(S(=O)(=O)[O-])c5F)c5ccc2[nH]5)C=C4)C=C3)cc1
REMARK SMILES IDX 5 1 4 2 3 3 1 4 2 5 28 7 29 8 90 9 30 10 89 11 31 12 32 13
REMARK SMILES IDX 33 14 83 15 34 16 88 17 82 18 84 19 35 20 87 21 81 22 80 23
REMARK SMILES IDX 36 25 68 26 48 27 67 28 49 29 52 30 66 31 85 32 50 33 51 34
REMARK SMILES IDX 65 36 86 37 53 38 37 39 38 40 46 41 39 42 41 43 47 44 40 45
REMARK SMILES IDX 42 46 43 47 44 48 45 49 69 50 70 51 78 52 71 53 73 54 79 55
REMARK SMILES IDX 72 56 74 57 75 58 76 59 77 60 54 61 55 62 63 63 56 64 58 65
REMARK SMILES IDX 64 66 57 67 59 68 60 69 61 70 62 71 6 72 7 73 8 74 9 76
REMARK SMILES IDX 10 77 11 78 12 79 13 80 14 82 15 83 16 85 17 86 18 87 26 88
REMARK SMILES IDX 19 89 20 90 22 91 27 92 21 93 23 94 24 95 25 96
REMARK H PARENT 3 6 84 24 52 35 7 75 13 81 14 84
REMARK Flexibility Score: inf
ROOT
ATOM      1  C   UNL     1       4.460  -1.331   1.926  1.00  0.00     0.042 C 
ENDROOT
BRANCH   1   2
ATOM      2  C   UNL     1       4.135  -1.446   0.443  1.00  0.00     0.118 C 
BRANCH   2   3
ATOM      3  N   UNL     1       2.722  -1.256   0.172  1.00  0.00    -0.352 N 
ATOM      4  O   UNL     1       0.828  -0.137  -0.250  1.00  0.00    -0.269 OA
ATOM      5  C   UNL     1       2.053  -0.167  -0.334  1.00  0.00     0.251 C 
ATOM      6  H   UNL     1       2.152  -2.030   0.384  1.00  0.00     0.163 HD
BRANCH   5   7
ATOM      7  C   UNL     1       2.782   0.965  -0.956  1.00  0.00     0.039 A 
ATOM      8  C   UNL     1       3.885   0.760  -1.789  1.00  0.00     0.014 A 
ATOM      9  C   UNL     1       2.301   2.263  -0.758  1.00  0.00     0.014 A 
ATOM     10  C   UNL     1       4.582   1.847  -2.313  1.00  0.00     0.010 A 
ATOM     11  C   UNL     1       2.945   3.348  -1.362  1.00  0.00     0.010 A 
ATOM     12  C   UNL     1       4.105   3.151  -2.127  1.00  0.00    -0.014 A 
BRANCH  12  13
ATOM     13  C   UNL     1       4.764   4.298  -2.804  1.00  0.00     0.031 A 
ATOM     14  C   UNL     1       5.358   5.427  -2.010  1.00  0.00     0.074 A 
ATOM     15  C   UNL     1       4.762   4.348  -4.151  1.00  0.00     0.049 A 
ATOM     16  N   UNL     1       5.875   6.550  -2.435  1.00  0.00    -0.248 NA
ATOM     17  C   UNL     1       5.360   5.282  -0.546  1.00  0.00     0.031 C 
ATOM     18  C   UNL     1       4.181   3.329  -5.030  1.00  0.00     0.029 A 
ATOM     19  N   UNL     1       5.232   5.303  -5.018  1.00  0.00    -0.354 N 
ATOM     20  C   UNL     1       6.216   7.270  -1.296  1.00  0.00     0.074 A 
ATOM     21  C   UNL     1       5.846   6.454  -0.159  1.00  0.00     0.031 C 
ATOM     22  C   UNL     1       4.323   3.714  -6.305  1.00  0.00     0.029 A 
ATOM     23  C   UNL     1       4.947   5.031  -6.335  1.00  0.00     0.049 A 
ATOM     24  H   UNL     1       5.726   6.103  -4.724  1.00  0.00     0.167 HD
ATOM     25  C   UNL     1       6.790   8.494  -1.207  1.00  0.00     0.034 A 
ATOM     26  C   UNL     1       5.126   5.773  -7.445  1.00  0.00     0.034 A 
ATOM     27  C   UNL     1       7.179   9.284  -2.345  1.00  0.00     0.049 A 
ATOM     28  C   UNL     1       5.776   7.120  -7.324  1.00  0.00     0.074 A 
ATOM     29  C   UNL     1       7.831  10.505  -2.362  1.00  0.00     0.029 A 
ATOM     30  N   UNL     1       6.941   8.941  -3.668  1.00  0.00    -0.354 N 
ATOM     31  N   UNL     1       6.200   7.731  -6.245  1.00  0.00    -0.248 NA
ATOM     32  C   UNL     1       6.001   7.867  -8.568  1.00  0.00     0.031 C 
ATOM     33  C   UNL     1       7.963  10.912  -3.694  1.00  0.00     0.029 A 
ATOM     34  C   UNL     1       7.423   9.929  -4.509  1.00  0.00     0.049 A 
ATOM     35  H   UNL     1       6.495   8.115  -3.965  1.00  0.00     0.167 HD
ATOM     36  C   UNL     1       6.774   8.919  -6.681  1.00  0.00     0.074 A 
ATOM     37  C   UNL     1       6.651   8.935  -8.125  1.00  0.00     0.031 C 
ATOM     38  C   UNL     1       7.345   9.906  -5.949  1.00  0.00     0.034 A 
BRANCH  25  39
ATOM     39  C   UNL     1       7.051   9.046   0.171  1.00  0.00     0.023 A 
ATOM     40  C   UNL     1       8.070   8.487   0.969  1.00  0.00     0.012 A 
ATOM     41  C   UNL     1       6.319  10.146   0.661  1.00  0.00     0.148 A 
ATOM     42  C   UNL     1       8.327   8.984   2.247  1.00  0.00     0.002 A 
ATOM     43  C   UNL     1       6.610  10.664   1.919  1.00  0.00     0.091 A 
ATOM     44  F   UNL     1       5.339  10.655  -0.100  1.00  0.00    -0.205 F 
ATOM     45  C   UNL     1       7.604  10.076   2.718  1.00  0.00     0.022 A 
BRANCH  43  46
ATOM     46  S   UNL     1       5.785  12.120   2.573  1.00  0.00     0.127 S 
ATOM     47  O   UNL     1       4.847  11.524   3.524  1.00  0.00    -0.237 OA
ATOM     48  O   UNL     1       6.891  12.855   3.189  1.00  0.00    -0.237 OA
ATOM     49  O   UNL     1       5.185  12.785   1.425  1.00  0.00    -0.744 OA
ENDBRANCH  43  46
ENDBRANCH  25  39
BRANCH  26  50
ATOM     50  C   UNL     1       4.707   5.221  -8.764  1.00  0.00     0.023 A 
ATOM     51  C   UNL     1       5.687   4.799  -9.681  1.00  0.00     0.012 A 
ATOM     52  C   UNL     1       3.345   5.029  -9.072  1.00  0.00     0.148 A 
ATOM     53  C   UNL     1       5.319   4.208 -10.890  1.00  0.00     0.002 A 
ATOM     54  C   UNL     1       2.987   4.387 -10.251  1.00  0.00     0.091 A 
ATOM     55  F   UNL     1       2.430   5.443  -8.184  1.00  0.00    -0.205 F 
ATOM     56  C   UNL     1       3.971   3.989 -11.168  1.00  0.00     0.022 A 
BRANCH  54  57
ATOM     57  S   UNL     1       1.290   3.933 -10.628  1.00  0.00     0.127 S 
ATOM     58  O   UNL     1       1.002   4.787 -11.778  1.00  0.00    -0.237 OA
ATOM     59  O   UNL     1       1.424   2.509 -10.936  1.00  0.00    -0.237 OA
ATOM     60  O   UNL     1       0.526   4.220  -9.422  1.00  0.00    -0.744 OA
ENDBRANCH  54  57
ENDBRANCH  26  50
BRANCH  38  61
ATOM     61  C   UNL     1       7.934  11.077  -6.689  1.00  0.00     0.023 A 
ATOM     62  C   UNL     1       7.091  12.054  -7.250  1.00  0.00     0.012 A 
ATOM     63  C   UNL     1       9.331  11.256  -6.734  1.00  0.00     0.148 A 
ATOM     64  C   UNL     1       7.630  13.185  -7.863  1.00  0.00     0.002 A 
ATOM     65  C   UNL     1       9.860  12.408  -7.302  1.00  0.00     0.091 A 
ATOM     66  F   UNL     1      10.115  10.302  -6.211  1.00  0.00    -0.205 F 
ATOM     67  C   UNL     1       9.011  13.369  -7.876  1.00  0.00     0.022 A 
BRANCH  65  68
ATOM     68  S   UNL     1      11.618  12.776  -7.276  1.00  0.00     0.127 S 
ATOM     69  O   UNL     1      11.975  12.626  -8.686  1.00  0.00    -0.237 OA
ATOM     70  O   UNL     1      11.638  14.154  -6.784  1.00  0.00    -0.237 OA
ATOM     71  O   UNL     1      12.220  11.803  -6.374  1.00  0.00    -0.744 OA
ENDBRANCH  65  68
ENDBRANCH  38  61
ENDBRANCH  12  13
ENDBRANCH   5   7
ENDBRANCH   2   3
ENDBRANCH   1   2
BRANCH   1  72
ATOM     72  C   UNL     1       4.027  -2.539   2.754  1.00  0.00     0.117 C 
BRANCH  72  73
ATOM     73  N   UNL     1       4.872  -3.690   2.487  1.00  0.00    -0.354 N 
ATOM     74  C   UNL     1       5.851  -4.301   3.197  1.00  0.00     0.242 C 
ATOM     75  H   UNL     1       4.700  -4.110   1.613  1.00  0.00     0.163 HD
ATOM     76  O   UNL     1       6.509  -5.157   2.589  1.00  0.00    -0.273 OA
BRANCH  74  77
ATOM     77  C   UNL     1       6.246  -3.949   4.650  1.00  0.00     0.173 C 
BRANCH  77  78
ATOM     78  C   UNL     1       7.198  -2.749   4.791  1.00  0.00     0.063 C 
BRANCH  78  79
ATOM     79  C   UNL     1       6.628  -1.339   4.774  1.00  0.00     0.158 C 
BRANCH  79  80
ATOM     80  O   UNL     1       5.414  -1.226   5.494  1.00  0.00    -0.396 OA
ATOM     81  H   UNL     1       4.743  -1.797   5.088  1.00  0.00     0.210 HD
ENDBRANCH  79  80
ENDBRANCH  78  79
ENDBRANCH  77  78
BRANCH  77  82
ATOM     82  N   UNL     1       5.153  -3.953   5.624  1.00  0.00    -0.340 N 
ATOM     83  C   UNL     1       4.896  -4.794   6.678  1.00  0.00     0.258 C 
ATOM     84  H   UNL     1       4.493  -3.232   5.503  1.00  0.00     0.164 HD
ATOM     85  O   UNL     1       3.873  -4.654   7.340  1.00  0.00    -0.269 OA
BRANCH  83  86
ATOM     86  C   UNL     1       5.837  -5.856   7.066  1.00  0.00     0.118 A 
ATOM     87  C   UNL     1       7.157  -5.556   7.403  1.00  0.00     0.139 A 
ATOM     88  C   UNL     1       5.374  -7.166   7.216  1.00  0.00     0.216 A 
ATOM     89  F   UNL     1       7.600  -4.294   7.394  1.00  0.00    -0.206 F 
ATOM     90  C   UNL     1       8.048  -6.554   7.788  1.00  0.00     0.047 A 
ATOM     91  C   UNL     1       6.250  -8.165   7.654  1.00  0.00     0.305 A 
ATOM     92  F   UNL     1       4.097  -7.447   6.920  1.00  0.00    -0.198 F 
ATOM     93  C   UNL     1       7.599  -7.866   7.913  1.00  0.00     0.092 A 
BRANCH  91  94
ATOM     94  N   UNL     1       5.775  -9.531   7.880  1.00  0.00     0.065 N 
ATOM     95  O   UNL     1       4.560  -9.752   7.862  1.00  0.00    -0.258 OA
ATOM     96  O   UNL     1       6.635 -10.395   8.111  1.00  0.00    -0.258 OA
ENDBRANCH  91  94
ENDBRANCH  83  86
ENDBRANCH  77  82
ENDBRANCH  74  77
ENDBRANCH  72  73
ENDBRANCH   1  72
TORSDOF 19
