REMARK SMILES Cc1n[nH]c2c1[C@@]1(C(=O)N([C@@H](C)C(=O)NCCCNC(=O)c3ccc(-c4c5nc(c(-c6cccc(S(=O)(=O)[O-])c6F)c6ccc([nH]6)c(-c6cccc(S(=O)(=O)[O-])c6F)c6nc(c(-c7cccc(S(=O)(=O)[O-])c7F)c7ccc4[nH]7)C=C6)C=C5)cc3)c3ccccc31)C(C#N)=C(N)O2
REMARK SMILES IDX 17 1 16 2 15 3 13 4 14 5 11 7 12 8 10 9 1 10 2 11 3 12 6 13
REMARK SMILES IDX 4 14 5 15 7 16 96 18 8 19 90 20 91 21 94 22 9 23 85 24 89 25
REMARK SMILES IDX 86 26 88 27 87 28 92 29 93 30 95 31 18 34 19 35 20 36 21 38
REMARK SMILES IDX 22 39 23 40 84 41 24 42 83 43 25 44 26 45 27 46 77 47 28 48
REMARK SMILES IDX 82 49 76 50 78 51 29 52 81 53 75 54 74 55 30 57 62 58 42 59
REMARK SMILES IDX 61 60 43 61 46 62 60 63 79 64 44 65 45 66 59 68 80 69 47 70
REMARK SMILES IDX 31 71 32 72 40 73 33 74 35 75 41 76 34 77 36 78 37 79 38 80
REMARK SMILES IDX 39 81 63 82 64 83 72 84 65 85 67 86 73 87 66 88 68 89 69 90
REMARK SMILES IDX 70 91 71 92 48 93 49 94 57 95 50 96 52 97 58 98 51 99 53 100
REMARK SMILES IDX 54 101 55 102 56 103
REMARK H PARENT 15 6 4 17 95 32 95 33 19 37 78 56 46 67
REMARK Flexibility Score: inf
ROOT
ATOM      1  C   UNL     1       3.972  -2.362  -4.255  1.00  0.00     0.042 C 
ENDROOT
BRANCH   1   2
ATOM      2  C   UNL     1       4.689  -1.019  -4.077  1.00  0.00     0.117 C 
BRANCH   2   3
ATOM      3  N   UNL     1       4.188   0.020  -4.968  1.00  0.00    -0.354 N 
ATOM      4  C   UNL     1       3.386   1.104  -4.795  1.00  0.00     0.242 C 
ATOM      5  O   UNL     1       3.233   1.816  -5.800  1.00  0.00    -0.273 OA
ATOM      6  H   UNL     1       4.497  -0.087  -5.896  1.00  0.00     0.163 HD
BRANCH   4   7
ATOM      7  C   UNL     1       2.630   1.485  -3.496  1.00  0.00     0.176 C 
ATOM      8  C   UNL     1       3.490   1.718  -2.260  1.00  0.00     0.042 C 
BRANCH   7   9
ATOM      9  N   UNL     1       1.456   0.651  -3.269  1.00  0.00    -0.298 N 
ATOM     10  C   UNL     1       0.449  -0.027   0.359  1.00  0.00     0.069 C 
ATOM     11  C   UNL     1      -0.139  -1.296  -0.137  1.00  0.00     0.068 A 
ATOM     12  N   UNL     1      -0.548  -2.223   0.742  1.00  0.00    -0.177 NA
ATOM     13  C   UNL     1      -0.277  -1.755  -1.471  1.00  0.00     0.063 A 
ATOM     14  N   UNL     1      -0.860  -3.297  -0.015  1.00  0.00    -0.246 N 
ATOM     15  C   UNL     1      -0.696  -3.053  -1.343  1.00  0.00     0.222 A 
ATOM     16  C   UNL     1       0.093  -1.232  -2.816  1.00  0.00     0.149 C 
ATOM     17  H   UNL     1      -1.169  -4.157   0.352  1.00  0.00     0.193 HD
ATOM     18  O   UNL     1      -0.837  -3.959  -2.301  1.00  0.00    -0.422 OA
ATOM     19  C   UNL     1       1.506  -0.641  -2.751  1.00  0.00     0.248 C 
ATOM     20  C   UNL     1      -0.740  -0.012  -3.099  1.00  0.00     0.002 A 
ATOM     21  C   UNL     1      -0.017  -2.314  -3.892  1.00  0.00     0.114 C 
ATOM     22  C   UNL     1      -0.462  -3.572  -3.600  1.00  0.00     0.208 C 
ATOM     23  O   UNL     1       2.486  -1.191  -2.256  1.00  0.00    -0.273 OA
ATOM     24  C   UNL     1       0.113   1.057  -3.417  1.00  0.00     0.050 A 
ATOM     25  C   UNL     1      -2.121   0.137  -3.096  1.00  0.00     0.008 A 
ATOM     26  C   UNL     1      -0.404   2.297  -3.743  1.00  0.00     0.027 A 
ATOM     27  C   UNL     1      -2.646   1.391  -3.401  1.00  0.00     0.001 A 
ATOM     28  C   UNL     1      -1.796   2.460  -3.724  1.00  0.00     0.002 A 
BRANCH  21  29
ATOM     29  C   UNL     1       0.328  -2.022  -5.343  1.00  0.00     0.102 C 
ATOM     30  N   UNL     1       0.615  -1.779  -6.546  1.00  0.00    -0.193 NA
ENDBRANCH  21  29
BRANCH  22  31
ATOM     31  N   UNL     1      -0.607  -4.589  -4.497  1.00  0.00    -0.369 N 
ATOM     32  H   UNL     1      -0.377  -4.447  -5.444  1.00  0.00     0.159 HD
ATOM     33  H   UNL     1      -0.941  -5.466  -4.198  1.00  0.00     0.159 HD
ENDBRANCH  22  31
ENDBRANCH   7   9
ENDBRANCH   4   7
ENDBRANCH   2   3
ENDBRANCH   1   2
BRANCH   1  34
ATOM     34  C   UNL     1       4.409  -3.185  -5.457  1.00  0.00     0.118 C 
BRANCH  34  35
ATOM     35  N   UNL     1       5.765  -3.673  -5.351  1.00  0.00    -0.352 N 
ATOM     36  C   UNL     1       6.378  -4.683  -4.660  1.00  0.00     0.251 C 
ATOM     37  H   UNL     1       6.395  -3.159  -5.905  1.00  0.00     0.163 HD
ATOM     38  O   UNL     1       7.591  -4.787  -4.861  1.00  0.00    -0.269 OA
BRANCH  36  39
ATOM     39  C   UNL     1       5.721  -5.624  -3.701  1.00  0.00     0.039 A 
ATOM     40  C   UNL     1       4.352  -5.726  -3.443  1.00  0.00     0.014 A 
ATOM     41  C   UNL     1       6.587  -6.500  -3.017  1.00  0.00     0.014 A 
ATOM     42  C   UNL     1       3.868  -6.655  -2.515  1.00  0.00     0.010 A 
ATOM     43  C   UNL     1       6.107  -7.441  -2.105  1.00  0.00     0.010 A 
ATOM     44  C   UNL     1       4.742  -7.513  -1.839  1.00  0.00    -0.014 A 
BRANCH  44  45
ATOM     45  C   UNL     1       4.174  -8.567  -0.989  1.00  0.00     0.031 A 
ATOM     46  C   UNL     1       3.329  -9.575  -1.694  1.00  0.00     0.074 A 
ATOM     47  C   UNL     1       4.509  -8.787   0.301  1.00  0.00     0.049 A 
ATOM     48  N   UNL     1       2.081  -9.860  -1.495  1.00  0.00    -0.248 NA
ATOM     49  C   UNL     1       3.950 -10.320  -2.801  1.00  0.00     0.031 C 
ATOM     50  C   UNL     1       5.579  -8.128   1.050  1.00  0.00     0.029 A 
ATOM     51  N   UNL     1       4.059  -9.748   1.172  1.00  0.00    -0.354 N 
ATOM     52  C   UNL     1       1.826 -10.972  -2.297  1.00  0.00     0.074 A 
ATOM     53  C   UNL     1       2.953 -11.119  -3.182  1.00  0.00     0.031 C 
ATOM     54  C   UNL     1       5.861  -8.858   2.151  1.00  0.00     0.029 A 
ATOM     55  C   UNL     1       4.907  -9.949   2.257  1.00  0.00     0.049 A 
ATOM     56  H   UNL     1       3.220 -10.247   1.042  1.00  0.00     0.167 HD
ATOM     57  C   UNL     1       0.836 -11.860  -2.015  1.00  0.00     0.034 A 
ATOM     58  C   UNL     1       4.873 -10.969   3.148  1.00  0.00     0.034 A 
ATOM     59  C   UNL     1      -0.069 -11.398  -1.008  1.00  0.00     0.049 A 
ATOM     60  C   UNL     1       3.501 -11.530   3.159  1.00  0.00     0.074 A 
ATOM     61  C   UNL     1      -1.117 -10.515  -0.903  1.00  0.00     0.029 A 
ATOM     62  N   UNL     1       0.283 -11.779   0.256  1.00  0.00    -0.354 N 
ATOM     63  N   UNL     1       2.446 -10.888   3.581  1.00  0.00    -0.248 NA
ATOM     64  C   UNL     1       3.238 -12.814   2.516  1.00  0.00     0.031 C 
ATOM     65  C   UNL     1      -1.260 -10.238   0.488  1.00  0.00     0.029 A 
ATOM     66  C   UNL     1      -0.281 -10.948   1.182  1.00  0.00     0.049 A 
ATOM     67  H   UNL     1       0.863 -12.545   0.470  1.00  0.00     0.167 HD
ATOM     68  C   UNL     1       1.396 -11.484   2.911  1.00  0.00     0.074 A 
ATOM     69  C   UNL     1       1.908 -12.759   2.438  1.00  0.00     0.031 C 
ATOM     70  C   UNL     1       0.331 -10.754   2.481  1.00  0.00     0.034 A 
BRANCH  57  71
ATOM     71  C   UNL     1       0.915 -13.339  -2.310  1.00  0.00     0.023 A 
ATOM     72  C   UNL     1      -0.281 -14.088  -2.293  1.00  0.00     0.012 A 
ATOM     73  C   UNL     1       2.129 -14.059  -2.292  1.00  0.00     0.148 A 
ATOM     74  C   UNL     1      -0.267 -15.488  -2.263  1.00  0.00     0.002 A 
ATOM     75  C   UNL     1       2.138 -15.448  -2.345  1.00  0.00     0.091 A 
ATOM     76  F   UNL     1       3.280 -13.410  -2.072  1.00  0.00    -0.205 F 
ATOM     77  C   UNL     1       0.944 -16.170  -2.309  1.00  0.00     0.022 A 
BRANCH  75  78
ATOM     78  S   UNL     1       3.683 -16.353  -2.462  1.00  0.00     0.127 S 
ATOM     79  O   UNL     1       3.910 -16.729  -1.071  1.00  0.00    -0.237 OA
ATOM     80  O   UNL     1       3.324 -17.456  -3.355  1.00  0.00    -0.237 OA
ATOM     81  O   UNL     1       4.623 -15.402  -3.044  1.00  0.00    -0.744 OA
ENDBRANCH  75  78
ENDBRANCH  57  71
BRANCH  58  82
ATOM     82  C   UNL     1       5.962 -11.600   3.943  1.00  0.00     0.023 A 
ATOM     83  C   UNL     1       5.618 -12.449   5.018  1.00  0.00     0.012 A 
ATOM     84  C   UNL     1       7.310 -11.596   3.520  1.00  0.00     0.148 A 
ATOM     85  C   UNL     1       6.558 -13.303   5.606  1.00  0.00     0.002 A 
ATOM     86  C   UNL     1       8.250 -12.425   4.131  1.00  0.00     0.091 A 
ATOM     87  F   UNL     1       7.663 -10.858   2.459  1.00  0.00    -0.205 F 
ATOM     88  C   UNL     1       7.874 -13.295   5.160  1.00  0.00     0.022 A 
BRANCH  86  89
ATOM     89  S   UNL     1       9.974 -12.423   3.615  1.00  0.00     0.127 S 
ATOM     90  O   UNL     1      10.680 -12.689   4.870  1.00  0.00    -0.237 OA
ATOM     91  O   UNL     1      10.009 -13.517   2.651  1.00  0.00    -0.237 OA
ATOM     92  O   UNL     1      10.206 -11.085   3.082  1.00  0.00    -0.744 OA
ENDBRANCH  86  89
ENDBRANCH  58  82
BRANCH  70  93
ATOM     93  C   UNL     1      -0.045  -9.514   3.228  1.00  0.00     0.023 A 
ATOM     94  C   UNL     1       0.748  -8.354   3.213  1.00  0.00     0.012 A 
ATOM     95  C   UNL     1      -1.326  -9.472   3.809  1.00  0.00     0.148 A 
ATOM     96  C   UNL     1       0.269  -7.166   3.770  1.00  0.00     0.002 A 
ATOM     97  C   UNL     1      -1.817  -8.278   4.314  1.00  0.00     0.091 A 
ATOM     98  F   UNL     1      -2.060 -10.595   3.805  1.00  0.00    -0.205 F 
ATOM     99  C   UNL     1      -1.019  -7.123   4.306  1.00  0.00     0.022 A 
BRANCH  97 100
ATOM    100  S   UNL     1      -3.513  -8.113   4.877  1.00  0.00     0.127 S 
ATOM    101  O   UNL     1      -3.340  -7.820   6.298  1.00  0.00    -0.237 OA
ATOM    102  O   UNL     1      -3.992  -6.988   4.072  1.00  0.00    -0.237 OA
ATOM    103  O   UNL     1      -4.167  -9.382   4.581  1.00  0.00    -0.744 OA
ENDBRANCH  97 100
ENDBRANCH  70  93
ENDBRANCH  44  45
ENDBRANCH  36  39
ENDBRANCH  34  35
ENDBRANCH   1  34
TORSDOF 16
