REMARK SMILES CC(C)C[C@H](NC(=O)[C@H](C)NC(=O)[C@@H](NC(=O)CNC(=O)OCc1ccccc1)C(C)C)C(=O)NCCCNC(=O)c1ccc(-c2c3nc(c(-c4cccc(S(=O)(=O)[O-])c4F)c4ccc([nH]4)c(-c4cccc(S(=O)(=O)[O-])c4F)c4nc(c(-c5cccc(S(=O)(=O)[O-])c5F)c5ccc2[nH]5)C=C4)C=C3)cc1
REMARK SMILES IDX 6 1 7 2 8 3 5 5 4 6 2 7 1 8 3 9 33 10 34 11 35 12 36 14
REMARK SMILES IDX 37 15 38 16 39 17 40 18 41 20 42 21 43 22 104 23 44 24
REMARK SMILES IDX 103 25 45 26 46 27 47 28 97 29 48 30 102 31 96 32 98 33
REMARK SMILES IDX 49 34 101 35 95 36 94 37 50 39 82 40 62 41 81 42 63 43 66 44
REMARK SMILES IDX 80 45 99 46 64 47 65 48 79 50 100 51 67 52 51 53 52 54 60 55
REMARK SMILES IDX 53 56 55 57 61 58 54 59 56 60 57 61 58 62 59 63 83 64 84 65
REMARK SMILES IDX 92 66 85 67 87 68 93 69 86 70 88 71 89 72 90 73 91 74 68 75
REMARK SMILES IDX 69 76 77 77 70 78 72 79 78 80 71 81 73 82 74 83 75 84 76 85
REMARK SMILES IDX 9 86 10 87 11 88 12 89 13 91 14 92 15 93 16 94 17 96 18 97
REMARK SMILES IDX 19 98 20 99 21 101 22 102 23 103 24 104 25 105 29 106 26 107
REMARK SMILES IDX 28 108 27 109 30 110 31 111 32 112
REMARK H PARENT 6 4 35 13 39 19 98 38 66 49 11 90 15 95 19 100
REMARK Flexibility Score: inf
ROOT
ATOM      1  N   UNL     1       0.565   1.805  -1.549  1.00  0.00    -0.343 N 
ATOM      2  C   UNL     1      -0.485   1.765  -0.668  1.00  0.00     0.242 C 
ATOM      3  O   UNL     1      -1.404   2.576  -0.797  1.00  0.00    -0.273 OA
ATOM      4  H   UNL     1       0.628   2.618  -2.100  1.00  0.00     0.164 HD
ENDROOT
BRANCH   1   5
ATOM      5  C   UNL     1       1.609   0.800  -1.781  1.00  0.00     0.171 C 
BRANCH   5   6
ATOM      6  C   UNL     1       1.246  -0.137  -2.940  1.00  0.00     0.038 C 
BRANCH   6   7
ATOM      7  C   UNL     1       1.982  -1.494  -2.881  1.00  0.00    -0.015 C 
ATOM      8  C   UNL     1       1.568  -2.348  -1.678  1.00  0.00     0.007 C 
ATOM      9  C   UNL     1       1.714  -2.277  -4.167  1.00  0.00     0.007 C 
ENDBRANCH   6   7
ENDBRANCH   5   6
BRANCH   5  10
ATOM     10  C   UNL     1       3.024   1.383  -1.953  1.00  0.00     0.242 C 
ATOM     11  O   UNL     1       3.947   0.980  -1.239  1.00  0.00    -0.273 OA
ATOM     12  N   UNL     1       3.350   2.290  -2.901  1.00  0.00    -0.354 N 
ATOM     13  H   UNL     1       4.293   2.570  -2.874  1.00  0.00     0.163 HD
BRANCH  12  14
ATOM     14  C   UNL     1       2.579   2.928  -3.948  1.00  0.00     0.117 C 
BRANCH  14  15
ATOM     15  C   UNL     1       2.737   4.444  -3.923  1.00  0.00     0.042 C 
BRANCH  15  16
ATOM     16  C   UNL     1       4.183   4.940  -3.954  1.00  0.00     0.118 C 
BRANCH  16  17
ATOM     17  N   UNL     1       4.958   4.378  -5.055  1.00  0.00    -0.352 N 
ATOM     18  C   UNL     1       5.638   5.011  -6.066  1.00  0.00     0.251 C 
ATOM     19  H   UNL     1       5.001   3.395  -5.075  1.00  0.00     0.163 HD
ATOM     20  O   UNL     1       6.099   4.352  -6.994  1.00  0.00    -0.269 OA
BRANCH  18  21
ATOM     21  C   UNL     1       5.795   6.480  -6.048  1.00  0.00     0.039 A 
ATOM     22  C   UNL     1       5.561   7.200  -7.223  1.00  0.00     0.014 A 
ATOM     23  C   UNL     1       6.175   7.143  -4.879  1.00  0.00     0.014 A 
ATOM     24  C   UNL     1       5.644   8.594  -7.207  1.00  0.00     0.010 A 
ATOM     25  C   UNL     1       6.183   8.534  -4.846  1.00  0.00     0.010 A 
ATOM     26  C   UNL     1       5.925   9.274  -6.010  1.00  0.00    -0.014 A 
BRANCH  26  27
ATOM     27  C   UNL     1       5.955  10.756  -5.949  1.00  0.00     0.031 A 
ATOM     28  C   UNL     1       7.230  11.470  -5.591  1.00  0.00     0.074 A 
ATOM     29  C   UNL     1       4.814  11.454  -6.115  1.00  0.00     0.049 A 
ATOM     30  N   UNL     1       7.436  12.748  -5.407  1.00  0.00    -0.248 NA
ATOM     31  C   UNL     1       8.424  10.634  -5.378  1.00  0.00     0.031 C 
ATOM     32  C   UNL     1       3.496  10.871  -6.377  1.00  0.00     0.029 A 
ATOM     33  N   UNL     1       4.574  12.804  -6.058  1.00  0.00    -0.354 N 
ATOM     34  C   UNL     1       8.764  12.865  -5.014  1.00  0.00     0.074 A 
ATOM     35  C   UNL     1       9.308  11.526  -4.955  1.00  0.00     0.031 C 
ATOM     36  C   UNL     1       2.587  11.857  -6.460  1.00  0.00     0.029 A 
ATOM     37  C   UNL     1       3.251  13.137  -6.237  1.00  0.00     0.049 A 
ATOM     38  H   UNL     1       5.281  13.470  -5.904  1.00  0.00     0.167 HD
ATOM     39  C   UNL     1       9.477  13.987  -4.758  1.00  0.00     0.034 A 
ATOM     40  C   UNL     1       2.643  14.339  -6.222  1.00  0.00     0.034 A 
ATOM     41  C   UNL     1       8.953  15.319  -4.887  1.00  0.00     0.049 A 
ATOM     42  C   UNL     1       3.475  15.576  -6.014  1.00  0.00     0.074 A 
ATOM     43  C   UNL     1       9.620  16.524  -4.752  1.00  0.00     0.029 A 
ATOM     44  N   UNL     1       7.634  15.623  -5.187  1.00  0.00    -0.354 N 
ATOM     45  N   UNL     1       4.766  15.676  -5.808  1.00  0.00    -0.248 NA
ATOM     46  C   UNL     1       2.775  16.868  -6.076  1.00  0.00     0.031 C 
ATOM     47  C   UNL     1       8.701  17.557  -4.967  1.00  0.00     0.029 A 
ATOM     48  C   UNL     1       7.465  16.995  -5.244  1.00  0.00     0.049 A 
ATOM     49  H   UNL     1       6.922  14.959  -5.338  1.00  0.00     0.167 HD
ATOM     50  C   UNL     1       5.039  17.037  -5.750  1.00  0.00     0.074 A 
ATOM     51  C   UNL     1       3.781  17.725  -5.964  1.00  0.00     0.031 C 
ATOM     52  C   UNL     1       6.220  17.662  -5.521  1.00  0.00     0.034 A 
BRANCH  39  53
ATOM     53  C   UNL     1      10.927  13.822  -4.387  1.00  0.00     0.023 A 
ATOM     54  C   UNL     1      11.854  13.442  -5.380  1.00  0.00     0.012 A 
ATOM     55  C   UNL     1      11.383  14.087  -3.081  1.00  0.00     0.148 A 
ATOM     56  C   UNL     1      13.205  13.293  -5.071  1.00  0.00     0.002 A 
ATOM     57  C   UNL     1      12.738  13.975  -2.791  1.00  0.00     0.091 A 
ATOM     58  F   UNL     1      10.484  14.424  -2.144  1.00  0.00    -0.205 F 
ATOM     59  C   UNL     1      13.648  13.569  -3.781  1.00  0.00     0.022 A 
BRANCH  57  60
ATOM     60  S   UNL     1      13.416  14.381  -1.177  1.00  0.00     0.127 S 
ATOM     61  O   UNL     1      13.685  13.053  -0.628  1.00  0.00    -0.237 OA
ATOM     62  O   UNL     1      14.612  15.149  -1.526  1.00  0.00    -0.237 OA
ATOM     63  O   UNL     1      12.384  15.148  -0.493  1.00  0.00    -0.744 OA
ENDBRANCH  57  60
ENDBRANCH  39  53
BRANCH  40  64
ATOM     64  C   UNL     1       1.183  14.435  -6.501  1.00  0.00     0.023 A 
ATOM     65  C   UNL     1       0.754  14.966  -7.733  1.00  0.00     0.012 A 
ATOM     66  C   UNL     1       0.223  13.971  -5.582  1.00  0.00     0.148 A 
ATOM     67  C   UNL     1      -0.605  15.060  -8.034  1.00  0.00     0.002 A 
ATOM     68  C   UNL     1      -1.128  14.020  -5.909  1.00  0.00     0.091 A 
ATOM     69  F   UNL     1       0.649  13.483  -4.408  1.00  0.00    -0.205 F 
ATOM     70  C   UNL     1      -1.545  14.577  -7.127  1.00  0.00     0.022 A 
BRANCH  68  71
ATOM     71  S   UNL     1      -2.393  13.300  -4.855  1.00  0.00     0.127 S 
ATOM     72  O   UNL     1      -2.986  14.487  -4.246  1.00  0.00    -0.237 OA
ATOM     73  O   UNL     1      -3.246  12.613  -5.826  1.00  0.00    -0.237 OA
ATOM     74  O   UNL     1      -1.680  12.406  -3.951  1.00  0.00    -0.744 OA
ENDBRANCH  68  71
ENDBRANCH  40  64
BRANCH  52  75
ATOM     75  C   UNL     1       6.225  19.167  -5.517  1.00  0.00     0.023 A 
ATOM     76  C   UNL     1       5.691  19.860  -4.413  1.00  0.00     0.012 A 
ATOM     77  C   UNL     1       6.833  19.890  -6.562  1.00  0.00     0.148 A 
ATOM     78  C   UNL     1       5.741  21.252  -4.360  1.00  0.00     0.002 A 
ATOM     79  C   UNL     1       6.918  21.275  -6.482  1.00  0.00     0.091 A 
ATOM     80  F   UNL     1       7.315  19.212  -7.614  1.00  0.00    -0.205 F 
ATOM     81  C   UNL     1       6.365  21.958  -5.386  1.00  0.00     0.022 A 
BRANCH  79  82
ATOM     82  S   UNL     1       7.785  22.252  -7.715  1.00  0.00     0.127 S 
ATOM     83  O   UNL     1       6.677  22.811  -8.487  1.00  0.00    -0.237 OA
ATOM     84  O   UNL     1       8.507  23.225  -6.894  1.00  0.00    -0.237 OA
ATOM     85  O   UNL     1       8.643  21.317  -8.430  1.00  0.00    -0.744 OA
ENDBRANCH  79  82
ENDBRANCH  52  75
ENDBRANCH  26  27
ENDBRANCH  18  21
ENDBRANCH  16  17
ENDBRANCH  15  16
ENDBRANCH  14  15
ENDBRANCH  12  14
ENDBRANCH   5  10
ENDBRANCH   1   5
BRANCH   2  86
ATOM     86  C   UNL     1      -0.531   0.676   0.418  1.00  0.00     0.168 C 
ATOM     87  C   UNL     1      -1.306  -0.526  -0.118  1.00  0.00     0.041 C 
BRANCH  86  88
ATOM     88  N   UNL     1      -1.221   1.175   1.604  1.00  0.00    -0.343 N 
ATOM     89  C   UNL     1      -0.971   0.960   2.920  1.00  0.00     0.243 C 
ATOM     90  H   UNL     1      -1.990   1.761   1.419  1.00  0.00     0.164 HD
ATOM     91  O   UNL     1      -1.959   0.862   3.658  1.00  0.00    -0.273 OA
BRANCH  89  92
ATOM     92  C   UNL     1       0.446   1.111   3.555  1.00  0.00     0.174 C 
BRANCH  92  93
ATOM     93  N   UNL     1       1.552   0.463   2.826  1.00  0.00    -0.343 N 
ATOM     94  C   UNL     1       2.676   0.830   2.159  1.00  0.00     0.240 C 
ATOM     95  H   UNL     1       1.443  -0.516   2.821  1.00  0.00     0.164 HD
ATOM     96  O   UNL     1       3.285  -0.108   1.628  1.00  0.00    -0.273 OA
BRANCH  94  97
ATOM     97  C   UNL     1       3.164   2.275   1.972  1.00  0.00     0.219 C 
BRANCH  97  98
ATOM     98  N   UNL     1       2.390   2.928   0.942  1.00  0.00    -0.312 N 
ATOM     99  C   UNL     1       1.832   4.161   0.929  1.00  0.00     0.407 C 
ATOM    100  H   UNL     1       2.248   2.395   0.126  1.00  0.00     0.167 HD
ATOM    101  O   UNL     1       1.048   4.440   0.026  1.00  0.00    -0.225 OA
BRANCH  99 102
ATOM    102  O   UNL     1       2.153   4.936   1.986  1.00  0.00    -0.445 OA
BRANCH 102 103
ATOM    103  C   UNL     1       1.193   5.950   2.340  1.00  0.00     0.270 C 
BRANCH 103 104
ATOM    104  C   UNL     1       1.121   7.169   1.454  1.00  0.00    -0.011 A 
ATOM    105  C   UNL     1       1.901   8.303   1.710  1.00  0.00     0.007 A 
ATOM    106  C   UNL     1       0.210   7.207   0.385  1.00  0.00     0.007 A 
ATOM    107  C   UNL     1       1.770   9.445   0.913  1.00  0.00     0.000 A 
ATOM    108  C   UNL     1       0.097   8.337  -0.423  1.00  0.00     0.000 A 
ATOM    109  C   UNL     1       0.874   9.459  -0.155  1.00  0.00     0.000 A 
ENDBRANCH 103 104
ENDBRANCH 102 103
ENDBRANCH  99 102
ENDBRANCH  97  98
ENDBRANCH  94  97
ENDBRANCH  92  93
BRANCH  92 110
ATOM    110  C   UNL     1       0.702   2.556   4.035  1.00  0.00     0.015 C 
ATOM    111  C   UNL     1      -0.535   3.287   4.571  1.00  0.00     0.010 C 
ATOM    112  C   UNL     1       1.791   2.604   5.114  1.00  0.00     0.010 C 
ENDBRANCH  92 110
ENDBRANCH  89  92
ENDBRANCH  86  88
ENDBRANCH   2  86
TORSDOF 26
