REMARK SMILES O=CN1CC[NH+](C[C@@H](CC(=O)Nc2ccc(C(F)(F)F)nc2)C(=O)NCCCNC(=O)c2ccc(-c3c4nc(c(-c5cccc(S(=O)(=O)[O-])c5F)c5ccc([nH]5)c(-c5cccc(S(=O)(=O)[O-])c5F)c5nc(c(-c6cccc(S(=O)(=O)[O-])c6F)c6ccc3[nH]6)C=C5)C=C4)cc2)CC1
REMARK SMILES IDX 26 1 25 2 23 3 24 4 8 6 7 7 6 8 1 9 2 10 3 11 4 12 96 13
REMARK SMILES IDX 5 14 95 15 9 17 10 18 11 19 12 20 13 22 14 23 22 24 15 25
REMARK SMILES IDX 21 26 16 27 17 28 18 29 19 30 20 31 27 32 28 33 29 34 30 35
REMARK SMILES IDX 31 37 32 38 33 39 94 40 34 41 93 42 35 43 36 44 37 45 87 46
REMARK SMILES IDX 38 47 92 48 86 49 88 50 39 51 91 52 85 53 84 54 40 56 72 57
REMARK SMILES IDX 52 58 71 59 53 60 56 61 70 62 89 63 54 64 55 65 69 67 90 68
REMARK SMILES IDX 57 69 41 70 42 71 50 72 43 73 45 74 51 75 44 76 46 77 47 78
REMARK SMILES IDX 48 79 49 80 73 81 74 82 82 83 75 84 77 85 83 86 76 87 78 88
REMARK SMILES IDX 79 89 80 90 81 91 58 92 59 93 67 94 60 95 62 96 68 97 61 98
REMARK SMILES IDX 63 99 64 100 65 101 66 102
REMARK H PARENT 25 5 6 16 12 21 29 36 88 55 56 66
REMARK Flexibility Score: inf
ROOT
ATOM      1  C   UNL     1       8.032   3.246   2.514  1.00  0.00     0.117 C 
ENDROOT
BRANCH   1   2
ATOM      2  N   UNL     1       7.392   2.447   3.513  1.00  0.00    -0.356 N 
ATOM      3  C   UNL     1       6.288   1.670   3.307  1.00  0.00     0.229 C 
ATOM      4  O   UNL     1       5.937   0.919   4.220  1.00  0.00    -0.275 OA
ATOM      5  H   UNL     1       7.777   2.459   4.419  1.00  0.00     0.163 HD
BRANCH   3   6
ATOM      6  C   UNL     1       5.429   1.796   2.020  1.00  0.00     0.142 C 
BRANCH   6   7
ATOM      7  C   UNL     1       4.270   2.750   2.336  1.00  0.00     0.276 C 
BRANCH   7   8
ATOM      8  N   UNL     1       3.178   3.075   1.408  1.00  0.00    -0.331 N 
ATOM      9  O   UNL     1       0.151  -0.993   0.721  1.00  0.00    -0.279 OA
ATOM     10  C   UNL     1       1.013  -0.404   0.092  1.00  0.00     0.340 C 
ATOM     11  N   UNL     1       1.689   0.724   0.502  1.00  0.00    -0.334 N 
ATOM     12  C   UNL     1       2.871   1.155  -0.219  1.00  0.00     0.180 C 
ATOM     13  C   UNL     1       1.486   1.259   1.849  1.00  0.00     0.180 C 
ATOM     14  C   UNL     1       3.223   2.627   0.016  1.00  0.00     0.284 C 
ATOM     15  C   UNL     1       1.843   2.754   1.960  1.00  0.00     0.284 C 
ATOM     16  H   UNL     1       3.350   4.077   1.338  1.00  0.00     0.348 HD
ENDBRANCH   7   8
ENDBRANCH   6   7
BRANCH   6  17
ATOM     17  C   UNL     1       6.206   1.772   0.691  1.00  0.00     0.119 C 
BRANCH  17  18
ATOM     18  C   UNL     1       6.890   2.836  -0.199  1.00  0.00     0.225 C 
ATOM     19  O   UNL     1       7.848   2.416  -0.876  1.00  0.00    -0.275 OA
ATOM     20  N   UNL     1       6.566   4.121  -0.480  1.00  0.00    -0.325 N 
ATOM     21  H   UNL     1       7.161   4.505  -1.164  1.00  0.00     0.169 HD
BRANCH  20  22
ATOM     22  C   UNL     1       5.606   5.044  -0.051  1.00  0.00     0.059 A 
ATOM     23  C   UNL     1       5.447   5.492   1.249  1.00  0.00     0.030 A 
ATOM     24  C   UNL     1       4.801   5.646  -1.012  1.00  0.00     0.137 A 
ATOM     25  C   UNL     1       4.373   6.324   1.577  1.00  0.00     0.035 A 
ATOM     26  N   UNL     1       3.734   6.430  -0.733  1.00  0.00    -0.250 NA
ATOM     27  C   UNL     1       3.483   6.707   0.578  1.00  0.00     0.144 A 
BRANCH  27  28
ATOM     28  C   UNL     1       2.180   7.390   0.970  1.00  0.00     0.433 C 
ATOM     29  F   UNL     1       2.288   8.740   1.096  1.00  0.00    -0.165 F 
ATOM     30  F   UNL     1       1.162   7.169   0.087  1.00  0.00    -0.165 F 
ATOM     31  F   UNL     1       1.702   6.947   2.175  1.00  0.00    -0.165 F 
ENDBRANCH  27  28
ENDBRANCH  20  22
ENDBRANCH  17  18
ENDBRANCH   6  17
ENDBRANCH   3   6
ENDBRANCH   1   2
BRANCH   1  32
ATOM     32  C   UNL     1       8.627   4.557   2.938  1.00  0.00     0.042 C 
BRANCH  32  33
ATOM     33  C   UNL     1      10.027   4.423   3.469  1.00  0.00     0.118 C 
BRANCH  33  34
ATOM     34  N   UNL     1      10.975   3.919   2.478  1.00  0.00    -0.352 N 
ATOM     35  C   UNL     1      12.058   4.517   1.874  1.00  0.00     0.251 C 
ATOM     36  H   UNL     1      10.811   2.991   2.193  1.00  0.00     0.163 HD
ATOM     37  O   UNL     1      12.644   3.931   0.968  1.00  0.00    -0.269 OA
BRANCH  35  38
ATOM     38  C   UNL     1      12.494   5.867   2.290  1.00  0.00     0.039 A 
ATOM     39  C   UNL     1      13.014   6.752   1.343  1.00  0.00     0.014 A 
ATOM     40  C   UNL     1      12.372   6.271   3.616  1.00  0.00     0.014 A 
ATOM     41  C   UNL     1      13.344   8.053   1.728  1.00  0.00     0.010 A 
ATOM     42  C   UNL     1      12.502   7.607   3.946  1.00  0.00     0.010 A 
ATOM     43  C   UNL     1      13.056   8.501   3.028  1.00  0.00    -0.014 A 
BRANCH  43  44
ATOM     44  C   UNL     1      13.403   9.865   3.492  1.00  0.00     0.031 A 
ATOM     45  C   UNL     1      14.299  10.034   4.697  1.00  0.00     0.074 A 
ATOM     46  C   UNL     1      12.861  10.940   2.890  1.00  0.00     0.049 A 
ATOM     47  N   UNL     1      14.680  11.132   5.294  1.00  0.00    -0.248 NA
ATOM     48  C   UNL     1      14.790   8.805   5.350  1.00  0.00     0.031 C 
ATOM     49  C   UNL     1      11.909  10.902   1.778  1.00  0.00     0.029 A 
ATOM     50  N   UNL     1      13.027  12.277   3.139  1.00  0.00    -0.354 N 
ATOM     51  C   UNL     1      15.408  10.723   6.407  1.00  0.00     0.074 A 
ATOM     52  C   UNL     1      15.347   9.282   6.450  1.00  0.00     0.031 C 
ATOM     53  C   UNL     1      11.607  12.159   1.414  1.00  0.00     0.029 A 
ATOM     54  C   UNL     1      12.315  13.088   2.288  1.00  0.00     0.049 A 
ATOM     55  H   UNL     1      13.602  12.624   3.859  1.00  0.00     0.167 HD
ATOM     56  C   UNL     1      16.112  11.470   7.287  1.00  0.00     0.034 A 
ATOM     57  C   UNL     1      12.251  14.432   2.218  1.00  0.00     0.034 A 
ATOM     58  C   UNL     1      16.217  12.899   7.202  1.00  0.00     0.049 A 
ATOM     59  C   UNL     1      13.081  15.245   3.173  1.00  0.00     0.074 A 
ATOM     60  C   UNL     1      16.969  13.757   7.983  1.00  0.00     0.029 A 
ATOM     61  N   UNL     1      15.545  13.681   6.275  1.00  0.00    -0.354 N 
ATOM     62  N   UNL     1      13.880  14.837   4.129  1.00  0.00    -0.248 NA
ATOM     63  C   UNL     1      13.032  16.705   3.011  1.00  0.00     0.031 C 
ATOM     64  C   UNL     1      16.725  15.063   7.547  1.00  0.00     0.029 A 
ATOM     65  C   UNL     1      15.857  15.014   6.467  1.00  0.00     0.049 A 
ATOM     66  H   UNL     1      14.935  13.338   5.583  1.00  0.00     0.167 HD
ATOM     67  C   UNL     1      14.465  15.983   4.653  1.00  0.00     0.074 A 
ATOM     68  C   UNL     1      13.937  17.101   3.896  1.00  0.00     0.031 C 
ATOM     69  C   UNL     1      15.355  16.104   5.670  1.00  0.00     0.034 A 
BRANCH  56  70
ATOM     70  C   UNL     1      16.856  10.741   8.379  1.00  0.00     0.023 A 
ATOM     71  C   UNL     1      17.944   9.904   8.050  1.00  0.00     0.012 A 
ATOM     72  C   UNL     1      16.484  10.885   9.728  1.00  0.00     0.148 A 
ATOM     73  C   UNL     1      18.609   9.177   9.037  1.00  0.00     0.002 A 
ATOM     74  C   UNL     1      17.188  10.201  10.713  1.00  0.00     0.091 A 
ATOM     75  F   UNL     1      15.433  11.663  10.024  1.00  0.00    -0.205 F 
ATOM     76  C   UNL     1      18.237   9.333  10.368  1.00  0.00     0.022 A 
BRANCH  74  77
ATOM     77  S   UNL     1      16.843  10.401  12.463  1.00  0.00     0.127 S 
ATOM     78  O   UNL     1      16.229   9.115  12.791  1.00  0.00    -0.237 OA
ATOM     79  O   UNL     1      18.182  10.598  13.020  1.00  0.00    -0.237 OA
ATOM     80  O   UNL     1      15.966  11.559  12.569  1.00  0.00    -0.744 OA
ENDBRANCH  74  77
ENDBRANCH  56  70
BRANCH  57  81
ATOM     81  C   UNL     1      11.448  15.082   1.145  1.00  0.00     0.023 A 
ATOM     82  C   UNL     1      12.110  15.737   0.088  1.00  0.00     0.012 A 
ATOM     83  C   UNL     1      10.042  15.021   1.142  1.00  0.00     0.148 A 
ATOM     84  C   UNL     1      11.386  16.349  -0.935  1.00  0.00     0.002 A 
ATOM     85  C   UNL     1       9.328  15.585   0.092  1.00  0.00     0.091 A 
ATOM     86  F   UNL     1       9.433  14.393   2.158  1.00  0.00    -0.205 F 
ATOM     87  C   UNL     1       9.996  16.265  -0.939  1.00  0.00     0.022 A 
BRANCH  85  88
ATOM     88  S   UNL     1       7.547  15.419  -0.066  1.00  0.00     0.127 S 
ATOM     89  O   UNL     1       7.102  16.801   0.094  1.00  0.00    -0.237 OA
ATOM     90  O   UNL     1       7.417  14.880  -1.420  1.00  0.00    -0.237 OA
ATOM     91  O   UNL     1       7.141  14.501   0.990  1.00  0.00    -0.744 OA
ENDBRANCH  85  88
ENDBRANCH  57  81
BRANCH  69  92
ATOM     92  C   UNL     1      15.862  17.485   5.990  1.00  0.00     0.023 A 
ATOM     93  C   UNL     1      15.012  18.431   6.596  1.00  0.00     0.012 A 
ATOM     94  C   UNL     1      17.209  17.818   5.748  1.00  0.00     0.148 A 
ATOM     95  C   UNL     1      15.485  19.702   6.918  1.00  0.00     0.002 A 
ATOM     96  C   UNL     1      17.688  19.066   6.123  1.00  0.00     0.091 A 
ATOM     97  F   UNL     1      17.997  16.910   5.154  1.00  0.00    -0.205 F 
ATOM     98  C   UNL     1      16.824  20.015   6.692  1.00  0.00     0.022 A 
BRANCH  96  99
ATOM     99  S   UNL     1      19.420  19.515   5.969  1.00  0.00     0.127 S 
ATOM    100  O   UNL     1      19.385  20.457   4.852  1.00  0.00    -0.237 OA
ATOM    101  O   UNL     1      19.700  20.120   7.271  1.00  0.00    -0.237 OA
ATOM    102  O   UNL     1      20.136  18.271   5.716  1.00  0.00    -0.744 OA
ENDBRANCH  96  99
ENDBRANCH  69  92
ENDBRANCH  43  44
ENDBRANCH  35  38
ENDBRANCH  33  34
ENDBRANCH  32  33
ENDBRANCH   1  32
TORSDOF 19
