REMARK SMILES CC1(C)CCN(S(=O)(=O)c2ccc(O)c(C(=O)NCCCNC(=O)c3ccc(-c4c5nc(c(-c6cccc(S(=O)(=O)[O-])c6F)c6ccc([nH]6)c(-c6cccc(S(=O)(=O)[O-])c6F)c6nc(c(-c7cccc(S(=O)(=O)[O-])c7F)c7ccc4[nH]7)C=C6)C=C5)cc3)c2)C1
REMARK SMILES IDX 20 1 19 2 18 3 16 4 17 5 15 7 10 8 11 9 88 10 12 11 13 12
REMARK SMILES IDX 7 13 8 14 9 15 6 16 1 17 2 18 3 19 4 20 89 21 5 22 14 23
REMARK SMILES IDX 21 25 22 26 23 27 24 29 25 30 26 31 87 32 27 33 86 34 28 35
REMARK SMILES IDX 29 36 30 37 80 38 31 39 85 40 79 41 81 42 32 43 84 44 78 45
REMARK SMILES IDX 77 46 33 48 65 49 45 50 64 51 46 52 49 53 63 54 82 55 47 56
REMARK SMILES IDX 48 57 62 59 83 60 50 61 34 62 35 63 43 64 36 65 38 66 44 67
REMARK SMILES IDX 37 68 39 69 40 70 41 71 42 72 66 73 67 74 75 75 68 76 70 77
REMARK SMILES IDX 76 78 69 79 71 80 72 81 73 82 74 83 51 84 52 85 60 86 53 87
REMARK SMILES IDX 55 88 61 89 54 90 56 91 57 92 58 93 59 94
REMARK H PARENT 18 6 14 24 22 28 81 47 49 58
REMARK Flexibility Score: inf
ROOT
ATOM      1  C   UNL     1       3.782   9.235   1.004  1.00  0.00     0.042 C 
ENDROOT
BRANCH   1   2
ATOM      2  C   UNL     1       3.807   8.302  -0.210  1.00  0.00     0.118 C 
BRANCH   2   3
ATOM      3  N   UNL     1       4.769   7.234  -0.043  1.00  0.00    -0.352 N 
ATOM      4  C   UNL     1       4.662   5.931   0.365  1.00  0.00     0.255 C 
ATOM      5  O   UNL     1       5.711   5.279   0.326  1.00  0.00    -0.269 OA
ATOM      6  H   UNL     1       5.690   7.498  -0.270  1.00  0.00     0.163 HD
BRANCH   4   7
ATOM      7  C   UNL     1       3.416   5.224   0.814  1.00  0.00     0.082 A 
ATOM      8  C   UNL     1       2.462   3.000   1.225  1.00  0.00     0.083 A 
ATOM      9  C   UNL     1       1.376   3.575   1.879  1.00  0.00     0.025 A 
ATOM     10  C   UNL     1       3.472   3.813   0.697  1.00  0.00     0.039 A 
ATOM     11  C   UNL     1       1.272   4.956   1.956  1.00  0.00     0.048 A 
ATOM     12  C   UNL     1       2.290   5.773   1.448  1.00  0.00     0.128 A 
BRANCH   8  13
ATOM     13  S   UNL     1       2.649   1.231   1.252  1.00  0.00     0.243 S 
ATOM     14  O   UNL     1       2.224   0.770   2.562  1.00  0.00    -0.207 OA
ATOM     15  O   UNL     1       3.955   0.897   0.736  1.00  0.00    -0.207 OA
BRANCH  13  16
ATOM     16  N   UNL     1       1.502   0.657   0.121  1.00  0.00    -0.197 NA
ATOM     17  C   UNL     1      -1.006  -0.146  -1.627  1.00  0.00     0.012 C 
ATOM     18  C   UNL     1      -0.745  -0.197  -0.115  1.00  0.00    -0.020 C 
ATOM     19  C   UNL     1      -2.082  -0.278   0.628  1.00  0.00     0.012 C 
ATOM     20  C   UNL     1       0.186  -1.348   0.261  1.00  0.00     0.024 C 
ATOM     21  C   UNL     1       0.074   1.010   0.359  1.00  0.00     0.109 C 
ATOM     22  C   UNL     1       1.574  -0.823  -0.087  1.00  0.00     0.103 C 
ENDBRANCH  13  16
ENDBRANCH   8  13
BRANCH  12  23
ATOM     23  O   UNL     1       2.140   7.106   1.669  1.00  0.00    -0.507 OA
ATOM     24  H   UNL     1       1.370   7.426   2.097  1.00  0.00     0.293 HD
ENDBRANCH  12  23
ENDBRANCH   4   7
ENDBRANCH   2   3
ENDBRANCH   1   2
BRANCH   1  25
ATOM     25  C   UNL     1       4.903  10.264   1.032  1.00  0.00     0.118 C 
BRANCH  25  26
ATOM     26  N   UNL     1       4.717  11.294   0.024  1.00  0.00    -0.352 N 
ATOM     27  C   UNL     1       4.598  12.654   0.154  1.00  0.00     0.251 C 
ATOM     28  H   UNL     1       4.669  10.963  -0.901  1.00  0.00     0.163 HD
ATOM     29  O   UNL     1       4.205  13.303  -0.814  1.00  0.00    -0.269 OA
BRANCH  27  30
ATOM     30  C   UNL     1       4.934  13.353   1.420  1.00  0.00     0.039 A 
ATOM     31  C   UNL     1       4.225  14.517   1.741  1.00  0.00     0.014 A 
ATOM     32  C   UNL     1       5.990  12.945   2.241  1.00  0.00     0.014 A 
ATOM     33  C   UNL     1       4.568  15.260   2.874  1.00  0.00     0.010 A 
ATOM     34  C   UNL     1       6.280  13.643   3.414  1.00  0.00     0.010 A 
ATOM     35  C   UNL     1       5.599  14.828   3.723  1.00  0.00    -0.014 A 
BRANCH  35  36
ATOM     36  C   UNL     1       6.005  15.640   4.899  1.00  0.00     0.031 A 
ATOM     37  C   UNL     1       7.375  16.270   4.951  1.00  0.00     0.074 A 
ATOM     38  C   UNL     1       5.161  15.780   5.939  1.00  0.00     0.049 A 
ATOM     39  N   UNL     1       7.901  17.025   5.880  1.00  0.00    -0.248 NA
ATOM     40  C   UNL     1       8.281  15.994   3.823  1.00  0.00     0.031 C 
ATOM     41  C   UNL     1       3.844  15.150   6.048  1.00  0.00     0.029 A 
ATOM     42  N   UNL     1       5.291  16.483   7.110  1.00  0.00    -0.354 N 
ATOM     43  C   UNL     1       9.205  17.283   5.470  1.00  0.00     0.074 A 
ATOM     44  C   UNL     1       9.403  16.574   4.226  1.00  0.00     0.031 C 
ATOM     45  C   UNL     1       3.283  15.505   7.216  1.00  0.00     0.029 A 
ATOM     46  C   UNL     1       4.202  16.376   7.943  1.00  0.00     0.049 A 
ATOM     47  H   UNL     1       6.090  17.015   7.333  1.00  0.00     0.167 HD
ATOM     48  C   UNL     1      10.142  18.068   6.054  1.00  0.00     0.034 A 
ATOM     49  C   UNL     1       3.966  16.930   9.148  1.00  0.00     0.034 A 
ATOM     50  C   UNL     1       9.921  18.820   7.260  1.00  0.00     0.049 A 
ATOM     51  C   UNL     1       4.985  17.872   9.730  1.00  0.00     0.074 A 
ATOM     52  C   UNL     1      10.774  19.707   7.892  1.00  0.00     0.029 A 
ATOM     53  N   UNL     1       8.759  18.777   8.014  1.00  0.00    -0.354 N 
ATOM     54  N   UNL     1       6.148  18.233   9.242  1.00  0.00    -0.248 NA
ATOM     55  C   UNL     1       4.639  18.524  11.001  1.00  0.00     0.031 C 
ATOM     56  C   UNL     1      10.127  20.199   9.032  1.00  0.00     0.029 A 
ATOM     57  C   UNL     1       8.867  19.627   9.101  1.00  0.00     0.049 A 
ATOM     58  H   UNL     1       7.972  18.223   7.807  1.00  0.00     0.167 HD
ATOM     59  C   UNL     1       6.654  19.181  10.125  1.00  0.00     0.074 A 
ATOM     60  C   UNL     1       5.659  19.356  11.163  1.00  0.00     0.031 C 
ATOM     61  C   UNL     1       7.841  19.835  10.090  1.00  0.00     0.034 A 
BRANCH  48  62
ATOM     62  C   UNL     1      11.470  18.209   5.355  1.00  0.00     0.023 A 
ATOM     63  C   UNL     1      11.547  18.958   4.162  1.00  0.00     0.012 A 
ATOM     64  C   UNL     1      12.645  17.649   5.894  1.00  0.00     0.148 A 
ATOM     65  C   UNL     1      12.762  19.117   3.498  1.00  0.00     0.002 A 
ATOM     66  C   UNL     1      13.861  17.848   5.248  1.00  0.00     0.091 A 
ATOM     67  F   UNL     1      12.552  16.922   7.016  1.00  0.00    -0.205 F 
ATOM     68  C   UNL     1      13.919  18.571   4.045  1.00  0.00     0.022 A 
BRANCH  66  69
ATOM     69  S   UNL     1      15.420  17.252   5.914  1.00  0.00     0.127 S 
ATOM     70  O   UNL     1      15.716  16.136   5.017  1.00  0.00    -0.237 OA
ATOM     71  O   UNL     1      16.293  18.414   5.748  1.00  0.00    -0.237 OA
ATOM     72  O   UNL     1      15.150  16.890   7.298  1.00  0.00    -0.744 OA
ENDBRANCH  66  69
ENDBRANCH  48  62
BRANCH  49  73
ATOM     73  C   UNL     1       2.662  16.692   9.831  1.00  0.00     0.023 A 
ATOM     74  C   UNL     1       1.724  17.740   9.907  1.00  0.00     0.012 A 
ATOM     75  C   UNL     1       2.330  15.434  10.368  1.00  0.00     0.148 A 
ATOM     76  C   UNL     1       0.493  17.551  10.534  1.00  0.00     0.002 A 
ATOM     77  C   UNL     1       1.080  15.236  10.944  1.00  0.00     0.091 A 
ATOM     78  F   UNL     1       3.240  14.452  10.298  1.00  0.00    -0.205 F 
ATOM     79  C   UNL     1       0.166  16.297  11.043  1.00  0.00     0.022 A 
BRANCH  77  80
ATOM     80  S   UNL     1       0.527  13.620  11.501  1.00  0.00     0.127 S 
ATOM     81  O   UNL     1       0.630  13.749  12.951  1.00  0.00    -0.237 OA
ATOM     82  O   UNL     1      -0.842  13.569  10.983  1.00  0.00    -0.237 OA
ATOM     83  O   UNL     1       1.433  12.664  10.878  1.00  0.00    -0.744 OA
ENDBRANCH  77  80
ENDBRANCH  49  73
BRANCH  61  84
ATOM     84  C   UNL     1       8.119  20.829  11.187  1.00  0.00     0.023 A 
ATOM     85  C   UNL     1       8.412  20.370  12.487  1.00  0.00     0.012 A 
ATOM     86  C   UNL     1       8.146  22.211  10.919  1.00  0.00     0.148 A 
ATOM     87  C   UNL     1       8.690  21.274  13.511  1.00  0.00     0.002 A 
ATOM     88  C   UNL     1       8.469  23.104  11.935  1.00  0.00     0.091 A 
ATOM     89  F   UNL     1       7.842  22.633   9.682  1.00  0.00    -0.205 F 
ATOM     90  C   UNL     1       8.729  22.639  13.233  1.00  0.00     0.022 A 
BRANCH  88  91
ATOM     91  S   UNL     1       8.629  24.867  11.628  1.00  0.00     0.127 S 
ATOM     92  O   UNL     1       7.323  25.366  12.054  1.00  0.00    -0.237 OA
ATOM     93  O   UNL     1       9.740  25.242  12.505  1.00  0.00    -0.237 OA
ATOM     94  O   UNL     1       8.924  24.990  10.206  1.00  0.00    -0.744 OA
ENDBRANCH  88  91
ENDBRANCH  61  84
ENDBRANCH  35  36
ENDBRANCH  27  30
ENDBRANCH  25  26
ENDBRANCH   1  25
TORSDOF 16
