REMARK SMILES CC(C)c1cc(C(=O)NCCCNC(=O)c2ccc(-c3c4nc(c(-c5cccc(S(=O)(=O)[O-])c5F)c5ccc([nH]5)c(-c5cccc(S(=O)(=O)[O-])c5F)c5nc(c(-c6cccc(S(=O)(=O)[O-])c6F)c6ccc3[nH]6)C=C5)C=C4)cc2)ccc1[N+](=O)[O-]
REMARK SMILES IDX 12 1 11 2 10 3 9 4 7 5 8 6 6 8 4 9 5 10 81 11 80 12 79 13
REMARK SMILES IDX 2 14 1 15 3 16 82 17 83 18 84 19 13 20 14 21 15 23 16 24
REMARK SMILES IDX 17 25 78 26 18 27 77 28 19 29 20 30 21 31 71 32 22 33 76 34
REMARK SMILES IDX 70 35 72 36 23 37 75 38 69 39 68 40 24 42 56 43 36 44 55 45
REMARK SMILES IDX 37 46 40 47 54 48 73 49 38 50 39 51 53 53 74 54 41 55 25 56
REMARK SMILES IDX 26 57 34 58 27 59 29 60 35 61 28 62 30 63 31 64 32 65 33 66
REMARK SMILES IDX 57 67 58 68 66 69 59 70 61 71 67 72 60 73 62 74 63 75 64 76
REMARK SMILES IDX 65 77 42 78 43 79 51 80 44 81 46 82 52 83 45 84 47 85 48 86
REMARK SMILES IDX 49 87 50 88
REMARK H PARENT 9 7 13 22 72 41 40 52
REMARK Flexibility Score: inf
ROOT
ATOM      1  C   UNL     1      -7.433   2.352   4.129  1.00  0.00     0.118 C 
ENDROOT
BRANCH   1   2
ATOM      2  C   UNL     1      -6.546   1.172   3.772  1.00  0.00     0.042 C 
BRANCH   2   3
ATOM      3  C   UNL     1      -6.026   1.169   2.345  1.00  0.00     0.118 C 
BRANCH   3   4
ATOM      4  N   UNL     1      -5.148   2.286   2.027  1.00  0.00    -0.352 N 
ATOM      5  C   UNL     1      -3.848   2.351   1.588  1.00  0.00     0.251 C 
ATOM      6  O   UNL     1      -3.343   3.462   1.423  1.00  0.00    -0.269 OA
ATOM      7  H   UNL     1      -5.568   3.168   2.152  1.00  0.00     0.163 HD
BRANCH   5   8
ATOM      8  C   UNL     1      -3.015   1.141   1.349  1.00  0.00     0.040 A 
ATOM      9  C   UNL     1      -0.751   0.137   1.408  1.00  0.00     0.033 A 
ATOM     10  C   UNL     1      -1.625   1.244   1.548  1.00  0.00     0.025 A 
ATOM     11  C   UNL     1      -1.355  -1.124   1.166  1.00  0.00     0.272 A 
ATOM     12  C   UNL     1      -2.729  -1.201   0.864  1.00  0.00     0.087 A 
ATOM     13  C   UNL     1      -3.530  -0.062   0.886  1.00  0.00     0.021 A 
BRANCH   9  14
ATOM     14  C   UNL     1       0.761   0.369   1.414  1.00  0.00     0.020 C 
ATOM     15  C   UNL     1       1.288   0.267  -0.029  1.00  0.00     0.013 C 
ATOM     16  C   UNL     1       1.248   1.706   1.997  1.00  0.00     0.013 C 
ENDBRANCH   9  14
BRANCH  11  17
ATOM     17  N   UNL     1      -0.631  -2.419   1.215  1.00  0.00     0.063 N 
ATOM     18  O   UNL     1      -1.318  -3.452   1.206  1.00  0.00    -0.258 OA
ATOM     19  O   UNL     1       0.603  -2.426   1.261  1.00  0.00    -0.258 OA
ENDBRANCH  11  17
ENDBRANCH   5   8
ENDBRANCH   3   4
ENDBRANCH   2   3
ENDBRANCH   1   2
BRANCH   1  20
ATOM     20  N   UNL     1      -8.629   2.439   3.301  1.00  0.00    -0.352 N 
ATOM     21  C   UNL     1      -9.952   2.196   3.587  1.00  0.00     0.251 C 
ATOM     22  H   UNL     1      -8.461   2.723   2.373  1.00  0.00     0.163 HD
ATOM     23  O   UNL     1     -10.761   2.158   2.664  1.00  0.00    -0.269 OA
BRANCH  21  24
ATOM     24  C   UNL     1     -10.408   1.962   4.978  1.00  0.00     0.039 A 
ATOM     25  C   UNL     1     -11.432   1.039   5.210  1.00  0.00     0.014 A 
ATOM     26  C   UNL     1      -9.865   2.669   6.051  1.00  0.00     0.014 A 
ATOM     27  C   UNL     1     -11.858   0.782   6.517  1.00  0.00     0.010 A 
ATOM     28  C   UNL     1     -10.205   2.329   7.356  1.00  0.00     0.010 A 
ATOM     29  C   UNL     1     -11.221   1.397   7.606  1.00  0.00    -0.014 A 
BRANCH  29  30
ATOM     30  C   UNL     1     -11.612   1.099   9.010  1.00  0.00     0.031 A 
ATOM     31  C   UNL     1     -12.099   2.205   9.913  1.00  0.00     0.074 A 
ATOM     32  C   UNL     1     -11.448  -0.146   9.499  1.00  0.00     0.049 A 
ATOM     33  N   UNL     1     -12.427   2.152  11.179  1.00  0.00    -0.248 NA
ATOM     34  C   UNL     1     -12.198   3.554   9.330  1.00  0.00     0.031 C 
ATOM     35  C   UNL     1     -10.904  -1.284   8.755  1.00  0.00     0.029 A 
ATOM     36  N   UNL     1     -11.701  -0.659  10.748  1.00  0.00    -0.354 N 
ATOM     37  C   UNL     1     -12.727   3.458  11.550  1.00  0.00     0.074 A 
ATOM     38  C   UNL     1     -12.501   4.289  10.389  1.00  0.00     0.031 C 
ATOM     39  C   UNL     1     -10.877  -2.362   9.555  1.00  0.00     0.029 A 
ATOM     40  C   UNL     1     -11.368  -1.988  10.877  1.00  0.00     0.049 A 
ATOM     41  H   UNL     1     -12.084  -0.126  11.481  1.00  0.00     0.167 HD
ATOM     42  C   UNL     1     -13.184   3.922  12.737  1.00  0.00     0.034 A 
ATOM     43  C   UNL     1     -11.445  -2.811  11.941  1.00  0.00     0.034 A 
ATOM     44  C   UNL     1     -13.457   3.086  13.874  1.00  0.00     0.049 A 
ATOM     45  C   UNL     1     -12.004  -2.281  13.233  1.00  0.00     0.074 A 
ATOM     46  C   UNL     1     -14.010   3.443  15.091  1.00  0.00     0.029 A 
ATOM     47  N   UNL     1     -13.194   1.727  13.937  1.00  0.00    -0.354 N 
ATOM     48  N   UNL     1     -12.432  -1.074  13.515  1.00  0.00    -0.248 NA
ATOM     49  C   UNL     1     -12.127  -3.236  14.344  1.00  0.00     0.031 C 
ATOM     50  C   UNL     1     -14.054   2.303  15.901  1.00  0.00     0.029 A 
ATOM     51  C   UNL     1     -13.563   1.230  15.174  1.00  0.00     0.049 A 
ATOM     52  H   UNL     1     -12.802   1.194  13.208  1.00  0.00     0.167 HD
ATOM     53  C   UNL     1     -12.911  -1.135  14.819  1.00  0.00     0.074 A 
ATOM     54  C   UNL     1     -12.740  -2.503  15.263  1.00  0.00     0.031 C 
ATOM     55  C   UNL     1     -13.434  -0.145  15.584  1.00  0.00     0.034 A 
BRANCH  42  56
ATOM     56  C   UNL     1     -13.469   5.399  12.850  1.00  0.00     0.023 A 
ATOM     57  C   UNL     1     -14.557   5.957  12.146  1.00  0.00     0.012 A 
ATOM     58  C   UNL     1     -12.696   6.225  13.690  1.00  0.00     0.148 A 
ATOM     59  C   UNL     1     -14.846   7.317  12.243  1.00  0.00     0.002 A 
ATOM     60  C   UNL     1     -13.021   7.570  13.820  1.00  0.00     0.091 A 
ATOM     61  F   UNL     1     -11.654   5.684  14.336  1.00  0.00    -0.205 F 
ATOM     62  C   UNL     1     -14.086   8.121  13.088  1.00  0.00     0.022 A 
BRANCH  60  63
ATOM     63  S   UNL     1     -12.158   8.673  14.945  1.00  0.00     0.127 S 
ATOM     64  O   UNL     1     -11.443   9.544  14.014  1.00  0.00    -0.237 OA
ATOM     65  O   UNL     1     -13.264   9.315  15.655  1.00  0.00    -0.237 OA
ATOM     66  O   UNL     1     -11.316   7.822  15.775  1.00  0.00    -0.744 OA
ENDBRANCH  60  63
ENDBRANCH  42  56
BRANCH  43  67
ATOM     67  C   UNL     1     -11.046  -4.241  11.808  1.00  0.00     0.023 A 
ATOM     68  C   UNL     1     -12.036  -5.243  11.854  1.00  0.00     0.012 A 
ATOM     69  C   UNL     1      -9.703  -4.613  11.615  1.00  0.00     0.148 A 
ATOM     70  C   UNL     1     -11.691  -6.590  11.747  1.00  0.00     0.002 A 
ATOM     71  C   UNL     1      -9.372  -5.953  11.452  1.00  0.00     0.091 A 
ATOM     72  F   UNL     1      -8.775  -3.646  11.583  1.00  0.00    -0.205 F 
ATOM     73  C   UNL     1     -10.361  -6.945  11.537  1.00  0.00     0.022 A 
BRANCH  71  74
ATOM     74  S   UNL     1      -7.708  -6.493  11.044  1.00  0.00     0.127 S 
ATOM     75  O   UNL     1      -7.300  -7.162  12.277  1.00  0.00    -0.237 OA
ATOM     76  O   UNL     1      -7.950  -7.383   9.909  1.00  0.00    -0.237 OA
ATOM     77  O   UNL     1      -6.973  -5.280  10.710  1.00  0.00    -0.744 OA
ENDBRANCH  71  74
ENDBRANCH  43  67
BRANCH  55  78
ATOM     78  C   UNL     1     -13.906  -0.508  16.968  1.00  0.00     0.023 A 
ATOM     79  C   UNL     1     -12.970  -0.815  17.975  1.00  0.00     0.012 A 
ATOM     80  C   UNL     1     -15.279  -0.481  17.285  1.00  0.00     0.148 A 
ATOM     81  C   UNL     1     -13.395  -1.127  19.266  1.00  0.00     0.002 A 
ATOM     82  C   UNL     1     -15.691  -0.741  18.585  1.00  0.00     0.091 A 
ATOM     83  F   UNL     1     -16.155  -0.205  16.308  1.00  0.00    -0.205 F 
ATOM     84  C   UNL     1     -14.752  -1.079  19.574  1.00  0.00     0.022 A 
BRANCH  82  85
ATOM     85  S   UNL     1     -17.408  -0.603  19.095  1.00  0.00     0.127 S 
ATOM     86  O   UNL     1     -17.781  -2.006  19.267  1.00  0.00    -0.237 OA
ATOM     87  O   UNL     1     -17.301   0.157  20.341  1.00  0.00    -0.237 OA
ATOM     88  O   UNL     1     -18.091   0.099  18.017  1.00  0.00    -0.744 OA
ENDBRANCH  82  85
ENDBRANCH  55  78
ENDBRANCH  29  30
ENDBRANCH  21  24
ENDBRANCH   1  20
TORSDOF 15
