REMARK SMILES [NH3+][C@@H](Cc1c[nH]c2ccccc12)C(=O)N[C@@H](CS)C(=O)N[C@@H](CO)C(=O)NCCCNC(=O)c1ccc(-c2c3nc(c(-c4cccc(S(=O)(=O)[O-])c4F)c4ccc([nH]4)c(-c4cccc(S(=O)(=O)[O-])c4F)c4nc(c(-c5cccc(S(=O)(=O)[O-])c5F)c5ccc2[nH]5)C=C4)C=C3)cc1
REMARK SMILES IDX 25 1 26 2 27 3 22 5 21 6 19 7 20 8 16 10 15 11 13 12 14 13
REMARK SMILES IDX 2 15 1 16 3 20 4 21 5 22 12 23 6 24 7 25 11 26 8 28 10 29
REMARK SMILES IDX 9 30 17 31 18 32 23 34 24 35 28 37 29 38 30 39 31 40 32 41
REMARK SMILES IDX 33 43 34 44 35 45 96 46 36 47 95 48 37 49 38 50 39 51 89 52
REMARK SMILES IDX 40 53 94 54 88 55 90 56 41 57 93 58 87 59 86 60 42 62 74 63
REMARK SMILES IDX 54 64 73 65 55 66 58 67 72 68 91 69 56 70 57 71 71 73 92 74
REMARK SMILES IDX 59 75 43 76 44 77 52 78 45 79 47 80 53 81 46 82 48 83 49 84
REMARK SMILES IDX 50 85 51 86 75 87 76 88 84 89 77 90 79 91 85 92 78 93 80 94
REMARK SMILES IDX 81 95 82 96 83 97 60 98 61 99 69 100 62 101 64 102 70 103
REMARK SMILES IDX 63 104 65 105 66 106 67 107 68 108
REMARK H PARENT 27 4 21 9 15 14 1 17 1 18 1 19 6 27 18 33 24 36 31 42 90 61
REMARK H PARENT 58 72
REMARK Flexibility Score: inf
ROOT
ATOM      1  C   UNL     1      -5.187  -3.790   1.757  1.00  0.00     0.244 C 
ATOM      2  O   UNL     1      -5.459  -3.139   2.773  1.00  0.00    -0.273 OA
ATOM      3  N   UNL     1      -5.509  -5.105   1.756  1.00  0.00    -0.354 N 
ATOM      4  H   UNL     1      -5.859  -5.441   2.613  1.00  0.00     0.163 HD
ENDROOT
BRANCH   1   5
ATOM      5  C   UNL     1      -4.565  -3.085   0.550  1.00  0.00     0.197 C 
BRANCH   5   6
ATOM      6  N   UNL     1      -3.302  -3.642   0.102  1.00  0.00    -0.340 N 
ATOM      7  C   UNL     1      -2.227  -2.994  -0.403  1.00  0.00     0.244 C 
ATOM      8  O   UNL     1      -1.608  -3.625  -1.270  1.00  0.00    -0.273 OA
ATOM      9  H   UNL     1      -3.216  -4.620   0.174  1.00  0.00     0.164 HD
BRANCH   7  10
ATOM     10  C   UNL     1      -1.786  -1.558  -0.008  1.00  0.00     0.181 C 
BRANCH  10  11
ATOM     11  N   UNL     1      -1.683  -0.727  -1.192  1.00  0.00    -0.338 N 
ATOM     12  C   UNL     1      -0.563  -0.312  -1.841  1.00  0.00     0.279 C 
ATOM     13  O   UNL     1      -0.745   0.350  -2.873  1.00  0.00    -0.268 OA
ATOM     14  H   UNL     1      -2.537  -0.423  -1.577  1.00  0.00     0.164 HD
BRANCH  12  15
ATOM     15  C   UNL     1       0.888  -0.518  -1.303  1.00  0.00     0.275 C 
BRANCH  15  16
ATOM     16  N   UNL     1       1.161   0.386  -0.166  1.00  0.00    -0.347 N 
ATOM     17  H   UNL     1       2.113   0.234   0.168  1.00  0.00     0.345 HD
ATOM     18  H   UNL     1       0.501   0.194   0.587  1.00  0.00     0.345 HD
ATOM     19  H   UNL     1       1.058   1.354  -0.470  1.00  0.00     0.345 HD
ENDBRANCH  15  16
BRANCH  15  20
ATOM     20  C   UNL     1       1.519  -1.921  -1.224  1.00  0.00     0.113 C 
BRANCH  20  21
ATOM     21  C   UNL     1       1.337  -2.900  -0.081  1.00  0.00    -0.016 A 
ATOM     22  C   UNL     1       1.386  -4.266  -0.321  1.00  0.00     0.087 A 
ATOM     23  C   UNL     1       1.071  -2.771   1.339  1.00  0.00     0.003 A 
ATOM     24  N   UNL     1       1.011  -4.938   0.804  1.00  0.00    -0.361 N 
ATOM     25  C   UNL     1       0.720  -4.045   1.803  1.00  0.00     0.046 A 
ATOM     26  C   UNL     1       0.958  -1.709   2.268  1.00  0.00     0.010 A 
ATOM     27  H   UNL     1       0.957  -5.917   0.886  1.00  0.00     0.166 HD
ATOM     28  C   UNL     1       0.169  -4.284   3.070  1.00  0.00     0.026 A 
ATOM     29  C   UNL     1       0.407  -1.928   3.541  1.00  0.00     0.001 A 
ATOM     30  C   UNL     1      -0.010  -3.196   3.922  1.00  0.00     0.002 A 
ENDBRANCH  20  21
ENDBRANCH  15  20
ENDBRANCH  12  15
ENDBRANCH  10  11
BRANCH  10  31
ATOM     31  C   UNL     1      -2.284  -0.837   1.251  1.00  0.00     0.101 C 
BRANCH  31  32
ATOM     32  S   UNL     1      -3.604   0.411   0.988  1.00  0.00    -0.177 SA
ATOM     33  H   UNL     1      -3.128   1.418   0.209  1.00  0.00     0.102 HD
ENDBRANCH  31  32
ENDBRANCH  10  31
ENDBRANCH   7  10
ENDBRANCH   5   6
BRANCH   5  34
ATOM     34  C   UNL     1      -5.548  -2.842  -0.603  1.00  0.00     0.191 C 
BRANCH  34  35
ATOM     35  O   UNL     1      -5.687  -3.957  -1.479  1.00  0.00    -0.394 OA
ATOM     36  H   UNL     1      -4.833  -4.147  -1.897  1.00  0.00     0.210 HD
ENDBRANCH  34  35
ENDBRANCH   5  34
ENDBRANCH   1   5
BRANCH   3  37
ATOM     37  C   UNL     1      -5.427  -6.102   0.707  1.00  0.00     0.117 C 
BRANCH  37  38
ATOM     38  C   UNL     1      -4.648  -7.329   1.150  1.00  0.00     0.042 C 
BRANCH  38  39
ATOM     39  C   UNL     1      -5.210  -7.995   2.398  1.00  0.00     0.118 C 
BRANCH  39  40
ATOM     40  N   UNL     1      -6.625  -8.324   2.267  1.00  0.00    -0.352 N 
ATOM     41  C   UNL     1      -7.235  -9.548   2.180  1.00  0.00     0.251 C 
ATOM     42  H   UNL     1      -7.233  -7.551   2.236  1.00  0.00     0.163 HD
ATOM     43  O   UNL     1      -8.417  -9.620   1.835  1.00  0.00    -0.269 OA
BRANCH  41  44
ATOM     44  C   UNL     1      -6.473 -10.771   2.488  1.00  0.00     0.039 A 
ATOM     45  C   UNL     1      -6.612 -11.892   1.667  1.00  0.00     0.014 A 
ATOM     46  C   UNL     1      -5.611 -10.803   3.586  1.00  0.00     0.014 A 
ATOM     47  C   UNL     1      -5.831 -13.022   1.911  1.00  0.00     0.010 A 
ATOM     48  C   UNL     1      -4.758 -11.883   3.760  1.00  0.00     0.010 A 
ATOM     49  C   UNL     1      -4.870 -13.011   2.936  1.00  0.00    -0.014 A 
BRANCH  49  50
ATOM     50  C   UNL     1      -3.972 -14.169   3.169  1.00  0.00     0.031 A 
ATOM     51  C   UNL     1      -3.989 -14.881   4.495  1.00  0.00     0.074 A 
ATOM     52  C   UNL     1      -3.078 -14.514   2.223  1.00  0.00     0.049 A 
ATOM     53  N   UNL     1      -3.241 -15.871   4.907  1.00  0.00    -0.248 NA
ATOM     54  C   UNL     1      -4.944 -14.395   5.505  1.00  0.00     0.031 C 
ATOM     55  C   UNL     1      -2.901 -13.836   0.936  1.00  0.00     0.029 A 
ATOM     56  N   UNL     1      -2.131 -15.507   2.206  1.00  0.00    -0.354 N 
ATOM     57  C   UNL     1      -3.605 -16.096   6.229  1.00  0.00     0.074 A 
ATOM     58  C   UNL     1      -4.608 -15.112   6.567  1.00  0.00     0.031 C 
ATOM     59  C   UNL     1      -1.917 -14.440   0.251  1.00  0.00     0.029 A 
ATOM     60  C   UNL     1      -1.372 -15.526   1.058  1.00  0.00     0.049 A 
ATOM     61  H   UNL     1      -2.006 -16.144   2.945  1.00  0.00     0.167 HD
ATOM     62  C   UNL     1      -3.171 -17.059   7.076  1.00  0.00     0.034 A 
ATOM     63  C   UNL     1      -0.351 -16.328   0.700  1.00  0.00     0.034 A 
ATOM     64  C   UNL     1      -2.213 -18.068   6.715  1.00  0.00     0.049 A 
ATOM     65  C   UNL     1       0.071 -17.427   1.635  1.00  0.00     0.074 A 
ATOM     66  C   UNL     1      -1.781 -19.150   7.460  1.00  0.00     0.029 A 
ATOM     67  N   UNL     1      -1.534 -18.116   5.507  1.00  0.00    -0.354 N 
ATOM     68  N   UNL     1      -0.404 -17.731   2.819  1.00  0.00    -0.248 NA
ATOM     69  C   UNL     1       1.143 -18.319   1.171  1.00  0.00     0.031 C 
ATOM     70  C   UNL     1      -0.821 -19.838   6.712  1.00  0.00     0.029 A 
ATOM     71  C   UNL     1      -0.677 -19.201   5.489  1.00  0.00     0.049 A 
ATOM     72  H   UNL     1      -1.646 -17.471   4.771  1.00  0.00     0.167 HD
ATOM     73  C   UNL     1       0.285 -18.866   3.227  1.00  0.00     0.074 A 
ATOM     74  C   UNL     1       1.195 -19.209   2.153  1.00  0.00     0.031 C 
ATOM     75  C   UNL     1       0.187 -19.554   4.391  1.00  0.00     0.034 A 
BRANCH  62  76
ATOM     76  C   UNL     1      -3.773 -17.100   8.456  1.00  0.00     0.023 A 
ATOM     77  C   UNL     1      -5.120 -17.486   8.619  1.00  0.00     0.012 A 
ATOM     78  C   UNL     1      -2.999 -16.804   9.595  1.00  0.00     0.148 A 
ATOM     79  C   UNL     1      -5.698 -17.539   9.886  1.00  0.00     0.002 A 
ATOM     80  C   UNL     1      -3.569 -16.905  10.859  1.00  0.00     0.091 A 
ATOM     81  F   UNL     1      -1.728 -16.416   9.421  1.00  0.00    -0.205 F 
ATOM     82  C   UNL     1      -4.920 -17.259  11.006  1.00  0.00     0.022 A 
BRANCH  80  83
ATOM     83  S   UNL     1      -2.630 -16.645  12.368  1.00  0.00     0.127 S 
ATOM     84  O   UNL     1      -3.185 -15.378  12.845  1.00  0.00    -0.237 OA
ATOM     85  O   UNL     1      -3.003 -17.812  13.167  1.00  0.00    -0.237 OA
ATOM     86  O   UNL     1      -1.231 -16.604  11.969  1.00  0.00    -0.744 OA
ENDBRANCH  80  83
ENDBRANCH  62  76
BRANCH  63  87
ATOM     87  C   UNL     1       0.290 -16.162  -0.635  1.00  0.00     0.023 A 
ATOM     88  C   UNL     1       0.085 -17.139  -1.628  1.00  0.00     0.012 A 
ATOM     89  C   UNL     1       1.067 -15.027  -0.939  1.00  0.00     0.148 A 
ATOM     90  C   UNL     1       0.667 -17.006  -2.889  1.00  0.00     0.002 A 
ATOM     91  C   UNL     1       1.596 -14.873  -2.215  1.00  0.00     0.091 A 
ATOM     92  F   UNL     1       1.258 -14.113   0.022  1.00  0.00    -0.205 F 
ATOM     93  C   UNL     1       1.413 -15.869  -3.186  1.00  0.00     0.022 A 
BRANCH  91  94
ATOM     94  S   UNL     1       2.451 -13.377  -2.725  1.00  0.00     0.127 S 
ATOM     95  O   UNL     1       3.830 -13.845  -2.838  1.00  0.00    -0.237 OA
ATOM     96  O   UNL     1       1.795 -13.074  -3.998  1.00  0.00    -0.237 OA
ATOM     97  O   UNL     1       2.197 -12.401  -1.674  1.00  0.00    -0.744 OA
ENDBRANCH  91  94
ENDBRANCH  63  87
BRANCH  75  98
ATOM     98  C   UNL     1       1.062 -20.768   4.558  1.00  0.00     0.023 A 
ATOM     99  C   UNL     1       2.447 -20.611   4.762  1.00  0.00     0.012 A 
ATOM    100  C   UNL     1       0.499 -22.059   4.586  1.00  0.00     0.148 A 
ATOM    101  C   UNL     1       3.265 -21.724   4.956  1.00  0.00     0.002 A 
ATOM    102  C   UNL     1       1.312 -23.159   4.832  1.00  0.00     0.091 A 
ATOM    103  F   UNL     1      -0.818 -22.187   4.372  1.00  0.00    -0.205 F 
ATOM    104  C   UNL     1       2.696 -22.994   5.003  1.00  0.00     0.022 A 
BRANCH 102 105
ATOM    105  S   UNL     1       0.653 -24.820   5.008  1.00  0.00     0.127 S 
ATOM    106  O   UNL     1       1.098 -25.450   3.766  1.00  0.00    -0.237 OA
ATOM    107  O   UNL     1       1.335 -25.297   6.213  1.00  0.00    -0.237 OA
ATOM    108  O   UNL     1      -0.788 -24.667   5.152  1.00  0.00    -0.744 OA
ENDBRANCH 102 105
ENDBRANCH  75  98
ENDBRANCH  49  50
ENDBRANCH  41  44
ENDBRANCH  39  40
ENDBRANCH  38  39
ENDBRANCH  37  38
ENDBRANCH   3  37
TORSDOF 24
