REMARK SMILES COc1ccc(S(=O)(=O)N2CCC[C@H](C(=O)N3CCC[C@H](C(=O)NCCCNC(=O)c4ccc(-c5c6nc(c(-c7cccc(S(=O)(=O)[O-])c7F)c7ccc([nH]7)c(-c7cccc(S(=O)(=O)[O-])c7F)c7nc(c(-c8cccc(S(=O)(=O)[O-])c8F)c8ccc5[nH]8)C=C7)C=C6)cc4)C3)C2)cc1
REMARK SMILES IDX 25 1 24 2 22 3 23 4 21 6 17 7 18 8 94 9 19 10 20 11 15 12
REMARK SMILES IDX 16 13 14 14 10 15 11 16 95 17 12 18 13 19 7 20 8 21 9 22
REMARK SMILES IDX 6 23 3 24 4 25 97 26 5 27 96 28 2 29 1 30 26 31 27 32 28 33
REMARK SMILES IDX 29 34 30 36 31 37 32 38 93 39 33 40 92 41 34 42 35 43 36 44
REMARK SMILES IDX 86 45 37 46 91 47 85 48 87 49 38 50 90 51 84 52 83 53 39 55
REMARK SMILES IDX 71 56 51 57 70 58 52 59 55 60 69 61 88 62 53 63 54 64 68 66
REMARK SMILES IDX 89 67 56 68 40 69 41 70 49 71 42 72 44 73 50 74 43 75 45 76
REMARK SMILES IDX 46 77 47 78 48 79 72 80 73 81 81 82 74 83 76 84 82 85 75 86
REMARK SMILES IDX 77 87 78 88 79 89 80 90 57 91 58 92 66 93 59 94 61 95 67 96
REMARK SMILES IDX 60 97 62 98 63 99 64 100 65 101
REMARK H PARENT 24 5 28 35 87 54 55 65
REMARK Flexibility Score: inf
ROOT
ATOM      1  C   UNL     1       7.211  -8.553  -6.944  1.00  0.00     0.117 C 
ENDROOT
BRANCH   1   2
ATOM      2  N   UNL     1       7.725  -7.856  -8.096  1.00  0.00    -0.356 N 
ATOM      3  C   UNL     1       7.180  -6.818  -8.781  1.00  0.00     0.224 C 
ATOM      4  O   UNL     1       7.918  -6.231  -9.581  1.00  0.00    -0.275 OA
ATOM      5  H   UNL     1       8.592  -8.177  -8.433  1.00  0.00     0.163 HD
BRANCH   3   6
ATOM      6  C   UNL     1       5.729  -6.343  -8.608  1.00  0.00     0.098 C 
ATOM      7  N   UNL     1       4.709  -6.466  -6.299  1.00  0.00    -0.342 N 
ATOM      8  C   UNL     1       3.574  -7.238  -6.798  1.00  0.00     0.119 C 
ATOM      9  C   UNL     1       5.421  -5.650  -7.275  1.00  0.00     0.133 C 
ATOM     10  C   UNL     1       3.923  -8.095  -8.006  1.00  0.00     0.022 C 
ATOM     11  C   UNL     1       4.659  -7.324  -9.096  1.00  0.00     0.017 C 
BRANCH   7  12
ATOM     12  C   UNL     1       5.175  -6.734  -5.025  1.00  0.00     0.227 C 
ATOM     13  O   UNL     1       5.227  -7.894  -4.599  1.00  0.00    -0.275 OA
BRANCH  12  14
ATOM     14  C   UNL     1       5.399  -5.604  -4.026  1.00  0.00     0.094 C 
ATOM     15  N   UNL     1       3.072  -4.813  -4.080  1.00  0.00    -0.197 NA
ATOM     16  C   UNL     1       3.397  -3.611  -4.864  1.00  0.00     0.102 C 
ATOM     17  C   UNL     1       4.101  -5.457  -3.246  1.00  0.00     0.116 C 
ATOM     18  C   UNL     1       4.879  -3.289  -5.033  1.00  0.00     0.018 C 
ATOM     19  C   UNL     1       5.909  -4.232  -4.424  1.00  0.00     0.016 C 
BRANCH  15  20
ATOM     20  S   UNL     1       1.443  -5.058  -3.672  1.00  0.00     0.243 S 
ATOM     21  O   UNL     1       1.295  -6.370  -3.099  1.00  0.00    -0.207 OA
ATOM     22  O   UNL     1       0.650  -4.624  -4.810  1.00  0.00    -0.207 OA
BRANCH  20  23
ATOM     23  C   UNL     1       1.095  -3.894  -2.369  1.00  0.00     0.082 A 
ATOM     24  C   UNL     1       0.406  -1.970  -0.474  1.00  0.00     0.118 A 
ATOM     25  C   UNL     1      -0.576  -2.805  -1.008  1.00  0.00     0.048 A 
ATOM     26  C   UNL     1       1.740  -2.141  -0.838  1.00  0.00     0.048 A 
ATOM     27  C   UNL     1      -0.237  -3.763  -1.965  1.00  0.00     0.025 A 
ATOM     28  C   UNL     1       2.084  -3.096  -1.792  1.00  0.00     0.025 A 
BRANCH  24  29
ATOM     29  O   UNL     1      -0.013  -1.020   0.417  1.00  0.00    -0.497 OA
ATOM     30  C   UNL     1       0.620   0.244   0.227  1.00  0.00     0.278 C 
ENDBRANCH  24  29
ENDBRANCH  20  23
ENDBRANCH  15  20
ENDBRANCH  12  14
ENDBRANCH   7  12
ENDBRANCH   3   6
ENDBRANCH   1   2
BRANCH   1  31
ATOM     31  C   UNL     1       6.939 -10.027  -7.161  1.00  0.00     0.042 C 
BRANCH  31  32
ATOM     32  C   UNL     1       8.006 -10.916  -6.559  1.00  0.00     0.118 C 
BRANCH  32  33
ATOM     33  N   UNL     1       8.044 -10.871  -5.096  1.00  0.00    -0.352 N 
ATOM     34  C   UNL     1       8.061 -11.903  -4.185  1.00  0.00     0.251 C 
ATOM     35  H   UNL     1       8.059  -9.968  -4.706  1.00  0.00     0.163 HD
ATOM     36  O   UNL     1       8.040 -11.668  -2.980  1.00  0.00    -0.269 OA
BRANCH  34  37
ATOM     37  C   UNL     1       8.054 -13.300  -4.668  1.00  0.00     0.039 A 
ATOM     38  C   UNL     1       7.173 -14.219  -4.090  1.00  0.00     0.014 A 
ATOM     39  C   UNL     1       8.851 -13.675  -5.748  1.00  0.00     0.014 A 
ATOM     40  C   UNL     1       7.023 -15.484  -4.664  1.00  0.00     0.010 A 
ATOM     41  C   UNL     1       8.604 -14.877  -6.391  1.00  0.00     0.010 A 
ATOM     42  C   UNL     1       7.696 -15.802  -5.853  1.00  0.00    -0.014 A 
BRANCH  42  43
ATOM     43  C   UNL     1       7.503 -17.093  -6.564  1.00  0.00     0.031 A 
ATOM     44  C   UNL     1       8.704 -17.956  -6.854  1.00  0.00     0.074 A 
ATOM     45  C   UNL     1       6.297 -17.416  -7.071  1.00  0.00     0.049 A 
ATOM     46  N   UNL     1       8.803 -19.002  -7.630  1.00  0.00    -0.248 NA
ATOM     47  C   UNL     1       9.979 -17.549  -6.234  1.00  0.00     0.031 C 
ATOM     48  C   UNL     1       5.074 -16.619  -6.940  1.00  0.00     0.029 A 
ATOM     49  N   UNL     1       5.908 -18.489  -7.834  1.00  0.00    -0.354 N 
ATOM     50  C   UNL     1      10.155 -19.327  -7.653  1.00  0.00     0.074 A 
ATOM     51  C   UNL     1      10.842 -18.346  -6.844  1.00  0.00     0.031 C 
ATOM     52  C   UNL     1       4.073 -17.234  -7.591  1.00  0.00     0.029 A 
ATOM     53  C   UNL     1       4.586 -18.449  -8.215  1.00  0.00     0.049 A 
ATOM     54  H   UNL     1       6.519 -19.220  -8.086  1.00  0.00     0.167 HD
ATOM     55  C   UNL     1      10.767 -20.371  -8.259  1.00  0.00     0.034 A 
ATOM     56  C   UNL     1       3.872 -19.295  -8.984  1.00  0.00     0.034 A 
ATOM     57  C   UNL     1      10.062 -21.403  -8.966  1.00  0.00     0.049 A 
ATOM     58  C   UNL     1       4.552 -20.516  -9.544  1.00  0.00     0.074 A 
ATOM     59  C   UNL     1      10.566 -22.566  -9.518  1.00  0.00     0.029 A 
ATOM     60  N   UNL     1       8.695 -21.406  -9.195  1.00  0.00    -0.354 N 
ATOM     61  N   UNL     1       5.806 -20.883  -9.436  1.00  0.00    -0.248 NA
ATOM     62  C   UNL     1       3.714 -21.459 -10.298  1.00  0.00     0.031 C 
ATOM     63  C   UNL     1       9.499 -23.278 -10.077  1.00  0.00     0.029 A 
ATOM     64  C   UNL     1       8.332 -22.559  -9.867  1.00  0.00     0.049 A 
ATOM     65  H   UNL     1       8.074 -20.693  -8.920  1.00  0.00     0.167 HD
ATOM     66  C   UNL     1       5.900 -22.114 -10.073  1.00  0.00     0.074 A 
ATOM     67  C   UNL     1       4.572 -22.439 -10.550  1.00  0.00     0.031 C 
ATOM     68  C   UNL     1       6.990 -22.897 -10.263  1.00  0.00     0.034 A 
BRANCH  55  69
ATOM     69  C   UNL     1      12.260 -20.489  -8.109  1.00  0.00     0.023 A 
ATOM     70  C   UNL     1      12.805 -20.841  -6.857  1.00  0.00     0.012 A 
ATOM     71  C   UNL     1      13.122 -20.289  -9.205  1.00  0.00     0.148 A 
ATOM     72  C   UNL     1      14.184 -20.951  -6.686  1.00  0.00     0.002 A 
ATOM     73  C   UNL     1      14.493 -20.446  -9.038  1.00  0.00     0.091 A 
ATOM     74  F   UNL     1      12.590 -19.931 -10.383  1.00  0.00    -0.205 F 
ATOM     75  C   UNL     1      15.026 -20.763  -7.778  1.00  0.00     0.022 A 
BRANCH  73  76
ATOM     76  S   UNL     1      15.655 -20.304 -10.402  1.00  0.00     0.127 S 
ATOM     77  O   UNL     1      16.272 -19.007 -10.131  1.00  0.00    -0.237 OA
ATOM     78  O   UNL     1      16.533 -21.454 -10.181  1.00  0.00    -0.237 OA
ATOM     79  O   UNL     1      14.855 -20.380 -11.616  1.00  0.00    -0.744 OA
ENDBRANCH  73  76
ENDBRANCH  55  69
BRANCH  56  80
ATOM     80  C   UNL     1       2.413 -19.068  -9.185  1.00  0.00     0.023 A 
ATOM     81  C   UNL     1       1.494 -19.914  -8.533  1.00  0.00     0.012 A 
ATOM     82  C   UNL     1       1.926 -18.010  -9.977  1.00  0.00     0.148 A 
ATOM     83  C   UNL     1       0.120 -19.732  -8.688  1.00  0.00     0.002 A 
ATOM     84  C   UNL     1       0.554 -17.804 -10.089  1.00  0.00     0.091 A 
ATOM     85  F   UNL     1       2.812 -17.222 -10.601  1.00  0.00    -0.205 F 
ATOM     86  C   UNL     1      -0.350 -18.672  -9.457  1.00  0.00     0.022 A 
BRANCH  84  87
ATOM     87  S   UNL     1      -0.136 -16.390 -10.957  1.00  0.00     0.127 S 
ATOM     88  O   UNL     1      -0.617 -17.002 -12.192  1.00  0.00    -0.237 OA
ATOM     89  O   UNL     1      -1.187 -15.948 -10.039  1.00  0.00    -0.237 OA
ATOM     90  O   UNL     1       0.966 -15.447 -11.100  1.00  0.00    -0.744 OA
ENDBRANCH  84  87
ENDBRANCH  56  80
BRANCH  68  91
ATOM     91  C   UNL     1       6.797 -24.207 -10.975  1.00  0.00     0.023 A 
ATOM     92  C   UNL     1       6.624 -24.221 -12.372  1.00  0.00     0.012 A 
ATOM     93  C   UNL     1       6.894 -25.425 -10.274  1.00  0.00     0.148 A 
ATOM     94  C   UNL     1       6.529 -25.430 -13.060  1.00  0.00     0.002 A 
ATOM     95  C   UNL     1       6.843 -26.626 -10.971  1.00  0.00     0.091 A 
ATOM     96  F   UNL     1       7.039 -25.387  -8.941  1.00  0.00    -0.205 F 
ATOM     97  C   UNL     1       6.652 -26.630 -12.362  1.00  0.00     0.022 A 
BRANCH  95  98
ATOM     98  S   UNL     1       7.089 -28.212 -10.164  1.00  0.00     0.127 S 
ATOM     99  O   UNL     1       5.725 -28.734 -10.109  1.00  0.00    -0.237 OA
ATOM    100  O   UNL     1       7.971 -28.907 -11.103  1.00  0.00    -0.237 OA
ATOM    101  O   UNL     1       7.700 -27.913  -8.876  1.00  0.00    -0.744 OA
ENDBRANCH  95  98
ENDBRANCH  68  91
ENDBRANCH  42  43
ENDBRANCH  34  37
ENDBRANCH  32  33
ENDBRANCH  31  32
ENDBRANCH   1  31
TORSDOF 18
