REMARK SMILES CCOc1cc(/C=C(/F)C(=O)NCCCNC(=O)c2ccc(-c3c4nc(c(-c5cccc(S(=O)(=O)[O-])c5F)c5ccc([nH]5)c(-c5cccc(S(=O)(=O)[O-])c5F)c5nc(c(-c6cccc(S(=O)(=O)[O-])c6F)c6ccc3[nH]6)C=C5)C=C4)cc2)ccc1O
REMARK SMILES IDX 14 1 13 2 12 3 10 4 11 5 8 7 7 8 9 9 6 10 4 11 5 12 84 13
REMARK SMILES IDX 83 14 82 15 3 16 2 17 1 18 85 19 15 21 16 22 17 23 18 25
REMARK SMILES IDX 19 26 20 27 81 28 21 29 80 30 22 31 23 32 24 33 74 34 25 35
REMARK SMILES IDX 79 36 73 37 75 38 26 39 78 40 72 41 71 42 27 44 59 45 39 46
REMARK SMILES IDX 58 47 40 48 43 49 57 50 76 51 41 52 42 53 56 55 77 56 44 57
REMARK SMILES IDX 28 58 29 59 37 60 30 61 32 62 38 63 31 64 33 65 34 66 35 67
REMARK SMILES IDX 36 68 60 69 61 70 69 71 62 72 64 73 70 74 63 75 65 76 66 77
REMARK SMILES IDX 67 78 68 79 45 80 46 81 54 82 47 83 49 84 55 85 48 86 50 87
REMARK SMILES IDX 51 88 52 89 53 90
REMARK H PARENT 12 6 85 20 16 24 75 43 43 54
REMARK Flexibility Score: inf
ROOT
ATOM      1  C   UNL     1       1.038  -6.315   7.333  1.00  0.00     0.042 C 
ENDROOT
BRANCH   1   2
ATOM      2  C   UNL     1       2.417  -5.837   6.895  1.00  0.00     0.118 C 
BRANCH   2   3
ATOM      3  N   UNL     1       2.439  -5.285   5.551  1.00  0.00    -0.350 N 
ATOM      4  C   UNL     1       2.527  -4.013   5.070  1.00  0.00     0.280 C 
ATOM      5  O   UNL     1       2.704  -3.910   3.857  1.00  0.00    -0.267 OA
ATOM      6  H   UNL     1       2.378  -5.968   4.845  1.00  0.00     0.163 HD
BRANCH   4   7
ATOM      7  C   UNL     1       2.418  -2.831   5.976  1.00  0.00     0.188 C 
ATOM      8  C   UNL     1       2.255  -1.530   5.679  1.00  0.00     0.053 C 
ATOM      9  F   UNL     1       2.544  -3.110   7.293  1.00  0.00    -0.201 F 
BRANCH   8  10
ATOM     10  C   UNL     1       2.121  -0.761   4.426  1.00  0.00    -0.019 A 
ATOM     11  C   UNL     1       1.710  -0.481   2.040  1.00  0.00     0.161 A 
ATOM     12  C   UNL     1       1.686  -1.273   3.195  1.00  0.00     0.058 A 
ATOM     13  C   UNL     1       2.062   0.865   2.135  1.00  0.00     0.157 A 
ATOM     14  C   UNL     1       2.428   1.413   3.352  1.00  0.00     0.051 A 
ATOM     15  C   UNL     1       2.471   0.602   4.486  1.00  0.00     0.012 A 
BRANCH  11  16
ATOM     16  O   UNL     1       1.712  -1.112   0.825  1.00  0.00    -0.490 OA
BRANCH  16  17
ATOM     17  C   UNL     1       0.452  -1.223   0.172  1.00  0.00     0.226 C 
ATOM     18  C   UNL     1       0.415  -0.235  -0.984  1.00  0.00     0.049 C 
ENDBRANCH  16  17
ENDBRANCH  11  16
BRANCH  13  19
ATOM     19  O   UNL     1       2.090   1.705   1.062  1.00  0.00    -0.504 OA
ATOM     20  H   UNL     1       1.852   1.389   0.212  1.00  0.00     0.293 HD
ENDBRANCH  13  19
ENDBRANCH   8  10
ENDBRANCH   4   7
ENDBRANCH   2   3
ENDBRANCH   1   2
BRANCH   1  21
ATOM     21  C   UNL     1       0.370  -7.308   6.383  1.00  0.00     0.118 C 
BRANCH  21  22
ATOM     22  N   UNL     1       1.199  -8.469   6.081  1.00  0.00    -0.352 N 
ATOM     23  C   UNL     1       0.994  -9.807   6.317  1.00  0.00     0.251 C 
ATOM     24  H   UNL     1       2.050  -8.259   5.633  1.00  0.00     0.163 HD
ATOM     25  O   UNL     1       1.905 -10.600   6.108  1.00  0.00    -0.269 OA
BRANCH  23  26
ATOM     26  C   UNL     1      -0.302 -10.293   6.839  1.00  0.00     0.039 A 
ATOM     27  C   UNL     1      -0.299 -11.263   7.846  1.00  0.00     0.014 A 
ATOM     28  C   UNL     1      -1.514  -9.822   6.330  1.00  0.00     0.014 A 
ATOM     29  C   UNL     1      -1.507 -11.705   8.390  1.00  0.00     0.010 A 
ATOM     30  C   UNL     1      -2.713 -10.204   6.928  1.00  0.00     0.010 A 
ATOM     31  C   UNL     1      -2.725 -11.151   7.963  1.00  0.00    -0.014 A 
BRANCH  31  32
ATOM     32  C   UNL     1      -4.013 -11.536   8.598  1.00  0.00     0.031 A 
ATOM     33  C   UNL     1      -5.101 -12.187   7.783  1.00  0.00     0.074 A 
ATOM     34  C   UNL     1      -4.239 -11.218   9.889  1.00  0.00     0.049 A 
ATOM     35  N   UNL     1      -6.309 -12.531   8.149  1.00  0.00    -0.248 NA
ATOM     36  C   UNL     1      -4.805 -12.464   6.367  1.00  0.00     0.031 C 
ATOM     37  C   UNL     1      -3.299 -10.514  10.765  1.00  0.00     0.029 A 
ATOM     38  N   UNL     1      -5.342 -11.416  10.684  1.00  0.00    -0.354 N 
ATOM     39  C   UNL     1      -6.928 -13.023   7.006  1.00  0.00     0.074 A 
ATOM     40  C   UNL     1      -5.972 -12.912   5.927  1.00  0.00     0.031 C 
ATOM     41  C   UNL     1      -3.864 -10.339  11.971  1.00  0.00     0.029 A 
ATOM     42  C   UNL     1      -5.216 -10.886  11.947  1.00  0.00     0.049 A 
ATOM     43  H   UNL     1      -6.147 -11.894  10.378  1.00  0.00     0.167 HD
ATOM     44  C   UNL     1      -8.171 -13.543   6.872  1.00  0.00     0.034 A 
ATOM     45  C   UNL     1      -6.095 -10.831  12.968  1.00  0.00     0.034 A 
ATOM     46  C   UNL     1      -9.101 -13.701   7.957  1.00  0.00     0.049 A 
ATOM     47  C   UNL     1      -7.452 -11.462  12.800  1.00  0.00     0.074 A 
ATOM     48  C   UNL     1     -10.344 -14.311   7.940  1.00  0.00     0.029 A 
ATOM     49  N   UNL     1      -8.900 -13.241   9.248  1.00  0.00    -0.354 N 
ATOM     50  N   UNL     1      -7.952 -12.077  11.757  1.00  0.00    -0.248 NA
ATOM     51  C   UNL     1      -8.351 -11.427  13.963  1.00  0.00     0.031 C 
ATOM     52  C   UNL     1     -10.907 -14.192   9.213  1.00  0.00     0.029 A 
ATOM     53  C   UNL     1      -9.999 -13.541  10.033  1.00  0.00     0.049 A 
ATOM     54  H   UNL     1      -8.094 -12.770   9.560  1.00  0.00     0.167 HD
ATOM     55  C   UNL     1      -9.204 -12.537  12.150  1.00  0.00     0.074 A 
ATOM     56  C   UNL     1      -9.376 -12.150  13.534  1.00  0.00     0.031 C 
ATOM     57  C   UNL     1     -10.134 -13.207  11.426  1.00  0.00     0.034 A 
BRANCH  44  58
ATOM     58  C   UNL     1      -8.595 -14.031   5.512  1.00  0.00     0.023 A 
ATOM     59  C   UNL     1      -8.045 -15.222   4.995  1.00  0.00     0.012 A 
ATOM     60  C   UNL     1      -9.613 -13.370   4.795  1.00  0.00     0.148 A 
ATOM     61  C   UNL     1      -8.484 -15.735   3.776  1.00  0.00     0.002 A 
ATOM     62  C   UNL     1     -10.077 -13.913   3.603  1.00  0.00     0.091 A 
ATOM     63  F   UNL     1     -10.110 -12.231   5.296  1.00  0.00    -0.205 F 
ATOM     64  C   UNL     1      -9.508 -15.089   3.087  1.00  0.00     0.022 A 
BRANCH  62  65
ATOM     65  S   UNL     1     -11.448 -13.207   2.682  1.00  0.00     0.127 S 
ATOM     66  O   UNL     1     -10.785 -12.768   1.455  1.00  0.00    -0.237 OA
ATOM     67  O   UNL     1     -12.333 -14.361   2.518  1.00  0.00    -0.237 OA
ATOM     68  O   UNL     1     -11.986 -12.138   3.512  1.00  0.00    -0.744 OA
ENDBRANCH  62  65
ENDBRANCH  44  58
BRANCH  45  69
ATOM     69  C   UNL     1      -5.712 -10.194  14.261  1.00  0.00     0.023 A 
ATOM     70  C   UNL     1      -5.566 -10.991  15.413  1.00  0.00     0.012 A 
ATOM     71  C   UNL     1      -5.500  -8.805  14.358  1.00  0.00     0.148 A 
ATOM     72  C   UNL     1      -5.266 -10.413  16.647  1.00  0.00     0.002 A 
ATOM     73  C   UNL     1      -5.142  -8.242  15.578  1.00  0.00     0.091 A 
ATOM     74  F   UNL     1      -5.655  -8.059  13.255  1.00  0.00    -0.205 F 
ATOM     75  C   UNL     1      -5.046  -9.040  16.728  1.00  0.00     0.022 A 
BRANCH  73  76
ATOM     76  S   UNL     1      -4.711  -6.507  15.742  1.00  0.00     0.127 S 
ATOM     77  O   UNL     1      -5.889  -5.967  16.415  1.00  0.00    -0.237 OA
ATOM     78  O   UNL     1      -3.503  -6.569  16.566  1.00  0.00    -0.237 OA
ATOM     79  O   UNL     1      -4.481  -6.033  14.383  1.00  0.00    -0.744 OA
ENDBRANCH  73  76
ENDBRANCH  45  69
BRANCH  57  80
ATOM     80  C   UNL     1     -11.404 -13.618  12.123  1.00  0.00     0.023 A 
ATOM     81  C   UNL     1     -12.364 -12.648  12.471  1.00  0.00     0.012 A 
ATOM     82  C   UNL     1     -11.676 -14.979  12.366  1.00  0.00     0.148 A 
ATOM     83  C   UNL     1     -13.560 -13.023  13.082  1.00  0.00     0.002 A 
ATOM     84  C   UNL     1     -12.892 -15.350  12.926  1.00  0.00     0.091 A 
ATOM     85  F   UNL     1     -10.742 -15.886  12.043  1.00  0.00    -0.205 F 
ATOM     86  C   UNL     1     -13.829 -14.373  13.298  1.00  0.00     0.022 A 
BRANCH  84  87
ATOM     87  S   UNL     1     -13.366 -17.069  13.147  1.00  0.00     0.127 S 
ATOM     88  O   UNL     1     -13.279 -17.217  14.599  1.00  0.00    -0.237 OA
ATOM     89  O   UNL     1     -14.727 -17.086  12.612  1.00  0.00    -0.237 OA
ATOM     90  O   UNL     1     -12.406 -17.852  12.381  1.00  0.00    -0.744 OA
ENDBRANCH  84  87
ENDBRANCH  57  80
ENDBRANCH  31  32
ENDBRANCH  23  26
ENDBRANCH  21  22
ENDBRANCH   1  21
TORSDOF 17
