REMARK SMILES C[C@H](C(=O)NCCCNC(=O)c1ccc(-c2c3nc(c(-c4cccc(S(=O)(=O)[O-])c4F)c4ccc([nH]4)c(-c4cccc(S(=O)(=O)[O-])c4F)c4nc(c(-c5cccc(S(=O)(=O)[O-])c5F)c5ccc2[nH]5)C=C4)C=C3)cc1)[N@@H+]1CCc2ccccc2C1
REMARK SMILES IDX 8 1 7 2 6 3 5 4 3 5 4 6 2 8 1 9 75 10 76 11 84 12 77 14
REMARK SMILES IDX 83 15 78 16 82 17 79 18 81 19 80 20 9 21 10 22 11 24 12 25
REMARK SMILES IDX 13 26 74 27 14 28 73 29 15 30 16 31 17 32 67 33 18 34 72 35
REMARK SMILES IDX 66 36 68 37 19 38 71 39 65 40 64 41 20 43 52 44 32 45 51 46
REMARK SMILES IDX 33 47 36 48 50 49 69 50 34 51 35 52 49 54 70 55 37 56 21 57
REMARK SMILES IDX 22 58 30 59 23 60 25 61 31 62 24 63 26 64 27 65 28 66 29 67
REMARK SMILES IDX 53 68 54 69 62 70 55 71 57 72 63 73 56 74 58 75 59 76 60 77
REMARK SMILES IDX 61 78 38 79 39 80 47 81 40 82 42 83 48 84 41 85 43 86 44 87
REMARK SMILES IDX 45 88 46 89
REMARK H PARENT 5 7 75 13 9 23 68 42 36 53
REMARK Flexibility Score: inf
ROOT
ATOM      1  C   UNL     1      -0.932   3.386   1.770  1.00  0.00     0.118 C 
ENDROOT
BRANCH   1   2
ATOM      2  C   UNL     1      -1.646   2.161   1.218  1.00  0.00     0.042 C 
BRANCH   2   3
ATOM      3  C   UNL     1      -1.133   1.710  -0.147  1.00  0.00     0.118 C 
BRANCH   3   4
ATOM      4  N   UNL     1       0.275   1.368  -0.087  1.00  0.00    -0.351 N 
ATOM      5  C   UNL     1       0.902   0.180  -0.318  1.00  0.00     0.278 C 
ATOM      6  O   UNL     1       2.103   0.119  -0.043  1.00  0.00    -0.268 OA
ATOM      7  H   UNL     1       0.872   2.111   0.160  1.00  0.00     0.163 HD
BRANCH   5   8
ATOM      8  C   UNL     1       0.142  -0.965  -1.015  1.00  0.00     0.271 C 
ATOM      9  C   UNL     1       1.174  -1.612  -1.975  1.00  0.00     0.086 C 
BRANCH   8  10
ATOM     10  N   UNL     1      -0.534  -1.948  -0.122  1.00  0.00    -0.321 N 
ATOM     11  C   UNL     1      -1.278  -1.456   1.070  1.00  0.00     0.267 C 
ATOM     12  C   UNL     1       0.278  -3.095   0.234  1.00  0.00     0.299 C 
ATOM     13  H   UNL     1      -1.272  -2.235  -0.765  1.00  0.00     0.349 HD
ATOM     14  C   UNL     1      -1.363  -2.453   2.301  1.00  0.00     0.097 C 
ATOM     15  C   UNL     1       0.927  -2.927   1.567  1.00  0.00     0.010 A 
ATOM     16  C   UNL     1       0.038  -2.918   2.644  1.00  0.00    -0.034 A 
ATOM     17  C   UNL     1       2.291  -2.804   1.774  1.00  0.00     0.010 A 
ATOM     18  C   UNL     1       0.515  -3.287   3.892  1.00  0.00     0.004 A 
ATOM     19  C   UNL     1       2.780  -3.023   3.052  1.00  0.00     0.001 A 
ATOM     20  C   UNL     1       1.899  -3.384   4.079  1.00  0.00     0.000 A 
ENDBRANCH   8  10
ENDBRANCH   5   8
ENDBRANCH   3   4
ENDBRANCH   2   3
ENDBRANCH   1   2
BRANCH   1  21
ATOM     21  N   UNL     1      -1.173   4.570   0.961  1.00  0.00    -0.352 N 
ATOM     22  C   UNL     1      -1.752   5.756   1.320  1.00  0.00     0.251 C 
ATOM     23  H   UNL     1      -0.879   4.508   0.024  1.00  0.00     0.163 HD
ATOM     24  O   UNL     1      -2.089   6.551   0.435  1.00  0.00    -0.269 OA
BRANCH  22  25
ATOM     25  C   UNL     1      -1.978   6.090   2.742  1.00  0.00     0.039 A 
ATOM     26  C   UNL     1      -3.130   6.797   3.092  1.00  0.00     0.014 A 
ATOM     27  C   UNL     1      -1.040   5.756   3.725  1.00  0.00     0.014 A 
ATOM     28  C   UNL     1      -3.344   7.157   4.424  1.00  0.00     0.010 A 
ATOM     29  C   UNL     1      -1.307   6.022   5.064  1.00  0.00     0.010 A 
ATOM     30  C   UNL     1      -2.438   6.766   5.423  1.00  0.00    -0.014 A 
BRANCH  30  31
ATOM     31  C   UNL     1      -2.629   7.191   6.834  1.00  0.00     0.031 A 
ATOM     32  C   UNL     1      -1.600   8.063   7.507  1.00  0.00     0.074 A 
ATOM     33  C   UNL     1      -3.707   6.768   7.521  1.00  0.00     0.049 A 
ATOM     34  N   UNL     1      -1.593   8.542   8.725  1.00  0.00    -0.248 NA
ATOM     35  C   UNL     1      -0.406   8.422   6.721  1.00  0.00     0.031 C 
ATOM     36  C   UNL     1      -4.730   5.853   7.011  1.00  0.00     0.029 A 
ATOM     37  N   UNL     1      -4.114   7.040   8.803  1.00  0.00    -0.354 N 
ATOM     38  C   UNL     1      -0.391   9.228   8.857  1.00  0.00     0.074 A 
ATOM     39  C   UNL     1       0.332   9.056   7.618  1.00  0.00     0.031 C 
ATOM     40  C   UNL     1      -5.652   5.648   7.965  1.00  0.00     0.029 A 
ATOM     41  C   UNL     1      -5.273   6.395   9.162  1.00  0.00     0.049 A 
ATOM     42  H   UNL     1      -3.621   7.640   9.408  1.00  0.00     0.167 HD
ATOM     43  C   UNL     1       0.058   9.969   9.898  1.00  0.00     0.034 A 
ATOM     44  C   UNL     1      -5.954   6.402  10.324  1.00  0.00     0.034 A 
ATOM     45  C   UNL     1      -0.679  10.167  11.116  1.00  0.00     0.049 A 
ATOM     46  C   UNL     1      -5.464   7.271  11.450  1.00  0.00     0.074 A 
ATOM     47  C   UNL     1      -0.349  10.952  12.206  1.00  0.00     0.029 A 
ATOM     48  N   UNL     1      -1.895   9.567  11.409  1.00  0.00    -0.354 N 
ATOM     49  N   UNL     1      -4.395   8.028  11.504  1.00  0.00    -0.248 NA
ATOM     50  C   UNL     1      -6.299   7.324  12.659  1.00  0.00     0.031 C 
ATOM     51  C   UNL     1      -1.353  10.805  13.170  1.00  0.00     0.029 A 
ATOM     52  C   UNL     1      -2.329   9.963  12.662  1.00  0.00     0.049 A 
ATOM     53  H   UNL     1      -2.378   8.950  10.813  1.00  0.00     0.167 HD
ATOM     54  C   UNL     1      -4.449   8.678  12.731  1.00  0.00     0.074 A 
ATOM     55  C   UNL     1      -5.667   8.239  13.381  1.00  0.00     0.031 C 
ATOM     56  C   UNL     1      -3.567   9.553  13.276  1.00  0.00     0.034 A 
BRANCH  43  57
ATOM     57  C   UNL     1       1.389  10.661   9.737  1.00  0.00     0.023 A 
ATOM     58  C   UNL     1       1.517  11.721   8.813  1.00  0.00     0.012 A 
ATOM     59  C   UNL     1       2.502  10.290  10.516  1.00  0.00     0.148 A 
ATOM     60  C   UNL     1       2.741  12.364   8.631  1.00  0.00     0.002 A 
ATOM     61  C   UNL     1       3.704  10.972  10.367  1.00  0.00     0.091 A 
ATOM     62  F   UNL     1       2.370   9.270  11.375  1.00  0.00    -0.205 F 
ATOM     63  C   UNL     1       3.830  11.997   9.414  1.00  0.00     0.022 A 
BRANCH  61  64
ATOM     64  S   UNL     1       5.144  10.633  11.386  1.00  0.00     0.127 S 
ATOM     65  O   UNL     1       6.050  10.011  10.420  1.00  0.00    -0.237 OA
ATOM     66  O   UNL     1       5.539  11.975  11.814  1.00  0.00    -0.237 OA
ATOM     67  O   UNL     1       4.682   9.764  12.459  1.00  0.00    -0.744 OA
ENDBRANCH  61  64
ENDBRANCH  43  57
BRANCH  44  68
ATOM     68  C   UNL     1      -7.206   5.605  10.453  1.00  0.00     0.023 A 
ATOM     69  C   UNL     1      -8.450   6.261  10.527  1.00  0.00     0.012 A 
ATOM     70  C   UNL     1      -7.170   4.197  10.464  1.00  0.00     0.148 A 
ATOM     71  C   UNL     1      -9.633   5.531  10.646  1.00  0.00     0.002 A 
ATOM     72  C   UNL     1      -8.355   3.475  10.523  1.00  0.00     0.091 A 
ATOM     73  F   UNL     1      -5.975   3.594  10.397  1.00  0.00    -0.205 F 
ATOM     74  C   UNL     1      -9.587   4.139  10.633  1.00  0.00     0.022 A 
BRANCH  72  75
ATOM     75  S   UNL     1      -8.401   1.686  10.375  1.00  0.00     0.127 S 
ATOM     76  O   UNL     1      -8.833   1.286  11.712  1.00  0.00    -0.237 OA
ATOM     77  O   UNL     1      -9.400   1.498   9.322  1.00  0.00    -0.237 OA
ATOM     78  O   UNL     1      -7.052   1.285  10.001  1.00  0.00    -0.744 OA
ENDBRANCH  72  75
ENDBRANCH  44  68
BRANCH  56  79
ATOM     79  C   UNL     1      -3.908  10.141  14.621  1.00  0.00     0.023 A 
ATOM     80  C   UNL     1      -3.867   9.338  15.778  1.00  0.00     0.012 A 
ATOM     81  C   UNL     1      -4.215  11.511  14.741  1.00  0.00     0.148 A 
ATOM     82  C   UNL     1      -4.170   9.879  17.027  1.00  0.00     0.002 A 
ATOM     83  C   UNL     1      -4.461  12.055  15.995  1.00  0.00     0.091 A 
ATOM     84  F   UNL     1      -4.268  12.255  13.627  1.00  0.00    -0.205 F 
ATOM     85  C   UNL     1      -4.455  11.238  17.137  1.00  0.00     0.022 A 
BRANCH  83  86
ATOM     86  S   UNL     1      -4.737  13.813  16.241  1.00  0.00     0.127 S 
ATOM     87  O   UNL     1      -6.172  13.854  16.515  1.00  0.00    -0.237 OA
ATOM     88  O   UNL     1      -3.886  14.102  17.396  1.00  0.00    -0.237 OA
ATOM     89  O   UNL     1      -4.316  14.461  15.006  1.00  0.00    -0.744 OA
ENDBRANCH  83  86
ENDBRANCH  56  79
ENDBRANCH  30  31
ENDBRANCH  22  25
ENDBRANCH   1  21
TORSDOF 14
