REMARK SMILES O=C(NCCCNC(=O)[C@H]1C[C@H](O)CN1C(=O)c1ccccc1O)c1ccc(-c2c3nc(c(-c4cccc(S(=O)(=O)[O-])c4F)c4ccc([nH]4)c(-c4cccc(S(=O)(=O)[O-])c4F)c4nc(c(-c5cccc(S(=O)(=O)[O-])c5F)c5ccc2[nH]5)C=C4)C=C3)cc1
REMARK SMILES IDX 5 1 4 2 3 3 1 4 2 5 25 7 26 8 87 9 27 10 86 11 28 12 29 13
REMARK SMILES IDX 30 14 80 15 31 16 85 17 79 18 81 19 32 20 84 21 78 22 77 23
REMARK SMILES IDX 33 25 65 26 45 27 64 28 46 29 49 30 63 31 82 32 47 33 48 34
REMARK SMILES IDX 62 36 83 37 50 38 34 39 35 40 43 41 36 42 38 43 44 44 37 45
REMARK SMILES IDX 39 46 40 47 41 48 42 49 66 50 67 51 75 52 68 53 70 54 76 55
REMARK SMILES IDX 69 56 71 57 72 58 73 59 74 60 51 61 52 62 60 63 53 64 55 65
REMARK SMILES IDX 61 66 54 67 56 68 57 69 58 70 59 71 6 72 7 73 8 74 9 76
REMARK SMILES IDX 10 77 11 78 15 79 12 80 14 81 16 82 17 83 18 84 19 85 23 86
REMARK SMILES IDX 20 87 22 88 21 89 24 90 13 92
REMARK H PARENT 3 6 81 24 49 35 7 75 24 91 13 93
REMARK Flexibility Score: inf
ROOT
ATOM      1  C   UNL     1       4.896  -2.396  -1.181  1.00  0.00     0.042 C 
ENDROOT
BRANCH   1   2
ATOM      2  C   UNL     1       4.535  -0.916  -1.233  1.00  0.00     0.118 C 
BRANCH   2   3
ATOM      3  N   UNL     1       3.115  -0.655  -1.034  1.00  0.00    -0.352 N 
ATOM      4  O   UNL     1       1.197  -0.085  -0.026  1.00  0.00    -0.269 OA
ATOM      5  C   UNL     1       2.428  -0.054  -0.007  1.00  0.00     0.251 C 
ATOM      6  H   UNL     1       2.542  -0.967  -1.772  1.00  0.00     0.163 HD
BRANCH   5   7
ATOM      7  C   UNL     1       3.131   0.588   1.128  1.00  0.00     0.039 A 
ATOM      8  C   UNL     1       4.294   1.333   0.942  1.00  0.00     0.014 A 
ATOM      9  C   UNL     1       2.588   0.472   2.413  1.00  0.00     0.014 A 
ATOM     10  C   UNL     1       5.012   1.789   2.045  1.00  0.00     0.010 A 
ATOM     11  C   UNL     1       3.258   1.022   3.513  1.00  0.00     0.010 A 
ATOM     12  C   UNL     1       4.506   1.638   3.346  1.00  0.00    -0.014 A 
BRANCH  12  13
ATOM     13  C   UNL     1       5.288   2.163   4.498  1.00  0.00     0.031 A 
ATOM     14  C   UNL     1       5.815   1.244   5.570  1.00  0.00     0.074 A 
ATOM     15  C   UNL     1       5.552   3.484   4.561  1.00  0.00     0.049 A 
ATOM     16  N   UNL     1       6.589   1.527   6.587  1.00  0.00    -0.248 NA
ATOM     17  C   UNL     1       5.416  -0.171   5.503  1.00  0.00     0.031 C 
ATOM     18  C   UNL     1       5.055   4.487   3.617  1.00  0.00     0.029 A 
ATOM     19  N   UNL     1       6.312   4.209   5.445  1.00  0.00    -0.354 N 
ATOM     20  C   UNL     1       6.734   0.345   7.303  1.00  0.00     0.074 A 
ATOM     21  C   UNL     1       5.959  -0.662   6.610  1.00  0.00     0.031 C 
ATOM     22  C   UNL     1       5.559   5.686   3.942  1.00  0.00     0.029 A 
ATOM     23  C   UNL     1       6.380   5.548   5.140  1.00  0.00     0.049 A 
ATOM     24  H   UNL     1       6.765   3.809   6.222  1.00  0.00     0.167 HD
ATOM     25  C   UNL     1       7.462   0.110   8.421  1.00  0.00     0.034 A 
ATOM     26  C   UNL     1       7.035   6.555   5.749  1.00  0.00     0.034 A 
ATOM     27  C   UNL     1       8.280   1.097   9.077  1.00  0.00     0.049 A 
ATOM     28  C   UNL     1       7.878   6.254   6.956  1.00  0.00     0.074 A 
ATOM     29  C   UNL     1       9.120   0.933  10.165  1.00  0.00     0.029 A 
ATOM     30  N   UNL     1       8.359   2.432   8.711  1.00  0.00    -0.354 N 
ATOM     31  N   UNL     1       8.121   5.099   7.524  1.00  0.00    -0.248 NA
ATOM     32  C   UNL     1       8.562   7.392   7.587  1.00  0.00     0.031 C 
ATOM     33  C   UNL     1       9.696   2.172  10.465  1.00  0.00     0.029 A 
ATOM     34  C   UNL     1       9.225   3.105   9.556  1.00  0.00     0.049 A 
ATOM     35  H   UNL     1       7.870   2.841   7.960  1.00  0.00     0.167 HD
ATOM     36  C   UNL     1       9.005   5.364   8.563  1.00  0.00     0.074 A 
ATOM     37  C   UNL     1       9.277   6.787   8.526  1.00  0.00     0.031 C 
ATOM     38  C   UNL     1       9.529   4.511   9.476  1.00  0.00     0.034 A 
BRANCH  25  39
ATOM     39  C   UNL     1       7.452  -1.286   8.989  1.00  0.00     0.023 A 
ATOM     40  C   UNL     1       8.179  -2.305   8.341  1.00  0.00     0.012 A 
ATOM     41  C   UNL     1       6.784  -1.575  10.195  1.00  0.00     0.148 A 
ATOM     42  C   UNL     1       8.220  -3.595   8.869  1.00  0.00     0.002 A 
ATOM     43  C   UNL     1       6.860  -2.854  10.736  1.00  0.00     0.091 A 
ATOM     44  F   UNL     1       6.077  -0.600  10.786  1.00  0.00    -0.205 F 
ATOM     45  C   UNL     1       7.570  -3.866  10.070  1.00  0.00     0.022 A 
BRANCH  43  46
ATOM     46  S   UNL     1       6.117  -3.276  12.317  1.00  0.00     0.127 S 
ATOM     47  O   UNL     1       4.922  -4.005  11.896  1.00  0.00    -0.237 OA
ATOM     48  O   UNL     1       7.151  -4.107  12.936  1.00  0.00    -0.237 OA
ATOM     49  O   UNL     1       5.879  -2.009  12.993  1.00  0.00    -0.744 OA
ENDBRANCH  43  46
ENDBRANCH  25  39
BRANCH  26  50
ATOM     50  C   UNL     1       6.979   7.928   5.173  1.00  0.00     0.023 A 
ATOM     51  C   UNL     1       8.130   8.469   4.567  1.00  0.00     0.012 A 
ATOM     52  C   UNL     1       5.787   8.677   5.173  1.00  0.00     0.148 A 
ATOM     53  C   UNL     1       8.099   9.739   3.990  1.00  0.00     0.002 A 
ATOM     54  C   UNL     1       5.748   9.917   4.547  1.00  0.00     0.091 A 
ATOM     55  F   UNL     1       4.707   8.154   5.773  1.00  0.00    -0.205 F 
ATOM     56  C   UNL     1       6.906  10.456   3.968  1.00  0.00     0.022 A 
BRANCH  54  57
ATOM     57  S   UNL     1       4.218  10.838   4.351  1.00  0.00     0.127 S 
ATOM     58  O   UNL     1       4.367  11.882   5.361  1.00  0.00    -0.237 OA
ATOM     59  O   UNL     1       4.315  11.302   2.966  1.00  0.00    -0.237 OA
ATOM     60  O   UNL     1       3.153   9.872   4.582  1.00  0.00    -0.744 OA
ENDBRANCH  54  57
ENDBRANCH  26  50
BRANCH  38  61
ATOM     61  C   UNL     1      10.468   5.085  10.503  1.00  0.00     0.023 A 
ATOM     62  C   UNL     1       9.953   5.870  11.554  1.00  0.00     0.012 A 
ATOM     63  C   UNL     1      11.846   4.801  10.464  1.00  0.00     0.148 A 
ATOM     64  C   UNL     1      10.800   6.390  12.531  1.00  0.00     0.002 A 
ATOM     65  C   UNL     1      12.678   5.286  11.467  1.00  0.00     0.091 A 
ATOM     66  F   UNL     1      12.323   4.072   9.444  1.00  0.00    -0.205 F 
ATOM     67  C   UNL     1      12.159   6.089  12.495  1.00  0.00     0.022 A 
BRANCH  65  68
ATOM     68  S   UNL     1      14.424   4.867  11.539  1.00  0.00     0.127 S 
ATOM     69  O   UNL     1      15.044   6.067  10.982  1.00  0.00    -0.237 OA
ATOM     70  O   UNL     1      14.645   4.677  12.974  1.00  0.00    -0.237 OA
ATOM     71  O   UNL     1      14.570   3.653  10.746  1.00  0.00    -0.744 OA
ENDBRANCH  65  68
ENDBRANCH  38  61
ENDBRANCH  12  13
ENDBRANCH   5   7
ENDBRANCH   2   3
ENDBRANCH   1   2
BRANCH   1  72
ATOM     72  C   UNL     1       4.177  -3.265  -2.201  1.00  0.00     0.117 C 
BRANCH  72  73
ATOM     73  N   UNL     1       4.367  -2.842  -3.578  1.00  0.00    -0.354 N 
ATOM     74  C   UNL     1       5.182  -3.357  -4.551  1.00  0.00     0.242 C 
ATOM     75  H   UNL     1       3.827  -2.067  -3.854  1.00  0.00     0.163 HD
ATOM     76  O   UNL     1       5.027  -2.944  -5.702  1.00  0.00    -0.273 OA
BRANCH  74  77
ATOM     77  C   UNL     1       6.190  -4.465  -4.174  1.00  0.00     0.177 C 
ATOM     78  C   UNL     1       5.469  -5.808  -4.009  1.00  0.00     0.069 C 
ATOM     79  N   UNL     1       7.181  -4.714  -5.227  1.00  0.00    -0.324 N 
ATOM     80  C   UNL     1       5.663  -6.498  -5.356  1.00  0.00     0.136 C 
ATOM     81  C   UNL     1       7.067  -6.064  -5.751  1.00  0.00     0.152 C 
BRANCH  79  82
ATOM     82  C   UNL     1       8.137  -3.767  -5.536  1.00  0.00     0.258 C 
ATOM     83  O   UNL     1       8.341  -2.788  -4.818  1.00  0.00    -0.269 OA
BRANCH  82  84
ATOM     84  C   UNL     1       8.981  -3.938  -6.748  1.00  0.00     0.081 A 
ATOM     85  C   UNL     1      10.367  -3.784  -6.600  1.00  0.00     0.018 A 
ATOM     86  C   UNL     1       8.451  -4.131  -8.031  1.00  0.00     0.128 A 
ATOM     87  C   UNL     1      11.211  -3.882  -7.709  1.00  0.00     0.001 A 
ATOM     88  C   UNL     1       9.296  -4.245  -9.138  1.00  0.00     0.047 A 
ATOM     89  C   UNL     1      10.676  -4.125  -8.974  1.00  0.00     0.004 A 
BRANCH  86  90
ATOM     90  O   UNL     1       7.100  -4.195  -8.226  1.00  0.00    -0.507 OA
ATOM     91  H   UNL     1       6.517  -4.120  -7.496  1.00  0.00     0.293 HD
ENDBRANCH  86  90
ENDBRANCH  82  84
ENDBRANCH  79  82
BRANCH  80  92
ATOM     92  O   UNL     1       5.524  -7.905  -5.240  1.00  0.00    -0.391 OA
ATOM     93  H   UNL     1       6.155  -8.240  -4.583  1.00  0.00     0.211 HD
ENDBRANCH  80  92
ENDBRANCH  74  77
ENDBRANCH  72  73
ENDBRANCH   1  72
TORSDOF 17
