REMARK SMILES C/C(=C/c1cccc(OCC(=O)NCCCNC(=O)c2ccc(-c3c4nc(c(-c5cccc(S(=O)(=O)[O-])c5F)c5ccc([nH]5)c(-c5cccc(S(=O)(=O)[O-])c5F)c5nc(c(-c6cccc(S(=O)(=O)[O-])c6F)c6ccc3[nH]6)C=C5)C=C4)cc2)c1)c1nc2sccc2c(=O)[nH]1
REMARK SMILES IDX 14 1 13 2 11 3 12 4 10 6 9 7 8 8 4 9 5 10 83 11 6 12 7 13
REMARK SMILES IDX 3 14 1 15 2 16 84 17 85 18 93 19 86 20 91 21 87 23 90 24
REMARK SMILES IDX 92 25 88 26 89 27 15 28 16 29 17 30 18 31 19 33 20 34 21 35
REMARK SMILES IDX 82 36 22 37 81 38 23 39 24 40 25 41 75 42 26 43 80 44 74 45
REMARK SMILES IDX 76 46 27 47 79 48 73 49 72 50 28 52 60 53 40 54 59 55 41 56
REMARK SMILES IDX 44 57 58 58 77 59 42 60 43 61 57 63 78 64 45 65 29 66 30 67
REMARK SMILES IDX 38 68 31 69 33 70 39 71 32 72 34 73 35 74 36 75 37 76 61 77
REMARK SMILES IDX 62 78 70 79 63 80 65 81 71 82 64 83 66 84 67 85 68 86 69 87
REMARK SMILES IDX 46 88 47 89 55 90 48 91 50 92 56 93 49 94 51 95 52 96 53 97
REMARK SMILES IDX 54 98
REMARK H PARENT 13 5 93 22 17 32 76 51 44 62
REMARK Flexibility Score: inf
ROOT
ATOM      1  C   UNL     1       0.567   8.088  -2.247  1.00  0.00     0.117 C 
ENDROOT
BRANCH   1   2
ATOM      2  N   UNL     1       1.447   7.022  -1.807  1.00  0.00    -0.353 N 
ATOM      3  C   UNL     1       1.958   5.996  -2.553  1.00  0.00     0.257 C 
ATOM      4  O   UNL     1       2.905   5.347  -2.108  1.00  0.00    -0.271 OA
ATOM      5  H   UNL     1       1.708   7.040  -0.858  1.00  0.00     0.163 HD
BRANCH   3   6
ATOM      6  C   UNL     1       1.400   5.704  -3.946  1.00  0.00     0.329 C 
BRANCH   6   7
ATOM      7  O   UNL     1      -0.008   5.612  -4.056  1.00  0.00    -0.484 OA
BRANCH   7   8
ATOM      8  C   UNL     1      -0.632   4.493  -3.580  1.00  0.00     0.120 A 
ATOM      9  C   UNL     1      -0.825   2.350  -2.449  1.00  0.00    -0.022 A 
ATOM     10  C   UNL     1      -2.202   2.347  -2.696  1.00  0.00     0.008 A 
ATOM     11  C   UNL     1      -0.038   3.421  -2.908  1.00  0.00     0.054 A 
ATOM     12  C   UNL     1      -2.795   3.413  -3.368  1.00  0.00     0.004 A 
ATOM     13  C   UNL     1      -2.012   4.480  -3.803  1.00  0.00     0.046 A 
BRANCH   9  14
ATOM     14  C   UNL     1      -0.245   1.210  -1.723  1.00  0.00     0.015 C 
ATOM     15  C   UNL     1       1.051   0.039   0.068  1.00  0.00     0.048 C 
ATOM     16  C   UNL     1       0.465   1.256  -0.580  1.00  0.00    -0.008 C 
BRANCH  16  17
ATOM     17  C   UNL     1       0.759   2.538   0.118  1.00  0.00     0.137 A 
ATOM     18  N   UNL     1       1.979   2.926   0.336  1.00  0.00    -0.219 NA
ATOM     19  N   UNL     1      -0.360   3.233   0.522  1.00  0.00    -0.306 N 
ATOM     20  C   UNL     1       2.083   4.139   0.940  1.00  0.00     0.131 A 
ATOM     21  C   UNL     1      -0.306   4.448   1.169  1.00  0.00     0.259 A 
ATOM     22  H   UNL     1      -1.245   2.841   0.339  1.00  0.00     0.171 HD
ATOM     23  S   UNL     1       3.595   4.877   1.237  1.00  0.00    -0.124 S 
ATOM     24  C   UNL     1       1.042   4.936   1.365  1.00  0.00     0.077 A 
ATOM     25  O   UNL     1      -1.304   5.056   1.522  1.00  0.00    -0.269 OA
ATOM     26  C   UNL     1       2.856   6.278   1.893  1.00  0.00     0.068 A 
ATOM     27  C   UNL     1       1.484   6.167   1.931  1.00  0.00     0.028 A 
ENDBRANCH  16  17
ENDBRANCH   9  14
ENDBRANCH   7   8
ENDBRANCH   6   7
ENDBRANCH   3   6
ENDBRANCH   1   2
BRANCH   1  28
ATOM     28  C   UNL     1      -0.870   7.983  -1.747  1.00  0.00     0.042 C 
BRANCH  28  29
ATOM     29  C   UNL     1      -1.079   8.083  -0.238  1.00  0.00     0.118 C 
BRANCH  29  30
ATOM     30  N   UNL     1      -0.464   9.243   0.388  1.00  0.00    -0.352 N 
ATOM     31  C   UNL     1      -0.945  10.084   1.364  1.00  0.00     0.251 C 
ATOM     32  H   UNL     1       0.439   9.461   0.062  1.00  0.00     0.163 HD
ATOM     33  O   UNL     1      -0.248  11.028   1.732  1.00  0.00    -0.269 OA
BRANCH  31  34
ATOM     34  C   UNL     1      -2.295   9.900   1.946  1.00  0.00     0.039 A 
ATOM     35  C   UNL     1      -3.107  11.030   2.095  1.00  0.00     0.014 A 
ATOM     36  C   UNL     1      -2.765   8.650   2.358  1.00  0.00     0.014 A 
ATOM     37  C   UNL     1      -4.413  10.898   2.577  1.00  0.00     0.010 A 
ATOM     38  C   UNL     1      -4.085   8.512   2.795  1.00  0.00     0.010 A 
ATOM     39  C   UNL     1      -4.927   9.630   2.894  1.00  0.00    -0.014 A 
BRANCH  39  40
ATOM     40  C   UNL     1      -6.359   9.456   3.255  1.00  0.00     0.031 A 
ATOM     41  C   UNL     1      -6.766   9.016   4.633  1.00  0.00     0.074 A 
ATOM     42  C   UNL     1      -7.298   9.613   2.301  1.00  0.00     0.049 A 
ATOM     43  N   UNL     1      -7.966   8.795   5.105  1.00  0.00    -0.248 NA
ATOM     44  C   UNL     1      -5.686   8.778   5.602  1.00  0.00     0.031 C 
ATOM     45  C   UNL     1      -7.030   9.963   0.904  1.00  0.00     0.029 A 
ATOM     46  N   UNL     1      -8.663   9.473   2.351  1.00  0.00    -0.354 N 
ATOM     47  C   UNL     1      -7.789   8.366   6.414  1.00  0.00     0.074 A 
ATOM     48  C   UNL     1      -6.361   8.336   6.655  1.00  0.00     0.031 C 
ATOM     49  C   UNL     1      -8.191  10.008   0.232  1.00  0.00     0.029 A 
ATOM     50  C   UNL     1      -9.283   9.670   1.139  1.00  0.00     0.049 A 
ATOM     51  H   UNL     1      -9.152   9.252   3.176  1.00  0.00     0.167 HD
ATOM     52  C   UNL     1      -8.728   8.050   7.340  1.00  0.00     0.034 A 
ATOM     53  C   UNL     1     -10.583   9.587   0.793  1.00  0.00     0.034 A 
ATOM     54  C   UNL     1     -10.148   8.110   7.111  1.00  0.00     0.049 A 
ATOM     55  C   UNL     1     -11.607   9.268   1.847  1.00  0.00     0.074 A 
ATOM     56  C   UNL     1     -11.175   7.896   8.014  1.00  0.00     0.029 A 
ATOM     57  N   UNL     1     -10.743   8.394   5.891  1.00  0.00    -0.354 N 
ATOM     58  N   UNL     1     -11.430   9.038   3.125  1.00  0.00    -0.248 NA
ATOM     59  C   UNL     1     -13.014   9.235   1.420  1.00  0.00     0.031 C 
ATOM     60  C   UNL     1     -12.392   8.036   7.336  1.00  0.00     0.029 A 
ATOM     61  C   UNL     1     -12.123   8.351   6.014  1.00  0.00     0.049 A 
ATOM     62  H   UNL     1     -10.257   8.598   5.060  1.00  0.00     0.167 HD
ATOM     63  C   UNL     1     -12.701   8.865   3.662  1.00  0.00     0.074 A 
ATOM     64  C   UNL     1     -13.641   9.037   2.573  1.00  0.00     0.031 C 
ATOM     65  C   UNL     1     -13.055   8.575   4.938  1.00  0.00     0.034 A 
BRANCH  52  66
ATOM     66  C   UNL     1      -8.247   7.665   8.714  1.00  0.00     0.023 A 
ATOM     67  C   UNL     1      -7.731   8.662   9.568  1.00  0.00     0.012 A 
ATOM     68  C   UNL     1      -8.352   6.341   9.184  1.00  0.00     0.148 A 
ATOM     69  C   UNL     1      -7.296   8.343  10.853  1.00  0.00     0.002 A 
ATOM     70  C   UNL     1      -7.951   6.038  10.481  1.00  0.00     0.091 A 
ATOM     71  F   UNL     1      -8.824   5.401   8.353  1.00  0.00    -0.205 F 
ATOM     72  C   UNL     1      -7.414   7.035  11.313  1.00  0.00     0.022 A 
BRANCH  70  73
ATOM     73  S   UNL     1      -8.135   4.394  11.184  1.00  0.00     0.127 S 
ATOM     74  O   UNL     1      -6.769   3.882  11.101  1.00  0.00    -0.237 OA
ATOM     75  O   UNL     1      -8.595   4.684  12.543  1.00  0.00    -0.237 OA
ATOM     76  O   UNL     1      -9.117   3.715  10.349  1.00  0.00    -0.744 OA
ENDBRANCH  70  73
ENDBRANCH  52  66
BRANCH  53  77
ATOM     77  C   UNL     1     -10.993   9.897  -0.605  1.00  0.00     0.023 A 
ATOM     78  C   UNL     1     -11.675  11.101  -0.868  1.00  0.00     0.012 A 
ATOM     79  C   UNL     1     -10.672   9.040  -1.675  1.00  0.00     0.148 A 
ATOM     80  C   UNL     1     -12.050  11.436  -2.169  1.00  0.00     0.002 A 
ATOM     81  C   UNL     1     -11.002   9.404  -2.976  1.00  0.00     0.091 A 
ATOM     82  F   UNL     1     -10.034   7.893  -1.402  1.00  0.00    -0.205 F 
ATOM     83  C   UNL     1     -11.704  10.595  -3.223  1.00  0.00     0.022 A 
BRANCH  81  84
ATOM     84  S   UNL     1     -10.484   8.448  -4.406  1.00  0.00     0.127 S 
ATOM     85  O   UNL     1     -11.749   7.875  -4.857  1.00  0.00    -0.237 OA
ATOM     86  O   UNL     1      -9.930   9.484  -5.279  1.00  0.00    -0.237 OA
ATOM     87  O   UNL     1      -9.500   7.496  -3.907  1.00  0.00    -0.744 OA
ENDBRANCH  81  84
ENDBRANCH  53  77
BRANCH  65  88
ATOM     88  C   UNL     1     -14.524   8.443   5.244  1.00  0.00     0.023 A 
ATOM     89  C   UNL     1     -15.224   7.298   4.814  1.00  0.00     0.012 A 
ATOM     90  C   UNL     1     -15.193   9.412   6.018  1.00  0.00     0.148 A 
ATOM     91  C   UNL     1     -16.573   7.132   5.126  1.00  0.00     0.002 A 
ATOM     92  C   UNL     1     -16.527   9.219   6.362  1.00  0.00     0.091 A 
ATOM     93  F   UNL     1     -14.518  10.505   6.399  1.00  0.00    -0.205 F 
ATOM     94  C   UNL     1     -17.220   8.085   5.909  1.00  0.00     0.022 A 
BRANCH  92  95
ATOM     95  S   UNL     1     -17.412  10.350   7.441  1.00  0.00     0.127 S 
ATOM     96  O   UNL     1     -18.248  11.078   6.489  1.00  0.00    -0.237 OA
ATOM     97  O   UNL     1     -18.144   9.437   8.321  1.00  0.00    -0.237 OA
ATOM     98  O   UNL     1     -16.390  11.140   8.113  1.00  0.00    -0.744 OA
ENDBRANCH  92  95
ENDBRANCH  65  88
ENDBRANCH  39  40
ENDBRANCH  31  34
ENDBRANCH  29  30
ENDBRANCH  28  29
ENDBRANCH   1  28
TORSDOF 17
