REMARK SMILES O=C(CN(CC(=O)NCc1ccccc1)c1ccccc1)NCCCNC(=O)c1ccc(-c2c3nc(c(-c4cccc(S(=O)(=O)[O-])c4F)c4ccc([nH]4)c(-c4cccc(S(=O)(=O)[O-])c4F)c4nc(c(-c5cccc(S(=O)(=O)[O-])c5F)c5ccc2[nH]5)C=C4)C=C3)cc1
REMARK SMILES IDX 23 1 22 2 1 3 2 4 3 6 4 7 5 8 6 9 7 10 8 11 9 13 10 14 11 15
REMARK SMILES IDX 15 16 12 17 14 18 13 19 16 20 17 21 21 22 18 23 20 24 19 25
REMARK SMILES IDX 24 26 25 27 26 28 27 29 28 31 29 32 30 33 91 34 31 35 90 36
REMARK SMILES IDX 32 37 33 38 34 39 84 40 35 41 89 42 83 43 85 44 36 45 88 46
REMARK SMILES IDX 82 47 81 48 37 50 69 51 49 52 68 53 50 54 53 55 67 56 86 57
REMARK SMILES IDX 51 58 52 59 66 61 87 62 54 63 38 64 39 65 47 66 40 67 42 68
REMARK SMILES IDX 48 69 41 70 43 71 44 72 45 73 46 74 70 75 71 76 79 77 72 78
REMARK SMILES IDX 74 79 80 80 73 81 75 82 76 83 77 84 78 85 55 86 56 87 64 88
REMARK SMILES IDX 57 89 59 90 65 91 58 92 60 93 61 94 62 95 63 96
REMARK H PARENT 22 5 8 12 26 30 85 49 53 60
REMARK Flexibility Score: inf
ROOT
ATOM      1  C   UNL     1       2.121   2.404   0.886  1.00  0.00     0.117 C 
ENDROOT
BRANCH   1   2
ATOM      2  N   UNL     1       2.790   1.231   0.365  1.00  0.00    -0.354 N 
ATOM      3  O   UNL     1       0.990  -0.163   0.636  1.00  0.00    -0.273 OA
ATOM      4  C   UNL     1       2.133   0.031   0.225  1.00  0.00     0.239 C 
ATOM      5  H   UNL     1       3.737   1.293   0.105  1.00  0.00     0.163 HD
BRANCH   4   6
ATOM      6  C   UNL     1       2.938  -1.075  -0.442  1.00  0.00     0.217 C 
BRANCH   6   7
ATOM      7  N   UNL     1       3.789  -0.704  -1.612  1.00  0.00    -0.353 N 
BRANCH   7   8
ATOM      8  C   UNL     1       5.222  -1.103  -1.523  1.00  0.00     0.217 C 
BRANCH   8   9
ATOM      9  C   UNL     1       5.721  -2.213  -2.464  1.00  0.00     0.239 C 
ATOM     10  O   UNL     1       6.680  -2.007  -3.219  1.00  0.00    -0.273 OA
ATOM     11  N   UNL     1       5.167  -3.456  -2.509  1.00  0.00    -0.350 N 
ATOM     12  H   UNL     1       5.454  -4.010  -3.270  1.00  0.00     0.163 HD
BRANCH  11  13
ATOM     13  C   UNL     1       4.226  -4.087  -1.619  1.00  0.00     0.151 C 
BRANCH  13  14
ATOM     14  C   UNL     1       2.986  -4.580  -2.322  1.00  0.00    -0.029 A 
ATOM     15  C   UNL     1       2.023  -3.685  -2.805  1.00  0.00     0.005 A 
ATOM     16  C   UNL     1       2.732  -5.951  -2.459  1.00  0.00     0.005 A 
ATOM     17  C   UNL     1       0.816  -4.129  -3.345  1.00  0.00     0.000 A 
ATOM     18  C   UNL     1       1.531  -6.402  -3.019  1.00  0.00     0.000 A 
ATOM     19  C   UNL     1       0.567  -5.492  -3.446  1.00  0.00     0.000 A 
ENDBRANCH  13  14
ENDBRANCH  11  13
ENDBRANCH   8   9
ENDBRANCH   7   8
BRANCH   7  20
ATOM     20  C   UNL     1       3.241  -0.195  -2.791  1.00  0.00     0.038 A 
ATOM     21  C   UNL     1       3.691  -0.572  -4.070  1.00  0.00     0.026 A 
ATOM     22  C   UNL     1       2.171   0.715  -2.800  1.00  0.00     0.026 A 
ATOM     23  C   UNL     1       3.104  -0.111  -5.260  1.00  0.00     0.002 A 
ATOM     24  C   UNL     1       1.594   1.212  -3.981  1.00  0.00     0.002 A 
ATOM     25  C   UNL     1       2.054   0.789  -5.216  1.00  0.00     0.000 A 
ENDBRANCH   7  20
ENDBRANCH   6   7
ENDBRANCH   4   6
ENDBRANCH   1   2
BRANCH   1  26
ATOM     26  C   UNL     1       2.451   2.667   2.346  1.00  0.00     0.042 C 
BRANCH  26  27
ATOM     27  C   UNL     1       3.936   2.879   2.610  1.00  0.00     0.118 C 
BRANCH  27  28
ATOM     28  N   UNL     1       4.489   4.013   1.879  1.00  0.00    -0.352 N 
ATOM     29  C   UNL     1       5.144   5.126   2.343  1.00  0.00     0.251 C 
ATOM     30  H   UNL     1       4.375   3.974   0.902  1.00  0.00     0.163 HD
ATOM     31  O   UNL     1       5.394   6.049   1.567  1.00  0.00    -0.269 OA
BRANCH  29  32
ATOM     32  C   UNL     1       5.530   5.231   3.765  1.00  0.00     0.039 A 
ATOM     33  C   UNL     1       5.328   6.443   4.431  1.00  0.00     0.014 A 
ATOM     34  C   UNL     1       6.090   4.145   4.444  1.00  0.00     0.014 A 
ATOM     35  C   UNL     1       5.624   6.543   5.792  1.00  0.00     0.010 A 
ATOM     36  C   UNL     1       6.302   4.222   5.817  1.00  0.00     0.010 A 
ATOM     37  C   UNL     1       6.076   5.422   6.507  1.00  0.00    -0.014 A 
BRANCH  37  38
ATOM     38  C   UNL     1       6.299   5.481   7.975  1.00  0.00     0.031 A 
ATOM     39  C   UNL     1       7.666   5.226   8.550  1.00  0.00     0.074 A 
ATOM     40  C   UNL     1       5.250   5.683   8.799  1.00  0.00     0.049 A 
ATOM     41  N   UNL     1       8.037   5.180   9.803  1.00  0.00    -0.248 NA
ATOM     42  C   UNL     1       8.755   4.962   7.594  1.00  0.00     0.031 C 
ATOM     43  C   UNL     1       3.861   5.867   8.371  1.00  0.00     0.029 A 
ATOM     44  N   UNL     1       5.184   5.739  10.169  1.00  0.00    -0.354 N 
ATOM     45  C   UNL     1       9.387   4.848   9.790  1.00  0.00     0.074 A 
ATOM     46  C   UNL     1       9.762   4.670   8.404  1.00  0.00     0.031 C 
ATOM     47  C   UNL     1       3.083   6.022   9.454  1.00  0.00     0.029 A 
ATOM     48  C   UNL     1       3.907   5.911  10.653  1.00  0.00     0.049 A 
ATOM     49  H   UNL     1       5.975   5.663  10.750  1.00  0.00     0.167 HD
ATOM     50  C   UNL     1      10.243   4.729  10.832  1.00  0.00     0.034 A 
ATOM     51  C   UNL     1       3.448   5.960  11.919  1.00  0.00     0.034 A 
ATOM     52  C   UNL     1       9.875   4.939  12.206  1.00  0.00     0.049 A 
ATOM     53  C   UNL     1       4.425   5.849  13.057  1.00  0.00     0.074 A 
ATOM     54  C   UNL     1      10.689   4.926  13.325  1.00  0.00     0.029 A 
ATOM     55  N   UNL     1       8.587   5.187  12.653  1.00  0.00    -0.354 N 
ATOM     56  N   UNL     1       5.726   5.690  13.016  1.00  0.00    -0.248 NA
ATOM     57  C   UNL     1       3.877   5.960  14.417  1.00  0.00     0.031 C 
ATOM     58  C   UNL     1       9.886   5.130  14.452  1.00  0.00     0.029 A 
ATOM     59  C   UNL     1       8.579   5.313  14.032  1.00  0.00     0.049 A 
ATOM     60  H   UNL     1       7.793   5.262  12.075  1.00  0.00     0.167 HD
ATOM     61  C   UNL     1       6.155   5.720  14.338  1.00  0.00     0.074 A 
ATOM     62  C   UNL     1       4.978   5.934  15.154  1.00  0.00     0.031 C 
ATOM     63  C   UNL     1       7.410   5.574  14.831  1.00  0.00     0.034 A 
BRANCH  50  64
ATOM     64  C   UNL     1      11.680   4.391  10.524  1.00  0.00     0.023 A 
ATOM     65  C   UNL     1      12.504   5.347   9.894  1.00  0.00     0.012 A 
ATOM     66  C   UNL     1      12.232   3.154  10.913  1.00  0.00     0.148 A 
ATOM     67  C   UNL     1      13.841   5.064   9.621  1.00  0.00     0.002 A 
ATOM     68  C   UNL     1      13.579   2.898  10.681  1.00  0.00     0.091 A 
ATOM     69  F   UNL     1      11.430   2.251  11.494  1.00  0.00    -0.205 F 
ATOM     70  C   UNL     1      14.381   3.846  10.024  1.00  0.00     0.022 A 
BRANCH  68  71
ATOM     71  S   UNL     1      14.389   1.394  11.235  1.00  0.00     0.127 S 
ATOM     72  O   UNL     1      14.661   0.722   9.966  1.00  0.00    -0.237 OA
ATOM     73  O   UNL     1      15.575   1.917  11.914  1.00  0.00    -0.237 OA
ATOM     74  O   UNL     1      13.437   0.720  12.107  1.00  0.00    -0.744 OA
ENDBRANCH  68  71
ENDBRANCH  50  64
BRANCH  51  75
ATOM     75  C   UNL     1       1.996   6.175  12.178  1.00  0.00     0.023 A 
ATOM     76  C   UNL     1       1.563   7.393  12.737  1.00  0.00     0.012 A 
ATOM     77  C   UNL     1       1.043   5.189  11.858  1.00  0.00     0.148 A 
ATOM     78  C   UNL     1       0.212   7.611  13.008  1.00  0.00     0.002 A 
ATOM     79  C   UNL     1      -0.307   5.435  12.077  1.00  0.00     0.091 A 
ATOM     80  F   UNL     1       1.476   4.034  11.335  1.00  0.00    -0.205 F 
ATOM     81  C   UNL     1      -0.724   6.637  12.670  1.00  0.00     0.022 A 
BRANCH  79  82
ATOM     82  S   UNL     1      -1.593   4.294  11.555  1.00  0.00     0.127 S 
ATOM     83  O   UNL     1      -2.108   3.818  12.836  1.00  0.00    -0.237 OA
ATOM     84  O   UNL     1      -2.495   5.177  10.816  1.00  0.00    -0.237 OA
ATOM     85  O   UNL     1      -0.923   3.295  10.734  1.00  0.00    -0.744 OA
ENDBRANCH  79  82
ENDBRANCH  51  75
BRANCH  63  86
ATOM     86  C   UNL     1       7.593   5.685  16.323  1.00  0.00     0.023 A 
ATOM     87  C   UNL     1       7.125   4.662  17.172  1.00  0.00     0.012 A 
ATOM     88  C   UNL     1       8.296   6.774  16.877  1.00  0.00     0.148 A 
ATOM     89  C   UNL     1       7.320   4.740  18.550  1.00  0.00     0.002 A 
ATOM     90  C   UNL     1       8.534   6.817  18.245  1.00  0.00     0.091 A 
ATOM     91  F   UNL     1       8.719   7.745  16.056  1.00  0.00    -0.205 F 
ATOM     92  C   UNL     1       8.034   5.809  19.085  1.00  0.00     0.022 A 
BRANCH  90  93
ATOM     93  S   UNL     1       9.529   8.102  19.010  1.00  0.00     0.127 S 
ATOM     94  O   UNL     1       8.521   8.858  19.752  1.00  0.00    -0.237 OA
ATOM     95  O   UNL     1      10.446   7.326  19.845  1.00  0.00    -0.237 OA
ATOM     96  O   UNL     1      10.168   8.822  17.917  1.00  0.00    -0.744 OA
ENDBRANCH  90  93
ENDBRANCH  63  86
ENDBRANCH  37  38
ENDBRANCH  29  32
ENDBRANCH  27  28
ENDBRANCH  26  27
ENDBRANCH   1  26
TORSDOF 19
