REMARK SMILES O=C(CCC(=O)N1N=C(c2ccccc2)C[C@@H]1c1ccc2c(c1)OCO2)NCCCNC(=O)c1ccc(-c2c3nc(c(-c4cccc(S(=O)(=O)[O-])c4F)c4ccc([nH]4)c(-c4cccc(S(=O)(=O)[O-])c4F)c4nc(c(-c5cccc(S(=O)(=O)[O-])c5F)c5ccc2[nH]5)C=C4)C=C3)cc1
REMARK SMILES IDX 28 1 27 2 1 3 2 4 3 6 4 7 5 8 6 9 7 10 8 11 17 12 9 13 16 14
REMARK SMILES IDX 18 15 19 16 23 17 20 18 22 19 21 20 24 21 26 22 25 23 10 24
REMARK SMILES IDX 11 25 15 26 12 27 14 28 13 29 29 30 30 31 31 32 32 33 33 35
REMARK SMILES IDX 34 36 35 37 96 38 36 39 95 40 37 41 38 42 39 43 89 44 40 45
REMARK SMILES IDX 94 46 88 47 90 48 41 49 93 50 87 51 86 52 42 54 74 55 54 56
REMARK SMILES IDX 73 57 55 58 58 59 72 60 91 61 56 62 57 63 71 65 92 66 59 67
REMARK SMILES IDX 43 68 44 69 52 70 45 71 47 72 53 73 46 74 48 75 49 76 50 77
REMARK SMILES IDX 51 78 75 79 76 80 84 81 77 82 79 83 85 84 78 85 80 86 81 87
REMARK SMILES IDX 82 88 83 89 60 90 61 91 69 92 62 93 64 94 70 95 63 96 65 97
REMARK SMILES IDX 66 98 67 99 68 100
REMARK H PARENT 27 5 31 34 90 53 58 64
REMARK Flexibility Score: inf
ROOT
ATOM      1  C   UNL     1       0.684  -2.534   1.076  1.00  0.00     0.117 C 
ENDROOT
BRANCH   1   2
ATOM      2  N   UNL     1       1.199  -1.448   0.249  1.00  0.00    -0.356 N 
ATOM      3  O   UNL     1       0.916   0.141   1.878  1.00  0.00    -0.275 OA
ATOM      4  C   UNL     1       1.371  -0.178   0.792  1.00  0.00     0.220 C 
ATOM      5  H   UNL     1       1.426  -1.613  -0.695  1.00  0.00     0.163 HD
BRANCH   4   6
ATOM      6  C   UNL     1       2.264   0.748  -0.031  1.00  0.00     0.110 C 
BRANCH   6   7
ATOM      7  C   UNL     1       3.124   1.653   0.851  1.00  0.00     0.112 C 
BRANCH   7   8
ATOM      8  C   UNL     1       4.473   1.264   1.483  1.00  0.00     0.243 C 
ATOM      9  O   UNL     1       5.225   2.199   1.801  1.00  0.00    -0.273 OA
BRANCH   8  10
ATOM     10  N   UNL     1       4.765  -0.038   1.838  1.00  0.00    -0.225 N 
ATOM     11  N   UNL     1       5.476  -0.281   3.013  1.00  0.00    -0.174 NA
ATOM     12  C   UNL     1       4.415  -1.281   1.158  1.00  0.00     0.147 C 
ATOM     13  C   UNL     1       5.499  -1.569   3.175  1.00  0.00     0.071 C 
ATOM     14  C   UNL     1       4.825  -2.372   2.111  1.00  0.00     0.091 C 
BRANCH  12  15
ATOM     15  C   UNL     1       4.976  -1.411  -0.245  1.00  0.00    -0.019 A 
ATOM     16  C   UNL     1       4.206  -2.054  -1.249  1.00  0.00     0.010 A 
ATOM     17  C   UNL     1       6.192  -0.816  -0.607  1.00  0.00     0.056 A 
ATOM     18  C   UNL     1       4.571  -2.031  -2.594  1.00  0.00     0.051 A 
ATOM     19  C   UNL     1       6.512  -0.774  -1.948  1.00  0.00     0.166 A 
ATOM     20  C   UNL     1       5.716  -1.348  -2.913  1.00  0.00     0.165 A 
ATOM     21  O   UNL     1       7.576  -0.121  -2.489  1.00  0.00    -0.454 OA
ATOM     22  O   UNL     1       6.167  -1.112  -4.172  1.00  0.00    -0.454 OA
ATOM     23  C   UNL     1       7.244  -0.197  -3.891  1.00  0.00     0.468 C 
ENDBRANCH  12  15
BRANCH  13  24
ATOM     24  C   UNL     1       5.947  -2.286   4.377  1.00  0.00    -0.002 A 
ATOM     25  C   UNL     1       5.450  -1.891   5.622  1.00  0.00     0.010 A 
ATOM     26  C   UNL     1       6.642  -3.492   4.241  1.00  0.00     0.010 A 
ATOM     27  C   UNL     1       5.621  -2.729   6.726  1.00  0.00     0.001 A 
ATOM     28  C   UNL     1       6.815  -4.321   5.348  1.00  0.00     0.001 A 
ATOM     29  C   UNL     1       6.293  -3.946   6.586  1.00  0.00     0.000 A 
ENDBRANCH  13  24
ENDBRANCH   8  10
ENDBRANCH   7   8
ENDBRANCH   6   7
ENDBRANCH   4   6
ENDBRANCH   1   2
BRANCH   1  30
ATOM     30  C   UNL     1       0.901  -3.956   0.530  1.00  0.00     0.042 C 
BRANCH  30  31
ATOM     31  C   UNL     1       2.268  -4.631   0.744  1.00  0.00     0.118 C 
BRANCH  31  32
ATOM     32  N   UNL     1       2.645  -4.878   2.124  1.00  0.00    -0.352 N 
ATOM     33  C   UNL     1       3.639  -5.682   2.647  1.00  0.00     0.251 C 
ATOM     34  H   UNL     1       2.107  -4.396   2.793  1.00  0.00     0.163 HD
ATOM     35  O   UNL     1       3.813  -5.672   3.865  1.00  0.00    -0.269 OA
BRANCH  33  36
ATOM     36  C   UNL     1       4.454  -6.611   1.812  1.00  0.00     0.039 A 
ATOM     37  C   UNL     1       4.696  -7.889   2.341  1.00  0.00     0.014 A 
ATOM     38  C   UNL     1       4.958  -6.299   0.546  1.00  0.00     0.014 A 
ATOM     39  C   UNL     1       5.285  -8.886   1.556  1.00  0.00     0.010 A 
ATOM     40  C   UNL     1       5.523  -7.305  -0.255  1.00  0.00     0.010 A 
ATOM     41  C   UNL     1       5.623  -8.623   0.220  1.00  0.00    -0.014 A 
BRANCH  41  42
ATOM     42  C   UNL     1       5.770  -9.757  -0.736  1.00  0.00     0.031 A 
ATOM     43  C   UNL     1       7.083 -10.182  -1.320  1.00  0.00     0.074 A 
ATOM     44  C   UNL     1       4.635 -10.375  -1.126  1.00  0.00     0.049 A 
ATOM     45  N   UNL     1       7.330 -11.180  -2.131  1.00  0.00    -0.248 NA
ATOM     46  C   UNL     1       8.267  -9.390  -0.963  1.00  0.00     0.031 C 
ATOM     47  C   UNL     1       3.287 -10.005  -0.680  1.00  0.00     0.029 A 
ATOM     48  N   UNL     1       4.420 -11.420  -1.988  1.00  0.00    -0.354 N 
ATOM     49  C   UNL     1       8.693 -11.138  -2.394  1.00  0.00     0.074 A 
ATOM     50  C   UNL     1       9.218 -10.000  -1.663  1.00  0.00     0.031 C 
ATOM     51  C   UNL     1       2.391 -10.806  -1.271  1.00  0.00     0.029 A 
ATOM     52  C   UNL     1       3.090 -11.732  -2.153  1.00  0.00     0.049 A 
ATOM     53  H   UNL     1       5.148 -11.900  -2.446  1.00  0.00     0.167 HD
ATOM     54  C   UNL     1       9.435 -11.978  -3.158  1.00  0.00     0.034 A 
ATOM     55  C   UNL     1       2.490 -12.658  -2.926  1.00  0.00     0.034 A 
ATOM     56  C   UNL     1       8.906 -13.110  -3.880  1.00  0.00     0.049 A 
ATOM     57  C   UNL     1       3.340 -13.585  -3.745  1.00  0.00     0.074 A 
ATOM     58  C   UNL     1       9.594 -14.059  -4.619  1.00  0.00     0.029 A 
ATOM     59  N   UNL     1       7.561 -13.435  -3.976  1.00  0.00    -0.354 N 
ATOM     60  N   UNL     1       4.646 -13.641  -3.831  1.00  0.00    -0.248 NA
ATOM     61  C   UNL     1       2.638 -14.599  -4.545  1.00  0.00     0.031 C 
ATOM     62  C   UNL     1       8.664 -14.943  -5.179  1.00  0.00     0.029 A 
ATOM     63  C   UNL     1       7.396 -14.556  -4.777  1.00  0.00     0.049 A 
ATOM     64  H   UNL     1       6.830 -12.942  -3.540  1.00  0.00     0.167 HD
ATOM     65  C   UNL     1       4.926 -14.708  -4.676  1.00  0.00     0.074 A 
ATOM     66  C   UNL     1       3.652 -15.289  -5.051  1.00  0.00     0.031 C 
ATOM     67  C   UNL     1       6.128 -15.152  -5.116  1.00  0.00     0.034 A 
BRANCH  54  68
ATOM     68  C   UNL     1      10.924 -11.743  -3.217  1.00  0.00     0.023 A 
ATOM     69  C   UNL     1      11.720 -12.090  -2.107  1.00  0.00     0.012 A 
ATOM     70  C   UNL     1      11.545 -11.259  -4.386  1.00  0.00     0.148 A 
ATOM     71  C   UNL     1      13.105 -11.933  -2.146  1.00  0.00     0.002 A 
ATOM     72  C   UNL     1      12.931 -11.135  -4.429  1.00  0.00     0.091 A 
ATOM     73  F   UNL     1      10.773 -10.922  -5.429  1.00  0.00    -0.205 F 
ATOM     74  C   UNL     1      13.710 -11.463  -3.308  1.00  0.00     0.022 A 
BRANCH  72  75
ATOM     75  S   UNL     1      13.810 -10.598  -5.902  1.00  0.00     0.127 S 
ATOM     76  O   UNL     1      14.205  -9.240  -5.530  1.00  0.00    -0.237 OA
ATOM     77  O   UNL     1      14.915 -11.555  -5.972  1.00  0.00    -0.237 OA
ATOM     78  O   UNL     1      12.854 -10.696  -6.996  1.00  0.00    -0.744 OA
ENDBRANCH  72  75
ENDBRANCH  54  68
BRANCH  55  79
ATOM     79  C   UNL     1       1.007 -12.788  -2.897  1.00  0.00     0.023 A 
ATOM     80  C   UNL     1       0.423 -13.911  -2.282  1.00  0.00     0.012 A 
ATOM     81  C   UNL     1       0.174 -11.779  -3.419  1.00  0.00     0.148 A 
ATOM     82  C   UNL     1      -0.965 -14.038  -2.207  1.00  0.00     0.002 A 
ATOM     83  C   UNL     1      -1.206 -11.883  -3.288  1.00  0.00     0.091 A 
ATOM     84  F   UNL     1       0.748 -10.724  -4.014  1.00  0.00    -0.205 F 
ATOM     85  C   UNL     1      -1.778 -13.020  -2.697  1.00  0.00     0.022 A 
BRANCH  83  86
ATOM     86  S   UNL     1      -2.308 -10.544  -3.756  1.00  0.00     0.127 S 
ATOM     87  O   UNL     1      -2.850 -11.028  -5.022  1.00  0.00    -0.237 OA
ATOM     88  O   UNL     1      -3.260 -10.525  -2.644  1.00  0.00    -0.237 OA
ATOM     89  O   UNL     1      -1.465  -9.358  -3.832  1.00  0.00    -0.744 OA
ENDBRANCH  83  86
ENDBRANCH  55  79
BRANCH  67  90
ATOM     90  C   UNL     1       6.128 -16.327  -6.059  1.00  0.00     0.023 A 
ATOM     91  C   UNL     1       5.717 -16.142  -7.394  1.00  0.00     0.012 A 
ATOM     92  C   UNL     1       6.585 -17.593  -5.645  1.00  0.00     0.148 A 
ATOM     93  C   UNL     1       5.735 -17.206  -8.296  1.00  0.00     0.002 A 
ATOM     94  C   UNL     1       6.641 -18.638  -6.561  1.00  0.00     0.091 A 
ATOM     95  F   UNL     1       6.948 -17.756  -4.364  1.00  0.00    -0.205 F 
ATOM     96  C   UNL     1       6.207 -18.449  -7.883  1.00  0.00     0.022 A 
BRANCH  94  97
ATOM     97  S   UNL     1       7.314 -20.250  -6.140  1.00  0.00     0.127 S 
ATOM     98  O   UNL     1       6.103 -21.060  -6.033  1.00  0.00    -0.237 OA
ATOM     99  O   UNL     1       8.150 -20.552  -7.303  1.00  0.00    -0.237 OA
ATOM    100  O   UNL     1       8.055 -20.060  -4.900  1.00  0.00    -0.744 OA
ENDBRANCH  94  97
ENDBRANCH  67  90
ENDBRANCH  41  42
ENDBRANCH  33  36
ENDBRANCH  31  32
ENDBRANCH  30  31
ENDBRANCH   1  30
TORSDOF 18
