REMARK SMILES COc1ccc([C@@H](CC(=O)NCCCNC(=O)c2ccc(-c3c4nc(c(-c5cccc(S(=O)(=O)[O-])c5F)c5ccc([nH]5)c(-c5cccc(S(=O)(=O)[O-])c5F)c5nc(c(-c6cccc(S(=O)(=O)[O-])c6F)c6ccc3[nH]6)C=C5)C=C4)cc2)N2C(=O)[C@H]3CC=CC[C@H]3C2=O)cc1OC
REMARK SMILES IDX 13 1 12 2 11 3 9 4 10 5 8 7 7 8 6 9 3 10 4 11 93 12 5 13
REMARK SMILES IDX 92 14 2 15 1 16 94 17 95 18 81 19 82 20 90 21 83 22 84 23
REMARK SMILES IDX 89 24 91 25 85 26 88 27 86 28 87 29 14 30 15 31 16 32 17 34
REMARK SMILES IDX 18 35 19 36 80 37 20 38 79 39 21 40 22 41 23 42 73 43 24 44
REMARK SMILES IDX 78 45 72 46 74 47 25 48 77 49 71 50 70 51 26 53 58 54 38 55
REMARK SMILES IDX 57 56 39 57 42 58 56 59 75 60 40 61 41 62 55 64 76 65 43 66
REMARK SMILES IDX 27 67 28 68 36 69 29 70 31 71 37 72 30 73 32 74 33 75 34 76
REMARK SMILES IDX 35 77 59 78 60 79 68 80 61 81 63 82 69 83 62 84 64 85 65 86
REMARK SMILES IDX 66 87 67 88 44 89 45 90 53 91 46 92 48 93 54 94 47 95 49 96
REMARK SMILES IDX 50 97 51 98 52 99
REMARK H PARENT 11 6 15 33 74 52 42 63
REMARK Flexibility Score: inf
ROOT
ATOM      1  C   UNL     1      -0.401   4.502  -0.450  1.00  0.00     0.042 C 
ENDROOT
BRANCH   1   2
ATOM      2  C   UNL     1       0.471   5.668  -0.900  1.00  0.00     0.117 C 
BRANCH   2   3
ATOM      3  N   UNL     1       0.161   6.846  -0.111  1.00  0.00    -0.356 N 
ATOM      4  C   UNL     1       0.652   7.248   1.094  1.00  0.00     0.222 C 
ATOM      5  O   UNL     1      -0.041   8.061   1.709  1.00  0.00    -0.275 OA
ATOM      6  H   UNL     1      -0.510   7.448  -0.508  1.00  0.00     0.163 HD
BRANCH   4   7
ATOM      7  C   UNL     1       2.025   6.808   1.592  1.00  0.00     0.130 C 
BRANCH   7   8
ATOM      8  C   UNL     1       2.098   5.819   2.789  1.00  0.00     0.133 C 
BRANCH   8   9
ATOM      9  C   UNL     1       1.940   4.375   2.278  1.00  0.00    -0.020 A 
ATOM     10  C   UNL     1       1.618   1.798   1.114  1.00  0.00     0.160 A 
ATOM     11  C   UNL     1       0.599   2.364   1.877  1.00  0.00     0.051 A 
ATOM     12  C   UNL     1       2.842   2.479   1.010  1.00  0.00     0.161 A 
ATOM     13  C   UNL     1       0.766   3.629   2.456  1.00  0.00     0.010 A 
ATOM     14  C   UNL     1       2.987   3.759   1.574  1.00  0.00     0.056 A 
BRANCH  10  15
ATOM     15  O   UNL     1       1.458   0.658   0.376  1.00  0.00    -0.493 OA
ATOM     16  C   UNL     1       0.423  -0.242   0.750  1.00  0.00     0.278 C 
ENDBRANCH  10  15
BRANCH  12  17
ATOM     17  O   UNL     1       3.962   2.033   0.350  1.00  0.00    -0.493 OA
ATOM     18  C   UNL     1       4.138   0.616   0.332  1.00  0.00     0.278 C 
ENDBRANCH  12  17
ENDBRANCH   8   9
BRANCH   8  19
ATOM     19  N   UNL     1       1.231   6.126   3.934  1.00  0.00    -0.274 N 
ATOM     20  C   UNL     1       0.900   7.370   4.373  1.00  0.00     0.234 C 
ATOM     21  C   UNL     1       1.155   5.315   5.033  1.00  0.00     0.234 C 
ATOM     22  O   UNL     1       1.439   8.426   4.069  1.00  0.00    -0.274 OA
ATOM     23  C   UNL     1      -0.146   7.241   5.459  1.00  0.00     0.095 C 
ATOM     24  C   UNL     1       0.009   5.782   5.897  1.00  0.00     0.095 C 
ATOM     25  O   UNL     1       1.896   4.398   5.324  1.00  0.00    -0.274 OA
ATOM     26  C   UNL     1      -1.518   7.642   4.913  1.00  0.00     0.041 C 
ATOM     27  C   UNL     1      -1.183   4.846   5.657  1.00  0.00     0.041 C 
ATOM     28  C   UNL     1      -2.224   6.543   4.178  1.00  0.00    -0.030 C 
ATOM     29  C   UNL     1      -2.075   5.260   4.525  1.00  0.00    -0.030 C 
ENDBRANCH   8  19
ENDBRANCH   7   8
ENDBRANCH   4   7
ENDBRANCH   2   3
ENDBRANCH   1   2
BRANCH   1  30
ATOM     30  C   UNL     1      -1.849   4.534  -0.910  1.00  0.00     0.118 C 
BRANCH  30  31
ATOM     31  N   UNL     1      -2.042   3.787  -2.136  1.00  0.00    -0.352 N 
ATOM     32  C   UNL     1      -2.393   2.486  -2.400  1.00  0.00     0.251 C 
ATOM     33  H   UNL     1      -1.890   4.323  -2.947  1.00  0.00     0.163 HD
ATOM     34  O   UNL     1      -2.234   2.106  -3.563  1.00  0.00    -0.269 OA
BRANCH  32  35
ATOM     35  C   UNL     1      -2.952   1.522  -1.403  1.00  0.00     0.039 A 
ATOM     36  C   UNL     1      -2.853   0.154  -1.715  1.00  0.00     0.014 A 
ATOM     37  C   UNL     1      -3.687   1.878  -0.271  1.00  0.00     0.014 A 
ATOM     38  C   UNL     1      -3.497  -0.820  -0.938  1.00  0.00     0.010 A 
ATOM     39  C   UNL     1      -4.257   0.898   0.559  1.00  0.00     0.010 A 
ATOM     40  C   UNL     1      -4.219  -0.459   0.206  1.00  0.00    -0.014 A 
BRANCH  40  41
ATOM     41  C   UNL     1      -5.022  -1.465   0.963  1.00  0.00     0.031 A 
ATOM     42  C   UNL     1      -6.529  -1.345   1.023  1.00  0.00     0.074 A 
ATOM     43  C   UNL     1      -4.419  -2.479   1.616  1.00  0.00     0.049 A 
ATOM     44  N   UNL     1      -7.398  -2.109   1.637  1.00  0.00    -0.248 NA
ATOM     45  C   UNL     1      -7.138  -0.202   0.321  1.00  0.00     0.031 C 
ATOM     46  C   UNL     1      -2.974  -2.697   1.692  1.00  0.00     0.029 A 
ATOM     47  N   UNL     1      -4.948  -3.511   2.354  1.00  0.00    -0.354 N 
ATOM     48  C   UNL     1      -8.642  -1.521   1.428  1.00  0.00     0.074 A 
ATOM     49  C   UNL     1      -8.412  -0.315   0.664  1.00  0.00     0.031 C 
ATOM     50  C   UNL     1      -2.733  -3.794   2.429  1.00  0.00     0.029 A 
ATOM     51  C   UNL     1      -4.001  -4.350   2.895  1.00  0.00     0.049 A 
ATOM     52  H   UNL     1      -5.916  -3.638   2.484  1.00  0.00     0.167 HD
ATOM     53  C   UNL     1      -9.871  -1.956   1.800  1.00  0.00     0.034 A 
ATOM     54  C   UNL     1      -4.135  -5.446   3.671  1.00  0.00     0.034 A 
ATOM     55  C   UNL     1     -10.117  -3.187   2.501  1.00  0.00     0.049 A 
ATOM     56  C   UNL     1      -5.514  -5.939   4.026  1.00  0.00     0.074 A 
ATOM     57  C   UNL     1     -11.333  -3.747   2.857  1.00  0.00     0.029 A 
ATOM     58  N   UNL     1      -9.133  -4.053   2.947  1.00  0.00    -0.354 N 
ATOM     59  N   UNL     1      -6.681  -5.441   3.696  1.00  0.00    -0.248 NA
ATOM     60  C   UNL     1      -5.595  -7.173   4.824  1.00  0.00     0.031 C 
ATOM     61  C   UNL     1     -11.082  -4.949   3.527  1.00  0.00     0.029 A 
ATOM     62  C   UNL     1      -9.711  -5.146   3.570  1.00  0.00     0.049 A 
ATOM     63  H   UNL     1      -8.165  -3.913   2.837  1.00  0.00     0.167 HD
ATOM     64  C   UNL     1      -7.630  -6.324   4.202  1.00  0.00     0.074 A 
ATOM     65  C   UNL     1      -6.902  -7.395   4.849  1.00  0.00     0.031 C 
ATOM     66  C   UNL     1      -8.982  -6.246   4.146  1.00  0.00     0.034 A 
BRANCH  53  67
ATOM     67  C   UNL     1     -11.061  -1.122   1.395  1.00  0.00     0.023 A 
ATOM     68  C   UNL     1     -11.457  -1.089   0.042  1.00  0.00     0.012 A 
ATOM     69  C   UNL     1     -11.821  -0.422   2.352  1.00  0.00     0.148 A 
ATOM     70  C   UNL     1     -12.563  -0.342  -0.359  1.00  0.00     0.002 A 
ATOM     71  C   UNL     1     -12.950   0.285   1.952  1.00  0.00     0.091 A 
ATOM     72  F   UNL     1     -11.422  -0.449   3.632  1.00  0.00    -0.205 F 
ATOM     73  C   UNL     1     -13.315   0.336   0.596  1.00  0.00     0.022 A 
BRANCH  71  74
ATOM     74  S   UNL     1     -14.030   1.126   3.116  1.00  0.00     0.127 S 
ATOM     75  O   UNL     1     -13.709   2.528   2.856  1.00  0.00    -0.237 OA
ATOM     76  O   UNL     1     -15.358   0.710   2.662  1.00  0.00    -0.237 OA
ATOM     77  O   UNL     1     -13.658   0.632   4.434  1.00  0.00    -0.744 OA
ENDBRANCH  71  74
ENDBRANCH  53  67
BRANCH  54  78
ATOM     78  C   UNL     1      -2.927  -6.207   4.100  1.00  0.00     0.023 A 
ATOM     79  C   UNL     1      -2.682  -7.482   3.551  1.00  0.00     0.012 A 
ATOM     80  C   UNL     1      -2.018  -5.676   5.034  1.00  0.00     0.148 A 
ATOM     81  C   UNL     1      -1.572  -8.227   3.949  1.00  0.00     0.002 A 
ATOM     82  C   UNL     1      -0.884  -6.401   5.385  1.00  0.00     0.091 A 
ATOM     83  F   UNL     1      -2.276  -4.469   5.556  1.00  0.00    -0.205 F 
ATOM     84  C   UNL     1      -0.668  -7.684   4.857  1.00  0.00     0.022 A 
BRANCH  82  85
ATOM     85  S   UNL     1       0.398  -5.724   6.445  1.00  0.00     0.127 S 
ATOM     86  O   UNL     1       0.196  -6.479   7.678  1.00  0.00    -0.237 OA
ATOM     87  O   UNL     1       1.614  -6.065   5.705  1.00  0.00    -0.237 OA
ATOM     88  O   UNL     1       0.125  -4.295   6.521  1.00  0.00    -0.744 OA
ENDBRANCH  82  85
ENDBRANCH  54  78
BRANCH  66  89
ATOM     89  C   UNL     1      -9.780  -7.373   4.748  1.00  0.00     0.023 A 
ATOM     90  C   UNL     1      -9.863  -7.508   6.147  1.00  0.00     0.012 A 
ATOM     91  C   UNL     1     -10.511  -8.253   3.924  1.00  0.00     0.148 A 
ATOM     92  C   UNL     1     -10.635  -8.521   6.717  1.00  0.00     0.002 A 
ATOM     93  C   UNL     1     -11.315  -9.230   4.500  1.00  0.00     0.091 A 
ATOM     94  F   UNL     1     -10.403  -8.123   2.594  1.00  0.00    -0.205 F 
ATOM     95  C   UNL     1     -11.370  -9.373   5.895  1.00  0.00     0.022 A 
BRANCH  93  96
ATOM     96  S   UNL     1     -12.368 -10.304   3.516  1.00  0.00     0.127 S 
ATOM     97  O   UNL     1     -11.616 -11.557   3.535  1.00  0.00    -0.237 OA
ATOM     98  O   UNL     1     -13.608 -10.325   4.294  1.00  0.00    -0.237 OA
ATOM     99  O   UNL     1     -12.487  -9.660   2.215  1.00  0.00    -0.744 OA
ENDBRANCH  93  96
ENDBRANCH  66  89
ENDBRANCH  40  41
ENDBRANCH  32  35
ENDBRANCH  30  31
ENDBRANCH   1  30
TORSDOF 18
