REMARK SMILES C[C@@H]1[C@H](C)CCC[C@@H]1NC(=O)COc1csc(C(=O)NCCCNC(=O)c2ccc(-c3c4nc(c(-c5cccc(S(=O)(=O)[O-])c5F)c5ccc([nH]5)c(-c5cccc(S(=O)(=O)[O-])c5F)c5nc(c(-c6cccc(S(=O)(=O)[O-])c6F)c6ccc3[nH]6)C=C5)C=C4)cc2)c1
REMARK SMILES IDX 21 1 20 2 18 3 19 4 17 6 14 7 15 8 90 9 16 10 13 11 12 12
REMARK SMILES IDX 10 13 9 14 11 16 8 17 1 18 2 19 3 20 4 21 5 22 7 23 6 24
REMARK SMILES IDX 22 25 23 26 24 27 25 28 26 30 27 31 28 32 89 33 29 34 88 35
REMARK SMILES IDX 30 36 31 37 32 38 82 39 33 40 87 41 81 42 83 43 34 44 86 45
REMARK SMILES IDX 80 46 79 47 35 49 67 50 47 51 66 52 48 53 51 54 65 55 84 56
REMARK SMILES IDX 49 57 50 58 64 60 85 61 52 62 36 63 37 64 45 65 38 66 40 67
REMARK SMILES IDX 46 68 39 69 41 70 42 71 43 72 44 73 68 74 69 75 77 76 70 77
REMARK SMILES IDX 72 78 78 79 71 80 73 81 74 82 75 83 76 84 53 85 54 86 62 87
REMARK SMILES IDX 55 88 57 89 63 90 56 91 58 92 59 93 60 94 61 95
REMARK H PARENT 20 5 9 15 24 29 83 48 51 59
REMARK Flexibility Score: inf
ROOT
ATOM      1  C   UNL     1       0.618  -0.801   8.510  1.00  0.00     0.118 C 
ENDROOT
BRANCH   1   2
ATOM      2  N   UNL     1       1.786  -0.212   9.136  1.00  0.00    -0.351 N 
ATOM      3  C   UNL     1       2.816   0.538   8.614  1.00  0.00     0.261 C 
ATOM      4  O   UNL     1       3.600   1.008   9.441  1.00  0.00    -0.268 OA
ATOM      5  H   UNL     1       1.855  -0.377  10.104  1.00  0.00     0.163 HD
BRANCH   3   6
ATOM      6  C   UNL     1       2.922   0.769   7.181  1.00  0.00     0.096 A 
ATOM      7  C   UNL     1       2.732   0.684   4.858  1.00  0.00     0.131 A 
ATOM      8  C   UNL     1       3.438   1.852   5.004  1.00  0.00     0.112 A 
ATOM      9  C   UNL     1       2.470   0.045   6.095  1.00  0.00     0.072 A 
ATOM     10  S   UNL     1       3.780   2.169   6.649  1.00  0.00    -0.135 S 
BRANCH   7  11
ATOM     11  O   UNL     1       2.247   0.217   3.688  1.00  0.00    -0.483 OA
BRANCH  11  12
ATOM     12  C   UNL     1       3.257  -0.085   2.740  1.00  0.00     0.329 C 
BRANCH  12  13
ATOM     13  C   UNL     1       3.639   1.061   1.810  1.00  0.00     0.258 C 
ATOM     14  N   UNL     1       2.690   1.775   1.142  1.00  0.00    -0.350 N 
ATOM     15  H   UNL     1       3.050   2.374   0.449  1.00  0.00     0.163 HD
ATOM     16  O   UNL     1       4.822   1.342   1.595  1.00  0.00    -0.271 OA
BRANCH  14  17
ATOM     17  C   UNL     1       1.228   1.812   1.268  1.00  0.00     0.085 C 
ATOM     18  C   UNL     1       0.973  -0.157  -0.357  1.00  0.00     0.010 C 
ATOM     19  C   UNL     1       0.509   0.469   0.965  1.00  0.00     0.011 C 
ATOM     20  C   UNL     1      -1.029   0.667   1.053  1.00  0.00    -0.009 C 
ATOM     21  C   UNL     1      -1.814  -0.627   0.832  1.00  0.00     0.008 C 
ATOM     22  C   UNL     1      -1.520   1.766   0.104  1.00  0.00     0.004 C 
ATOM     23  C   UNL     1       0.702   2.946   0.364  1.00  0.00     0.025 C 
ATOM     24  C   UNL     1      -0.815   3.086   0.389  1.00  0.00     0.002 C 
ENDBRANCH  14  17
ENDBRANCH  12  13
ENDBRANCH  11  12
ENDBRANCH   7  11
ENDBRANCH   3   6
ENDBRANCH   1   2
BRANCH   1  25
ATOM     25  C   UNL     1       0.797  -2.298   8.268  1.00  0.00     0.042 C 
BRANCH  25  26
ATOM     26  C   UNL     1       0.731  -3.131   9.544  1.00  0.00     0.118 C 
BRANCH  26  27
ATOM     27  N   UNL     1      -0.590  -3.091  10.155  1.00  0.00    -0.352 N 
ATOM     28  C   UNL     1      -1.429  -4.116  10.512  1.00  0.00     0.251 C 
ATOM     29  H   UNL     1      -0.934  -2.188  10.342  1.00  0.00     0.163 HD
ATOM     30  O   UNL     1      -2.592  -3.858  10.814  1.00  0.00    -0.269 OA
BRANCH  28  31
ATOM     31  C   UNL     1      -0.950  -5.515  10.536  1.00  0.00     0.039 A 
ATOM     32  C   UNL     1      -1.819  -6.532  10.126  1.00  0.00     0.014 A 
ATOM     33  C   UNL     1       0.323  -5.837  11.014  1.00  0.00     0.014 A 
ATOM     34  C   UNL     1      -1.401  -7.864  10.168  1.00  0.00     0.010 A 
ATOM     35  C   UNL     1       0.766  -7.155  10.981  1.00  0.00     0.010 A 
ATOM     36  C   UNL     1      -0.098  -8.184  10.582  1.00  0.00    -0.014 A 
BRANCH  36  37
ATOM     37  C   UNL     1       0.370  -9.591  10.639  1.00  0.00     0.031 A 
ATOM     38  C   UNL     1       0.746 -10.207  11.960  1.00  0.00     0.074 A 
ATOM     39  C   UNL     1       0.534 -10.286   9.497  1.00  0.00     0.049 A 
ATOM     40  N   UNL     1       1.220 -11.399  12.211  1.00  0.00    -0.248 NA
ATOM     41  C   UNL     1       0.599  -9.358  13.155  1.00  0.00     0.031 C 
ATOM     42  C   UNL     1       0.269  -9.775   8.151  1.00  0.00     0.029 A 
ATOM     43  N   UNL     1       0.981 -11.566   9.285  1.00  0.00    -0.354 N 
ATOM     44  C   UNL     1       1.469 -11.429  13.579  1.00  0.00     0.074 A 
ATOM     45  C   UNL     1       1.131 -10.122  14.097  1.00  0.00     0.031 C 
ATOM     46  C   UNL     1       0.539 -10.738   7.255  1.00  0.00     0.029 A 
ATOM     47  C   UNL     1       1.023 -11.922   7.958  1.00  0.00     0.049 A 
ATOM     48  H   UNL     1       1.246 -12.171  10.015  1.00  0.00     0.167 HD
ATOM     49  C   UNL     1       1.907 -12.459  14.342  1.00  0.00     0.034 A 
ATOM     50  C   UNL     1       1.401 -13.076   7.376  1.00  0.00     0.034 A 
ATOM     51  C   UNL     1       2.193 -13.771  13.827  1.00  0.00     0.049 A 
ATOM     52  C   UNL     1       1.845 -14.220   8.248  1.00  0.00     0.074 A 
ATOM     53  C   UNL     1       2.554 -14.911  14.522  1.00  0.00     0.029 A 
ATOM     54  N   UNL     1       2.151 -14.117  12.484  1.00  0.00    -0.354 N 
ATOM     55  N   UNL     1       1.927 -14.279   9.555  1.00  0.00    -0.248 NA
ATOM     56  C   UNL     1       2.212 -15.469   7.565  1.00  0.00     0.031 C 
ATOM     57  C   UNL     1       2.749 -15.943  13.596  1.00  0.00     0.029 A 
ATOM     58  C   UNL     1       2.486 -15.451  12.327  1.00  0.00     0.049 A 
ATOM     59  H   UNL     1       1.917 -13.504  11.751  1.00  0.00     0.167 HD
ATOM     60  C   UNL     1       2.310 -15.581   9.855  1.00  0.00     0.074 A 
ATOM     61  C   UNL     1       2.433 -16.280   8.591  1.00  0.00     0.031 C 
ATOM     62  C   UNL     1       2.548 -16.146  11.065  1.00  0.00     0.034 A 
BRANCH  49  63
ATOM     63  C   UNL     1       2.054 -12.212  15.822  1.00  0.00     0.023 A 
ATOM     64  C   UNL     1       0.901 -12.024  16.614  1.00  0.00     0.012 A 
ATOM     65  C   UNL     1       3.321 -12.180  16.435  1.00  0.00     0.148 A 
ATOM     66  C   UNL     1       1.009 -11.755  17.978  1.00  0.00     0.002 A 
ATOM     67  C   UNL     1       3.418 -11.959  17.805  1.00  0.00     0.091 A 
ATOM     68  F   UNL     1       4.410 -12.337  15.669  1.00  0.00    -0.205 F 
ATOM     69  C   UNL     1       2.266 -11.731  18.575  1.00  0.00     0.022 A 
BRANCH  67  70
ATOM     70  S   UNL     1       4.991 -11.993  18.674  1.00  0.00     0.127 S 
ATOM     71  O   UNL     1       5.257 -10.567  18.859  1.00  0.00    -0.237 OA
ATOM     72  O   UNL     1       4.653 -12.714  19.903  1.00  0.00    -0.237 OA
ATOM     73  O   UNL     1       5.912 -12.700  17.796  1.00  0.00    -0.744 OA
ENDBRANCH  67  70
ENDBRANCH  49  63
BRANCH  50  74
ATOM     74  C   UNL     1       1.268 -13.240   5.901  1.00  0.00     0.023 A 
ATOM     75  C   UNL     1       0.254 -14.080   5.399  1.00  0.00     0.012 A 
ATOM     76  C   UNL     1       2.093 -12.543   4.998  1.00  0.00     0.148 A 
ATOM     77  C   UNL     1       0.080 -14.244   4.025  1.00  0.00     0.002 A 
ATOM     78  C   UNL     1       1.881 -12.671   3.630  1.00  0.00     0.091 A 
ATOM     79  F   UNL     1       3.054 -11.753   5.497  1.00  0.00    -0.205 F 
ATOM     80  C   UNL     1       0.886 -13.533   3.141  1.00  0.00     0.022 A 
BRANCH  78  81
ATOM     81  S   UNL     1       2.784 -11.703   2.415  1.00  0.00     0.127 S 
ATOM     82  O   UNL     1       3.564 -12.731   1.732  1.00  0.00    -0.237 OA
ATOM     83  O   UNL     1       1.696 -11.127   1.623  1.00  0.00    -0.237 OA
ATOM     84  O   UNL     1       3.554 -10.730   3.177  1.00  0.00    -0.744 OA
ENDBRANCH  78  81
ENDBRANCH  50  74
BRANCH  62  85
ATOM     85  C   UNL     1       2.921 -17.605  11.093  1.00  0.00     0.023 A 
ATOM     86  C   UNL     1       4.200 -18.012  10.664  1.00  0.00     0.012 A 
ATOM     87  C   UNL     1       2.029 -18.562  11.615  1.00  0.00     0.148 A 
ATOM     88  C   UNL     1       4.573 -19.354  10.724  1.00  0.00     0.002 A 
ATOM     89  C   UNL     1       2.425 -19.890  11.717  1.00  0.00     0.091 A 
ATOM     90  F   UNL     1       0.809 -18.159  11.998  1.00  0.00    -0.205 F 
ATOM     91  C   UNL     1       3.692 -20.290  11.261  1.00  0.00     0.022 A 
BRANCH  89  92
ATOM     92  S   UNL     1       1.393 -21.142  12.487  1.00  0.00     0.127 S 
ATOM     93  O   UNL     1       0.909 -21.886  11.326  1.00  0.00    -0.237 OA
ATOM     94  O   UNL     1       2.352 -21.868  13.321  1.00  0.00    -0.237 OA
ATOM     95  O   UNL     1       0.376 -20.415  13.235  1.00  0.00    -0.744 OA
ENDBRANCH  89  92
ENDBRANCH  62  85
ENDBRANCH  36  37
ENDBRANCH  28  31
ENDBRANCH  26  27
ENDBRANCH  25  26
ENDBRANCH   1  25
TORSDOF 17
