REMARK SMILES C[C@H](c1ccccc1Cl)N(C)c1cccc(F)c1C(=O)NCCCNC(=O)c1ccc(-c2c3nc(c(-c4cccc(S(=O)(=O)[O-])c4F)c4ccc([nH]4)c(-c4cccc(S(=O)(=O)[O-])c4F)c4nc(c(-c5cccc(S(=O)(=O)[O-])c5F)c5ccc2[nH]5)C=C4)C=C3)cc1
REMARK SMILES IDX 23 1 22 2 21 3 19 4 20 5 18 7 12 8 13 9 14 10 16 11 15 12
REMARK SMILES IDX 17 13 10 14 11 15 2 16 1 17 3 18 4 19 8 20 5 21 7 22 9 23
REMARK SMILES IDX 6 24 24 25 25 26 26 27 27 29 28 30 29 31 90 32 30 33 89 34
REMARK SMILES IDX 31 35 32 36 33 37 83 38 34 39 88 40 82 41 84 42 35 43 87 44
REMARK SMILES IDX 81 45 80 46 36 48 68 49 48 50 67 51 49 52 52 53 66 54 85 55
REMARK SMILES IDX 50 56 51 57 65 59 86 60 53 61 37 62 38 63 46 64 39 65 41 66
REMARK SMILES IDX 47 67 40 68 42 69 43 70 44 71 45 72 69 73 70 74 78 75 71 76
REMARK SMILES IDX 73 77 79 78 72 79 74 80 75 81 76 82 77 83 54 84 55 85 63 86
REMARK SMILES IDX 56 87 58 88 64 89 57 90 59 91 60 92 61 93 62 94
REMARK H PARENT 21 6 25 28 84 47 52 58
REMARK Flexibility Score: inf
ROOT
ATOM      1  C   UNL     1      -6.589   3.336  -1.655  1.00  0.00     0.042 C 
ENDROOT
BRANCH   1   2
ATOM      2  C   UNL     1      -5.179   3.428  -2.218  1.00  0.00     0.118 C 
BRANCH   2   3
ATOM      3  N   UNL     1      -4.131   3.726  -1.248  1.00  0.00    -0.352 N 
ATOM      4  C   UNL     1      -2.874   3.180  -1.046  1.00  0.00     0.256 C 
ATOM      5  O   UNL     1      -2.124   3.802  -0.294  1.00  0.00    -0.269 OA
ATOM      6  H   UNL     1      -4.360   4.449  -0.620  1.00  0.00     0.163 HD
BRANCH   4   7
ATOM      7  C   UNL     1      -2.468   1.869  -1.636  1.00  0.00     0.098 A 
ATOM      8  C   UNL     1      -1.779   0.880  -0.892  1.00  0.00     0.053 A 
ATOM      9  C   UNL     1      -1.727  -0.425  -1.427  1.00  0.00     0.027 A 
ATOM     10  C   UNL     1      -2.179  -0.718  -2.711  1.00  0.00     0.005 A 
ATOM     11  C   UNL     1      -2.766   1.594  -2.975  1.00  0.00     0.138 A 
ATOM     12  C   UNL     1      -2.651   0.312  -3.508  1.00  0.00     0.040 A 
ATOM     13  F   UNL     1      -3.144   2.574  -3.812  1.00  0.00    -0.206 F 
BRANCH   8  14
ATOM     14  N   UNL     1      -1.064   1.105   0.280  1.00  0.00    -0.367 N 
ATOM     15  C   UNL     1      -1.801   1.204   1.530  1.00  0.00     0.144 C 
BRANCH  14  16
ATOM     16  C   UNL     1       0.395   1.376   0.263  1.00  0.00     0.110 C 
ATOM     17  C   UNL     1       0.773   2.536  -0.673  1.00  0.00     0.036 C 
BRANCH  16  18
ATOM     18  C   UNL     1       1.215   0.111  -0.013  1.00  0.00    -0.007 A 
ATOM     19  C   UNL     1       1.463  -0.307  -1.340  1.00  0.00     0.007 A 
ATOM     20  C   UNL     1       1.735  -0.691   1.019  1.00  0.00     0.046 A 
ATOM     21  C   UNL     1       2.172  -1.477  -1.625  1.00  0.00     0.000 A 
ATOM     22  C   UNL     1       2.461  -1.857   0.730  1.00  0.00     0.021 A 
ATOM     23  Cl  UNL     1       1.540  -0.302   2.693  1.00  0.00    -0.084 Cl
ATOM     24  C   UNL     1       2.673  -2.253  -0.588  1.00  0.00     0.002 A 
ENDBRANCH  16  18
ENDBRANCH  14  16
ENDBRANCH   8  14
ENDBRANCH   4   7
ENDBRANCH   2   3
ENDBRANCH   1   2
BRANCH   1  25
ATOM     25  C   UNL     1      -7.130   4.587  -0.983  1.00  0.00     0.118 C 
BRANCH  25  26
ATOM     26  N   UNL     1      -7.226   5.741  -1.869  1.00  0.00    -0.352 N 
ATOM     27  C   UNL     1      -8.316   6.399  -2.393  1.00  0.00     0.251 C 
ATOM     28  H   UNL     1      -6.357   6.116  -2.140  1.00  0.00     0.163 HD
ATOM     29  O   UNL     1      -8.134   7.279  -3.229  1.00  0.00    -0.269 OA
BRANCH  27  30
ATOM     30  C   UNL     1      -9.699   6.048  -1.988  1.00  0.00     0.039 A 
ATOM     31  C   UNL     1     -10.706   6.041  -2.960  1.00  0.00     0.014 A 
ATOM     32  C   UNL     1     -10.022   5.755  -0.664  1.00  0.00     0.014 A 
ATOM     33  C   UNL     1     -12.008   5.660  -2.616  1.00  0.00     0.010 A 
ATOM     34  C   UNL     1     -11.289   5.274  -0.344  1.00  0.00     0.010 A 
ATOM     35  C   UNL     1     -12.302   5.228  -1.312  1.00  0.00    -0.014 A 
BRANCH  35  36
ATOM     36  C   UNL     1     -13.654   4.729  -0.938  1.00  0.00     0.031 A 
ATOM     37  C   UNL     1     -14.436   5.406   0.159  1.00  0.00     0.074 A 
ATOM     38  C   UNL     1     -14.142   3.613  -1.519  1.00  0.00     0.049 A 
ATOM     39  N   UNL     1     -15.585   5.064   0.682  1.00  0.00    -0.248 NA
ATOM     40  C   UNL     1     -13.839   6.608   0.770  1.00  0.00     0.031 C 
ATOM     41  C   UNL     1     -13.451   2.820  -2.539  1.00  0.00     0.029 A 
ATOM     42  N   UNL     1     -15.320   2.936  -1.319  1.00  0.00    -0.354 N 
ATOM     43  C   UNL     1     -15.827   5.978   1.702  1.00  0.00     0.074 A 
ATOM     44  C   UNL     1     -14.691   6.869   1.751  1.00  0.00     0.031 C 
ATOM     45  C   UNL     1     -14.220   1.776  -2.882  1.00  0.00     0.029 A 
ATOM     46  C   UNL     1     -15.441   1.796  -2.082  1.00  0.00     0.049 A 
ATOM     47  H   UNL     1     -16.014   3.238  -0.690  1.00  0.00     0.167 HD
ATOM     48  C   UNL     1     -16.912   6.086   2.502  1.00  0.00     0.034 A 
ATOM     49  C   UNL     1     -16.416   0.865  -2.127  1.00  0.00     0.034 A 
ATOM     50  C   UNL     1     -18.068   5.237   2.410  1.00  0.00     0.049 A 
ATOM     51  C   UNL     1     -17.630   1.035  -1.254  1.00  0.00     0.074 A 
ATOM     52  C   UNL     1     -19.254   5.328   3.115  1.00  0.00     0.029 A 
ATOM     53  N   UNL     1     -18.185   4.144   1.567  1.00  0.00    -0.354 N 
ATOM     54  N   UNL     1     -17.900   1.989  -0.397  1.00  0.00    -0.248 NA
ATOM     55  C   UNL     1     -18.688   0.021  -1.373  1.00  0.00     0.031 C 
ATOM     56  C   UNL     1     -20.077   4.272   2.721  1.00  0.00     0.029 A 
ATOM     57  C   UNL     1     -19.419   3.546   1.742  1.00  0.00     0.049 A 
ATOM     58  H   UNL     1     -17.492   3.839   0.937  1.00  0.00     0.167 HD
ATOM     59  C   UNL     1     -19.169   1.711   0.098  1.00  0.00     0.074 A 
ATOM     60  C   UNL     1     -19.624   0.509  -0.569  1.00  0.00     0.031 C 
ATOM     61  C   UNL     1     -19.885   2.383   1.031  1.00  0.00     0.034 A 
BRANCH  48  62
ATOM     62  C   UNL     1     -16.950   7.205   3.511  1.00  0.00     0.023 A 
ATOM     63  C   UNL     1     -17.137   8.530   3.070  1.00  0.00     0.012 A 
ATOM     64  C   UNL     1     -16.929   6.931   4.893  1.00  0.00     0.148 A 
ATOM     65  C   UNL     1     -17.288   9.569   3.988  1.00  0.00     0.002 A 
ATOM     66  C   UNL     1     -17.128   7.964   5.801  1.00  0.00     0.091 A 
ATOM     67  F   UNL     1     -16.733   5.666   5.291  1.00  0.00    -0.205 F 
ATOM     68  C   UNL     1     -17.299   9.284   5.351  1.00  0.00     0.022 A 
BRANCH  66  69
ATOM     69  S   UNL     1     -17.253   7.694   7.573  1.00  0.00     0.127 S 
ATOM     70  O   UNL     1     -16.085   8.424   8.065  1.00  0.00    -0.237 OA
ATOM     71  O   UNL     1     -18.539   8.316   7.886  1.00  0.00    -0.237 OA
ATOM     72  O   UNL     1     -17.206   6.251   7.767  1.00  0.00    -0.744 OA
ENDBRANCH  66  69
ENDBRANCH  48  62
BRANCH  49  73
ATOM     73  C   UNL     1     -16.308  -0.278  -3.080  1.00  0.00     0.023 A 
ATOM     74  C   UNL     1     -17.176  -0.342  -4.187  1.00  0.00     0.012 A 
ATOM     75  C   UNL     1     -15.325  -1.275  -2.922  1.00  0.00     0.148 A 
ATOM     76  C   UNL     1     -17.087  -1.391  -5.103  1.00  0.00     0.002 A 
ATOM     77  C   UNL     1     -15.201  -2.283  -3.872  1.00  0.00     0.091 A 
ATOM     78  F   UNL     1     -14.515  -1.205  -1.856  1.00  0.00    -0.205 F 
ATOM     79  C   UNL     1     -16.093  -2.354  -4.953  1.00  0.00     0.022 A 
BRANCH  77  80
ATOM     80  S   UNL     1     -13.862  -3.481  -3.838  1.00  0.00     0.127 S 
ATOM     81  O   UNL     1     -14.573  -4.717  -3.524  1.00  0.00    -0.237 OA
ATOM     82  O   UNL     1     -13.348  -3.395  -5.206  1.00  0.00    -0.237 OA
ATOM     83  O   UNL     1     -12.935  -3.008  -2.819  1.00  0.00    -0.744 OA
ENDBRANCH  77  80
ENDBRANCH  49  73
BRANCH  61  84
ATOM     84  C   UNL     1     -21.258   1.872   1.383  1.00  0.00     0.023 A 
ATOM     85  C   UNL     1     -21.392   0.703   2.156  1.00  0.00     0.012 A 
ATOM     86  C   UNL     1     -22.404   2.626   1.059  1.00  0.00     0.148 A 
ATOM     87  C   UNL     1     -22.650   0.282   2.587  1.00  0.00     0.002 A 
ATOM     88  C   UNL     1     -23.646   2.230   1.537  1.00  0.00     0.091 A 
ATOM     89  F   UNL     1     -22.253   3.729   0.311  1.00  0.00    -0.205 F 
ATOM     90  C   UNL     1     -23.773   1.052   2.292  1.00  0.00     0.022 A 
BRANCH  88  91
ATOM     91  S   UNL     1     -25.131   3.214   1.304  1.00  0.00     0.127 S 
ATOM     92  O   UNL     1     -25.910   2.367   0.402  1.00  0.00    -0.237 OA
ATOM     93  O   UNL     1     -25.660   3.303   2.665  1.00  0.00    -0.237 OA
ATOM     94  O   UNL     1     -24.692   4.482   0.739  1.00  0.00    -0.744 OA
ENDBRANCH  88  91
ENDBRANCH  61  84
ENDBRANCH  35  36
ENDBRANCH  27  30
ENDBRANCH  25  26
ENDBRANCH   1  25
TORSDOF 16
