REMARK SMILES CN(C)Nc1ncnc(Nc2ccc(C(=O)NCCCNC(=O)c3ccc(-c4c5nc(c(-c6cccc(S(=O)(=O)[O-])c6F)c6ccc([nH]6)c(-c6cccc(S(=O)(=O)[O-])c6F)c6nc(c(-c7cccc(S(=O)(=O)[O-])c7F)c7ccc4[nH]7)C=C6)C=C5)cc3)cc2)c1[N+](=O)[O-]
REMARK SMILES IDX 18 1 17 2 15 3 16 4 14 6 11 7 12 8 88 9 13 10 87 11 10 12
REMARK SMILES IDX 9 14 5 15 6 16 89 17 7 18 8 19 4 20 2 22 1 23 3 24 90 25
REMARK SMILES IDX 91 26 92 27 19 28 20 29 21 30 22 31 23 33 24 34 25 35 86 36
REMARK SMILES IDX 26 37 85 38 27 39 28 40 29 41 79 42 30 43 84 44 78 45 80 46
REMARK SMILES IDX 31 47 83 48 77 49 76 50 32 52 64 53 44 54 63 55 45 56 48 57
REMARK SMILES IDX 62 58 81 59 46 60 47 61 61 63 82 64 49 65 33 66 34 67 42 68
REMARK SMILES IDX 35 69 37 70 43 71 36 72 38 73 39 74 40 75 41 76 65 77 66 78
REMARK SMILES IDX 74 79 67 80 69 81 75 82 68 83 70 84 71 85 72 86 73 87 50 88
REMARK SMILES IDX 51 89 59 90 52 91 54 92 60 93 53 94 55 95 56 96 57 97 58 98
REMARK H PARENT 17 5 10 13 4 21 21 32 80 51 48 62
REMARK Flexibility Score: inf
ROOT
ATOM      1  C   UNL     1       5.726  -5.842  -6.701  1.00  0.00     0.118 C 
ENDROOT
BRANCH   1   2
ATOM      2  N   UNL     1       7.116  -5.507  -6.449  1.00  0.00    -0.352 N 
ATOM      3  C   UNL     1       7.726  -4.685  -5.537  1.00  0.00     0.251 C 
ATOM      4  O   UNL     1       8.957  -4.647  -5.540  1.00  0.00    -0.269 OA
ATOM      5  H   UNL     1       7.747  -5.960  -7.054  1.00  0.00     0.163 HD
BRANCH   3   6
ATOM      6  C   UNL     1       6.983  -3.910  -4.506  1.00  0.00     0.039 A 
ATOM      7  C   UNL     1       5.671  -2.639  -2.357  1.00  0.00     0.040 A 
ATOM      8  C   UNL     1       7.006  -3.020  -2.236  1.00  0.00     0.027 A 
ATOM      9  C   UNL     1       5.042  -2.779  -3.600  1.00  0.00     0.027 A 
ATOM     10  C   UNL     1       7.649  -3.670  -3.293  1.00  0.00     0.016 A 
ATOM     11  C   UNL     1       5.698  -3.394  -4.673  1.00  0.00     0.016 A 
BRANCH   7  12
ATOM     12  N   UNL     1       5.015  -2.034  -1.268  1.00  0.00    -0.334 N 
ATOM     13  H   UNL     1       5.422  -1.228  -0.876  1.00  0.00     0.168 HD
BRANCH  12  14
ATOM     14  C   UNL     1       3.811  -2.505  -0.703  1.00  0.00     0.215 A 
ATOM     15  C   UNL     1       1.893  -2.321   0.685  1.00  0.00     0.225 A 
ATOM     16  N   UNL     1       1.513  -3.572   0.348  1.00  0.00    -0.212 NA
ATOM     17  C   UNL     1       3.091  -1.796   0.245  1.00  0.00     0.354 A 
ATOM     18  C   UNL     1       2.293  -4.228  -0.512  1.00  0.00     0.227 A 
ATOM     19  N   UNL     1       3.402  -3.741  -1.071  1.00  0.00    -0.212 NA
BRANCH  15  20
ATOM     20  N   UNL     1       0.893  -1.647   1.394  1.00  0.00    -0.298 N 
ATOM     21  H   UNL     1       0.466  -2.128   2.139  1.00  0.00     0.184 HD
BRANCH  20  22
ATOM     22  N   UNL     1       0.440  -0.321   1.127  1.00  0.00    -0.228 NA
ATOM     23  C   UNL     1       0.412  -0.005  -0.314  1.00  0.00     0.130 C 
ATOM     24  C   UNL     1      -0.952  -0.244   1.618  1.00  0.00     0.130 C 
ENDBRANCH  20  22
ENDBRANCH  15  20
BRANCH  17  25
ATOM     25  N   UNL     1       3.621  -0.588   0.803  1.00  0.00     0.070 N 
ATOM     26  O   UNL     1       4.014   0.278   0.005  1.00  0.00    -0.258 OA
ATOM     27  O   UNL     1       3.750  -0.530   2.034  1.00  0.00    -0.258 OA
ENDBRANCH  17  25
ENDBRANCH  12  14
ENDBRANCH   7  12
ENDBRANCH   3   6
ENDBRANCH   1   2
BRANCH   1  28
ATOM     28  C   UNL     1       5.205  -5.125  -7.946  1.00  0.00     0.042 C 
BRANCH  28  29
ATOM     29  C   UNL     1       5.779  -5.680  -9.249  1.00  0.00     0.118 C 
BRANCH  29  30
ATOM     30  N   UNL     1       5.291  -7.025  -9.532  1.00  0.00    -0.352 N 
ATOM     31  C   UNL     1       4.624  -7.505 -10.631  1.00  0.00     0.251 C 
ATOM     32  H   UNL     1       5.467  -7.689  -8.827  1.00  0.00     0.163 HD
ATOM     33  O   UNL     1       4.101  -8.615 -10.580  1.00  0.00    -0.269 OA
BRANCH  31  34
ATOM     34  C   UNL     1       4.526  -6.697 -11.866  1.00  0.00     0.039 A 
ATOM     35  C   UNL     1       3.312  -6.668 -12.560  1.00  0.00     0.014 A 
ATOM     36  C   UNL     1       5.632  -6.004 -12.366  1.00  0.00     0.014 A 
ATOM     37  C   UNL     1       3.192  -5.902 -13.722  1.00  0.00     0.010 A 
ATOM     38  C   UNL     1       5.494  -5.192 -13.489  1.00  0.00     0.010 A 
ATOM     39  C   UNL     1       4.275  -5.134 -14.181  1.00  0.00    -0.014 A 
BRANCH  39  40
ATOM     40  C   UNL     1       4.152  -4.253 -15.370  1.00  0.00     0.031 A 
ATOM     41  C   UNL     1       4.976  -4.519 -16.601  1.00  0.00     0.074 A 
ATOM     42  C   UNL     1       3.365  -3.160 -15.306  1.00  0.00     0.049 A 
ATOM     43  N   UNL     1       5.075  -3.811 -17.696  1.00  0.00    -0.248 NA
ATOM     44  C   UNL     1       5.816  -5.729 -16.591  1.00  0.00     0.031 C 
ATOM     45  C   UNL     1       2.564  -2.761 -14.146  1.00  0.00     0.029 A 
ATOM     46  N   UNL     1       3.134  -2.166 -16.224  1.00  0.00    -0.354 N 
ATOM     47  C   UNL     1       6.007  -4.468 -18.491  1.00  0.00     0.074 A 
ATOM     48  C   UNL     1       6.467  -5.617 -17.740  1.00  0.00     0.031 C 
ATOM     49  C   UNL     1       1.933  -1.609 -14.421  1.00  0.00     0.029 A 
ATOM     50  C   UNL     1       2.308  -1.168 -15.761  1.00  0.00     0.049 A 
ATOM     51  H   UNL     1       3.522  -2.168 -17.129  1.00  0.00     0.167 HD
ATOM     52  C   UNL     1       6.419  -4.162 -19.745  1.00  0.00     0.034 A 
ATOM     53  C   UNL     1       1.910  -0.021 -16.344  1.00  0.00     0.034 A 
ATOM     54  C   UNL     1       5.931  -3.041 -20.503  1.00  0.00     0.049 A 
ATOM     55  C   UNL     1       2.375   0.286 -17.742  1.00  0.00     0.074 A 
ATOM     56  C   UNL     1       6.238  -2.683 -21.804  1.00  0.00     0.029 A 
ATOM     57  N   UNL     1       5.035  -2.096 -20.029  1.00  0.00    -0.354 N 
ATOM     58  N   UNL     1       3.146  -0.423 -18.531  1.00  0.00    -0.248 NA
ATOM     59  C   UNL     1       1.888   1.537 -18.344  1.00  0.00     0.031 C 
ATOM     60  C   UNL     1       5.538  -1.512 -22.111  1.00  0.00     0.029 A 
ATOM     61  C   UNL     1       4.780  -1.152 -21.009  1.00  0.00     0.049 A 
ATOM     62  H   UNL     1       4.638  -2.096 -19.128  1.00  0.00     0.167 HD
ATOM     63  C   UNL     1       3.207   0.275 -19.732  1.00  0.00     0.074 A 
ATOM     64  C   UNL     1       2.375   1.450 -19.575  1.00  0.00     0.031 C 
ATOM     65  C   UNL     1       3.903  -0.020 -20.857  1.00  0.00     0.034 A 
BRANCH  52  66
ATOM     66  C   UNL     1       7.405  -5.091 -20.405  1.00  0.00     0.023 A 
ATOM     67  C   UNL     1       6.972  -6.362 -20.838  1.00  0.00     0.012 A 
ATOM     68  C   UNL     1       8.732  -4.691 -20.660  1.00  0.00     0.148 A 
ATOM     69  C   UNL     1       7.849  -7.230 -21.485  1.00  0.00     0.002 A 
ATOM     70  C   UNL     1       9.589  -5.546 -21.344  1.00  0.00     0.091 A 
ATOM     71  F   UNL     1       9.131  -3.487 -20.226  1.00  0.00    -0.205 F 
ATOM     72  C   UNL     1       9.152  -6.819 -21.748  1.00  0.00     0.022 A 
BRANCH  70  73
ATOM     73  S   UNL     1      11.265  -5.085 -21.799  1.00  0.00     0.127 S 
ATOM     74  O   UNL     1      12.056  -5.949 -20.925  1.00  0.00    -0.237 OA
ATOM     75  O   UNL     1      11.309  -5.447 -23.216  1.00  0.00    -0.237 OA
ATOM     76  O   UNL     1      11.376  -3.658 -21.532  1.00  0.00    -0.744 OA
ENDBRANCH  70  73
ENDBRANCH  52  66
BRANCH  53  77
ATOM     77  C   UNL     1       0.971   0.895 -15.635  1.00  0.00     0.023 A 
ATOM     78  C   UNL     1      -0.347   1.034 -16.114  1.00  0.00     0.012 A 
ATOM     79  C   UNL     1       1.363   1.616 -14.491  1.00  0.00     0.148 A 
ATOM     80  C   UNL     1      -1.244   1.901 -15.491  1.00  0.00     0.002 A 
ATOM     81  C   UNL     1       0.447   2.436 -13.841  1.00  0.00     0.091 A 
ATOM     82  F   UNL     1       2.625   1.484 -14.057  1.00  0.00    -0.205 F 
ATOM     83  C   UNL     1      -0.851   2.595 -14.350  1.00  0.00     0.022 A 
BRANCH  81  84
ATOM     84  S   UNL     1       0.829   3.258 -12.290  1.00  0.00     0.127 S 
ATOM     85  O   UNL     1       1.012   4.640 -12.720  1.00  0.00    -0.237 OA
ATOM     86  O   UNL     1      -0.382   3.010 -11.506  1.00  0.00    -0.237 OA
ATOM     87  O   UNL     1       2.017   2.586 -11.777  1.00  0.00    -0.744 OA
ENDBRANCH  81  84
ENDBRANCH  53  77
BRANCH  65  88
ATOM     88  C   UNL     1       3.771   0.922 -22.025  1.00  0.00     0.023 A 
ATOM     89  C   UNL     1       4.395   2.184 -21.978  1.00  0.00     0.012 A 
ATOM     90  C   UNL     1       3.087   0.530 -23.193  1.00  0.00     0.148 A 
ATOM     91  C   UNL     1       4.314   3.055 -23.064  1.00  0.00     0.002 A 
ATOM     92  C   UNL     1       3.052   1.384 -24.289  1.00  0.00     0.091 A 
ATOM     93  F   UNL     1       2.484  -0.667 -23.210  1.00  0.00    -0.205 F 
ATOM     94  C   UNL     1       3.654   2.651 -24.222  1.00  0.00     0.022 A 
BRANCH  92  95
ATOM     95  S   UNL     1       2.306   0.912 -25.854  1.00  0.00     0.127 S 
ATOM     96  O   UNL     1       1.087   1.719 -25.858  1.00  0.00    -0.237 OA
ATOM     97  O   UNL     1       3.320   1.333 -26.821  1.00  0.00    -0.237 OA
ATOM     98  O   UNL     1       2.102  -0.529 -25.782  1.00  0.00    -0.744 OA
ENDBRANCH  92  95
ENDBRANCH  65  88
ENDBRANCH  39  40
ENDBRANCH  31  34
ENDBRANCH  29  30
ENDBRANCH  28  29
ENDBRANCH   1  28
TORSDOF 18
