REMARK SMILES [NH3+][C@@H](CCCCC(=O)NCCCNC(=O)c1ccc(-c2c3nc(c(-c4cccc(S(=O)(=O)[O-])c4F)c4ccc([nH]4)c(-c4cccc(S(=O)(=O)[O-])c4F)c4nc(c(-c5cccc(S(=O)(=O)[O-])c5F)c5ccc2[nH]5)C=C4)C=C3)cc1)c1ccc(-c2ccccc2)cc1
REMARK SMILES IDX 7 1 8 2 9 3 6 5 5 6 4 7 3 8 2 9 1 10 79 14 80 15 90 16 81 17
REMARK SMILES IDX 89 18 82 19 83 20 84 21 88 22 85 23 87 24 86 25 10 26 11 27
REMARK SMILES IDX 12 28 13 29 14 30 15 32 16 33 17 34 78 35 18 36 77 37 19 38
REMARK SMILES IDX 20 39 21 40 71 41 22 42 76 43 70 44 72 45 23 46 75 47 69 48
REMARK SMILES IDX 68 49 24 51 56 52 36 53 55 54 37 55 40 56 54 57 73 58 38 59
REMARK SMILES IDX 39 60 53 62 74 63 41 64 25 65 26 66 34 67 27 68 29 69 35 70
REMARK SMILES IDX 28 71 30 72 31 73 32 74 33 75 57 76 58 77 66 78 59 79 61 80
REMARK SMILES IDX 67 81 60 82 62 83 63 84 64 85 65 86 42 87 43 88 51 89 44 90
REMARK SMILES IDX 46 91 52 92 45 93 47 94 48 95 49 96 50 97
REMARK H PARENT 9 4 1 11 1 12 1 13 13 31 72 50 40 61
REMARK Flexibility Score: inf
ROOT
ATOM      1  C   UNL     1      -1.002  -1.672   5.289  1.00  0.00     0.219 C 
ATOM      2  O   UNL     1      -1.869  -1.484   6.144  1.00  0.00    -0.275 OA
ATOM      3  N   UNL     1       0.253  -1.998   5.704  1.00  0.00    -0.356 N 
ATOM      4  H   UNL     1       0.369  -2.080   6.678  1.00  0.00     0.163 HD
ENDROOT
BRANCH   1   5
ATOM      5  C   UNL     1      -1.322  -1.581   3.809  1.00  0.00     0.100 C 
BRANCH   5   6
ATOM      6  C   UNL     1      -1.060  -0.206   3.189  1.00  0.00     0.010 C 
BRANCH   6   7
ATOM      7  C   UNL     1       0.223   0.046   2.367  1.00  0.00     0.007 C 
BRANCH   7   8
ATOM      8  C   UNL     1       0.808  -1.083   1.496  1.00  0.00     0.070 C 
BRANCH   8   9
ATOM      9  C   UNL     1       0.358  -1.130   0.021  1.00  0.00     0.211 C 
BRANCH   9  10
ATOM     10  N   UNL     1       0.938  -0.032  -0.754  1.00  0.00    -0.351 N 
ATOM     11  H   UNL     1       1.953  -0.044  -0.653  1.00  0.00     0.345 HD
ATOM     12  H   UNL     1       0.573   0.856  -0.410  1.00  0.00     0.345 HD
ATOM     13  H   UNL     1       0.693  -0.143  -1.738  1.00  0.00     0.345 HD
ENDBRANCH   9  10
BRANCH   9  14
ATOM     14  C   UNL     1      -1.153  -1.213  -0.053  1.00  0.00     0.009 A 
ATOM     15  C   UNL     1      -1.946  -0.073  -0.217  1.00  0.00     0.010 A 
ATOM     16  C   UNL     1      -1.787  -2.436   0.219  1.00  0.00     0.010 A 
ATOM     17  C   UNL     1      -3.325  -0.137  -0.025  1.00  0.00     0.009 A 
ATOM     18  C   UNL     1      -3.172  -2.498   0.398  1.00  0.00     0.009 A 
ATOM     19  C   UNL     1      -3.962  -1.343   0.307  1.00  0.00    -0.018 A 
BRANCH  19  20
ATOM     20  C   UNL     1      -5.409  -1.366   0.573  1.00  0.00    -0.018 A 
ATOM     21  C   UNL     1      -6.301  -0.708  -0.290  1.00  0.00     0.009 A 
ATOM     22  C   UNL     1      -5.938  -1.997   1.711  1.00  0.00     0.009 A 
ATOM     23  C   UNL     1      -7.670  -0.669  -0.023  1.00  0.00     0.001 A 
ATOM     24  C   UNL     1      -7.310  -1.964   1.978  1.00  0.00     0.001 A 
ATOM     25  C   UNL     1      -8.174  -1.298   1.111  1.00  0.00     0.000 A 
ENDBRANCH  19  20
ENDBRANCH   9  14
ENDBRANCH   8   9
ENDBRANCH   7   8
ENDBRANCH   6   7
ENDBRANCH   5   6
ENDBRANCH   1   5
BRANCH   3  26
ATOM     26  C   UNL     1       1.438  -2.241   4.912  1.00  0.00     0.117 C 
BRANCH  26  27
ATOM     27  C   UNL     1       2.324  -1.008   4.854  1.00  0.00     0.042 C 
BRANCH  27  28
ATOM     28  C   UNL     1       3.244  -0.861   6.048  1.00  0.00     0.118 C 
BRANCH  28  29
ATOM     29  N   UNL     1       4.292  -1.868   6.064  1.00  0.00    -0.352 N 
ATOM     30  C   UNL     1       5.657  -1.722   6.040  1.00  0.00     0.251 C 
ATOM     31  H   UNL     1       3.974  -2.799   6.098  1.00  0.00     0.163 HD
ATOM     32  O   UNL     1       6.360  -2.712   5.864  1.00  0.00    -0.269 OA
BRANCH  30  33
ATOM     33  C   UNL     1       6.277  -0.387   6.206  1.00  0.00     0.039 A 
ATOM     34  C   UNL     1       7.437  -0.088   5.486  1.00  0.00     0.014 A 
ATOM     35  C   UNL     1       5.743   0.562   7.081  1.00  0.00     0.014 A 
ATOM     36  C   UNL     1       8.029   1.171   5.612  1.00  0.00     0.010 A 
ATOM     37  C   UNL     1       6.262   1.850   7.115  1.00  0.00     0.010 A 
ATOM     38  C   UNL     1       7.431   2.161   6.409  1.00  0.00    -0.014 A 
BRANCH  38  39
ATOM     39  C   UNL     1       8.031   3.511   6.551  1.00  0.00     0.031 A 
ATOM     40  C   UNL     1       8.454   4.007   7.910  1.00  0.00     0.074 A 
ATOM     41  C   UNL     1       8.125   4.319   5.477  1.00  0.00     0.049 A 
ATOM     42  N   UNL     1       8.949   5.170   8.247  1.00  0.00    -0.248 NA
ATOM     43  C   UNL     1       8.264   3.089   9.047  1.00  0.00     0.031 C 
ATOM     44  C   UNL     1       7.676   3.985   4.124  1.00  0.00     0.029 A 
ATOM     45  N   UNL     1       8.611   5.597   5.359  1.00  0.00    -0.354 N 
ATOM     46  C   UNL     1       9.085   5.138   9.630  1.00  0.00     0.074 A 
ATOM     47  C   UNL     1       8.578   3.860  10.076  1.00  0.00     0.031 C 
ATOM     48  C   UNL     1       7.923   5.023   3.309  1.00  0.00     0.029 A 
ATOM     49  C   UNL     1       8.513   6.108   4.086  1.00  0.00     0.049 A 
ATOM     50  H   UNL     1       8.993   6.100   6.114  1.00  0.00     0.167 HD
ATOM     51  C   UNL     1       9.614   6.072  10.455  1.00  0.00     0.034 A 
ATOM     52  C   UNL     1       8.855   7.318   3.601  1.00  0.00     0.034 A 
ATOM     53  C   UNL     1      10.161   7.321  10.000  1.00  0.00     0.049 A 
ATOM     54  C   UNL     1       9.480   8.324   4.528  1.00  0.00     0.074 A 
ATOM     55  C   UNL     1      10.809   8.296  10.736  1.00  0.00     0.029 A 
ATOM     56  N   UNL     1      10.115   7.772   8.690  1.00  0.00    -0.354 N 
ATOM     57  N   UNL     1       9.745   8.214   5.807  1.00  0.00    -0.248 NA
ATOM     58  C   UNL     1       9.886   9.607   3.938  1.00  0.00     0.031 C 
ATOM     59  C   UNL     1      11.124   9.353   9.877  1.00  0.00     0.029 A 
ATOM     60  C   UNL     1      10.709   9.018   8.597  1.00  0.00     0.049 A 
ATOM     61  H   UNL     1       9.718   7.278   7.936  1.00  0.00     0.167 HD
ATOM     62  C   UNL     1      10.383   9.396   6.168  1.00  0.00     0.074 A 
ATOM     63  C   UNL     1      10.480  10.199   4.966  1.00  0.00     0.031 C 
ATOM     64  C   UNL     1      10.838   9.785   7.384  1.00  0.00     0.034 A 
BRANCH  51  65
ATOM     65  C   UNL     1       9.663   5.757  11.929  1.00  0.00     0.023 A 
ATOM     66  C   UNL     1      10.525   4.745  12.402  1.00  0.00     0.012 A 
ATOM     67  C   UNL     1       8.883   6.483  12.850  1.00  0.00     0.148 A 
ATOM     68  C   UNL     1      10.574   4.429  13.759  1.00  0.00     0.002 A 
ATOM     69  C   UNL     1       8.976   6.196  14.207  1.00  0.00     0.091 A 
ATOM     70  F   UNL     1       8.053   7.426  12.383  1.00  0.00    -0.205 F 
ATOM     71  C   UNL     1       9.808   5.160  14.662  1.00  0.00     0.022 A 
BRANCH  69  72
ATOM     72  S   UNL     1       8.094   7.137  15.457  1.00  0.00     0.127 S 
ATOM     73  O   UNL     1       7.087   6.172  15.896  1.00  0.00    -0.237 OA
ATOM     74  O   UNL     1       9.147   7.408  16.437  1.00  0.00    -0.237 OA
ATOM     75  O   UNL     1       7.577   8.318  14.781  1.00  0.00    -0.744 OA
ENDBRANCH  69  72
ENDBRANCH  51  65
BRANCH  52  76
ATOM     76  C   UNL     1       8.678   7.613   2.151  1.00  0.00     0.023 A 
ATOM     77  C   UNL     1       9.812   7.729   1.325  1.00  0.00     0.012 A 
ATOM     78  C   UNL     1       7.396   7.739   1.580  1.00  0.00     0.148 A 
ATOM     79  C   UNL     1       9.676   7.996  -0.038  1.00  0.00     0.002 A 
ATOM     80  C   UNL     1       7.266   7.948   0.212  1.00  0.00     0.091 A 
ATOM     81  F   UNL     1       6.330   7.630   2.385  1.00  0.00    -0.205 F 
ATOM     82  C   UNL     1       8.404   8.095  -0.596  1.00  0.00     0.022 A 
BRANCH  80  83
ATOM     83  S   UNL     1       5.672   7.956  -0.616  1.00  0.00     0.127 S 
ATOM     84  O   UNL     1       5.566   9.347  -1.047  1.00  0.00    -0.237 OA
ATOM     85  O   UNL     1       5.890   6.990  -1.693  1.00  0.00    -0.237 OA
ATOM     86  O   UNL     1       4.704   7.530   0.386  1.00  0.00    -0.744 OA
ENDBRANCH  80  83
ENDBRANCH  52  76
BRANCH  64  87
ATOM     87  C   UNL     1      11.524  11.123   7.479  1.00  0.00     0.023 A 
ATOM     88  C   UNL     1      10.772  12.310   7.372  1.00  0.00     0.012 A 
ATOM     89  C   UNL     1      12.904  11.199   7.751  1.00  0.00     0.148 A 
ATOM     90  C   UNL     1      11.391  13.553   7.500  1.00  0.00     0.002 A 
ATOM     91  C   UNL     1      13.503  12.439   7.932  1.00  0.00     0.091 A 
ATOM     92  F   UNL     1      13.604  10.058   7.832  1.00  0.00    -0.205 F 
ATOM     93  C   UNL     1      12.752  13.617   7.793  1.00  0.00     0.022 A 
BRANCH  91  94
ATOM     94  S   UNL     1      15.225  12.616   8.411  1.00  0.00     0.127 S 
ATOM     95  O   UNL     1      15.822  13.143   7.185  1.00  0.00    -0.237 OA
ATOM     96  O   UNL     1      15.143  13.577   9.511  1.00  0.00    -0.237 OA
ATOM     97  O   UNL     1      15.673  11.286   8.802  1.00  0.00    -0.744 OA
ENDBRANCH  91  94
ENDBRANCH  64  87
ENDBRANCH  38  39
ENDBRANCH  30  33
ENDBRANCH  28  29
ENDBRANCH  27  28
ENDBRANCH  26  27
ENDBRANCH   3  26
TORSDOF 20
