REMARK SMILES COc1ccc2c(c1)c(CC(=O)NCCCNC(=O)c1ccc(-c3c4nc(c(-c5cccc(S(=O)(=O)[O-])c5F)c5ccc([nH]5)c(-c5cccc(S(=O)(=O)[O-])c5F)c5nc(c(-c6cccc(S(=O)(=O)[O-])c6F)c6ccc3[nH]6)C=C5)C=C4)cc1)c(C(F)(F)F)n2C(=O)c1ccc(Cl)cc1
REMARK SMILES IDX 15 1 14 2 13 3 11 4 12 5 10 7 9 8 3 9 4 10 8 11 5 12 7 13
REMARK SMILES IDX 6 14 88 15 83 16 2 17 1 18 89 19 90 20 91 21 92 22 97 23
REMARK SMILES IDX 93 24 96 25 94 26 95 27 84 28 85 29 86 30 87 31 16 32 17 33
REMARK SMILES IDX 18 34 19 36 20 37 21 38 82 39 22 40 81 41 23 42 24 43 25 44
REMARK SMILES IDX 75 45 26 46 80 47 74 48 76 49 27 50 79 51 73 52 72 53 28 55
REMARK SMILES IDX 60 56 40 57 59 58 41 59 44 60 58 61 77 62 42 63 43 64 57 66
REMARK SMILES IDX 78 67 45 68 29 69 30 70 38 71 31 72 33 73 39 74 32 75 34 76
REMARK SMILES IDX 35 77 36 78 37 79 61 80 62 81 70 82 63 83 65 84 71 85 64 86
REMARK SMILES IDX 66 87 67 88 68 89 69 90 46 91 47 92 55 93 48 94 50 95 56 96
REMARK SMILES IDX 49 97 51 98 52 99 53 100 54 101
REMARK H PARENT 13 6 17 35 76 54 44 65
REMARK Flexibility Score: inf
ROOT
ATOM      1  C   UNL     1       0.637  -2.885   7.182  1.00  0.00     0.042 C 
ENDROOT
BRANCH   1   2
ATOM      2  C   UNL     1      -0.761  -3.496   7.096  1.00  0.00     0.117 C 
BRANCH   2   3
ATOM      3  N   UNL     1      -1.662  -2.689   6.290  1.00  0.00    -0.356 N 
ATOM      4  C   UNL     1      -2.178  -2.935   5.052  1.00  0.00     0.224 C 
ATOM      5  O   UNL     1      -2.923  -2.089   4.551  1.00  0.00    -0.275 OA
ATOM      6  H   UNL     1      -1.942  -1.839   6.699  1.00  0.00     0.163 HD
BRANCH   4   7
ATOM      7  C   UNL     1      -1.877  -4.244   4.344  1.00  0.00     0.138 C 
BRANCH   7   8
ATOM      8  C   UNL     1      -0.446  -4.383   3.905  1.00  0.00     0.000 A 
ATOM      9  C   UNL     1       0.884  -1.554   1.708  1.00  0.00     0.119 A 
ATOM     10  C   UNL     1       2.118  -2.133   1.455  1.00  0.00     0.048 A 
ATOM     11  C   UNL     1      -0.031  -2.214   2.531  1.00  0.00     0.057 A 
ATOM     12  C   UNL     1       2.463  -3.367   2.019  1.00  0.00     0.031 A 
ATOM     13  C   UNL     1       0.291  -3.461   3.111  1.00  0.00     0.008 A 
ATOM     14  C   UNL     1       1.558  -4.011   2.886  1.00  0.00     0.057 A 
ATOM     15  N   UNL     1       1.668  -5.152   3.696  1.00  0.00    -0.271 N 
ATOM     16  C   UNL     1       0.379  -5.486   4.110  1.00  0.00     0.135 A 
BRANCH   9  17
ATOM     17  O   UNL     1       0.464  -0.345   1.226  1.00  0.00    -0.497 OA
ATOM     18  C   UNL     1       1.058   0.071   0.003  1.00  0.00     0.278 C 
ENDBRANCH   9  17
BRANCH  15  19
ATOM     19  C   UNL     1       2.862  -5.822   4.085  1.00  0.00     0.262 C 
ATOM     20  O   UNL     1       2.773  -6.672   4.959  1.00  0.00    -0.268 OA
BRANCH  19  21
ATOM     21  C   UNL     1       4.205  -5.524   3.557  1.00  0.00     0.040 A 
ATOM     22  C   UNL     1       4.874  -4.359   3.950  1.00  0.00     0.015 A 
ATOM     23  C   UNL     1       4.770  -6.392   2.617  1.00  0.00     0.015 A 
ATOM     24  C   UNL     1       6.077  -4.018   3.327  1.00  0.00     0.021 A 
ATOM     25  C   UNL     1       5.979  -6.050   2.006  1.00  0.00     0.021 A 
ATOM     26  C   UNL     1       6.614  -4.854   2.345  1.00  0.00     0.041 A 
ATOM     27  Cl  UNL     1       8.049  -4.384   1.519  1.00  0.00    -0.084 Cl
ENDBRANCH  19  21
ENDBRANCH  15  19
BRANCH  16  28
ATOM     28  C   UNL     1       0.034  -6.812   4.703  1.00  0.00     0.432 C 
ATOM     29  F   UNL     1       0.129  -6.805   6.053  1.00  0.00    -0.165 F 
ATOM     30  F   UNL     1      -1.268  -7.115   4.423  1.00  0.00    -0.165 F 
ATOM     31  F   UNL     1       0.745  -7.848   4.206  1.00  0.00    -0.165 F 
ENDBRANCH  16  28
ENDBRANCH   7   8
ENDBRANCH   4   7
ENDBRANCH   2   3
ENDBRANCH   1   2
BRANCH   1  32
ATOM     32  C   UNL     1       0.659  -1.498   7.827  1.00  0.00     0.118 C 
BRANCH  32  33
ATOM     33  N   UNL     1       0.089  -1.448   9.160  1.00  0.00    -0.352 N 
ATOM     34  C   UNL     1       0.550  -1.709  10.421  1.00  0.00     0.251 C 
ATOM     35  H   UNL     1      -0.852  -1.158   9.156  1.00  0.00     0.163 HD
ATOM     36  O   UNL     1      -0.230  -1.442  11.339  1.00  0.00    -0.269 OA
BRANCH  34  37
ATOM     37  C   UNL     1       1.856  -2.344  10.741  1.00  0.00     0.039 A 
ATOM     38  C   UNL     1       2.871  -2.612   9.822  1.00  0.00     0.014 A 
ATOM     39  C   UNL     1       2.030  -2.756  12.076  1.00  0.00     0.014 A 
ATOM     40  C   UNL     1       3.963  -3.389  10.187  1.00  0.00     0.010 A 
ATOM     41  C   UNL     1       3.135  -3.507  12.455  1.00  0.00     0.010 A 
ATOM     42  C   UNL     1       4.066  -3.876  11.490  1.00  0.00    -0.014 A 
BRANCH  42  43
ATOM     43  C   UNL     1       5.195  -4.745  11.800  1.00  0.00     0.031 A 
ATOM     44  C   UNL     1       6.541  -4.114  11.684  1.00  0.00     0.074 A 
ATOM     45  C   UNL     1       5.029  -6.008  12.239  1.00  0.00     0.049 A 
ATOM     46  N   UNL     1       7.518  -4.437  10.896  1.00  0.00    -0.248 NA
ATOM     47  C   UNL     1       6.785  -2.901  12.477  1.00  0.00     0.031 C 
ATOM     48  C   UNL     1       3.780  -6.654  12.658  1.00  0.00     0.029 A 
ATOM     49  N   UNL     1       5.974  -6.947  12.526  1.00  0.00    -0.354 N 
ATOM     50  C   UNL     1       8.570  -3.585  11.234  1.00  0.00     0.074 A 
ATOM     51  C   UNL     1       8.025  -2.581  12.110  1.00  0.00     0.031 C 
ATOM     52  C   UNL     1       4.072  -7.766  13.369  1.00  0.00     0.029 A 
ATOM     53  C   UNL     1       5.505  -7.986  13.323  1.00  0.00     0.049 A 
ATOM     54  H   UNL     1       6.901  -6.895  12.200  1.00  0.00     0.167 HD
ATOM     55  C   UNL     1       9.868  -3.865  10.937  1.00  0.00     0.034 A 
ATOM     56  C   UNL     1       6.265  -8.910  13.955  1.00  0.00     0.034 A 
ATOM     57  C   UNL     1       9.996  -4.925   9.980  1.00  0.00     0.049 A 
ATOM     58  C   UNL     1       7.565  -8.957  13.253  1.00  0.00     0.074 A 
ATOM     59  C   UNL     1       9.774  -5.082   8.630  1.00  0.00     0.029 A 
ATOM     60  N   UNL     1      10.118  -6.179  10.518  1.00  0.00    -0.354 N 
ATOM     61  N   UNL     1       7.713  -9.371  12.027  1.00  0.00    -0.248 NA
ATOM     62  C   UNL     1       8.707  -8.253  13.817  1.00  0.00     0.031 C 
ATOM     63  C   UNL     1       9.428  -6.455   8.460  1.00  0.00     0.029 A 
ATOM     64  C   UNL     1       9.471  -7.075   9.710  1.00  0.00     0.049 A 
ATOM     65  H   UNL     1      10.594  -6.400  11.351  1.00  0.00     0.167 HD
ATOM     66  C   UNL     1       8.769  -8.623  11.535  1.00  0.00     0.074 A 
ATOM     67  C   UNL     1       9.443  -8.098  12.715  1.00  0.00     0.031 C 
ATOM     68  C   UNL     1       8.815  -8.261  10.221  1.00  0.00     0.034 A 
BRANCH  55  69
ATOM     69  C   UNL     1      11.044  -3.419  11.769  1.00  0.00     0.023 A 
ATOM     70  C   UNL     1      12.335  -3.471  11.200  1.00  0.00     0.012 A 
ATOM     71  C   UNL     1      10.963  -3.198  13.163  1.00  0.00     0.148 A 
ATOM     72  C   UNL     1      13.486  -3.304  11.981  1.00  0.00     0.002 A 
ATOM     73  C   UNL     1      12.103  -2.960  13.922  1.00  0.00     0.091 A 
ATOM     74  F   UNL     1       9.787  -3.347  13.786  1.00  0.00    -0.205 F 
ATOM     75  C   UNL     1      13.370  -3.031  13.339  1.00  0.00     0.022 A 
BRANCH  73  76
ATOM     76  S   UNL     1      12.001  -2.561  15.670  1.00  0.00     0.127 S 
ATOM     77  O   UNL     1      12.405  -3.822  16.284  1.00  0.00    -0.237 OA
ATOM     78  O   UNL     1      12.973  -1.474  15.789  1.00  0.00    -0.237 OA
ATOM     79  O   UNL     1      10.620  -2.149  15.887  1.00  0.00    -0.744 OA
ENDBRANCH  73  76
ENDBRANCH  55  69
BRANCH  56  80
ATOM     80  C   UNL     1       6.065  -9.592  15.256  1.00  0.00     0.023 A 
ATOM     81  C   UNL     1       6.833 -10.739  15.549  1.00  0.00     0.012 A 
ATOM     82  C   UNL     1       5.379  -8.963  16.317  1.00  0.00     0.148 A 
ATOM     83  C   UNL     1       6.973 -11.200  16.862  1.00  0.00     0.002 A 
ATOM     84  C   UNL     1       5.513  -9.432  17.621  1.00  0.00     0.091 A 
ATOM     85  F   UNL     1       4.682  -7.846  16.068  1.00  0.00    -0.205 F 
ATOM     86  C   UNL     1       6.325 -10.538  17.900  1.00  0.00     0.022 A 
BRANCH  84  87
ATOM     87  S   UNL     1       4.719  -8.616  19.013  1.00  0.00     0.127 S 
ATOM     88  O   UNL     1       4.225  -9.751  19.794  1.00  0.00    -0.237 OA
ATOM     89  O   UNL     1       5.837  -7.897  19.618  1.00  0.00    -0.237 OA
ATOM     90  O   UNL     1       3.668  -7.788  18.435  1.00  0.00    -0.744 OA
ENDBRANCH  84  87
ENDBRANCH  56  80
BRANCH  68  91
ATOM     91  C   UNL     1       7.904  -8.997   9.274  1.00  0.00     0.023 A 
ATOM     92  C   UNL     1       6.504  -8.827   9.299  1.00  0.00     0.012 A 
ATOM     93  C   UNL     1       8.479  -9.777   8.258  1.00  0.00     0.148 A 
ATOM     94  C   UNL     1       5.693  -9.441   8.341  1.00  0.00     0.002 A 
ATOM     95  C   UNL     1       7.672 -10.356   7.285  1.00  0.00     0.091 A 
ATOM     96  F   UNL     1       9.813  -9.917   8.247  1.00  0.00    -0.205 F 
ATOM     97  C   UNL     1       6.278 -10.197   7.328  1.00  0.00     0.022 A 
BRANCH  95  98
ATOM     98  S   UNL     1       8.366 -11.249   5.893  1.00  0.00     0.127 S 
ATOM     99  O   UNL     1       8.021 -12.633   6.210  1.00  0.00    -0.237 OA
ATOM    100  O   UNL     1       7.635 -10.681   4.758  1.00  0.00    -0.237 OA
ATOM    101  O   UNL     1       9.792 -10.946   5.890  1.00  0.00    -0.744 OA
ENDBRANCH  95  98
ENDBRANCH  68  91
ENDBRANCH  42  43
ENDBRANCH  34  37
ENDBRANCH  32  33
ENDBRANCH   1  32
TORSDOF 18
