REMARK SMILES Nc1cc(C(=O)NCCCNC(=O)c2ccc(-c3c4nc(c(-c5cccc(S(=O)(=O)[O-])c5F)c5ccc([nH]5)c(-c5cccc(S(=O)(=O)[O-])c5F)c5nc(c(-c6cccc(S(=O)(=O)[O-])c6F)c6ccc3[nH]6)C=C5)C=C4)cc2)ccc1N1CC2(CCOCC2)C1
REMARK SMILES IDX 10 1 9 2 8 3 7 4 5 5 6 6 4 8 2 9 3 10 79 11 78 12 77 13 1 14
REMARK SMILES IDX 80 17 81 18 88 19 82 20 83 21 87 22 84 23 86 24 85 25 11 26
REMARK SMILES IDX 12 27 13 29 14 30 15 31 76 32 16 33 75 34 17 35 18 36 19 37
REMARK SMILES IDX 69 38 20 39 74 40 68 41 70 42 21 43 73 44 67 45 66 46 22 48
REMARK SMILES IDX 54 49 34 50 53 51 35 52 38 53 52 54 71 55 36 56 37 57 51 59
REMARK SMILES IDX 72 60 39 61 23 62 24 63 32 64 25 65 27 66 33 67 26 68 28 69
REMARK SMILES IDX 29 70 30 71 31 72 55 73 56 74 64 75 57 76 59 77 65 78 58 79
REMARK SMILES IDX 60 80 61 81 62 82 63 83 40 84 41 85 49 86 42 87 44 88 50 89
REMARK SMILES IDX 43 90 45 91 46 92 47 93 48 94
REMARK H PARENT 7 7 1 15 1 16 11 28 70 47 38 58
REMARK Flexibility Score: inf
ROOT
ATOM      1  C   UNL     1      -6.002  -2.247  -1.120  1.00  0.00     0.118 C 
ENDROOT
BRANCH   1   2
ATOM      2  C   UNL     1      -5.058  -1.120  -0.701  1.00  0.00     0.042 C 
BRANCH   2   3
ATOM      3  C   UNL     1      -4.223  -1.465   0.530  1.00  0.00     0.118 C 
BRANCH   3   4
ATOM      4  N   UNL     1      -3.192  -2.427   0.203  1.00  0.00    -0.352 N 
ATOM      5  C   UNL     1      -1.869  -2.311  -0.127  1.00  0.00     0.251 C 
ATOM      6  O   UNL     1      -1.267  -3.365  -0.345  1.00  0.00    -0.269 OA
ATOM      7  H   UNL     1      -3.508  -3.359   0.223  1.00  0.00     0.163 HD
BRANCH   5   8
ATOM      8  C   UNL     1      -1.115  -1.024  -0.177  1.00  0.00     0.041 A 
ATOM      9  C   UNL     1       1.115  -0.015  -0.105  1.00  0.00     0.056 A 
ATOM     10  C   UNL     1       0.282  -1.137  -0.097  1.00  0.00     0.041 A 
ATOM     11  C   UNL     1       0.541   1.274  -0.109  1.00  0.00     0.060 A 
ATOM     12  C   UNL     1      -0.847   1.393  -0.219  1.00  0.00     0.029 A 
ATOM     13  C   UNL     1      -1.663   0.254  -0.297  1.00  0.00     0.016 A 
BRANCH   9  14
ATOM     14  N   UNL     1       2.487  -0.202   0.093  1.00  0.00    -0.397 N 
ATOM     15  H   UNL     1       2.865  -1.110   0.092  1.00  0.00     0.156 HD
ATOM     16  H   UNL     1       3.074   0.576   0.234  1.00  0.00     0.156 HD
ENDBRANCH   9  14
BRANCH  11  17
ATOM     17  N   UNL     1       1.356   2.404   0.029  1.00  0.00    -0.369 N 
ATOM     18  C   UNL     1       2.279   2.994  -0.884  1.00  0.00     0.125 C 
ATOM     19  C   UNL     1       1.230   3.586   0.816  1.00  0.00     0.125 C 
ATOM     20  C   UNL     1       2.645   3.952   0.284  1.00  0.00     0.010 C 
ATOM     21  C   UNL     1       2.888   5.414  -0.071  1.00  0.00     0.039 C 
ATOM     22  C   UNL     1       3.788   3.437   1.181  1.00  0.00     0.039 C 
ATOM     23  C   UNL     1       4.268   5.539  -0.712  1.00  0.00     0.161 C 
ATOM     24  C   UNL     1       5.111   3.660   0.461  1.00  0.00     0.161 C 
ATOM     25  O   UNL     1       5.283   5.049   0.171  1.00  0.00    -0.381 OA
ENDBRANCH  11  17
ENDBRANCH   5   8
ENDBRANCH   3   4
ENDBRANCH   2   3
ENDBRANCH   1   2
BRANCH   1  26
ATOM     26  N   UNL     1      -7.046  -2.474  -0.128  1.00  0.00    -0.352 N 
ATOM     27  C   UNL     1      -8.409  -2.367  -0.240  1.00  0.00     0.251 C 
ATOM     28  H   UNL     1      -6.723  -2.747   0.760  1.00  0.00     0.163 HD
ATOM     29  O   UNL     1      -9.096  -2.349   0.778  1.00  0.00    -0.269 OA
BRANCH  27  30
ATOM     30  C   UNL     1      -9.053  -2.278  -1.569  1.00  0.00     0.039 A 
ATOM     31  C   UNL     1     -10.143  -1.419  -1.735  1.00  0.00     0.014 A 
ATOM     32  C   UNL     1      -8.625  -3.078  -2.632  1.00  0.00     0.014 A 
ATOM     33  C   UNL     1     -10.773  -1.328  -2.979  1.00  0.00     0.010 A 
ATOM     34  C   UNL     1      -9.208  -2.936  -3.888  1.00  0.00     0.010 A 
ATOM     35  C   UNL     1     -10.295  -2.068  -4.072  1.00  0.00    -0.014 A 
BRANCH  35  36
ATOM     36  C   UNL     1     -10.913  -1.946  -5.417  1.00  0.00     0.031 A 
ATOM     37  C   UNL     1     -11.576  -3.135  -6.059  1.00  0.00     0.074 A 
ATOM     38  C   UNL     1     -10.794  -0.789  -6.097  1.00  0.00     0.049 A 
ATOM     39  N   UNL     1     -12.105  -3.241  -7.250  1.00  0.00    -0.248 NA
ATOM     40  C   UNL     1     -11.630  -4.377  -5.269  1.00  0.00     0.031 C 
ATOM     41  C   UNL     1     -10.106   0.410  -5.611  1.00  0.00     0.029 A 
ATOM     42  N   UNL     1     -11.221  -0.439  -7.353  1.00  0.00    -0.354 N 
ATOM     43  C   UNL     1     -12.517  -4.563  -7.369  1.00  0.00     0.074 A 
ATOM     44  C   UNL     1     -12.150  -5.230  -6.139  1.00  0.00     0.031 C 
ATOM     45  C   UNL     1     -10.160   1.362  -6.556  1.00  0.00     0.029 A 
ATOM     46  C   UNL     1     -10.858   0.835  -7.724  1.00  0.00     0.049 A 
ATOM     47  H   UNL     1     -11.739  -1.042  -7.934  1.00  0.00     0.167 HD
ATOM     48  C   UNL     1     -13.168  -5.161  -8.395  1.00  0.00     0.034 A 
ATOM     49  C   UNL     1     -11.057   1.501  -8.878  1.00  0.00     0.034 A 
ATOM     50  C   UNL     1     -13.572  -4.479  -9.595  1.00  0.00     0.049 A 
ATOM     51  C   UNL     1     -11.823   0.828  -9.985  1.00  0.00     0.074 A 
ATOM     52  C   UNL     1     -14.312  -4.971 -10.656  1.00  0.00     0.029 A 
ATOM     53  N   UNL     1     -13.267  -3.161  -9.897  1.00  0.00    -0.354 N 
ATOM     54  N   UNL     1     -12.341  -0.376 -10.015  1.00  0.00    -0.248 NA
ATOM     55  C   UNL     1     -12.063   1.616 -11.202  1.00  0.00     0.031 C 
ATOM     56  C   UNL     1     -14.439  -3.954 -11.608  1.00  0.00     0.029 A 
ATOM     57  C   UNL     1     -13.798  -2.822 -11.130  1.00  0.00     0.049 A 
ATOM     58  H   UNL     1     -12.749  -2.555  -9.320  1.00  0.00     0.167 HD
ATOM     59  C   UNL     1     -13.000  -0.477 -11.235  1.00  0.00     0.074 A 
ATOM     60  C   UNL     1     -12.831   0.795 -11.906  1.00  0.00     0.031 C 
ATOM     61  C   UNL     1     -13.670  -1.533 -11.759  1.00  0.00     0.034 A 
BRANCH  48  62
ATOM     62  C   UNL     1     -13.537  -6.614  -8.241  1.00  0.00     0.023 A 
ATOM     63  C   UNL     1     -14.557  -6.978  -7.338  1.00  0.00     0.012 A 
ATOM     64  C   UNL     1     -12.922  -7.610  -9.025  1.00  0.00     0.148 A 
ATOM     65  C   UNL     1     -14.935  -8.312  -7.191  1.00  0.00     0.002 A 
ATOM     66  C   UNL     1     -13.335  -8.932  -8.905  1.00  0.00     0.091 A 
ATOM     67  F   UNL     1     -11.941  -7.249  -9.864  1.00  0.00    -0.205 F 
ATOM     68  C   UNL     1     -14.332  -9.287  -7.981  1.00  0.00     0.022 A 
BRANCH  66  69
ATOM     69  S   UNL     1     -12.678 -10.251  -9.933  1.00  0.00     0.127 S 
ATOM     70  O   UNL     1     -11.873 -11.002  -8.970  1.00  0.00    -0.237 OA
ATOM     71  O   UNL     1     -13.894 -10.934 -10.375  1.00  0.00    -0.237 OA
ATOM     72  O   UNL     1     -11.930  -9.596 -10.997  1.00  0.00    -0.744 OA
ENDBRANCH  66  69
ENDBRANCH  48  62
BRANCH  49  73
ATOM     73  C   UNL     1     -10.589   2.909  -9.014  1.00  0.00     0.023 A 
ATOM     74  C   UNL     1     -11.539   3.949  -9.051  1.00  0.00     0.012 A 
ATOM     75  C   UNL     1      -9.219   3.229  -9.072  1.00  0.00     0.148 A 
ATOM     76  C   UNL     1     -11.134   5.279  -9.176  1.00  0.00     0.002 A 
ATOM     77  C   UNL     1      -8.821   4.559  -9.140  1.00  0.00     0.091 A 
ATOM     78  F   UNL     1      -8.331   2.225  -9.047  1.00  0.00    -0.205 F 
ATOM     79  C   UNL     1      -9.777   5.584  -9.210  1.00  0.00     0.022 A 
BRANCH  77  80
ATOM     80  S   UNL     1      -7.096   5.054  -9.053  1.00  0.00     0.127 S 
ATOM     81  O   UNL     1      -6.839   5.489 -10.423  1.00  0.00    -0.237 OA
ATOM     82  O   UNL     1      -7.138   6.129  -8.062  1.00  0.00    -0.237 OA
ATOM     83  O   UNL     1      -6.370   3.867  -8.617  1.00  0.00    -0.744 OA
ENDBRANCH  77  80
ENDBRANCH  49  73
BRANCH  61  84
ATOM     84  C   UNL     1     -14.307  -1.353 -13.112  1.00  0.00     0.023 A 
ATOM     85  C   UNL     1     -13.499  -1.306 -14.266  1.00  0.00     0.012 A 
ATOM     86  C   UNL     1     -15.709  -1.309 -13.246  1.00  0.00     0.148 A 
ATOM     87  C   UNL     1     -14.076  -1.186 -15.529  1.00  0.00     0.002 A 
ATOM     88  C   UNL     1     -16.278  -1.239 -14.511  1.00  0.00     0.091 A 
ATOM     89  F   UNL     1     -16.458  -1.335 -12.134  1.00  0.00    -0.205 F 
ATOM     90  C   UNL     1     -15.463  -1.165 -15.653  1.00  0.00     0.022 A 
BRANCH  88  91
ATOM     91  S   UNL     1     -18.054  -1.304 -14.772  1.00  0.00     0.127 S 
ATOM     92  O   UNL     1     -18.352   0.080 -15.138  1.00  0.00    -0.237 OA
ATOM     93  O   UNL     1     -18.172  -2.265 -15.870  1.00  0.00    -0.237 OA
ATOM     94  O   UNL     1     -18.628  -1.755 -13.511  1.00  0.00    -0.744 OA
ENDBRANCH  88  91
ENDBRANCH  61  84
ENDBRANCH  35  36
ENDBRANCH  27  30
ENDBRANCH   1  26
TORSDOF 15
