REMARK SMILES C[C@@H]1[C@@H](C(=O)NCCCNC(=O)c2ccc(-c3c4nc(c(-c5cccc(S(=O)(=O)[O-])c5F)c5ccc([nH]5)c(-c5cccc(S(=O)(=O)[O-])c5F)c5nc(c(-c6cccc(S(=O)(=O)[O-])c6F)c6ccc3[nH]6)C=C5)C=C4)cc2)CCN1C(=O)[C@]1([NH3+])CCOC1
REMARK SMILES IDX 8 1 7 2 6 3 4 4 5 5 3 7 1 8 2 9 78 10 76 11 77 12 79 13
REMARK SMILES IDX 80 14 81 15 83 16 86 17 84 18 85 19 82 20 9 24 10 25 11 26
REMARK SMILES IDX 12 28 13 29 14 30 75 31 15 32 74 33 16 34 17 35 18 36 68 37
REMARK SMILES IDX 19 38 73 39 67 40 69 41 20 42 72 43 66 44 65 45 21 47 53 48
REMARK SMILES IDX 33 49 52 50 34 51 37 52 51 53 70 54 35 55 36 56 50 58 71 59
REMARK SMILES IDX 38 60 22 61 23 62 31 63 24 64 26 65 32 66 25 67 27 68 28 69
REMARK SMILES IDX 29 70 30 71 54 72 55 73 63 74 56 75 58 76 64 77 57 78 59 79
REMARK SMILES IDX 60 80 61 81 62 82 39 83 40 84 48 85 41 86 43 87 49 88 42 89
REMARK SMILES IDX 44 90 45 91 46 92 47 93
REMARK H PARENT 6 6 82 21 82 22 82 23 10 27 69 46 37 57
REMARK Flexibility Score: inf
ROOT
ATOM      1  C   UNL     1       7.249  -3.827  -0.162  1.00  0.00     0.042 C 
ENDROOT
BRANCH   1   2
ATOM      2  C   UNL     1       7.099  -5.178  -0.850  1.00  0.00     0.117 C 
BRANCH   2   3
ATOM      3  N   UNL     1       6.178  -6.056  -0.149  1.00  0.00    -0.356 N 
ATOM      4  C   UNL     1       5.046  -6.671  -0.588  1.00  0.00     0.225 C 
ATOM      5  O   UNL     1       4.465  -7.428   0.189  1.00  0.00    -0.275 OA
ATOM      6  H   UNL     1       6.409  -6.233   0.791  1.00  0.00     0.163 HD
BRANCH   4   7
ATOM      7  C   UNL     1       4.575  -6.446  -2.018  1.00  0.00     0.102 C 
ATOM      8  C   UNL     1       4.010  -4.633  -3.649  1.00  0.00     0.032 C 
ATOM      9  C   UNL     1       3.859  -5.093  -2.194  1.00  0.00     0.094 C 
ATOM     10  N   UNL     1       2.452  -5.377  -1.880  1.00  0.00    -0.334 N 
ATOM     11  C   UNL     1       3.495  -7.453  -2.422  1.00  0.00     0.037 C 
ATOM     12  C   UNL     1       2.207  -6.815  -1.926  1.00  0.00     0.121 C 
BRANCH  10  13
ATOM     13  C   UNL     1       1.419  -4.564  -1.458  1.00  0.00     0.286 C 
ATOM     14  O   UNL     1       0.284  -5.069  -1.354  1.00  0.00    -0.267 OA
BRANCH  13  15
ATOM     15  C   UNL     1       1.565  -3.040  -1.072  1.00  0.00     0.199 C 
ATOM     16  C   UNL     1       1.894  -2.113  -2.227  1.00  0.00     0.110 C 
ATOM     17  C   UNL     1       2.669  -2.769  -0.056  1.00  0.00     0.239 C 
ATOM     18  C   UNL     1       3.325  -1.666  -1.999  1.00  0.00     0.167 C 
ATOM     19  O   UNL     1       3.787  -2.211  -0.763  1.00  0.00    -0.374 OA
BRANCH  15  20
ATOM     20  N   UNL     1       0.248  -2.628  -0.475  1.00  0.00    -0.343 N 
ATOM     21  H   UNL     1       0.289  -1.645  -0.206  1.00  0.00     0.345 HD
ATOM     22  H   UNL     1       0.055  -3.197   0.349  1.00  0.00     0.345 HD
ATOM     23  H   UNL     1      -0.494  -2.762  -1.162  1.00  0.00     0.345 HD
ENDBRANCH  15  20
ENDBRANCH  13  15
ENDBRANCH  10  13
ENDBRANCH   4   7
ENDBRANCH   2   3
ENDBRANCH   1   2
BRANCH   1  24
ATOM     24  C   UNL     1       7.778  -3.889   1.268  1.00  0.00     0.118 C 
BRANCH  24  25
ATOM     25  N   UNL     1       9.125  -4.438   1.361  1.00  0.00    -0.352 N 
ATOM     26  C   UNL     1      10.258  -3.905   1.931  1.00  0.00     0.251 C 
ATOM     27  H   UNL     1       9.242  -5.326   0.954  1.00  0.00     0.163 HD
ATOM     28  O   UNL     1      11.334  -4.472   1.776  1.00  0.00    -0.269 OA
BRANCH  26  29
ATOM     29  C   UNL     1      10.191  -2.642   2.703  1.00  0.00     0.039 A 
ATOM     30  C   UNL     1      11.190  -1.683   2.511  1.00  0.00     0.014 A 
ATOM     31  C   UNL     1       9.162  -2.400   3.616  1.00  0.00     0.014 A 
ATOM     32  C   UNL     1      11.114  -0.456   3.177  1.00  0.00     0.010 A 
ATOM     33  C   UNL     1       9.043  -1.147   4.214  1.00  0.00     0.010 A 
ATOM     34  C   UNL     1      10.017  -0.160   4.003  1.00  0.00    -0.014 A 
BRANCH  34  35
ATOM     35  C   UNL     1       9.861   1.180   4.631  1.00  0.00     0.031 A 
ATOM     36  C   UNL     1       9.826   1.323   6.129  1.00  0.00     0.074 A 
ATOM     37  C   UNL     1       9.664   2.261   3.849  1.00  0.00     0.049 A 
ATOM     38  N   UNL     1       9.641   2.400   6.850  1.00  0.00    -0.248 NA
ATOM     39  C   UNL     1       9.996   0.095   6.922  1.00  0.00     0.031 C 
ATOM     40  C   UNL     1       9.602   2.248   2.386  1.00  0.00     0.029 A 
ATOM     41  N   UNL     1       9.453   3.579   4.176  1.00  0.00    -0.354 N 
ATOM     42  C   UNL     1       9.639   1.977   8.174  1.00  0.00     0.074 A 
ATOM     43  C   UNL     1       9.807   0.540   8.156  1.00  0.00     0.031 C 
ATOM     44  C   UNL     1       9.377   3.495   1.942  1.00  0.00     0.029 A 
ATOM     45  C   UNL     1       9.240   4.391   3.086  1.00  0.00     0.049 A 
ATOM     46  H   UNL     1       9.455   3.911   5.103  1.00  0.00     0.167 HD
ATOM     47  C   UNL     1       9.534   2.717   9.304  1.00  0.00     0.034 A 
ATOM     48  C   UNL     1       8.954   5.706   3.012  1.00  0.00     0.034 A 
ATOM     49  C   UNL     1       9.398   4.149   9.321  1.00  0.00     0.049 A 
ATOM     50  C   UNL     1       8.861   6.508   4.282  1.00  0.00     0.074 A 
ATOM     51  C   UNL     1       9.365   4.996  10.415  1.00  0.00     0.029 A 
ATOM     52  N   UNL     1       9.257   4.945   8.195  1.00  0.00    -0.354 N 
ATOM     53  N   UNL     1       9.016   6.112   5.522  1.00  0.00    -0.248 NA
ATOM     54  C   UNL     1       8.590   7.946   4.142  1.00  0.00     0.031 C 
ATOM     55  C   UNL     1       9.170   6.301   9.952  1.00  0.00     0.029 A 
ATOM     56  C   UNL     1       9.124   6.272   8.568  1.00  0.00     0.049 A 
ATOM     57  H   UNL     1       9.253   4.616   7.268  1.00  0.00     0.167 HD
ATOM     58  C   UNL     1       8.901   7.255   6.305  1.00  0.00     0.074 A 
ATOM     59  C   UNL     1       8.684   8.362   5.398  1.00  0.00     0.031 C 
ATOM     60  C   UNL     1       8.959   7.375   7.655  1.00  0.00     0.034 A 
BRANCH  47  61
ATOM     61  C   UNL     1       9.606   1.994  10.626  1.00  0.00     0.023 A 
ATOM     62  C   UNL     1      10.829   1.432  11.047  1.00  0.00     0.012 A 
ATOM     63  C   UNL     1       8.486   1.925  11.477  1.00  0.00     0.148 A 
ATOM     64  C   UNL     1      10.927   0.780  12.276  1.00  0.00     0.002 A 
ATOM     65  C   UNL     1       8.604   1.317  12.722  1.00  0.00     0.091 A 
ATOM     66  F   UNL     1       7.328   2.450  11.054  1.00  0.00    -0.205 F 
ATOM     67  C   UNL     1       9.819   0.732  13.117  1.00  0.00     0.022 A 
BRANCH  65  68
ATOM     68  S   UNL     1       7.261   1.276  13.914  1.00  0.00     0.127 S 
ATOM     69  O   UNL     1       6.919  -0.146  13.924  1.00  0.00    -0.237 OA
ATOM     70  O   UNL     1       7.918   1.753  15.132  1.00  0.00    -0.237 OA
ATOM     71  O   UNL     1       6.231   2.162  13.391  1.00  0.00    -0.744 OA
ENDBRANCH  65  68
ENDBRANCH  47  61
BRANCH  48  72
ATOM     72  C   UNL     1       8.790   6.362   1.683  1.00  0.00     0.023 A 
ATOM     73  C   UNL     1       9.758   7.286   1.243  1.00  0.00     0.012 A 
ATOM     74  C   UNL     1       7.694   6.067   0.848  1.00  0.00     0.148 A 
ATOM     75  C   UNL     1       9.620   7.932   0.014  1.00  0.00     0.002 A 
ATOM     76  C   UNL     1       7.593   6.670  -0.400  1.00  0.00     0.091 A 
ATOM     77  F   UNL     1       6.779   5.192   1.288  1.00  0.00    -0.205 F 
ATOM     78  C   UNL     1       8.543   7.618  -0.811  1.00  0.00     0.022 A 
BRANCH  76  79
ATOM     79  S   UNL     1       6.314   6.232  -1.584  1.00  0.00     0.127 S 
ATOM     80  O   UNL     1       5.513   7.453  -1.625  1.00  0.00    -0.237 OA
ATOM     81  O   UNL     1       7.100   5.970  -2.790  1.00  0.00    -0.237 OA
ATOM     82  O   UNL     1       5.650   5.059  -1.033  1.00  0.00    -0.744 OA
ENDBRANCH  76  79
ENDBRANCH  48  72
BRANCH  60  83
ATOM     83  C   UNL     1       8.835   8.757   8.242  1.00  0.00     0.023 A 
ATOM     84  C   UNL     1       7.595   9.425   8.224  1.00  0.00     0.012 A 
ATOM     85  C   UNL     1       9.937   9.364   8.878  1.00  0.00     0.148 A 
ATOM     86  C   UNL     1       7.463  10.690   8.797  1.00  0.00     0.002 A 
ATOM     87  C   UNL     1       9.785  10.600   9.493  1.00  0.00     0.091 A 
ATOM     88  F   UNL     1      11.114   8.720   8.871  1.00  0.00    -0.205 F 
ATOM     89  C   UNL     1       8.552  11.271   9.441  1.00  0.00     0.022 A 
BRANCH  87  90
ATOM     90  S   UNL     1      11.103  11.381  10.431  1.00  0.00     0.127 S 
ATOM     91  O   UNL     1      11.456  12.507   9.569  1.00  0.00    -0.237 OA
ATOM     92  O   UNL     1      10.421  11.752  11.672  1.00  0.00    -0.237 OA
ATOM     93  O   UNL     1      12.139  10.369  10.590  1.00  0.00    -0.744 OA
ENDBRANCH  87  90
ENDBRANCH  60  83
ENDBRANCH  34  35
ENDBRANCH  26  29
ENDBRANCH  24  25
ENDBRANCH   1  24
TORSDOF 16
