REMARK SMILES CC(C)(C)c1cc2c(cc1Cl)C=C(C(=O)NCCCNC(=O)c1ccc(-c3c4nc(c(-c5cccc(S(=O)(=O)[O-])c5F)c5ccc([nH]5)c(-c5cccc(S(=O)(=O)[O-])c5F)c5nc(c(-c6cccc(S(=O)(=O)[O-])c6F)c6ccc3[nH]6)C=C5)C=C4)cc1)[C@@H](C(F)(F)F)O2
REMARK SMILES IDX 19 1 18 2 17 3 16 4 14 5 15 6 13 8 5 9 6 10 10 11 7 12 9 13
REMARK SMILES IDX 11 14 8 15 91 16 12 17 86 18 2 19 1 20 3 21 4 22 87 23 88 24
REMARK SMILES IDX 89 25 90 26 20 27 21 28 22 30 23 31 24 32 85 33 25 34 84 35
REMARK SMILES IDX 26 36 27 37 28 38 78 39 29 40 83 41 77 42 79 43 30 44 82 45
REMARK SMILES IDX 76 46 75 47 31 49 63 50 43 51 62 52 44 53 47 54 61 55 80 56
REMARK SMILES IDX 45 57 46 58 60 60 81 61 48 62 32 63 33 64 41 65 34 66 36 67
REMARK SMILES IDX 42 68 35 69 37 70 38 71 39 72 40 73 64 74 65 75 73 76 66 77
REMARK SMILES IDX 68 78 74 79 67 80 69 81 70 82 71 83 72 84 49 85 50 86 58 87
REMARK SMILES IDX 51 88 53 89 59 90 52 91 54 92 55 93 56 94 57 95
REMARK H PARENT 16 7 20 29 79 48 47 59
REMARK Flexibility Score: inf
ROOT
ATOM      1  C   UNL     1      -0.557  11.819  -0.049  1.00  0.00     0.118 C 
ENDROOT
BRANCH   1   2
ATOM      2  C   UNL     1      -0.852  10.359  -0.372  1.00  0.00     0.042 C 
BRANCH   2   3
ATOM      3  C   UNL     1      -0.132   9.885  -1.625  1.00  0.00     0.118 C 
BRANCH   3   4
ATOM      4  N   UNL     1       1.274   9.602  -1.376  1.00  0.00    -0.352 N 
ATOM      5  C   UNL     1       2.053   8.508  -1.218  1.00  0.00     0.251 C 
ATOM      6  O   UNL     1       3.251   8.736  -1.026  1.00  0.00    -0.270 OA
ATOM      7  H   UNL     1       1.800  10.431  -1.302  1.00  0.00     0.163 HD
BRANCH   5   8
ATOM      8  C   UNL     1       1.571   7.098  -1.266  1.00  0.00     0.067 C 
ATOM      9  C   UNL     1       1.209   2.028  -1.159  1.00  0.00    -0.020 A 
ATOM     10  C   UNL     1       0.307   3.113  -1.129  1.00  0.00     0.053 A 
ATOM     11  C   UNL     1       2.585   2.367  -1.140  1.00  0.00     0.045 A 
ATOM     12  C   UNL     1       0.740   4.439  -1.109  1.00  0.00     0.128 A 
ATOM     13  C   UNL     1       3.012   3.709  -1.098  1.00  0.00     0.032 A 
ATOM     14  Cl  UNL     1       3.872   1.210  -1.163  1.00  0.00    -0.084 Cl
ATOM     15  C   UNL     1       2.090   4.751  -1.088  1.00  0.00     0.019 A 
ATOM     16  O   UNL     1      -0.234   5.396  -1.077  1.00  0.00    -0.475 OA
ATOM     17  C   UNL     1       2.497   6.149  -1.027  1.00  0.00     0.025 C 
ATOM     18  C   UNL     1       0.158   6.699  -1.590  1.00  0.00     0.314 C 
BRANCH   9  19
ATOM     19  C   UNL     1       0.652   0.584  -1.207  1.00  0.00    -0.012 C 
ATOM     20  C   UNL     1       1.078  -0.210   0.046  1.00  0.00     0.016 C 
ATOM     21  C   UNL     1       1.104  -0.141  -2.493  1.00  0.00     0.016 C 
ATOM     22  C   UNL     1      -0.903   0.518  -1.227  1.00  0.00     0.016 C 
ENDBRANCH   9  19
BRANCH  18  23
ATOM     23  C   UNL     1      -0.142   6.763  -3.101  1.00  0.00     0.429 C 
ATOM     24  F   UNL     1      -1.480   6.753  -3.321  1.00  0.00    -0.167 F 
ATOM     25  F   UNL     1       0.336   7.889  -3.681  1.00  0.00    -0.167 F 
ATOM     26  F   UNL     1       0.387   5.722  -3.784  1.00  0.00    -0.167 F 
ENDBRANCH  18  23
ENDBRANCH   5   8
ENDBRANCH   3   4
ENDBRANCH   2   3
ENDBRANCH   1   2
BRANCH   1  27
ATOM     27  N   UNL     1      -1.075  12.723  -1.073  1.00  0.00    -0.352 N 
ATOM     28  C   UNL     1      -2.100  13.637  -1.022  1.00  0.00     0.251 C 
ATOM     29  H   UNL     1      -0.616  12.668  -1.942  1.00  0.00     0.163 HD
ATOM     30  O   UNL     1      -2.531  14.116  -2.069  1.00  0.00    -0.269 OA
BRANCH  28  31
ATOM     31  C   UNL     1      -2.685  14.027   0.277  1.00  0.00     0.039 A 
ATOM     32  C   UNL     1      -1.866  14.201   1.392  1.00  0.00     0.014 A 
ATOM     33  C   UNL     1      -4.063  14.233   0.383  1.00  0.00     0.014 A 
ATOM     34  C   UNL     1      -2.437  14.381   2.643  1.00  0.00     0.010 A 
ATOM     35  C   UNL     1      -4.626  14.529   1.629  1.00  0.00     0.010 A 
ATOM     36  C   UNL     1      -3.823  14.555   2.778  1.00  0.00    -0.014 A 
BRANCH  36  37
ATOM     37  C   UNL     1      -4.387  14.783   4.133  1.00  0.00     0.031 A 
ATOM     38  C   UNL     1      -5.368  13.816   4.739  1.00  0.00     0.074 A 
ATOM     39  C   UNL     1      -3.957  15.845   4.844  1.00  0.00     0.049 A 
ATOM     40  N   UNL     1      -5.916  13.846   5.926  1.00  0.00    -0.248 NA
ATOM     41  C   UNL     1      -5.796  12.673   3.915  1.00  0.00     0.031 C 
ATOM     42  C   UNL     1      -3.024  16.863   4.353  1.00  0.00     0.029 A 
ATOM     43  N   UNL     1      -4.218  16.232   6.133  1.00  0.00    -0.354 N 
ATOM     44  C   UNL     1      -6.786  12.764   5.974  1.00  0.00     0.074 A 
ATOM     45  C   UNL     1      -6.695  12.090   4.699  1.00  0.00     0.031 C 
ATOM     46  C   UNL     1      -2.740  17.718   5.345  1.00  0.00     0.029 A 
ATOM     47  C   UNL     1      -3.518  17.350   6.522  1.00  0.00     0.049 A 
ATOM     48  H   UNL     1      -4.845  15.755   6.723  1.00  0.00     0.167 HD
ATOM     49  C   UNL     1      -7.573  12.358   6.997  1.00  0.00     0.034 A 
ATOM     50  C   UNL     1      -3.505  18.015   7.693  1.00  0.00     0.034 A 
ATOM     51  C   UNL     1      -7.610  12.989   8.288  1.00  0.00     0.049 A 
ATOM     52  C   UNL     1      -4.364  17.525   8.819  1.00  0.00     0.074 A 
ATOM     53  C   UNL     1      -8.340  12.614   9.403  1.00  0.00     0.029 A 
ATOM     54  N   UNL     1      -6.885  14.115   8.641  1.00  0.00    -0.354 N 
ATOM     55  N   UNL     1      -5.125  16.459   8.863  1.00  0.00    -0.248 NA
ATOM     56  C   UNL     1      -4.362  18.319  10.055  1.00  0.00     0.031 C 
ATOM     57  C   UNL     1      -8.057  13.518  10.431  1.00  0.00     0.029 A 
ATOM     58  C   UNL     1      -7.149  14.451   9.956  1.00  0.00     0.049 A 
ATOM     59  H   UNL     1      -6.273  14.604   8.044  1.00  0.00     0.167 HD
ATOM     60  C   UNL     1      -5.691  16.450  10.130  1.00  0.00     0.074 A 
ATOM     61  C   UNL     1      -5.166  17.603  10.833  1.00  0.00     0.031 C 
ATOM     62  C   UNL     1      -6.583  15.576  10.653  1.00  0.00     0.034 A 
BRANCH  49  63
ATOM     63  C   UNL     1      -8.429  11.139   6.795  1.00  0.00     0.023 A 
ATOM     64  C   UNL     1      -7.848   9.862   6.916  1.00  0.00     0.012 A 
ATOM     65  C   UNL     1      -9.818  11.256   6.594  1.00  0.00     0.148 A 
ATOM     66  C   UNL     1      -8.637   8.715   6.833  1.00  0.00     0.002 A 
ATOM     67  C   UNL     1     -10.602  10.109   6.541  1.00  0.00     0.091 A 
ATOM     68  F   UNL     1     -10.344  12.483   6.470  1.00  0.00    -0.205 F 
ATOM     69  C   UNL     1     -10.013   8.839   6.657  1.00  0.00     0.022 A 
BRANCH  67  70
ATOM     70  S   UNL     1     -12.390  10.157   6.371  1.00  0.00     0.127 S 
ATOM     71  O   UNL     1     -12.577   9.537   5.059  1.00  0.00    -0.237 OA
ATOM     72  O   UNL     1     -12.827   9.337   7.500  1.00  0.00    -0.237 OA
ATOM     73  O   UNL     1     -12.766  11.561   6.450  1.00  0.00    -0.744 OA
ENDBRANCH  67  70
ENDBRANCH  49  63
BRANCH  50  74
ATOM     74  C   UNL     1      -2.605  19.189   7.850  1.00  0.00     0.023 A 
ATOM     75  C   UNL     1      -1.431  19.060   8.616  1.00  0.00     0.012 A 
ATOM     76  C   UNL     1      -2.855  20.393   7.163  1.00  0.00     0.148 A 
ATOM     77  C   UNL     1      -0.520  20.113   8.695  1.00  0.00     0.002 A 
ATOM     78  C   UNL     1      -1.920  21.420   7.208  1.00  0.00     0.091 A 
ATOM     79  F   UNL     1      -3.983  20.490   6.447  1.00  0.00    -0.205 F 
ATOM     80  C   UNL     1      -0.757  21.286   7.982  1.00  0.00     0.022 A 
BRANCH  78  81
ATOM     81  S   UNL     1      -2.078  22.913   6.223  1.00  0.00     0.127 S 
ATOM     82  O   UNL     1      -2.256  23.933   7.255  1.00  0.00    -0.237 OA
ATOM     83  O   UNL     1      -0.788  22.953   5.533  1.00  0.00    -0.237 OA
ATOM     84  O   UNL     1      -3.223  22.694   5.351  1.00  0.00    -0.744 OA
ENDBRANCH  78  81
ENDBRANCH  50  74
BRANCH  62  85
ATOM     85  C   UNL     1      -7.061  15.816  12.056  1.00  0.00     0.023 A 
ATOM     86  C   UNL     1      -8.076  16.765  12.280  1.00  0.00     0.012 A 
ATOM     87  C   UNL     1      -6.606  15.014  13.119  1.00  0.00     0.148 A 
ATOM     88  C   UNL     1      -8.631  16.917  13.549  1.00  0.00     0.002 A 
ATOM     89  C   UNL     1      -7.185  15.148  14.374  1.00  0.00     0.091 A 
ATOM     90  F   UNL     1      -5.633  14.124  12.875  1.00  0.00    -0.205 F 
ATOM     91  C   UNL     1      -8.195  16.101  14.592  1.00  0.00     0.022 A 
BRANCH  89  92
ATOM     92  S   UNL     1      -6.747  14.094  15.761  1.00  0.00     0.127 S 
ATOM     93  O   UNL     1      -6.128  15.051  16.677  1.00  0.00    -0.237 OA
ATOM     94  O   UNL     1      -8.052  13.593  16.191  1.00  0.00    -0.237 OA
ATOM     95  O   UNL     1      -5.849  13.078  15.229  1.00  0.00    -0.744 OA
ENDBRANCH  89  92
ENDBRANCH  62  85
ENDBRANCH  36  37
ENDBRANCH  28  31
ENDBRANCH   1  27
TORSDOF 15
