REMARK SMILES COc1ccccc1C(=O)N/C(=C/c1ccc2c(c1)OCO2)C(=O)Nc1ccc(C(=O)NCCCNC(=O)c2ccc(-c3c4nc(c(-c5cccc(S(=O)(=O)[O-])c5F)c5ccc([nH]5)c(-c5cccc(S(=O)(=O)[O-])c5F)c5nc(c(-c6cccc(S(=O)(=O)[O-])c6F)c6ccc3[nH]6)C=C5)C=C4)cc2)cc1
REMARK SMILES IDX 33 1 32 2 30 3 31 4 29 6 26 7 27 8 103 9 28 10 102 11 25 12
REMARK SMILES IDX 23 13 24 14 12 16 13 17 11 18 9 19 10 20 8 22 3 23 4 24 5 25
REMARK SMILES IDX 7 26 6 27 2 28 1 29 14 30 15 31 19 32 16 33 18 34 17 35
REMARK SMILES IDX 20 36 22 37 21 38 34 39 35 40 36 41 37 42 38 44 39 45 40 46
REMARK SMILES IDX 101 47 41 48 100 49 42 50 43 51 44 52 94 53 45 54 99 55
REMARK SMILES IDX 93 56 95 57 46 58 98 59 92 60 91 61 47 63 79 64 59 65 78 66
REMARK SMILES IDX 60 67 63 68 77 69 96 70 61 71 62 72 76 74 97 75 64 76 48 77
REMARK SMILES IDX 49 78 57 79 50 80 52 81 58 82 51 83 53 84 54 85 55 86 56 87
REMARK SMILES IDX 80 88 81 89 89 90 82 91 84 92 90 93 83 94 85 95 86 96 87 97
REMARK SMILES IDX 88 98 65 99 66 100 74 101 67 102 69 103 75 104 68 105 70 106
REMARK SMILES IDX 71 107 72 108 73 109
REMARK H PARENT 32 5 25 15 11 21 36 43 95 62 63 73
REMARK Flexibility Score: inf
ROOT
ATOM      1  C   UNL     1      -1.451  -4.889   3.005  1.00  0.00     0.118 C 
ENDROOT
BRANCH   1   2
ATOM      2  N   UNL     1      -2.495  -5.495   2.204  1.00  0.00    -0.352 N 
ATOM      3  C   UNL     1      -3.102  -5.021   1.077  1.00  0.00     0.251 C 
ATOM      4  O   UNL     1      -3.883  -5.723   0.445  1.00  0.00    -0.269 OA
ATOM      5  H   UNL     1      -2.812  -6.373   2.517  1.00  0.00     0.163 HD
BRANCH   3   6
ATOM      6  C   UNL     1      -2.765  -3.693   0.568  1.00  0.00     0.039 A 
ATOM      7  C   UNL     1      -1.957  -0.334  -0.809  1.00  0.00     0.041 A 
ATOM      8  C   UNL     1      -1.896  -1.728  -1.892  1.00  0.00     0.027 A 
ATOM      9  C   UNL     1      -2.470  -0.581   0.855  1.00  0.00     0.027 A 
ATOM     10  C   UNL     1      -2.269  -3.571  -1.156  1.00  0.00     0.016 A 
ATOM     11  C   UNL     1      -2.867  -2.198   1.513  1.00  0.00     0.016 A 
BRANCH   7  12
ATOM     12  N   UNL     1      -0.970   0.607  -1.132  1.00  0.00    -0.321 N 
ATOM     13  C   UNL     1       0.104   0.262  -1.945  1.00  0.00     0.272 C 
ATOM     14  O   UNL     1       0.311   0.843  -3.011  1.00  0.00    -0.267 OA
ATOM     15  H   UNL     1      -1.038   1.524  -0.778  1.00  0.00     0.170 HD
BRANCH  13  16
ATOM     16  C   UNL     1       1.172  -0.715  -1.399  1.00  0.00     0.108 C 
ATOM     17  C   UNL     1       1.052  -2.070  -1.266  1.00  0.00     0.040 C 
BRANCH  16  18
ATOM     18  N   UNL     1       2.411  -0.181  -1.052  1.00  0.00    -0.317 N 
ATOM     19  C   UNL     1       2.958   1.086  -0.984  1.00  0.00     0.259 C 
ATOM     20  O   UNL     1       4.146   1.173  -0.657  1.00  0.00    -0.269 OA
ATOM     21  H   UNL     1       3.055  -0.877  -0.790  1.00  0.00     0.170 HD
BRANCH  19  22
ATOM     22  C   UNL     1       2.257   2.343  -1.318  1.00  0.00     0.082 A 
ATOM     23  C   UNL     1       1.110   2.848  -0.696  1.00  0.00     0.131 A 
ATOM     24  C   UNL     1       0.466   3.959  -1.267  1.00  0.00     0.047 A 
ATOM     25  C   UNL     1       1.022   4.644  -2.348  1.00  0.00     0.004 A 
ATOM     26  C   UNL     1       2.856   3.088  -2.355  1.00  0.00     0.018 A 
ATOM     27  C   UNL     1       2.246   4.236  -2.861  1.00  0.00     0.001 A 
BRANCH  23  28
ATOM     28  O   UNL     1       0.444   2.373   0.398  1.00  0.00    -0.496 OA
ATOM     29  C   UNL     1       1.187   1.686   1.395  1.00  0.00     0.278 C 
ENDBRANCH  23  28
ENDBRANCH  19  22
ENDBRANCH  16  18
BRANCH  17  30
ATOM     30  C   UNL     1      -0.206  -2.859  -1.375  1.00  0.00    -0.019 A 
ATOM     31  C   UNL     1      -1.372  -2.254  -0.149  1.00  0.00     0.012 A 
ATOM     32  C   UNL     1      -0.845  -3.379  -2.948  1.00  0.00     0.058 A 
ATOM     33  C   UNL     1      -3.313  -2.047  -0.680  1.00  0.00     0.051 A 
ATOM     34  C   UNL     1      -2.568  -3.233  -3.361  1.00  0.00     0.166 A 
ATOM     35  C   UNL     1      -3.780  -2.596  -2.312  1.00  0.00     0.165 A 
ATOM     36  O   UNL     1      -3.061  -3.075  -4.635  1.00  0.00    -0.454 OA
ATOM     37  O   UNL     1      -4.819  -2.161  -3.072  1.00  0.00    -0.454 OA
ATOM     38  C   UNL     1      -4.195  -2.167  -4.396  1.00  0.00     0.468 C 
ENDBRANCH  17  30
ENDBRANCH  13  16
ENDBRANCH   7  12
ENDBRANCH   3   6
ENDBRANCH   1   2
BRANCH   1  39
ATOM     39  C   UNL     1      -1.993  -4.356   4.323  1.00  0.00     0.042 C 
BRANCH  39  40
ATOM     40  C   UNL     1      -2.631  -5.429   5.193  1.00  0.00     0.118 C 
BRANCH  40  41
ATOM     41  N   UNL     1      -1.670  -6.441   5.601  1.00  0.00    -0.352 N 
ATOM     42  C   UNL     1      -1.190  -6.728   6.854  1.00  0.00     0.251 C 
ATOM     43  H   UNL     1      -1.312  -7.001   4.874  1.00  0.00     0.163 HD
ATOM     44  O   UNL     1      -0.179  -7.415   6.973  1.00  0.00    -0.269 OA
BRANCH  42  45
ATOM     45  C   UNL     1      -1.891  -6.213   8.048  1.00  0.00     0.039 A 
ATOM     46  C   UNL     1      -1.140  -5.783   9.144  1.00  0.00     0.014 A 
ATOM     47  C   UNL     1      -3.288  -6.187   8.101  1.00  0.00     0.014 A 
ATOM     48  C   UNL     1      -1.793  -5.299  10.278  1.00  0.00     0.010 A 
ATOM     49  C   UNL     1      -3.932  -5.609   9.186  1.00  0.00     0.010 A 
ATOM     50  C   UNL     1      -3.194  -5.192  10.301  1.00  0.00    -0.014 A 
BRANCH  50  51
ATOM     51  C   UNL     1      -3.903  -4.678  11.498  1.00  0.00     0.031 A 
ATOM     52  C   UNL     1      -4.868  -5.564  12.242  1.00  0.00     0.074 A 
ATOM     53  C   UNL     1      -3.721  -3.398  11.876  1.00  0.00     0.049 A 
ATOM     54  N   UNL     1      -5.579  -5.295  13.306  1.00  0.00    -0.248 NA
ATOM     55  C   UNL     1      -5.089  -6.918  11.704  1.00  0.00     0.031 C 
ATOM     56  C   UNL     1      -2.884  -2.420  11.175  1.00  0.00     0.029 A 
ATOM     57  N   UNL     1      -4.239  -2.695  12.932  1.00  0.00    -0.354 N 
ATOM     58  C   UNL     1      -6.352  -6.426  13.541  1.00  0.00     0.074 A 
ATOM     59  C   UNL     1      -6.061  -7.367  12.484  1.00  0.00     0.031 C 
ATOM     60  C   UNL     1      -2.930  -1.251  11.833  1.00  0.00     0.029 A 
ATOM     61  C   UNL     1      -3.817  -1.387  12.983  1.00  0.00     0.049 A 
ATOM     62  H   UNL     1      -4.854  -3.089  13.592  1.00  0.00     0.167 HD
ATOM     63  C   UNL     1      -7.201  -6.675  14.566  1.00  0.00     0.034 A 
ATOM     64  C   UNL     1      -4.111  -0.410  13.862  1.00  0.00     0.034 A 
ATOM     65  C   UNL     1      -7.448  -5.751  15.639  1.00  0.00     0.049 A 
ATOM     66  C   UNL     1      -5.006  -0.732  15.027  1.00  0.00     0.074 A 
ATOM     67  C   UNL     1      -8.216  -5.933  16.774  1.00  0.00     0.029 A 
ATOM     68  N   UNL     1      -6.933  -4.465  15.705  1.00  0.00    -0.354 N 
ATOM     69  N   UNL     1      -5.599  -1.864  15.324  1.00  0.00    -0.248 NA
ATOM     70  C   UNL     1      -5.239   0.342  16.002  1.00  0.00     0.031 C 
ATOM     71  C   UNL     1      -8.187  -4.747  17.515  1.00  0.00     0.029 A 
ATOM     72  C   UNL     1      -7.373  -3.837  16.857  1.00  0.00     0.049 A 
ATOM     73  H   UNL     1      -6.342  -4.058  15.031  1.00  0.00     0.167 HD
ATOM     74  C   UNL     1      -6.246  -1.650  16.535  1.00  0.00     0.074 A 
ATOM     75  C   UNL     1      -5.949  -0.287  16.928  1.00  0.00     0.031 C 
ATOM     76  C   UNL     1      -7.029  -2.495  17.250  1.00  0.00     0.034 A 
BRANCH  63  77
ATOM     77  C   UNL     1      -7.882  -8.020  14.602  1.00  0.00     0.023 A 
ATOM     78  C   UNL     1      -7.124  -9.180  14.871  1.00  0.00     0.012 A 
ATOM     79  C   UNL     1      -9.274  -8.135  14.419  1.00  0.00     0.148 A 
ATOM     80  C   UNL     1      -7.732 -10.434  14.917  1.00  0.00     0.002 A 
ATOM     81  C   UNL     1      -9.880  -9.383  14.516  1.00  0.00     0.091 A 
ATOM     82  F   UNL     1      -9.976  -7.027  14.143  1.00  0.00    -0.205 F 
ATOM     83  C   UNL     1      -9.110 -10.534  14.751  1.00  0.00     0.022 A 
BRANCH  81  84
ATOM     84  S   UNL     1     -11.659  -9.609  14.399  1.00  0.00     0.127 S 
ATOM     85  O   UNL     1     -11.783 -10.309  13.121  1.00  0.00    -0.237 OA
ATOM     86  O   UNL     1     -11.941 -10.432  15.575  1.00  0.00    -0.237 OA
ATOM     87  O   UNL     1     -12.238  -8.274  14.438  1.00  0.00    -0.744 OA
ENDBRANCH  81  84
ENDBRANCH  63  77
BRANCH  64  88
ATOM     88  C   UNL     1      -3.488   0.936  13.715  1.00  0.00     0.023 A 
ATOM     89  C   UNL     1      -2.517   1.357  14.645  1.00  0.00     0.012 A 
ATOM     90  C   UNL     1      -3.825   1.785  12.643  1.00  0.00     0.148 A 
ATOM     91  C   UNL     1      -1.918   2.612  14.529  1.00  0.00     0.002 A 
ATOM     92  C   UNL     1      -3.182   3.009  12.501  1.00  0.00     0.091 A 
ATOM     93  F   UNL     1      -4.757   1.370  11.774  1.00  0.00    -0.205 F 
ATOM     94  C   UNL     1      -2.243   3.433  13.453  1.00  0.00     0.022 A 
BRANCH  92  95
ATOM     95  S   UNL     1      -3.435   4.066  11.070  1.00  0.00     0.127 S 
ATOM     96  O   UNL     1      -4.182   5.179  11.649  1.00  0.00    -0.237 OA
ATOM     97  O   UNL     1      -2.060   4.381  10.681  1.00  0.00    -0.237 OA
ATOM     98  O   UNL     1      -4.157   3.252  10.103  1.00  0.00    -0.744 OA
ENDBRANCH  92  95
ENDBRANCH  64  88
BRANCH  76  99
ATOM     99  C   UNL     1      -7.593  -1.982  18.549  1.00  0.00     0.023 A 
ATOM    100  C   UNL     1      -8.610  -1.008  18.537  1.00  0.00     0.012 A 
ATOM    101  C   UNL     1      -7.152  -2.509  19.779  1.00  0.00     0.148 A 
ATOM    102  C   UNL     1      -9.149  -0.533  19.732  1.00  0.00     0.002 A 
ATOM    103  C   UNL     1      -7.732  -2.070  20.962  1.00  0.00     0.091 A 
ATOM    104  F   UNL     1      -6.170  -3.422  19.770  1.00  0.00    -0.205 F 
ATOM    105  C   UNL     1      -8.719  -1.071  20.942  1.00  0.00     0.022 A 
BRANCH 103 106
ATOM    106  S   UNL     1      -7.310  -2.780  22.557  1.00  0.00     0.127 S 
ATOM    107  O   UNL     1      -6.497  -1.719  23.150  1.00  0.00    -0.237 OA
ATOM    108  O   UNL     1      -8.624  -2.959  23.175  1.00  0.00    -0.237 OA
ATOM    109  O   UNL     1      -6.607  -4.022  22.268  1.00  0.00    -0.744 OA
ENDBRANCH 103 106
ENDBRANCH  76  99
ENDBRANCH  50  51
ENDBRANCH  42  45
ENDBRANCH  40  41
ENDBRANCH  39  40
ENDBRANCH   1  39
TORSDOF 19
