REMARK SMILES CC(C)(C)c1cc(-n2cnc(C(=O)NCCCNC(=O)c3ccc(-c4c5nc(c(-c6cccc(S(=O)(=O)[O-])c6F)c6ccc([nH]6)c(-c6cccc(S(=O)(=O)[O-])c6F)c6nc(c(-c7cccc(S(=O)(=O)[O-])c7F)c7ccc4[nH]7)C=C6)C=C5)cc3)c2)nc(Cl)n1
REMARK SMILES IDX 16 1 15 2 14 3 12 4 13 5 11 7 8 8 9 9 84 10 10 11 7 12 5 13
REMARK SMILES IDX 6 14 88 15 86 16 85 17 87 18 2 19 1 20 3 21 4 22 17 23 18 24
REMARK SMILES IDX 19 25 20 27 21 28 22 29 83 30 23 31 82 32 24 33 25 34 26 35
REMARK SMILES IDX 76 36 27 37 81 38 75 39 77 40 28 41 80 42 74 43 73 44 29 46
REMARK SMILES IDX 61 47 41 48 60 49 42 50 45 51 59 52 78 53 43 54 44 55 58 57
REMARK SMILES IDX 79 58 46 59 30 60 31 61 39 62 32 63 34 64 40 65 33 66 35 67
REMARK SMILES IDX 36 68 37 69 38 70 62 71 63 72 71 73 64 74 66 75 72 76 65 77
REMARK SMILES IDX 67 78 68 79 69 80 70 81 47 82 48 83 56 84 49 85 51 86 57 87
REMARK SMILES IDX 50 88 52 89 53 90 54 91 55 92
REMARK H PARENT 14 6 18 26 77 45 45 56
REMARK Flexibility Score: inf
ROOT
ATOM      1  C   UNL     1       5.971  -1.524   2.933  1.00  0.00     0.042 C 
ENDROOT
BRANCH   1   2
ATOM      2  C   UNL     1       4.858  -2.567   3.119  1.00  0.00     0.118 C 
BRANCH   2   3
ATOM      3  N   UNL     1       4.755  -3.066   4.480  1.00  0.00    -0.351 N 
ATOM      4  C   UNL     1       3.962  -2.688   5.551  1.00  0.00     0.271 C 
ATOM      5  O   UNL     1       3.935  -3.439   6.515  1.00  0.00    -0.267 OA
ATOM      6  H   UNL     1       5.365  -3.814   4.678  1.00  0.00     0.163 HD
BRANCH   4   7
ATOM      7  C   UNL     1       3.156  -1.457   5.496  1.00  0.00     0.146 A 
ATOM      8  N   UNL     1       2.141   0.388   4.852  1.00  0.00    -0.290 N 
ATOM      9  C   UNL     1       1.680   0.032   6.085  1.00  0.00     0.206 A 
ATOM     10  C   UNL     1       3.179  -0.454   4.558  1.00  0.00     0.128 A 
ATOM     11  N   UNL     1       2.213  -1.113   6.465  1.00  0.00    -0.231 NA
BRANCH   8  12
ATOM     12  C   UNL     1       1.612   1.331   3.953  1.00  0.00     0.143 A 
ATOM     13  C   UNL     1       0.957   1.811   1.732  1.00  0.00     0.053 A 
ATOM     14  C   UNL     1       1.444   0.899   2.642  1.00  0.00     0.072 A 
ATOM     15  N   UNL     1       0.738   3.090   2.106  1.00  0.00    -0.222 NA
ATOM     16  C   UNL     1       0.949   3.395   3.401  1.00  0.00     0.224 A 
ATOM     17  N   UNL     1       1.324   2.567   4.380  1.00  0.00    -0.200 NA
ATOM     18  Cl  UNL     1       0.780   5.040   3.821  1.00  0.00    -0.041 Cl
BRANCH  13  19
ATOM     19  C   UNL     1       0.552   1.408   0.309  1.00  0.00     0.004 C 
ATOM     20  C   UNL     1       1.058   0.015  -0.128  1.00  0.00     0.017 C 
ATOM     21  C   UNL     1       1.095   2.434  -0.702  1.00  0.00     0.017 C 
ATOM     22  C   UNL     1      -0.987   1.394   0.253  1.00  0.00     0.017 C 
ENDBRANCH  13  19
ENDBRANCH   8  12
ENDBRANCH   4   7
ENDBRANCH   2   3
ENDBRANCH   1   2
BRANCH   1  23
ATOM     23  C   UNL     1       7.303  -2.177   2.606  1.00  0.00     0.118 C 
BRANCH  23  24
ATOM     24  N   UNL     1       7.307  -2.785   1.265  1.00  0.00    -0.352 N 
ATOM     25  C   UNL     1       8.303  -3.522   0.649  1.00  0.00     0.251 C 
ATOM     26  H   UNL     1       6.489  -2.650   0.734  1.00  0.00     0.163 HD
ATOM     27  O   UNL     1       8.304  -3.675  -0.567  1.00  0.00    -0.269 OA
BRANCH  25  28
ATOM     28  C   UNL     1       9.352  -4.124   1.487  1.00  0.00     0.039 A 
ATOM     29  C   UNL     1      10.692  -4.180   1.091  1.00  0.00     0.014 A 
ATOM     30  C   UNL     1       8.958  -4.599   2.731  1.00  0.00     0.014 A 
ATOM     31  C   UNL     1      11.633  -4.652   2.002  1.00  0.00     0.010 A 
ATOM     32  C   UNL     1       9.897  -4.819   3.692  1.00  0.00     0.010 A 
ATOM     33  C   UNL     1      11.222  -4.953   3.310  1.00  0.00    -0.014 A 
BRANCH  33  34
ATOM     34  C   UNL     1      12.162  -5.301   4.363  1.00  0.00     0.031 A 
ATOM     35  C   UNL     1      13.194  -4.260   4.592  1.00  0.00     0.074 A 
ATOM     36  C   UNL     1      11.938  -6.335   5.206  1.00  0.00     0.049 A 
ATOM     37  N   UNL     1      14.445  -4.314   4.276  1.00  0.00    -0.248 NA
ATOM     38  C   UNL     1      12.748  -2.924   5.022  1.00  0.00     0.031 C 
ATOM     39  C   UNL     1      10.762  -7.218   5.265  1.00  0.00     0.029 A 
ATOM     40  N   UNL     1      12.648  -6.725   6.297  1.00  0.00    -0.354 N 
ATOM     41  C   UNL     1      14.991  -3.123   4.750  1.00  0.00     0.074 A 
ATOM     42  C   UNL     1      13.882  -2.227   4.919  1.00  0.00     0.031 C 
ATOM     43  C   UNL     1      10.722  -7.845   6.462  1.00  0.00     0.029 A 
ATOM     44  C   UNL     1      11.949  -7.553   7.174  1.00  0.00     0.049 A 
ATOM     45  H   UNL     1      13.579  -6.446   6.455  1.00  0.00     0.167 HD
ATOM     46  C   UNL     1      16.249  -3.101   5.274  1.00  0.00     0.034 A 
ATOM     47  C   UNL     1      12.339  -7.939   8.415  1.00  0.00     0.034 A 
ATOM     48  C   UNL     1      16.961  -4.314   4.932  1.00  0.00     0.049 A 
ATOM     49  C   UNL     1      13.805  -7.747   8.479  1.00  0.00     0.074 A 
ATOM     50  C   UNL     1      17.313  -4.950   3.759  1.00  0.00     0.029 A 
ATOM     51  N   UNL     1      17.048  -5.265   5.921  1.00  0.00    -0.354 N 
ATOM     52  N   UNL     1      14.645  -8.422   7.745  1.00  0.00    -0.248 NA
ATOM     53  C   UNL     1      14.299  -6.486   9.003  1.00  0.00     0.031 C 
ATOM     54  C   UNL     1      17.145  -6.342   4.030  1.00  0.00     0.029 A 
ATOM     55  C   UNL     1      16.782  -6.489   5.371  1.00  0.00     0.049 A 
ATOM     56  H   UNL     1      17.265  -5.095   6.865  1.00  0.00     0.167 HD
ATOM     57  C   UNL     1      15.565  -7.472   7.321  1.00  0.00     0.074 A 
ATOM     58  C   UNL     1      15.372  -6.334   8.221  1.00  0.00     0.031 C 
ATOM     59  C   UNL     1      16.172  -7.581   6.101  1.00  0.00     0.034 A 
BRANCH  46  60
ATOM     60  C   UNL     1      16.698  -2.244   6.450  1.00  0.00     0.023 A 
ATOM     61  C   UNL     1      18.050  -2.381   6.846  1.00  0.00     0.012 A 
ATOM     62  C   UNL     1      15.847  -1.559   7.349  1.00  0.00     0.148 A 
ATOM     63  C   UNL     1      18.499  -1.966   8.104  1.00  0.00     0.002 A 
ATOM     64  C   UNL     1      16.312  -1.092   8.575  1.00  0.00     0.091 A 
ATOM     65  F   UNL     1      14.545  -1.438   7.096  1.00  0.00    -0.205 F 
ATOM     66  C   UNL     1      17.627  -1.327   8.973  1.00  0.00     0.022 A 
BRANCH  64  67
ATOM     67  S   UNL     1      15.235  -0.226   9.728  1.00  0.00     0.127 S 
ATOM     68  O   UNL     1      15.093  -1.218  10.790  1.00  0.00    -0.237 OA
ATOM     69  O   UNL     1      16.047   0.941  10.071  1.00  0.00    -0.237 OA
ATOM     70  O   UNL     1      14.022   0.088   8.982  1.00  0.00    -0.744 OA
ENDBRANCH  64  67
ENDBRANCH  46  60
BRANCH  47  71
ATOM     71  C   UNL     1      11.531  -8.222   9.624  1.00  0.00     0.023 A 
ATOM     72  C   UNL     1      12.069  -8.998  10.671  1.00  0.00     0.012 A 
ATOM     73  C   UNL     1      10.344  -7.498   9.876  1.00  0.00     0.148 A 
ATOM     74  C   UNL     1      11.460  -9.030  11.934  1.00  0.00     0.002 A 
ATOM     75  C   UNL     1       9.741  -7.537  11.130  1.00  0.00     0.091 A 
ATOM     76  F   UNL     1       9.862  -6.704   8.911  1.00  0.00    -0.205 F 
ATOM     77  C   UNL     1      10.302  -8.293  12.166  1.00  0.00     0.022 A 
BRANCH  75  78
ATOM     78  S   UNL     1       8.262  -6.590  11.516  1.00  0.00     0.127 S 
ATOM     79  O   UNL     1       7.378  -7.624  12.055  1.00  0.00    -0.237 OA
ATOM     80  O   UNL     1       8.764  -5.637  12.503  1.00  0.00    -0.237 OA
ATOM     81  O   UNL     1       7.821  -6.015  10.252  1.00  0.00    -0.744 OA
ENDBRANCH  75  78
ENDBRANCH  47  71
BRANCH  59  82
ATOM     82  C   UNL     1      16.002  -8.876   5.340  1.00  0.00     0.023 A 
ATOM     83  C   UNL     1      14.755  -9.306   4.836  1.00  0.00     0.012 A 
ATOM     84  C   UNL     1      17.158  -9.582   4.973  1.00  0.00     0.148 A 
ATOM     85  C   UNL     1      14.663 -10.423   3.999  1.00  0.00     0.002 A 
ATOM     86  C   UNL     1      17.069 -10.664   4.105  1.00  0.00     0.091 A 
ATOM     87  F   UNL     1      18.336  -9.156   5.452  1.00  0.00    -0.205 F 
ATOM     88  C   UNL     1      15.823 -11.094   3.622  1.00  0.00     0.022 A 
BRANCH  86  89
ATOM     89  S   UNL     1      18.533 -11.492   3.482  1.00  0.00     0.127 S 
ATOM     90  O   UNL     1      18.466 -12.783   4.163  1.00  0.00    -0.237 OA
ATOM     91  O   UNL     1      18.273 -11.545   2.042  1.00  0.00    -0.237 OA
ATOM     92  O   UNL     1      19.663 -10.648   3.852  1.00  0.00    -0.744 OA
ENDBRANCH  86  89
ENDBRANCH  59  82
ENDBRANCH  33  34
ENDBRANCH  25  28
ENDBRANCH  23  24
ENDBRANCH   1  23
TORSDOF 15
