REMARK SMILES Cc1nsc(N(C)S(=O)(=O)c2cn[nH]c2C)c1C(=O)NCCCNC(=O)c1ccc(-c2c3nc(c(-c4cccc(S(=O)(=O)[O-])c4F)c4ccc([nH]4)c(-c4cccc(S(=O)(=O)[O-])c4F)c4nc(c(-c5cccc(S(=O)(=O)[O-])c5F)c5ccc2[nH]5)C=C4)C=C3)cc1
REMARK SMILES IDX 22 1 21 2 20 3 18 4 19 5 17 7 1 8 2 9 3 10 4 11 5 12 6 13
REMARK SMILES IDX 7 14 8 15 9 16 10 17 11 18 12 19 15 20 13 21 14 22 16 23
REMARK SMILES IDX 23 25 24 26 25 27 26 29 27 30 28 31 89 32 29 33 88 34 30 35
REMARK SMILES IDX 31 36 32 37 82 38 33 39 87 40 81 41 83 42 34 43 86 44 80 45
REMARK SMILES IDX 79 46 35 48 67 49 47 50 66 51 48 52 51 53 65 54 84 55 49 56
REMARK SMILES IDX 50 57 64 59 85 60 52 61 36 62 37 63 45 64 38 65 40 66 46 67
REMARK SMILES IDX 39 68 41 69 42 70 43 71 44 72 68 73 69 74 77 75 70 76 72 77
REMARK SMILES IDX 78 78 71 79 73 80 74 81 75 82 76 83 53 84 54 85 62 86 55 87
REMARK SMILES IDX 57 88 63 89 56 90 58 91 59 92 60 93 61 94
REMARK H PARENT 20 6 14 24 24 28 83 47 51 58
REMARK Flexibility Score: inf
ROOT
ATOM      1  C   UNL     1       0.012   1.769  -1.359  1.00  0.00     0.042 C 
ENDROOT
BRANCH   1   2
ATOM      2  C   UNL     1       1.041   1.885  -0.224  1.00  0.00     0.118 C 
BRANCH   2   3
ATOM      3  N   UNL     1       0.399   1.986   1.064  1.00  0.00    -0.352 N 
ATOM      4  C   UNL     1      -0.172   1.209   2.031  1.00  0.00     0.256 C 
ATOM      5  O   UNL     1      -0.933   1.922   2.681  1.00  0.00    -0.269 OA
ATOM      6  H   UNL     1       0.359   2.931   1.337  1.00  0.00     0.163 HD
BRANCH   4   7
ATOM      7  C   UNL     1      -0.031  -0.235   2.312  1.00  0.00     0.098 A 
ATOM      8  C   UNL     1       1.059  -1.212   0.038  1.00  0.00     0.069 C 
ATOM      9  C   UNL     1       0.475  -1.286   1.400  1.00  0.00     0.066 A 
ATOM     10  N   UNL     1       0.410  -2.542   1.825  1.00  0.00    -0.195 NA
ATOM     11  S   UNL     1      -0.289  -2.590   3.274  1.00  0.00    -0.017 S 
ATOM     12  C   UNL     1      -0.389  -0.875   3.546  1.00  0.00     0.138 A 
BRANCH  12  13
ATOM     13  N   UNL     1      -0.776  -0.454   4.924  1.00  0.00    -0.258 N 
ATOM     14  C   UNL     1      -1.067  -1.463   5.957  1.00  0.00     0.165 C 
BRANCH  13  15
ATOM     15  S   UNL     1      -1.344   1.115   5.227  1.00  0.00     0.268 S 
ATOM     16  O   UNL     1      -0.180   1.980   5.142  1.00  0.00    -0.201 OA
ATOM     17  O   UNL     1      -2.581   1.270   4.495  1.00  0.00    -0.201 OA
BRANCH  15  18
ATOM     18  C   UNL     1      -1.906   1.482   6.825  1.00  0.00     0.128 A 
ATOM     19  C   UNL     1      -2.477   0.647   7.798  1.00  0.00     0.157 A 
ATOM     20  C   UNL     1      -2.088   2.761   7.336  1.00  0.00     0.053 A 
ATOM     21  N   UNL     1      -2.857   1.308   8.897  1.00  0.00    -0.183 NA
ATOM     22  N   UNL     1      -2.696   2.599   8.549  1.00  0.00    -0.281 N 
ATOM     23  C   UNL     1      -1.849   4.111   6.767  1.00  0.00     0.067 C 
ATOM     24  H   UNL     1      -2.987   3.352   9.113  1.00  0.00     0.190 HD
ENDBRANCH  15  18
ENDBRANCH  13  15
ENDBRANCH  12  13
ENDBRANCH   4   7
ENDBRANCH   2   3
ENDBRANCH   1   2
BRANCH   1  25
ATOM     25  C   UNL     1      -0.489   3.131  -1.834  1.00  0.00     0.118 C 
BRANCH  25  26
ATOM     26  N   UNL     1       0.591   3.903  -2.447  1.00  0.00    -0.352 N 
ATOM     27  C   UNL     1       0.635   5.232  -2.794  1.00  0.00     0.251 C 
ATOM     28  H   UNL     1       1.411   3.393  -2.641  1.00  0.00     0.163 HD
ATOM     29  O   UNL     1       1.547   5.649  -3.501  1.00  0.00    -0.269 OA
BRANCH  27  30
ATOM     30  C   UNL     1      -0.445   6.132  -2.361  1.00  0.00     0.039 A 
ATOM     31  C   UNL     1      -1.050   6.965  -3.305  1.00  0.00     0.014 A 
ATOM     32  C   UNL     1      -0.895   6.104  -1.042  1.00  0.00     0.014 A 
ATOM     33  C   UNL     1      -2.181   7.687  -2.944  1.00  0.00     0.010 A 
ATOM     34  C   UNL     1      -2.072   6.748  -0.710  1.00  0.00     0.010 A 
ATOM     35  C   UNL     1      -2.719   7.545  -1.655  1.00  0.00    -0.014 A 
BRANCH  35  36
ATOM     36  C   UNL     1      -4.048   8.099  -1.377  1.00  0.00     0.031 A 
ATOM     37  C   UNL     1      -5.116   7.676  -2.328  1.00  0.00     0.074 A 
ATOM     38  C   UNL     1      -4.386   8.764  -0.253  1.00  0.00     0.049 A 
ATOM     39  N   UNL     1      -5.773   8.417  -3.160  1.00  0.00    -0.248 NA
ATOM     40  C   UNL     1      -5.410   6.240  -2.448  1.00  0.00     0.031 C 
ATOM     41  C   UNL     1      -3.554   8.968   0.937  1.00  0.00     0.029 A 
ATOM     42  N   UNL     1      -5.597   9.276   0.124  1.00  0.00    -0.354 N 
ATOM     43  C   UNL     1      -6.728   7.578  -3.739  1.00  0.00     0.074 A 
ATOM     44  C   UNL     1      -6.330   6.235  -3.415  1.00  0.00     0.031 C 
ATOM     45  C   UNL     1      -4.341   9.313   1.977  1.00  0.00     0.029 A 
ATOM     46  C   UNL     1      -5.688   9.536   1.486  1.00  0.00     0.049 A 
ATOM     47  H   UNL     1      -6.333   9.444  -0.508  1.00  0.00     0.167 HD
ATOM     48  C   UNL     1      -7.906   8.076  -4.208  1.00  0.00     0.034 A 
ATOM     49  C   UNL     1      -6.784   9.904   2.187  1.00  0.00     0.034 A 
ATOM     50  C   UNL     1      -7.874   9.516  -4.263  1.00  0.00     0.049 A 
ATOM     51  C   UNL     1      -7.742  10.523   1.248  1.00  0.00     0.074 A 
ATOM     52  C   UNL     1      -7.339  10.494  -5.066  1.00  0.00     0.029 A 
ATOM     53  N   UNL     1      -8.284  10.112  -3.101  1.00  0.00    -0.354 N 
ATOM     54  N   UNL     1      -7.521  11.656   0.642  1.00  0.00    -0.248 NA
ATOM     55  C   UNL     1      -8.882   9.761   0.753  1.00  0.00     0.031 C 
ATOM     56  C   UNL     1      -7.286  11.676  -4.268  1.00  0.00     0.029 A 
ATOM     57  C   UNL     1      -7.795  11.384  -3.003  1.00  0.00     0.049 A 
ATOM     58  H   UNL     1      -8.855   9.681  -2.424  1.00  0.00     0.167 HD
ATOM     59  C   UNL     1      -8.185  11.525  -0.562  1.00  0.00     0.074 A 
ATOM     60  C   UNL     1      -9.156  10.462  -0.351  1.00  0.00     0.031 C 
ATOM     61  C   UNL     1      -7.657  12.030  -1.713  1.00  0.00     0.034 A 
BRANCH  48  62
ATOM     62  C   UNL     1      -9.256   7.373  -4.207  1.00  0.00     0.023 A 
ATOM     63  C   UNL     1     -10.343   8.086  -4.776  1.00  0.00     0.012 A 
ATOM     64  C   UNL     1      -9.586   6.235  -3.438  1.00  0.00     0.148 A 
ATOM     65  C   UNL     1     -11.675   7.736  -4.532  1.00  0.00     0.002 A 
ATOM     66  C   UNL     1     -10.913   5.848  -3.255  1.00  0.00     0.091 A 
ATOM     67  F   UNL     1      -8.639   5.583  -2.762  1.00  0.00    -0.205 F 
ATOM     68  C   UNL     1     -11.962   6.613  -3.771  1.00  0.00     0.022 A 
BRANCH  66  69
ATOM     69  S   UNL     1     -11.343   4.378  -2.313  1.00  0.00     0.127 S 
ATOM     70  O   UNL     1     -11.810   4.960  -1.058  1.00  0.00    -0.237 OA
ATOM     71  O   UNL     1     -12.387   3.780  -3.146  1.00  0.00    -0.237 OA
ATOM     72  O   UNL     1     -10.117   3.592  -2.242  1.00  0.00    -0.744 OA
ENDBRANCH  66  69
ENDBRANCH  48  62
BRANCH  49  73
ATOM     73  C   UNL     1      -7.089   9.737   3.622  1.00  0.00     0.023 A 
ATOM     74  C   UNL     1      -7.944  10.651   4.265  1.00  0.00     0.012 A 
ATOM     75  C   UNL     1      -6.738   8.550   4.303  1.00  0.00     0.148 A 
ATOM     76  C   UNL     1      -8.466  10.377   5.533  1.00  0.00     0.002 A 
ATOM     77  C   UNL     1      -7.254   8.284   5.568  1.00  0.00     0.091 A 
ATOM     78  F   UNL     1      -5.968   7.651   3.675  1.00  0.00    -0.205 F 
ATOM     79  C   UNL     1      -8.130   9.191   6.180  1.00  0.00     0.022 A 
BRANCH  77  80
ATOM     80  S   UNL     1      -6.882   6.771   6.465  1.00  0.00     0.127 S 
ATOM     81  O   UNL     1      -6.545   7.277   7.796  1.00  0.00    -0.237 OA
ATOM     82  O   UNL     1      -8.152   6.054   6.387  1.00  0.00    -0.237 OA
ATOM     83  O   UNL     1      -5.760   6.159   5.764  1.00  0.00    -0.744 OA
ENDBRANCH  77  80
ENDBRANCH  49  73
BRANCH  61  84
ATOM     84  C   UNL     1      -6.678  13.162  -1.602  1.00  0.00     0.023 A 
ATOM     85  C   UNL     1      -5.420  13.017  -0.986  1.00  0.00     0.012 A 
ATOM     86  C   UNL     1      -6.991  14.377  -2.234  1.00  0.00     0.148 A 
ATOM     87  C   UNL     1      -4.504  14.072  -0.979  1.00  0.00     0.002 A 
ATOM     88  C   UNL     1      -6.059  15.406  -2.270  1.00  0.00     0.091 A 
ATOM     89  F   UNL     1      -8.199  14.504  -2.807  1.00  0.00    -0.205 F 
ATOM     90  C   UNL     1      -4.817  15.261  -1.633  1.00  0.00     0.022 A 
BRANCH  88  91
ATOM     91  S   UNL     1      -6.364  16.903  -3.211  1.00  0.00     0.127 S 
ATOM     92  O   UNL     1      -6.784  17.840  -2.172  1.00  0.00    -0.237 OA
ATOM     93  O   UNL     1      -5.051  17.185  -3.795  1.00  0.00    -0.237 OA
ATOM     94  O   UNL     1      -7.382  16.548  -4.193  1.00  0.00    -0.744 OA
ENDBRANCH  88  91
ENDBRANCH  61  84
ENDBRANCH  35  36
ENDBRANCH  27  30
ENDBRANCH  25  26
ENDBRANCH   1  25
TORSDOF 16
