REMARK SMILES Cc1ccnc(C(=O)c2[nH]c3ccc(F)cc3c2CC(=O)NCCCNC(=O)c2ccc(-c3c4nc(c(-c5cccc(S(=O)(=O)[O-])c5F)c5ccc([nH]5)c(-c5cccc(S(=O)(=O)[O-])c5F)c5nc(c(-c6cccc(S(=O)(=O)[O-])c6F)c6ccc3[nH]6)C=C5)C=C4)cc2)c1
REMARK SMILES IDX 24 1 23 2 22 3 20 4 21 5 19 7 18 8 9 9 10 10 11 11 17 13
REMARK SMILES IDX 12 14 16 15 13 16 14 17 15 18 7 19 8 20 6 21 1 22 2 23 3 24
REMARK SMILES IDX 92 25 4 26 5 27 25 28 26 29 27 30 28 32 29 33 30 34 91 35
REMARK SMILES IDX 31 36 90 37 32 38 33 39 34 40 84 41 35 42 89 43 83 44 85 45
REMARK SMILES IDX 36 46 88 47 82 48 81 49 37 51 69 52 49 53 68 54 50 55 53 56
REMARK SMILES IDX 67 57 86 58 51 59 52 60 66 62 87 63 54 64 38 65 39 66 47 67
REMARK SMILES IDX 40 68 42 69 48 70 41 71 43 72 44 73 45 74 46 75 70 76 71 77
REMARK SMILES IDX 79 78 72 79 74 80 80 81 73 82 75 83 76 84 77 85 78 86 55 87
REMARK SMILES IDX 56 88 64 89 57 90 59 91 65 92 58 93 60 94 61 95 62 96 63 97
REMARK H PARENT 22 6 10 12 26 31 85 50 53 61
REMARK Flexibility Score: inf
ROOT
ATOM      1  C   UNL     1      -2.914  -3.833   0.634  1.00  0.00     0.042 C 
ENDROOT
BRANCH   1   2
ATOM      2  C   UNL     1      -3.082  -3.665  -0.878  1.00  0.00     0.117 C 
BRANCH   2   3
ATOM      3  N   UNL     1      -2.429  -2.509  -1.461  1.00  0.00    -0.356 N 
ATOM      4  C   UNL     1      -1.249  -2.401  -2.138  1.00  0.00     0.224 C 
ATOM      5  O   UNL     1      -1.044  -1.339  -2.736  1.00  0.00    -0.275 OA
ATOM      6  H   UNL     1      -2.918  -1.662  -1.350  1.00  0.00     0.163 HD
BRANCH   4   7
ATOM      7  C   UNL     1      -0.246  -3.535  -2.231  1.00  0.00     0.138 C 
BRANCH   7   8
ATOM      8  C   UNL     1       0.197  -4.146  -0.933  1.00  0.00    -0.002 A 
ATOM      9  C   UNL     1       1.050  -3.628   0.047  1.00  0.00     0.093 A 
ATOM     10  N   UNL     1       1.233  -4.628   0.983  1.00  0.00    -0.352 N 
ATOM     11  C   UNL     1       0.472  -5.731   0.698  1.00  0.00     0.046 A 
ATOM     12  H   UNL     1       1.836  -4.557   1.759  1.00  0.00     0.167 HD
ATOM     13  C   UNL     1      -0.135  -5.493  -0.531  1.00  0.00     0.007 A 
ATOM     14  C   UNL     1       0.295  -6.918   1.423  1.00  0.00     0.030 A 
ATOM     15  C   UNL     1      -0.921  -6.524  -1.093  1.00  0.00     0.049 A 
ATOM     16  C   UNL     1      -0.536  -7.897   0.871  1.00  0.00     0.041 A 
ATOM     17  C   UNL     1      -1.122  -7.699  -0.370  1.00  0.00     0.123 A 
ATOM     18  F   UNL     1      -1.916  -8.648  -0.886  1.00  0.00    -0.207 F 
BRANCH   9  19
ATOM     19  C   UNL     1       1.814  -2.389   0.177  1.00  0.00     0.227 C 
ATOM     20  O   UNL     1       3.018  -2.449   0.425  1.00  0.00    -0.285 OA
BRANCH  19  21
ATOM     21  C   UNL     1       1.157  -1.034   0.124  1.00  0.00     0.113 A 
ATOM     22  C   UNL     1      -2.231   0.684   0.304  1.00  0.00     0.044 C 
ATOM     23  C   UNL     1      -0.756   0.430   0.220  1.00  0.00    -0.047 A 
ATOM     24  C   UNL     1       0.107   1.503   0.006  1.00  0.00     0.023 A 
ATOM     25  C   UNL     1      -0.206  -0.853   0.345  1.00  0.00     0.036 A 
ATOM     26  C   UNL     1       1.459   1.247  -0.131  1.00  0.00     0.112 A 
ATOM     27  N   UNL     1       1.998   0.011  -0.098  1.00  0.00    -0.253 NA
ENDBRANCH  19  21
ENDBRANCH   9  19
ENDBRANCH   7   8
ENDBRANCH   4   7
ENDBRANCH   2   3
ENDBRANCH   1   2
BRANCH   1  28
ATOM     28  C   UNL     1      -3.555  -2.788   1.542  1.00  0.00     0.118 C 
BRANCH  28  29
ATOM     29  N   UNL     1      -4.943  -2.503   1.236  1.00  0.00    -0.352 N 
ATOM     30  C   UNL     1      -6.003  -2.344   2.095  1.00  0.00     0.251 C 
ATOM     31  H   UNL     1      -5.156  -2.410   0.280  1.00  0.00     0.163 HD
ATOM     32  O   UNL     1      -7.138  -2.235   1.642  1.00  0.00    -0.269 OA
BRANCH  30  33
ATOM     33  C   UNL     1      -5.782  -2.320   3.558  1.00  0.00     0.039 A 
ATOM     34  C   UNL     1      -6.599  -3.111   4.370  1.00  0.00     0.014 A 
ATOM     35  C   UNL     1      -4.801  -1.506   4.131  1.00  0.00     0.014 A 
ATOM     36  C   UNL     1      -6.402  -3.122   5.753  1.00  0.00     0.010 A 
ATOM     37  C   UNL     1      -4.571  -1.559   5.506  1.00  0.00     0.010 A 
ATOM     38  C   UNL     1      -5.369  -2.366   6.333  1.00  0.00    -0.014 A 
BRANCH  38  39
ATOM     39  C   UNL     1      -5.098  -2.437   7.794  1.00  0.00     0.031 A 
ATOM     40  C   UNL     1      -5.271  -1.225   8.668  1.00  0.00     0.074 A 
ATOM     41  C   UNL     1      -4.627  -3.583   8.324  1.00  0.00     0.049 A 
ATOM     42  N   UNL     1      -5.047  -1.096   9.951  1.00  0.00    -0.248 NA
ATOM     43  C   UNL     1      -5.734   0.010   8.015  1.00  0.00     0.031 C 
ATOM     44  C   UNL     1      -4.351  -4.810   7.573  1.00  0.00     0.029 A 
ATOM     45  N   UNL     1      -4.270  -3.897   9.613  1.00  0.00    -0.354 N 
ATOM     46  C   UNL     1      -5.311   0.234  10.255  1.00  0.00     0.074 A 
ATOM     47  C   UNL     1      -5.685   0.880   9.014  1.00  0.00     0.031 C 
ATOM     48  C   UNL     1      -3.870  -5.740   8.412  1.00  0.00     0.029 A 
ATOM     49  C   UNL     1      -3.770  -5.171   9.752  1.00  0.00     0.049 A 
ATOM     50  H   UNL     1      -4.364  -3.269  10.366  1.00  0.00     0.167 HD
ATOM     51  C   UNL     1      -5.270   0.857  11.457  1.00  0.00     0.034 A 
ATOM     52  C   UNL     1      -3.273  -5.807  10.832  1.00  0.00     0.034 A 
ATOM     53  C   UNL     1      -4.924   0.207  12.694  1.00  0.00     0.049 A 
ATOM     54  C   UNL     1      -3.258  -5.098  12.159  1.00  0.00     0.074 A 
ATOM     55  C   UNL     1      -4.934   0.734  13.974  1.00  0.00     0.029 A 
ATOM     56  N   UNL     1      -4.491  -1.105  12.807  1.00  0.00    -0.354 N 
ATOM     57  N   UNL     1      -3.661  -3.886  12.452  1.00  0.00    -0.248 NA
ATOM     58  C   UNL     1      -2.753  -5.857  13.312  1.00  0.00     0.031 C 
ATOM     59  C   UNL     1      -4.473  -0.249  14.856  1.00  0.00     0.029 A 
ATOM     60  C   UNL     1      -4.215  -1.401  14.131  1.00  0.00     0.049 A 
ATOM     61  H   UNL     1      -4.393  -1.734  12.056  1.00  0.00     0.167 HD
ATOM     62  C   UNL     1      -3.495  -3.750  13.825  1.00  0.00     0.074 A 
ATOM     63  C   UNL     1      -2.974  -5.011  14.310  1.00  0.00     0.031 C 
ATOM     64  C   UNL     1      -3.742  -2.674  14.612  1.00  0.00     0.034 A 
BRANCH  51  65
ATOM     65  C   UNL     1      -5.644   2.317  11.506  1.00  0.00     0.023 A 
ATOM     66  C   UNL     1      -6.987   2.701  11.309  1.00  0.00     0.012 A 
ATOM     67  C   UNL     1      -4.684   3.302  11.812  1.00  0.00     0.148 A 
ATOM     68  C   UNL     1      -7.361   4.042  11.379  1.00  0.00     0.002 A 
ATOM     69  C   UNL     1      -5.073   4.632  11.926  1.00  0.00     0.091 A 
ATOM     70  F   UNL     1      -3.409   2.922  11.979  1.00  0.00    -0.205 F 
ATOM     71  C   UNL     1      -6.407   5.005  11.697  1.00  0.00     0.022 A 
BRANCH  69  72
ATOM     72  S   UNL     1      -3.938   5.937  12.413  1.00  0.00     0.127 S 
ATOM     73  O   UNL     1      -3.817   6.699  11.170  1.00  0.00    -0.237 OA
ATOM     74  O   UNL     1      -4.686   6.614  13.472  1.00  0.00    -0.237 OA
ATOM     75  O   UNL     1      -2.723   5.269  12.856  1.00  0.00    -0.744 OA
ENDBRANCH  69  72
ENDBRANCH  51  65
BRANCH  52  76
ATOM     76  C   UNL     1      -2.794  -7.213  10.711  1.00  0.00     0.023 A 
ATOM     77  C   UNL     1      -3.518  -8.250  11.331  1.00  0.00     0.012 A 
ATOM     78  C   UNL     1      -1.640  -7.529   9.969  1.00  0.00     0.148 A 
ATOM     79  C   UNL     1      -3.080  -9.572  11.245  1.00  0.00     0.002 A 
ATOM     80  C   UNL     1      -1.244  -8.854   9.836  1.00  0.00     0.091 A 
ATOM     81  F   UNL     1      -0.960  -6.527   9.395  1.00  0.00    -0.205 F 
ATOM     82  C   UNL     1      -1.950  -9.876  10.490  1.00  0.00     0.022 A 
BRANCH  80  83
ATOM     83  S   UNL     1       0.116  -9.350   8.772  1.00  0.00     0.127 S 
ATOM     84  O   UNL     1       1.114  -9.786   9.745  1.00  0.00    -0.237 OA
ATOM     85  O   UNL     1      -0.493 -10.425   7.988  1.00  0.00    -0.237 OA
ATOM     86  O   UNL     1       0.462  -8.167   7.996  1.00  0.00    -0.744 OA
ENDBRANCH  80  83
ENDBRANCH  52  76
BRANCH  64  87
ATOM     87  C   UNL     1      -3.496  -2.816  16.093  1.00  0.00     0.023 A 
ATOM     88  C   UNL     1      -2.179  -2.893  16.587  1.00  0.00     0.012 A 
ATOM     89  C   UNL     1      -4.574  -2.804  17.001  1.00  0.00     0.148 A 
ATOM     90  C   UNL     1      -1.940  -2.991  17.958  1.00  0.00     0.002 A 
ATOM     91  C   UNL     1      -4.326  -2.848  18.367  1.00  0.00     0.091 A 
ATOM     92  F   UNL     1      -5.821  -2.748  16.511  1.00  0.00    -0.205 F 
ATOM     93  C   UNL     1      -3.011  -2.956  18.847  1.00  0.00     0.022 A 
BRANCH  91  94
ATOM     94  S   UNL     1      -5.635  -2.709  19.590  1.00  0.00     0.127 S 
ATOM     95  O   UNL     1      -5.675  -4.064  20.139  1.00  0.00    -0.237 OA
ATOM     96  O   UNL     1      -5.101  -1.697  20.501  1.00  0.00    -0.237 OA
ATOM     97  O   UNL     1      -6.827  -2.298  18.860  1.00  0.00    -0.744 OA
ENDBRANCH  91  94
ENDBRANCH  64  87
ENDBRANCH  38  39
ENDBRANCH  30  33
ENDBRANCH  28  29
ENDBRANCH   1  28
TORSDOF 16
