REMARK SMILES COc1cc(Cl)c(C)cc1N1C(=O)C[C@H](Nc2cc(C(=O)NCCCNC(=O)c3ccc(-c4c5nc(c(-c6cccc(S(=O)(=O)[O-])c6F)c6ccc([nH]6)c(-c6cccc(S(=O)(=O)[O-])c6F)c6nc(c(-c7cccc(S(=O)(=O)[O-])c7F)c7ccc4[nH]7)C=C6)C=C5)cc3)ccc2C)C1=O
REMARK SMILES IDX 23 1 22 2 20 3 21 4 19 6 17 7 18 8 94 9 93 10 95 11 92 12
REMARK SMILES IDX 16 13 15 15 11 16 12 17 96 18 13 19 14 20 97 21 10 22 3 23
REMARK SMILES IDX 4 24 5 25 9 26 6 27 7 28 8 29 2 30 1 31 24 32 25 33 26 34
REMARK SMILES IDX 27 35 28 37 29 38 30 39 91 40 31 41 90 42 32 43 33 44 34 45
REMARK SMILES IDX 84 46 35 47 89 48 83 49 85 50 36 51 88 52 82 53 81 54 37 56
REMARK SMILES IDX 69 57 49 58 68 59 50 60 53 61 67 62 86 63 51 64 52 65 66 67
REMARK SMILES IDX 87 68 54 69 38 70 39 71 47 72 40 73 42 74 48 75 41 76 43 77
REMARK SMILES IDX 44 78 45 79 46 80 70 81 71 82 79 83 72 84 74 85 80 86 73 87
REMARK SMILES IDX 75 88 76 89 77 90 78 91 55 92 56 93 64 94 57 95 59 96 65 97
REMARK SMILES IDX 58 98 60 99 61 100 62 101 63 102
REMARK H PARENT 22 5 16 14 26 36 85 55 53 66
REMARK Flexibility Score: inf
ROOT
ATOM      1  C   UNL     1       2.661   0.829  -4.210  1.00  0.00     0.118 C 
ENDROOT
BRANCH   1   2
ATOM      2  N   UNL     1       3.380   0.336  -5.374  1.00  0.00    -0.352 N 
ATOM      3  C   UNL     1       4.608  -0.266  -5.523  1.00  0.00     0.251 C 
ATOM      4  O   UNL     1       4.933  -0.610  -6.661  1.00  0.00    -0.269 OA
ATOM      5  H   UNL     1       2.893   0.457  -6.221  1.00  0.00     0.163 HD
BRANCH   3   6
ATOM      6  C   UNL     1       5.553  -0.546  -4.396  1.00  0.00     0.041 A 
ATOM      7  C   UNL     1       6.294  -0.355  -2.057  1.00  0.00     0.038 A 
ATOM      8  C   UNL     1       5.425  -0.039  -3.107  1.00  0.00     0.039 A 
ATOM      9  C   UNL     1       7.413  -1.138  -2.335  1.00  0.00    -0.028 A 
ATOM     10  C   UNL     1       7.584  -1.644  -3.636  1.00  0.00     0.006 A 
ATOM     11  C   UNL     1       8.428  -1.486  -1.286  1.00  0.00     0.046 C 
ATOM     12  C   UNL     1       6.661  -1.358  -4.650  1.00  0.00     0.014 A 
BRANCH   7  13
ATOM     13  N   UNL     1       6.063   0.223  -0.801  1.00  0.00    -0.373 N 
ATOM     14  H   UNL     1       6.732   0.795  -0.361  1.00  0.00     0.161 HD
BRANCH  13  15
ATOM     15  C   UNL     1       4.762  -0.076  -0.177  1.00  0.00     0.179 C 
ATOM     16  N   UNL     1       3.430   1.009   1.406  1.00  0.00    -0.245 N 
ATOM     17  C   UNL     1       4.050   0.004   2.096  1.00  0.00     0.236 C 
ATOM     18  C   UNL     1       3.958   1.169   0.153  1.00  0.00     0.256 C 
ATOM     19  O   UNL     1       3.909  -0.297   3.273  1.00  0.00    -0.274 OA
ATOM     20  C   UNL     1       4.965  -0.739   1.170  1.00  0.00     0.136 C 
ATOM     21  O   UNL     1       3.894   2.160  -0.561  1.00  0.00    -0.272 OA
BRANCH  16  22
ATOM     22  C   UNL     1       2.462   1.870   1.961  1.00  0.00     0.094 A 
ATOM     23  C   UNL     1       1.219   2.068   1.338  1.00  0.00     0.144 A 
ATOM     24  C   UNL     1       0.259   2.897   1.924  1.00  0.00     0.069 A 
ATOM     25  C   UNL     1       0.541   3.554   3.125  1.00  0.00     0.047 A 
ATOM     26  C   UNL     1       2.730   2.530   3.168  1.00  0.00     0.035 A 
ATOM     27  Cl  UNL     1      -0.695   4.534   3.831  1.00  0.00    -0.084 Cl
ATOM     28  C   UNL     1       1.794   3.409   3.741  1.00  0.00    -0.030 A 
ATOM     29  C   UNL     1       2.170   4.181   4.975  1.00  0.00     0.046 C 
BRANCH  23  30
ATOM     30  O   UNL     1       0.889   1.489   0.138  1.00  0.00    -0.495 OA
ATOM     31  C   UNL     1       0.588   0.100   0.265  1.00  0.00     0.278 C 
ENDBRANCH  23  30
ENDBRANCH  16  22
ENDBRANCH  13  15
ENDBRANCH   7  13
ENDBRANCH   3   6
ENDBRANCH   1   2
BRANCH   1  32
ATOM     32  C   UNL     1       3.182   2.196  -3.774  1.00  0.00     0.042 C 
BRANCH  32  33
ATOM     33  C   UNL     1       2.440   3.327  -4.421  1.00  0.00     0.118 C 
BRANCH  33  34
ATOM     34  N   UNL     1       1.280   3.751  -3.667  1.00  0.00    -0.352 N 
ATOM     35  C   UNL     1       0.350   4.719  -3.970  1.00  0.00     0.251 C 
ATOM     36  H   UNL     1       1.136   3.278  -2.815  1.00  0.00     0.163 HD
ATOM     37  O   UNL     1      -0.457   5.026  -3.092  1.00  0.00    -0.269 OA
BRANCH  35  38
ATOM     38  C   UNL     1       0.234   5.265  -5.348  1.00  0.00     0.039 A 
ATOM     39  C   UNL     1      -1.039   5.658  -5.779  1.00  0.00     0.014 A 
ATOM     40  C   UNL     1       1.266   5.170  -6.277  1.00  0.00     0.014 A 
ATOM     41  C   UNL     1      -1.343   5.637  -7.134  1.00  0.00     0.010 A 
ATOM     42  C   UNL     1       0.954   5.040  -7.602  1.00  0.00     0.010 A 
ATOM     43  C   UNL     1      -0.372   5.175  -8.005  1.00  0.00    -0.014 A 
BRANCH  43  44
ATOM     44  C   UNL     1      -0.589   4.761  -9.370  1.00  0.00     0.031 A 
ATOM     45  C   UNL     1      -0.420   5.731 -10.447  1.00  0.00     0.074 A 
ATOM     46  C   UNL     1      -0.532   3.430  -9.587  1.00  0.00     0.049 A 
ATOM     47  N   UNL     1      -0.709   5.484 -11.672  1.00  0.00    -0.248 NA
ATOM     48  C   UNL     1       0.137   7.059 -10.221  1.00  0.00     0.031 C 
ATOM     49  C   UNL     1      -0.111   2.711 -10.780  1.00  0.00     0.029 A 
ATOM     50  N   UNL     1      -0.917   2.418  -8.720  1.00  0.00    -0.354 N 
ATOM     51  C   UNL     1      -0.096   6.458 -12.423  1.00  0.00     0.074 A 
ATOM     52  C   UNL     1       0.332   7.465 -11.478  1.00  0.00     0.031 C 
ATOM     53  C   UNL     1      -0.462   1.417 -10.657  1.00  0.00     0.029 A 
ATOM     54  C   UNL     1      -1.315   1.316  -9.485  1.00  0.00     0.049 A 
ATOM     55  H   UNL     1      -0.912   2.467  -7.737  1.00  0.00     0.167 HD
ATOM     56  C   UNL     1       0.154   6.208 -13.737  1.00  0.00     0.034 A 
ATOM     57  C   UNL     1      -2.649   0.995  -9.511  1.00  0.00     0.034 A 
ATOM     58  C   UNL     1      -0.298   4.853 -14.107  1.00  0.00     0.049 A 
ATOM     59  C   UNL     1      -3.308   1.240 -10.869  1.00  0.00     0.074 A 
ATOM     60  C   UNL     1       0.339   3.634 -14.287  1.00  0.00     0.029 A 
ATOM     61  N   UNL     1      -1.647   4.551 -13.993  1.00  0.00    -0.354 N 
ATOM     62  N   UNL     1      -2.692   1.654 -11.945  1.00  0.00    -0.248 NA
ATOM     63  C   UNL     1      -4.747   1.108 -11.084  1.00  0.00     0.031 C 
ATOM     64  C   UNL     1      -0.649   2.601 -14.272  1.00  0.00     0.029 A 
ATOM     65  C   UNL     1      -1.890   3.190 -14.112  1.00  0.00     0.049 A 
ATOM     66  H   UNL     1      -2.351   5.224 -13.844  1.00  0.00     0.167 HD
ATOM     67  C   UNL     1      -3.613   2.039 -12.891  1.00  0.00     0.074 A 
ATOM     68  C   UNL     1      -4.886   1.630 -12.314  1.00  0.00     0.031 C 
ATOM     69  C   UNL     1      -3.273   2.729 -14.031  1.00  0.00     0.034 A 
BRANCH  56  70
ATOM     70  C   UNL     1       1.089   7.058 -14.571  1.00  0.00     0.023 A 
ATOM     71  C   UNL     1       1.794   6.424 -15.614  1.00  0.00     0.012 A 
ATOM     72  C   UNL     1       1.358   8.435 -14.378  1.00  0.00     0.148 A 
ATOM     73  C   UNL     1       2.786   7.077 -16.352  1.00  0.00     0.002 A 
ATOM     74  C   UNL     1       2.405   9.066 -15.058  1.00  0.00     0.091 A 
ATOM     75  F   UNL     1       0.557   9.164 -13.591  1.00  0.00    -0.205 F 
ATOM     76  C   UNL     1       3.121   8.387 -16.047  1.00  0.00     0.022 A 
BRANCH  74  77
ATOM     77  S   UNL     1       2.977  10.721 -14.629  1.00  0.00     0.127 S 
ATOM     78  O   UNL     1       4.433  10.551 -14.606  1.00  0.00    -0.237 OA
ATOM     79  O   UNL     1       2.482  11.528 -15.741  1.00  0.00    -0.237 OA
ATOM     80  O   UNL     1       2.401  11.012 -13.322  1.00  0.00    -0.744 OA
ENDBRANCH  74  77
ENDBRANCH  56  70
BRANCH  57  81
ATOM     81  C   UNL     1      -3.294   1.273  -8.172  1.00  0.00     0.023 A 
ATOM     82  C   UNL     1      -2.720   0.632  -7.042  1.00  0.00     0.012 A 
ATOM     83  C   UNL     1      -4.054   2.438  -7.962  1.00  0.00     0.148 A 
ATOM     84  C   UNL     1      -2.708   1.261  -5.793  1.00  0.00     0.002 A 
ATOM     85  C   UNL     1      -4.072   3.037  -6.703  1.00  0.00     0.091 A 
ATOM     86  F   UNL     1      -4.701   2.990  -8.996  1.00  0.00    -0.205 F 
ATOM     87  C   UNL     1      -3.344   2.489  -5.636  1.00  0.00     0.022 A 
BRANCH  85  88
ATOM     88  S   UNL     1      -4.956   4.581  -6.451  1.00  0.00     0.127 S 
ATOM     89  O   UNL     1      -6.314   4.105  -6.205  1.00  0.00    -0.237 OA
ATOM     90  O   UNL     1      -4.293   5.158  -5.282  1.00  0.00    -0.237 OA
ATOM     91  O   UNL     1      -4.746   5.329  -7.683  1.00  0.00    -0.744 OA
ENDBRANCH  85  88
ENDBRANCH  57  81
BRANCH  69  92
ATOM     92  C   UNL     1      -4.245   3.126 -15.143  1.00  0.00     0.023 A 
ATOM     93  C   UNL     1      -5.464   2.451 -15.340  1.00  0.00     0.012 A 
ATOM     94  C   UNL     1      -3.937   4.132 -16.104  1.00  0.00     0.148 A 
ATOM     95  C   UNL     1      -6.390   2.852 -16.312  1.00  0.00     0.002 A 
ATOM     96  C   UNL     1      -4.850   4.524 -17.078  1.00  0.00     0.091 A 
ATOM     97  F   UNL     1      -2.722   4.684 -16.139  1.00  0.00    -0.205 F 
ATOM     98  C   UNL     1      -6.095   3.906 -17.164  1.00  0.00     0.022 A 
BRANCH  96  99
ATOM     99  S   UNL     1      -4.475   5.802 -18.289  1.00  0.00     0.127 S 
ATOM    100  O   UNL     1      -4.394   5.019 -19.522  1.00  0.00    -0.237 OA
ATOM    101  O   UNL     1      -5.653   6.664 -18.190  1.00  0.00    -0.237 OA
ATOM    102  O   UNL     1      -3.229   6.422 -17.863  1.00  0.00    -0.744 OA
ENDBRANCH  96  99
ENDBRANCH  69  92
ENDBRANCH  43  44
ENDBRANCH  35  38
ENDBRANCH  33  34
ENDBRANCH  32  33
ENDBRANCH   1  32
TORSDOF 17
