REMARK SMILES O=C(NCCCNC(=O)c1cccc(COc2ccccc2C=C2C(=O)c3ccccc3C2=O)c1)c1ccc(-c2c3nc(c(-c4cccc(S(=O)(=O)[O-])c4F)c4ccc([nH]4)c(-c4cccc(S(=O)(=O)[O-])c4F)c4nc(c(-c5cccc(S(=O)(=O)[O-])c5F)c5ccc2[nH]5)C=C4)C=C3)cc1
REMARK SMILES IDX 5 1 4 2 3 3 1 4 2 5 36 7 37 8 98 9 38 10 97 11 39 12 40 13
REMARK SMILES IDX 41 14 91 15 42 16 96 17 90 18 92 19 43 20 95 21 89 22 88 23
REMARK SMILES IDX 44 25 76 26 56 27 75 28 57 29 60 30 74 31 93 32 58 33 59 34
REMARK SMILES IDX 73 36 94 37 61 38 45 39 46 40 54 41 47 42 49 43 55 44 48 45
REMARK SMILES IDX 50 46 51 47 52 48 53 49 77 50 78 51 86 52 79 53 81 54 87 55
REMARK SMILES IDX 80 56 82 57 83 58 84 59 85 60 62 61 63 62 71 63 64 64 66 65
REMARK SMILES IDX 72 66 65 67 67 68 68 69 69 70 70 71 6 72 7 73 8 74 9 76
REMARK SMILES IDX 10 77 11 78 35 79 12 80 14 81 13 82 15 83 16 84 17 85 18 86
REMARK SMILES IDX 22 87 19 88 21 89 20 90 23 91 24 92 25 93 33 94 26 95 27 96
REMARK SMILES IDX 32 97 34 98 28 99 31 100 29 101 30 102
REMARK H PARENT 3 6 92 24 60 35 7 75
REMARK Flexibility Score: inf
ROOT
ATOM      1  C   UNL     1       4.752   0.948   1.948  1.00  0.00     0.042 C 
ENDROOT
BRANCH   1   2
ATOM      2  C   UNL     1       4.454  -0.280   1.103  1.00  0.00     0.118 C 
BRANCH   2   3
ATOM      3  N   UNL     1       3.022  -0.453   0.885  1.00  0.00    -0.352 N 
ATOM      4  O   UNL     1       1.037  -0.034  -0.092  1.00  0.00    -0.269 OA
ATOM      5  C   UNL     1       2.258  -0.087  -0.196  1.00  0.00     0.251 C 
ATOM      6  H   UNL     1       2.534  -0.895   1.617  1.00  0.00     0.163 HD
BRANCH   5   7
ATOM      7  C   UNL     1       2.928   0.258  -1.465  1.00  0.00     0.039 A 
ATOM      8  C   UNL     1       4.008  -0.507  -1.906  1.00  0.00     0.014 A 
ATOM      9  C   UNL     1       2.482   1.346  -2.217  1.00  0.00     0.014 A 
ATOM     10  C   UNL     1       4.762  -0.078  -2.985  1.00  0.00     0.010 A 
ATOM     11  C   UNL     1       3.164   1.697  -3.385  1.00  0.00     0.010 A 
ATOM     12  C   UNL     1       4.327   1.006  -3.760  1.00  0.00    -0.014 A 
BRANCH  12  13
ATOM     13  C   UNL     1       5.051   1.318  -5.016  1.00  0.00     0.031 A 
ATOM     14  C   UNL     1       5.699   2.653  -5.238  1.00  0.00     0.074 A 
ATOM     15  C   UNL     1       5.107   0.365  -5.967  1.00  0.00     0.049 A 
ATOM     16  N   UNL     1       6.355   3.079  -6.285  1.00  0.00    -0.248 NA
ATOM     17  C   UNL     1       5.588   3.644  -4.156  1.00  0.00     0.031 C 
ATOM     18  C   UNL     1       4.471  -0.954  -5.872  1.00  0.00     0.029 A 
ATOM     19  N   UNL     1       5.710   0.353  -7.197  1.00  0.00    -0.354 N 
ATOM     20  C   UNL     1       6.693   4.399  -6.015  1.00  0.00     0.074 A 
ATOM     21  C   UNL     1       6.166   4.706  -4.702  1.00  0.00     0.031 C 
ATOM     22  C   UNL     1       4.731  -1.651  -6.985  1.00  0.00     0.029 A 
ATOM     23  C   UNL     1       5.484  -0.805  -7.901  1.00  0.00     0.049 A 
ATOM     24  H   UNL     1       6.251   1.099  -7.542  1.00  0.00     0.167 HD
ATOM     25  C   UNL     1       7.384   5.269  -6.790  1.00  0.00     0.034 A 
ATOM     26  C   UNL     1       5.805  -1.142  -9.164  1.00  0.00     0.034 A 
ATOM     27  C   UNL     1       7.921   4.940  -8.085  1.00  0.00     0.049 A 
ATOM     28  C   UNL     1       6.581  -0.165  -9.993  1.00  0.00     0.074 A 
ATOM     29  C   UNL     1       8.702   5.724  -8.916  1.00  0.00     0.029 A 
ATOM     30  N   UNL     1       7.715   3.739  -8.748  1.00  0.00    -0.354 N 
ATOM     31  N   UNL     1       7.007   1.032  -9.668  1.00  0.00    -0.248 NA
ATOM     32  C   UNL     1       6.947  -0.591 -11.349  1.00  0.00     0.031 C 
ATOM     33  C   UNL     1       8.934   5.012 -10.098  1.00  0.00     0.029 A 
ATOM     34  C   UNL     1       8.334   3.767  -9.987  1.00  0.00     0.049 A 
ATOM     35  H   UNL     1       7.204   2.977  -8.390  1.00  0.00     0.167 HD
ATOM     36  C   UNL     1       7.710   1.496 -10.771  1.00  0.00     0.074 A 
ATOM     37  C   UNL     1       7.674   0.439 -11.762  1.00  0.00     0.031 C 
ATOM     38  C   UNL     1       8.319   2.693 -10.950  1.00  0.00     0.034 A 
BRANCH  25  39
ATOM     39  C   UNL     1       7.609   6.661  -6.255  1.00  0.00     0.023 A 
ATOM     40  C   UNL     1       8.494   6.869  -5.178  1.00  0.00     0.012 A 
ATOM     41  C   UNL     1       6.978   7.771  -6.852  1.00  0.00     0.148 A 
ATOM     42  C   UNL     1       8.717   8.152  -4.678  1.00  0.00     0.002 A 
ATOM     43  C   UNL     1       7.241   9.052  -6.378  1.00  0.00     0.091 A 
ATOM     44  F   UNL     1       6.124   7.556  -7.862  1.00  0.00    -0.205 F 
ATOM     45  C   UNL     1       8.099   9.243  -5.283  1.00  0.00     0.022 A 
BRANCH  43  46
ATOM     46  S   UNL     1       6.556  10.526  -7.143  1.00  0.00     0.127 S 
ATOM     47  O   UNL     1       5.560  10.935  -6.153  1.00  0.00    -0.237 OA
ATOM     48  O   UNL     1       7.725  11.401  -7.229  1.00  0.00    -0.237 OA
ATOM     49  O   UNL     1       6.023  10.099  -8.429  1.00  0.00    -0.744 OA
ENDBRANCH  43  46
ENDBRANCH  25  39
BRANCH  26  50
ATOM     50  C   UNL     1       5.387  -2.468  -9.692  1.00  0.00     0.023 A 
ATOM     51  C   UNL     1       6.352  -3.465  -9.925  1.00  0.00     0.012 A 
ATOM     52  C   UNL     1       4.024  -2.768  -9.889  1.00  0.00     0.148 A 
ATOM     53  C   UNL     1       5.968  -4.732 -10.365  1.00  0.00     0.002 A 
ATOM     54  C   UNL     1       3.644  -4.049 -10.265  1.00  0.00     0.091 A 
ATOM     55  F   UNL     1       3.123  -1.800  -9.665  1.00  0.00    -0.205 F 
ATOM     56  C   UNL     1       4.615  -5.028 -10.522  1.00  0.00     0.022 A 
BRANCH  54  57
ATOM     57  S   UNL     1       1.924  -4.558 -10.343  1.00  0.00     0.127 S 
ATOM     58  O   UNL     1       1.734  -4.749 -11.779  1.00  0.00    -0.237 OA
ATOM     59  O   UNL     1       1.940  -5.790  -9.554  1.00  0.00    -0.237 OA
ATOM     60  O   UNL     1       1.162  -3.471  -9.744  1.00  0.00    -0.744 OA
ENDBRANCH  54  57
ENDBRANCH  26  50
BRANCH  38  61
ATOM     61  C   UNL     1       9.028   2.919 -12.258  1.00  0.00     0.023 A 
ATOM     62  C   UNL     1       8.284   3.117 -13.438  1.00  0.00     0.012 A 
ATOM     63  C   UNL     1      10.434   3.003 -12.303  1.00  0.00     0.148 A 
ATOM     64  C   UNL     1       8.929   3.365 -14.648  1.00  0.00     0.002 A 
ATOM     65  C   UNL     1      11.067   3.303 -13.502  1.00  0.00     0.091 A 
ATOM     66  F   UNL     1      11.123   2.790 -11.173  1.00  0.00    -0.205 F 
ATOM     67  C   UNL     1      10.318   3.471 -14.678  1.00  0.00     0.022 A 
BRANCH  65  68
ATOM     68  S   UNL     1      12.841   3.556 -13.617  1.00  0.00     0.127 S 
ATOM     69  O   UNL     1      13.260   2.381 -14.380  1.00  0.00    -0.237 OA
ATOM     70  O   UNL     1      12.926   4.820 -14.348  1.00  0.00    -0.237 OA
ATOM     71  O   UNL     1      13.331   3.615 -12.247  1.00  0.00    -0.744 OA
ENDBRANCH  65  68
ENDBRANCH  38  61
ENDBRANCH  12  13
ENDBRANCH   5   7
ENDBRANCH   2   3
ENDBRANCH   1   2
BRANCH   1  72
ATOM     72  C   UNL     1       4.196   0.818   3.357  1.00  0.00     0.118 C 
BRANCH  72  73
ATOM     73  N   UNL     1       4.768  -0.348   4.017  1.00  0.00    -0.352 N 
ATOM     74  C   UNL     1       5.838  -0.382   4.869  1.00  0.00     0.251 C 
ATOM     75  H   UNL     1       4.335  -1.211   3.828  1.00  0.00     0.163 HD
ATOM     76  O   UNL     1       6.466  -1.419   5.047  1.00  0.00    -0.269 OA
BRANCH  74  77
ATOM     77  C   UNL     1       6.147   0.822   5.658  1.00  0.00     0.040 A 
ATOM     78  C   UNL     1       7.466   1.217   5.879  1.00  0.00     0.014 A 
ATOM     79  C   UNL     1       5.096   1.435   6.343  1.00  0.00     0.021 A 
ATOM     80  C   UNL     1       7.726   2.270   6.756  1.00  0.00     0.001 A 
ATOM     81  C   UNL     1       5.355   2.455   7.253  1.00  0.00    -0.010 A 
ATOM     82  C   UNL     1       6.676   2.893   7.434  1.00  0.00     0.007 A 
BRANCH  81  83
ATOM     83  C   UNL     1       4.261   2.889   8.187  1.00  0.00     0.265 C 
BRANCH  83  84
ATOM     84  O   UNL     1       4.617   2.369   9.473  1.00  0.00    -0.488 OA
BRANCH  84  85
ATOM     85  C   UNL     1       3.887   1.269   9.850  1.00  0.00     0.127 A 
ATOM     86  C   UNL     1       2.658   1.520  10.476  1.00  0.00     0.047 A 
ATOM     87  C   UNL     1       4.432  -0.030   9.818  1.00  0.00     0.017 A 
ATOM     88  C   UNL     1       1.978   0.492  11.124  1.00  0.00     0.004 A 
ATOM     89  C   UNL     1       3.762  -1.024  10.549  1.00  0.00     0.012 A 
ATOM     90  C   UNL     1       2.544  -0.774  11.184  1.00  0.00     0.001 A 
BRANCH  87  91
ATOM     91  C   UNL     1       5.710  -0.373   9.153  1.00  0.00     0.028 C 
ATOM     92  C   UNL     1       5.995  -1.499   8.471  1.00  0.00     0.071 C 
ATOM     93  C   UNL     1       5.125  -2.668   8.140  1.00  0.00     0.197 C 
ATOM     94  C   UNL     1       7.378  -1.819   7.992  1.00  0.00     0.197 C 
ATOM     95  O   UNL     1       3.923  -2.800   8.256  1.00  0.00    -0.288 OA
ATOM     96  C   UNL     1       6.025  -3.706   7.637  1.00  0.00     0.034 A 
ATOM     97  C   UNL     1       7.317  -3.210   7.511  1.00  0.00     0.034 A 
ATOM     98  O   UNL     1       8.379  -1.136   8.079  1.00  0.00    -0.288 OA
ATOM     99  C   UNL     1       5.716  -5.029   7.364  1.00  0.00     0.013 A 
ATOM    100  C   UNL     1       8.351  -4.016   7.065  1.00  0.00     0.013 A 
ATOM    101  C   UNL     1       6.754  -5.861   6.938  1.00  0.00     0.001 A 
ATOM    102  C   UNL     1       8.058  -5.355   6.778  1.00  0.00     0.001 A 
ENDBRANCH  87  91
ENDBRANCH  84  85
ENDBRANCH  83  84
ENDBRANCH  81  83
ENDBRANCH  74  77
ENDBRANCH  72  73
ENDBRANCH   1  72
TORSDOF 17
