REMARK SMILES O=C(NCCCNC(=O)[C@@H]1[C@H](C(=O)NCc2ccncc2)[C@H]2C=C[C@@H]1O2)c1ccc(-c2c3nc(c(-c4cccc(S(=O)(=O)[O-])c4F)c4ccc([nH]4)c(-c4cccc(S(=O)(=O)[O-])c4F)c4nc(c(-c5cccc(S(=O)(=O)[O-])c5F)c5ccc2[nH]5)C=C4)C=C3)cc1
REMARK SMILES IDX 5 1 4 2 3 3 1 4 2 5 27 7 28 8 89 9 29 10 88 11 30 12 31 13
REMARK SMILES IDX 32 14 82 15 33 16 87 17 81 18 83 19 34 20 86 21 80 22 79 23
REMARK SMILES IDX 35 25 67 26 47 27 66 28 48 29 51 30 65 31 84 32 49 33 50 34
REMARK SMILES IDX 64 36 85 37 52 38 36 39 37 40 45 41 38 42 40 43 46 44 39 45
REMARK SMILES IDX 41 46 42 47 43 48 44 49 68 50 69 51 77 52 70 53 72 54 78 55
REMARK SMILES IDX 71 56 73 57 74 58 75 59 76 60 53 61 54 62 62 63 55 64 57 65
REMARK SMILES IDX 63 66 56 67 58 68 59 69 60 70 61 71 6 72 7 73 8 74 9 76
REMARK SMILES IDX 10 77 11 78 25 79 22 80 24 81 26 82 23 83 12 84 13 85 14 86
REMARK SMILES IDX 15 88 16 89 17 90 21 91 18 92 20 93 19 94
REMARK H PARENT 3 6 83 24 51 35 7 75 14 87
REMARK Flexibility Score: inf
ROOT
ATOM      1  C   UNL     1       5.105   2.472  -0.380  1.00  0.00     0.042 C 
ENDROOT
BRANCH   1   2
ATOM      2  C   UNL     1       4.665   1.351   0.548  1.00  0.00     0.118 C 
BRANCH   2   3
ATOM      3  N   UNL     1       3.226   1.113   0.518  1.00  0.00    -0.352 N 
ATOM      4  O   UNL     1       1.286   0.132  -0.066  1.00  0.00    -0.269 OA
ATOM      5  C   UNL     1       2.512   0.048   0.022  1.00  0.00     0.251 C 
ATOM      6  H   UNL     1       2.679   1.829   0.917  1.00  0.00     0.163 HD
BRANCH   5   7
ATOM      7  C   UNL     1       3.209  -1.177  -0.426  1.00  0.00     0.039 A 
ATOM      8  C   UNL     1       4.275  -1.693   0.312  1.00  0.00     0.014 A 
ATOM      9  C   UNL     1       2.785  -1.833  -1.586  1.00  0.00     0.014 A 
ATOM     10  C   UNL     1       5.026  -2.745  -0.196  1.00  0.00     0.010 A 
ATOM     11  C   UNL     1       3.473  -2.966  -2.036  1.00  0.00     0.010 A 
ATOM     12  C   UNL     1       4.617  -3.415  -1.360  1.00  0.00    -0.014 A 
BRANCH  12  13
ATOM     13  C   UNL     1       5.341  -4.647  -1.766  1.00  0.00     0.031 A 
ATOM     14  C   UNL     1       6.060  -4.747  -3.083  1.00  0.00     0.074 A 
ATOM     15  C   UNL     1       5.344  -5.689  -0.910  1.00  0.00     0.049 A 
ATOM     16  N   UNL     1       6.755  -5.747  -3.559  1.00  0.00    -0.248 NA
ATOM     17  C   UNL     1       5.989  -3.587  -3.986  1.00  0.00     0.031 C 
ATOM     18  C   UNL     1       4.638  -5.722   0.376  1.00  0.00     0.029 A 
ATOM     19  N   UNL     1       5.951  -6.916  -0.982  1.00  0.00    -0.354 N 
ATOM     20  C   UNL     1       7.168  -5.361  -4.829  1.00  0.00     0.074 A 
ATOM     21  C   UNL     1       6.648  -4.028  -5.051  1.00  0.00     0.031 C 
ATOM     22  C   UNL     1       4.872  -6.895   0.980  1.00  0.00     0.029 A 
ATOM     23  C   UNL     1       5.686  -7.723   0.100  1.00  0.00     0.049 A 
ATOM     24  H   UNL     1       6.521  -7.193  -1.736  1.00  0.00     0.167 HD
ATOM     25  C   UNL     1       7.918  -6.053  -5.720  1.00  0.00     0.034 A 
ATOM     26  C   UNL     1       6.029  -9.000   0.348  1.00  0.00     0.034 A 
ATOM     27  C   UNL     1       8.461  -7.364  -5.474  1.00  0.00     0.049 A 
ATOM     28  C   UNL     1       6.875  -9.727  -0.655  1.00  0.00     0.074 A 
ATOM     29  C   UNL     1       9.302  -8.110  -6.283  1.00  0.00     0.029 A 
ATOM     30  N   UNL     1       8.207  -8.133  -4.349  1.00  0.00    -0.354 N 
ATOM     31  N   UNL     1       7.378  -9.286  -1.782  1.00  0.00    -0.248 NA
ATOM     32  C   UNL     1       7.221 -11.120  -0.343  1.00  0.00     0.031 C 
ATOM     33  C   UNL     1       9.527  -9.343  -5.664  1.00  0.00     0.029 A 
ATOM     34  C   UNL     1       8.854  -9.353  -4.453  1.00  0.00     0.049 A 
ATOM     35  H   UNL     1       7.647  -7.854  -3.589  1.00  0.00     0.167 HD
ATOM     36  C   UNL     1       8.118 -10.339  -2.303  1.00  0.00     0.074 A 
ATOM     37  C   UNL     1       8.028 -11.426  -1.349  1.00  0.00     0.031 C 
ATOM     38  C   UNL     1       8.793 -10.409  -3.476  1.00  0.00     0.034 A 
BRANCH  25  39
ATOM     39  C   UNL     1       8.235  -5.409  -7.045  1.00  0.00     0.023 A 
ATOM     40  C   UNL     1       9.199  -4.384  -7.113  1.00  0.00     0.012 A 
ATOM     41  C   UNL     1       7.669  -5.906  -8.238  1.00  0.00     0.148 A 
ATOM     42  C   UNL     1       9.585  -3.854  -8.344  1.00  0.00     0.002 A 
ATOM     43  C   UNL     1       8.088  -5.401  -9.463  1.00  0.00     0.091 A 
ATOM     44  F   UNL     1       6.743  -6.872  -8.150  1.00  0.00    -0.205 F 
ATOM     45  C   UNL     1       9.041  -4.370  -9.517  1.00  0.00     0.022 A 
BRANCH  43  46
ATOM     46  S   UNL     1       7.509  -6.051 -11.035  1.00  0.00     0.127 S 
ATOM     47  O   UNL     1       6.753  -4.915 -11.562  1.00  0.00    -0.237 OA
ATOM     48  O   UNL     1       8.765  -6.324 -11.734  1.00  0.00    -0.237 OA
ATOM     49  O   UNL     1       6.716  -7.230 -10.717  1.00  0.00    -0.744 OA
ENDBRANCH  43  46
ENDBRANCH  25  39
BRANCH  26  50
ATOM     50  C   UNL     1       5.578  -9.663   1.603  1.00  0.00     0.023 A 
ATOM     51  C   UNL     1       6.523 -10.025   2.581  1.00  0.00     0.012 A 
ATOM     52  C   UNL     1       4.213  -9.919   1.838  1.00  0.00     0.148 A 
ATOM     53  C   UNL     1       6.120 -10.665   3.754  1.00  0.00     0.002 A 
ATOM     54  C   UNL     1       3.813 -10.497   3.036  1.00  0.00     0.091 A 
ATOM     55  F   UNL     1       3.329  -9.584   0.888  1.00  0.00    -0.205 F 
ATOM     56  C   UNL     1       4.766 -10.890   3.987  1.00  0.00     0.022 A 
BRANCH  54  57
ATOM     57  S   UNL     1       2.080 -10.683   3.469  1.00  0.00     0.127 S 
ATOM     58  O   UNL     1       1.866 -12.109   3.240  1.00  0.00    -0.237 OA
ATOM     59  O   UNL     1       2.070 -10.274   4.874  1.00  0.00    -0.237 OA
ATOM     60  O   UNL     1       1.361  -9.778   2.581  1.00  0.00    -0.744 OA
ENDBRANCH  54  57
ENDBRANCH  26  50
BRANCH  38  61
ATOM     61  C   UNL     1       9.511 -11.696  -3.783  1.00  0.00     0.023 A 
ATOM     62  C   UNL     1       8.770 -12.847  -4.117  1.00  0.00     0.012 A 
ATOM     63  C   UNL     1      10.918 -11.751  -3.789  1.00  0.00     0.148 A 
ATOM     64  C   UNL     1       9.418 -14.044  -4.416  1.00  0.00     0.002 A 
ATOM     65  C   UNL     1      11.558 -12.934  -4.139  1.00  0.00     0.091 A 
ATOM     66  F   UNL     1      11.603 -10.650  -3.449  1.00  0.00    -0.205 F 
ATOM     67  C   UNL     1      10.810 -14.084  -4.438  1.00  0.00     0.022 A 
BRANCH  65  68
ATOM     68  S   UNL     1      13.343 -13.054  -4.286  1.00  0.00     0.127 S 
ATOM     69  O   UNL     1      13.684 -13.868  -3.121  1.00  0.00    -0.237 OA
ATOM     70  O   UNL     1      13.503 -13.733  -5.573  1.00  0.00    -0.237 OA
ATOM     71  O   UNL     1      13.842 -11.686  -4.260  1.00  0.00    -0.744 OA
ENDBRANCH  65  68
ENDBRANCH  38  61
ENDBRANCH  12  13
ENDBRANCH   5   7
ENDBRANCH   2   3
ENDBRANCH   1   2
BRANCH   1  72
ATOM     72  C   UNL     1       4.565   3.841  -0.010  1.00  0.00     0.117 C 
BRANCH  72  73
ATOM     73  N   UNL     1       4.923   4.280   1.330  1.00  0.00    -0.356 N 
ATOM     74  C   UNL     1       5.298   5.535   1.718  1.00  0.00     0.227 C 
ATOM     75  H   UNL     1       4.893   3.596   2.037  1.00  0.00     0.163 HD
ATOM     76  O   UNL     1       5.018   5.911   2.853  1.00  0.00    -0.275 OA
BRANCH  74  77
ATOM     77  C   UNL     1       6.000   6.423   0.729  1.00  0.00     0.127 C 
ATOM     78  C   UNL     1       7.507   6.165   0.505  1.00  0.00     0.127 C 
ATOM     79  C   UNL     1       6.001   7.904   1.153  1.00  0.00     0.155 C 
ATOM     80  C   UNL     1       8.109   7.557   0.743  1.00  0.00     0.155 C 
ATOM     81  C   UNL     1       6.325   8.731  -0.061  1.00  0.00     0.004 C 
ATOM     82  O   UNL     1       7.277   8.033   1.829  1.00  0.00    -0.365 OA
ATOM     83  C   UNL     1       7.623   8.508  -0.321  1.00  0.00     0.004 C 
BRANCH  78  84
ATOM     84  C   UNL     1       8.248   5.047   1.225  1.00  0.00     0.227 C 
ATOM     85  O   UNL     1       8.709   4.126   0.535  1.00  0.00    -0.275 OA
ATOM     86  N   UNL     1       8.515   4.954   2.543  1.00  0.00    -0.352 N 
ATOM     87  H   UNL     1       9.123   4.208   2.752  1.00  0.00     0.163 HD
BRANCH  86  88
ATOM     88  C   UNL     1       8.116   5.695   3.725  1.00  0.00     0.151 C 
BRANCH  88  89
ATOM     89  C   UNL     1       7.239   4.899   4.663  1.00  0.00    -0.026 A 
ATOM     90  C   UNL     1       6.351   5.585   5.502  1.00  0.00     0.025 A 
ATOM     91  C   UNL     1       7.262   3.503   4.745  1.00  0.00     0.025 A 
ATOM     92  C   UNL     1       5.498   4.861   6.320  1.00  0.00     0.111 A 
ATOM     93  C   UNL     1       6.379   2.868   5.608  1.00  0.00     0.111 A 
ATOM     94  N   UNL     1       5.496   3.515   6.396  1.00  0.00    -0.265 NA
ENDBRANCH  88  89
ENDBRANCH  86  88
ENDBRANCH  78  84
ENDBRANCH  74  77
ENDBRANCH  72  73
ENDBRANCH   1  72
TORSDOF 16
