REMARK SMILES CC(C)=Cc1c(C(=O)NCCCNC(=O)c2ccc(-c3c4nc(c(-c5cccc(S(=O)(=O)[O-])c5F)c5ccc([nH]5)c(-c5cccc(S(=O)(=O)[O-])c5F)c5nc(c(-c6cccc(S(=O)(=O)[O-])c6F)c6ccc3[nH]6)C=C5)C=C4)cc2)nnn1-c1ccc(C(C)C)cc1
REMARK SMILES IDX 11 1 10 2 9 3 7 4 8 5 6 7 5 8 81 9 79 10 80 11 4 12 1 13
REMARK SMILES IDX 2 14 3 15 82 16 83 17 90 18 84 19 89 20 85 21 86 22 87 23
REMARK SMILES IDX 88 24 12 25 13 26 14 27 15 29 16 30 17 31 78 32 18 33 77 34
REMARK SMILES IDX 19 35 20 36 21 37 71 38 22 39 76 40 70 41 72 42 23 43 75 44
REMARK SMILES IDX 69 45 68 46 24 48 56 49 36 50 55 51 37 52 40 53 54 54 73 55
REMARK SMILES IDX 38 56 39 57 53 59 74 60 41 61 25 62 26 63 34 64 27 65 29 66
REMARK SMILES IDX 35 67 28 68 30 69 31 70 32 71 33 72 57 73 58 74 66 75 59 76
REMARK SMILES IDX 61 77 67 78 60 79 62 80 63 81 64 82 65 83 42 84 43 85 51 86
REMARK SMILES IDX 44 87 46 88 52 89 45 90 47 91 48 92 49 93 50 94
REMARK H PARENT 9 6 13 28 72 47 40 58
REMARK Flexibility Score: inf
ROOT
ATOM      1  C   UNL     1      -1.825  -2.074  -2.617  1.00  0.00     0.042 C 
ENDROOT
BRANCH   1   2
ATOM      2  C   UNL     1      -0.846  -2.939  -3.413  1.00  0.00     0.118 C 
BRANCH   2   3
ATOM      3  N   UNL     1      -0.326  -2.294  -4.591  1.00  0.00    -0.351 N 
ATOM      4  C   UNL     1       0.772  -1.518  -4.851  1.00  0.00     0.274 C 
ATOM      5  O   UNL     1       0.969  -1.307  -6.051  1.00  0.00    -0.267 OA
ATOM      6  H   UNL     1      -0.884  -2.445  -5.388  1.00  0.00     0.163 HD
BRANCH   4   7
ATOM      7  C   UNL     1       1.678  -0.948  -3.850  1.00  0.00     0.178 A 
ATOM      8  C   UNL     1       1.901  -1.109  -2.483  1.00  0.00     0.100 A 
ATOM      9  N   UNL     1       2.991  -0.272  -2.225  1.00  0.00    -0.213 N 
ATOM     10  N   UNL     1       2.547   0.033  -4.305  1.00  0.00    -0.124 NA
ATOM     11  N   UNL     1       3.261   0.491  -3.298  1.00  0.00    -0.061 NA
BRANCH   8  12
ATOM     12  C   UNL     1       1.326  -1.854  -1.420  1.00  0.00     0.029 C 
ATOM     13  C   UNL     1       0.440   0.171  -0.153  1.00  0.00     0.039 C 
ATOM     14  C   UNL     1       0.670  -1.303  -0.375  1.00  0.00    -0.074 C 
ATOM     15  C   UNL     1       0.080  -2.182   0.700  1.00  0.00     0.039 C 
ENDBRANCH   8  12
BRANCH   9  16
ATOM     16  C   UNL     1       3.733  -0.102  -1.033  1.00  0.00     0.067 A 
ATOM     17  C   UNL     1       4.106   1.192  -0.659  1.00  0.00     0.029 A 
ATOM     18  C   UNL     1       4.007  -1.189  -0.197  1.00  0.00     0.029 A 
ATOM     19  C   UNL     1       4.640   1.405   0.609  1.00  0.00     0.006 A 
ATOM     20  C   UNL     1       4.565  -0.971   1.059  1.00  0.00     0.006 A 
ATOM     21  C   UNL     1       4.853   0.330   1.489  1.00  0.00    -0.045 A 
BRANCH  21  22
ATOM     22  C   UNL     1       5.360   0.554   2.899  1.00  0.00     0.013 C 
ATOM     23  C   UNL     1       6.720   1.249   2.892  1.00  0.00     0.012 C 
ATOM     24  C   UNL     1       4.333   1.330   3.728  1.00  0.00     0.012 C 
ENDBRANCH  21  22
ENDBRANCH   9  16
ENDBRANCH   4   7
ENDBRANCH   2   3
ENDBRANCH   1   2
BRANCH   1  25
ATOM     25  C   UNL     1      -3.251  -2.558  -2.799  1.00  0.00     0.118 C 
BRANCH  25  26
ATOM     26  N   UNL     1      -3.444  -3.920  -2.256  1.00  0.00    -0.352 N 
ATOM     27  C   UNL     1      -4.520  -4.772  -2.408  1.00  0.00     0.251 C 
ATOM     28  H   UNL     1      -2.701  -4.267  -1.711  1.00  0.00     0.163 HD
ATOM     29  O   UNL     1      -4.655  -5.760  -1.683  1.00  0.00    -0.269 OA
BRANCH  27  30
ATOM     30  C   UNL     1      -5.502  -4.463  -3.453  1.00  0.00     0.039 A 
ATOM     31  C   UNL     1      -6.878  -4.467  -3.214  1.00  0.00     0.014 A 
ATOM     32  C   UNL     1      -4.980  -4.003  -4.652  1.00  0.00     0.014 A 
ATOM     33  C   UNL     1      -7.712  -3.877  -4.160  1.00  0.00     0.010 A 
ATOM     34  C   UNL     1      -5.758  -3.196  -5.426  1.00  0.00     0.010 A 
ATOM     35  C   UNL     1      -7.134  -3.204  -5.246  1.00  0.00    -0.014 A 
BRANCH  35  36
ATOM     36  C   UNL     1      -7.920  -2.446  -6.204  1.00  0.00     0.031 A 
ATOM     37  C   UNL     1      -8.827  -1.423  -5.631  1.00  0.00     0.074 A 
ATOM     38  C   UNL     1      -7.697  -2.529  -7.533  1.00  0.00     0.049 A 
ATOM     39  N   UNL     1     -10.106  -1.526  -5.496  1.00  0.00    -0.248 NA
ATOM     40  C   UNL     1      -8.261  -0.219  -5.009  1.00  0.00     0.031 C 
ATOM     41  C   UNL     1      -6.638  -3.260  -8.248  1.00  0.00     0.029 A 
ATOM     42  N   UNL     1      -8.303  -1.840  -8.530  1.00  0.00    -0.354 N 
ATOM     43  C   UNL     1     -10.541  -0.299  -5.005  1.00  0.00     0.074 A 
ATOM     44  C   UNL     1      -9.359   0.369  -4.524  1.00  0.00     0.031 C 
ATOM     45  C   UNL     1      -6.514  -2.764  -9.498  1.00  0.00     0.029 A 
ATOM     46  C   UNL     1      -7.607  -1.843  -9.730  1.00  0.00     0.049 A 
ATOM     47  H   UNL     1      -9.164  -1.377  -8.412  1.00  0.00     0.167 HD
ATOM     48  C   UNL     1     -11.803   0.149  -5.262  1.00  0.00     0.034 A 
ATOM     49  C   UNL     1      -7.902  -1.112 -10.829  1.00  0.00     0.034 A 
ATOM     50  C   UNL     1     -12.589  -0.878  -5.908  1.00  0.00     0.049 A 
ATOM     51  C   UNL     1      -9.342  -0.773 -10.738  1.00  0.00     0.074 A 
ATOM     52  C   UNL     1     -12.983  -2.159  -5.582  1.00  0.00     0.029 A 
ATOM     53  N   UNL     1     -12.733  -0.768  -7.273  1.00  0.00    -0.354 N 
ATOM     54  N   UNL     1     -10.286  -1.673 -10.799  1.00  0.00    -0.248 NA
ATOM     55  C   UNL     1      -9.719   0.484 -10.111  1.00  0.00     0.031 C 
ATOM     56  C   UNL     1     -12.873  -2.892  -6.800  1.00  0.00     0.029 A 
ATOM     57  C   UNL     1     -12.499  -2.004  -7.813  1.00  0.00     0.049 A 
ATOM     58  H   UNL     1     -12.962   0.050  -7.770  1.00  0.00     0.167 HD
ATOM     59  C   UNL     1     -11.188  -1.291  -9.814  1.00  0.00     0.074 A 
ATOM     60  C   UNL     1     -10.855   0.102  -9.517  1.00  0.00     0.031 C 
ATOM     61  C   UNL     1     -11.913  -2.218  -9.120  1.00  0.00     0.034 A 
BRANCH  48  62
ATOM     62  C   UNL     1     -12.274   1.585  -5.298  1.00  0.00     0.023 A 
ATOM     63  C   UNL     1     -13.668   1.792  -5.448  1.00  0.00     0.012 A 
ATOM     64  C   UNL     1     -11.441   2.710  -5.471  1.00  0.00     0.148 A 
ATOM     65  C   UNL     1     -14.196   3.028  -5.832  1.00  0.00     0.002 A 
ATOM     66  C   UNL     1     -11.977   3.956  -5.783  1.00  0.00     0.091 A 
ATOM     67  F   UNL     1     -10.114   2.568  -5.464  1.00  0.00    -0.205 F 
ATOM     68  C   UNL     1     -13.348   4.113  -6.000  1.00  0.00     0.022 A 
BRANCH  66  69
ATOM     69  S   UNL     1     -10.936   5.409  -5.971  1.00  0.00     0.127 S 
ATOM     70  O   UNL     1     -10.951   5.593  -7.420  1.00  0.00    -0.237 OA
ATOM     71  O   UNL     1     -11.682   6.412  -5.210  1.00  0.00    -0.237 OA
ATOM     72  O   UNL     1      -9.652   5.048  -5.385  1.00  0.00    -0.744 OA
ENDBRANCH  66  69
ENDBRANCH  48  62
BRANCH  49  73
ATOM     73  C   UNL     1      -6.988  -0.526 -11.831  1.00  0.00     0.023 A 
ATOM     74  C   UNL     1      -7.479  -0.158 -13.097  1.00  0.00     0.012 A 
ATOM     75  C   UNL     1      -5.702  -0.077 -11.454  1.00  0.00     0.148 A 
ATOM     76  C   UNL     1      -6.729   0.663 -13.947  1.00  0.00     0.002 A 
ATOM     77  C   UNL     1      -4.960   0.738 -12.303  1.00  0.00     0.091 A 
ATOM     78  F   UNL     1      -5.249  -0.370 -10.227  1.00  0.00    -0.205 F 
ATOM     79  C   UNL     1      -5.475   1.119 -13.547  1.00  0.00     0.022 A 
BRANCH  77  80
ATOM     80  S   UNL     1      -3.354   1.396 -11.833  1.00  0.00     0.127 S 
ATOM     81  O   UNL     1      -2.554   1.125 -13.027  1.00  0.00    -0.237 OA
ATOM     82  O   UNL     1      -3.663   2.805 -11.608  1.00  0.00    -0.237 OA
ATOM     83  O   UNL     1      -2.949   0.640 -10.654  1.00  0.00    -0.744 OA
ENDBRANCH  77  80
ENDBRANCH  49  73
BRANCH  61  84
ATOM     84  C   UNL     1     -11.890  -3.651  -9.596  1.00  0.00     0.023 A 
ATOM     85  C   UNL     1     -10.711  -4.426  -9.596  1.00  0.00     0.012 A 
ATOM     86  C   UNL     1     -13.118  -4.289  -9.838  1.00  0.00     0.148 A 
ATOM     87  C   UNL     1     -10.753  -5.800  -9.844  1.00  0.00     0.002 A 
ATOM     88  C   UNL     1     -13.163  -5.664 -10.033  1.00  0.00     0.091 A 
ATOM     89  F   UNL     1     -14.232  -3.541  -9.832  1.00  0.00    -0.205 F 
ATOM     90  C   UNL     1     -11.982  -6.423 -10.046  1.00  0.00     0.022 A 
BRANCH  88  91
ATOM     91  S   UNL     1     -14.724  -6.539 -10.151  1.00  0.00     0.127 S 
ATOM     92  O   UNL     1     -14.812  -6.817 -11.583  1.00  0.00    -0.237 OA
ATOM     93  O   UNL     1     -14.491  -7.717  -9.312  1.00  0.00    -0.237 OA
ATOM     94  O   UNL     1     -15.734  -5.629  -9.624  1.00  0.00    -0.744 OA
ENDBRANCH  88  91
ENDBRANCH  61  84
ENDBRANCH  35  36
ENDBRANCH  27  30
ENDBRANCH  25  26
ENDBRANCH   1  25
TORSDOF 16
