REMARK SMILES CC(C)(C)c1ccc(C(=O)C[C@H](C(=O)NCCCNC(=O)c2ccc(-c3c4nc(c(-c5cccc(S(=O)(=O)[O-])c5F)c5ccc([nH]5)c(-c5cccc(S(=O)(=O)[O-])c5F)c5nc(c(-c6cccc(S(=O)(=O)[O-])c6F)c6ccc3[nH]6)C=C5)C=C4)cc2)[NH+]2CCCC2)cc1
REMARK SMILES IDX 16 1 15 2 13 3 14 4 12 6 11 7 9 8 10 9 8 10 5 11 6 12 91 13
REMARK SMILES IDX 7 14 90 15 2 16 1 17 3 18 4 19 85 20 86 21 89 22 87 24 88 25
REMARK SMILES IDX 17 26 18 27 19 28 20 29 21 31 22 32 23 33 84 34 24 35 83 36
REMARK SMILES IDX 25 37 26 38 27 39 77 40 28 41 82 42 76 43 78 44 29 45 81 46
REMARK SMILES IDX 75 47 74 48 30 50 62 51 42 52 61 53 43 54 46 55 60 56 79 57
REMARK SMILES IDX 44 58 45 59 59 61 80 62 47 63 31 64 32 65 40 66 33 67 35 68
REMARK SMILES IDX 41 69 34 70 36 71 37 72 38 73 39 74 63 75 64 76 72 77 65 78
REMARK SMILES IDX 67 79 73 80 66 81 68 82 69 83 70 84 71 85 48 86 49 87 57 88
REMARK SMILES IDX 50 89 52 90 58 91 51 92 53 93 54 94 55 95 56 96
REMARK H PARENT 15 5 85 23 19 30 78 49 46 60
REMARK Flexibility Score: inf
ROOT
ATOM      1  C   UNL     1       3.797   6.166   0.424  1.00  0.00     0.118 C 
ENDROOT
BRANCH   1   2
ATOM      2  N   UNL     1       2.752   7.139   0.676  1.00  0.00    -0.351 N 
ATOM      3  C   UNL     1       2.038   7.938  -0.164  1.00  0.00     0.278 C 
ATOM      4  O   UNL     1       1.322   8.774   0.389  1.00  0.00    -0.268 OA
ATOM      5  H   UNL     1       2.516   7.240   1.626  1.00  0.00     0.163 HD
BRANCH   3   6
ATOM      6  C   UNL     1       2.089   7.702  -1.688  1.00  0.00     0.281 C 
BRANCH   6   7
ATOM      7  C   UNL     1       1.349   6.408  -2.102  1.00  0.00     0.156 C 
BRANCH   7   8
ATOM      8  C   UNL     1      -0.167   6.367  -1.967  1.00  0.00     0.169 C 
ATOM      9  O   UNL     1      -0.904   6.194  -2.937  1.00  0.00    -0.294 OA
BRANCH   8  10
ATOM     10  C   UNL     1      -0.784   6.510  -0.625  1.00  0.00     0.018 A 
ATOM     11  C   UNL     1      -1.682   7.282   1.935  1.00  0.00    -0.043 A 
ATOM     12  C   UNL     1      -2.319   7.746   0.770  1.00  0.00     0.005 A 
ATOM     13  C   UNL     1      -0.651   6.335   1.776  1.00  0.00     0.005 A 
ATOM     14  C   UNL     1      -1.886   7.354  -0.498  1.00  0.00     0.012 A 
ATOM     15  C   UNL     1      -0.220   5.932   0.508  1.00  0.00     0.012 A 
BRANCH  11  16
ATOM     16  C   UNL     1      -2.015   7.856   3.324  1.00  0.00    -0.013 C 
ATOM     17  C   UNL     1      -3.428   8.476   3.398  1.00  0.00     0.016 C 
ATOM     18  C   UNL     1      -0.990   8.963   3.650  1.00  0.00     0.016 C 
ATOM     19  C   UNL     1      -1.941   6.772   4.422  1.00  0.00     0.016 C 
ENDBRANCH  11  16
ENDBRANCH   8  10
ENDBRANCH   7   8
ENDBRANCH   6   7
BRANCH   6  20
ATOM     20  N   UNL     1       1.768   8.877  -2.543  1.00  0.00    -0.324 N 
ATOM     21  C   UNL     1       2.851   9.870  -2.610  1.00  0.00     0.263 C 
ATOM     22  C   UNL     1       0.564   9.643  -2.194  1.00  0.00     0.263 C 
ATOM     23  H   UNL     1       1.614   8.405  -3.434  1.00  0.00     0.348 HD
ATOM     24  C   UNL     1       2.528  10.914  -1.561  1.00  0.00     0.067 C 
ATOM     25  C   UNL     1       1.012  10.958  -1.556  1.00  0.00     0.067 C 
ENDBRANCH   6  20
ENDBRANCH   3   6
ENDBRANCH   1   2
BRANCH   1  26
ATOM     26  C   UNL     1       5.076   6.540   1.163  1.00  0.00     0.042 C 
BRANCH  26  27
ATOM     27  C   UNL     1       4.915   6.684   2.674  1.00  0.00     0.118 C 
BRANCH  27  28
ATOM     28  N   UNL     1       4.530   5.443   3.332  1.00  0.00    -0.352 N 
ATOM     29  C   UNL     1       5.070   4.866   4.460  1.00  0.00     0.251 C 
ATOM     30  H   UNL     1       3.786   4.952   2.915  1.00  0.00     0.163 HD
ATOM     31  O   UNL     1       4.719   3.748   4.804  1.00  0.00    -0.269 OA
BRANCH  29  32
ATOM     32  C   UNL     1       6.098   5.604   5.229  1.00  0.00     0.039 A 
ATOM     33  C   UNL     1       7.279   4.947   5.577  1.00  0.00     0.014 A 
ATOM     34  C   UNL     1       5.905   6.943   5.578  1.00  0.00     0.014 A 
ATOM     35  C   UNL     1       8.296   5.654   6.225  1.00  0.00     0.010 A 
ATOM     36  C   UNL     1       6.948   7.663   6.155  1.00  0.00     0.010 A 
ATOM     37  C   UNL     1       8.153   7.026   6.491  1.00  0.00    -0.014 A 
BRANCH  37  38
ATOM     38  C   UNL     1       9.255   7.809   7.112  1.00  0.00     0.031 A 
ATOM     39  C   UNL     1       9.056   8.470   8.450  1.00  0.00     0.074 A 
ATOM     40  C   UNL     1      10.406   7.995   6.433  1.00  0.00     0.049 A 
ATOM     41  N   UNL     1       9.885   9.223   9.127  1.00  0.00    -0.248 NA
ATOM     42  C   UNL     1       7.748   8.289   9.104  1.00  0.00     0.031 C 
ATOM     43  C   UNL     1      10.689   7.488   5.088  1.00  0.00     0.029 A 
ATOM     44  N   UNL     1      11.542   8.691   6.768  1.00  0.00    -0.354 N 
ATOM     45  C   UNL     1       9.188   9.640  10.255  1.00  0.00     0.074 A 
ATOM     46  C   UNL     1       7.861   9.075  10.165  1.00  0.00     0.031 C 
ATOM     47  C   UNL     1      11.914   7.891   4.713  1.00  0.00     0.029 A 
ATOM     48  C   UNL     1      12.495   8.707   5.775  1.00  0.00     0.049 A 
ATOM     49  H   UNL     1      11.664   9.136   7.638  1.00  0.00     0.167 HD
ATOM     50  C   UNL     1       9.622  10.405  11.284  1.00  0.00     0.034 A 
ATOM     51  C   UNL     1      13.695   9.318   5.720  1.00  0.00     0.034 A 
ATOM     52  C   UNL     1      10.961  10.914  11.403  1.00  0.00     0.049 A 
ATOM     53  C   UNL     1      14.175  10.098   6.915  1.00  0.00     0.074 A 
ATOM     54  C   UNL     1      11.528  11.595  12.466  1.00  0.00     0.029 A 
ATOM     55  N   UNL     1      11.938  10.811  10.427  1.00  0.00    -0.354 N 
ATOM     56  N   UNL     1      13.568  10.317   8.056  1.00  0.00    -0.248 NA
ATOM     57  C   UNL     1      15.524  10.678   6.835  1.00  0.00     0.031 C 
ATOM     58  C   UNL     1      12.839  11.931  12.121  1.00  0.00     0.029 A 
ATOM     59  C   UNL     1      13.100  11.427  10.857  1.00  0.00     0.049 A 
ATOM     60  H   UNL     1      11.823  10.365   9.557  1.00  0.00     0.167 HD
ATOM     61  C   UNL     1      14.474  11.021   8.841  1.00  0.00     0.074 A 
ATOM     62  C   UNL     1      15.681  11.171   8.056  1.00  0.00     0.031 C 
ATOM     63  C   UNL     1      14.317  11.512  10.094  1.00  0.00     0.034 A 
BRANCH  50  64
ATOM     64  C   UNL     1       8.661  10.707  12.403  1.00  0.00     0.023 A 
ATOM     65  C   UNL     1       8.314   9.694  13.319  1.00  0.00     0.012 A 
ATOM     66  C   UNL     1       8.191  12.019  12.609  1.00  0.00     0.148 A 
ATOM     67  C   UNL     1       7.498   9.978  14.414  1.00  0.00     0.002 A 
ATOM     68  C   UNL     1       7.417  12.304  13.727  1.00  0.00     0.091 A 
ATOM     69  F   UNL     1       8.518  12.962  11.714  1.00  0.00    -0.205 F 
ATOM     70  C   UNL     1       7.062  11.284  14.625  1.00  0.00     0.022 A 
BRANCH  68  71
ATOM     71  S   UNL     1       6.877  13.967  14.136  1.00  0.00     0.127 S 
ATOM     72  O   UNL     1       5.427  13.853  13.982  1.00  0.00    -0.237 OA
ATOM     73  O   UNL     1       7.334  14.104  15.519  1.00  0.00    -0.237 OA
ATOM     74  O   UNL     1       7.534  14.852  13.184  1.00  0.00    -0.744 OA
ENDBRANCH  68  71
ENDBRANCH  50  64
BRANCH  51  75
ATOM     75  C   UNL     1      14.556   9.183   4.509  1.00  0.00     0.023 A 
ATOM     76  C   UNL     1      15.764   8.461   4.589  1.00  0.00     0.012 A 
ATOM     77  C   UNL     1      14.192   9.775   3.285  1.00  0.00     0.148 A 
ATOM     78  C   UNL     1      16.616   8.376   3.487  1.00  0.00     0.002 A 
ATOM     79  C   UNL     1      15.017   9.635   2.175  1.00  0.00     0.091 A 
ATOM     80  F   UNL     1      13.047  10.470   3.229  1.00  0.00    -0.205 F 
ATOM     81  C   UNL     1      16.240   8.955   2.279  1.00  0.00     0.022 A 
BRANCH  79  82
ATOM     82  S   UNL     1      14.536  10.231   0.550  1.00  0.00     0.127 S 
ATOM     83  O   UNL     1      15.354  11.433   0.417  1.00  0.00    -0.237 OA
ATOM     84  O   UNL     1      14.931   9.117  -0.313  1.00  0.00    -0.237 OA
ATOM     85  O   UNL     1      13.097  10.442   0.626  1.00  0.00    -0.744 OA
ENDBRANCH  79  82
ENDBRANCH  51  75
BRANCH  63  86
ATOM     86  C   UNL     1      15.491  12.210  10.728  1.00  0.00     0.023 A 
ATOM     87  C   UNL     1      15.889  13.482  10.270  1.00  0.00     0.012 A 
ATOM     88  C   UNL     1      16.155  11.633  11.828  1.00  0.00     0.148 A 
ATOM     89  C   UNL     1      16.956  14.149  10.871  1.00  0.00     0.002 A 
ATOM     90  C   UNL     1      17.181  12.327  12.457  1.00  0.00     0.091 A 
ATOM     91  F   UNL     1      15.774  10.414  12.239  1.00  0.00    -0.205 F 
ATOM     92  C   UNL     1      17.593  13.578  11.971  1.00  0.00     0.022 A 
BRANCH  90  93
ATOM     93  S   UNL     1      17.986  11.712  13.940  1.00  0.00     0.127 S 
ATOM     94  O   UNL     1      19.282  11.280  13.419  1.00  0.00    -0.237 OA
ATOM     95  O   UNL     1      18.036  12.906  14.785  1.00  0.00    -0.237 OA
ATOM     96  O   UNL     1      17.130  10.650  14.449  1.00  0.00    -0.744 OA
ENDBRANCH  90  93
ENDBRANCH  63  86
ENDBRANCH  37  38
ENDBRANCH  29  32
ENDBRANCH  27  28
ENDBRANCH  26  27
ENDBRANCH   1  26
TORSDOF 18
