REMARK SMILES NS(=O)(=O)c1ccc(-n2ccnc2-c2ccc(O)c(C(=O)NCCCNC(=O)c3ccc(-c4c5nc(c(-c6cccc(S(=O)(=O)[O-])c6F)c6ccc([nH]6)c(-c6cccc(S(=O)(=O)[O-])c6F)c6nc(c(-c7cccc(S(=O)(=O)[O-])c7F)c7ccc4[nH]7)C=C6)C=C5)cc3)c2)cc1
REMARK SMILES IDX 23 1 22 2 20 3 21 4 19 6 14 7 15 8 92 9 16 10 17 11 13 12
REMARK SMILES IDX 9 13 10 14 11 15 12 16 8 17 5 18 6 19 94 20 7 21 93 22 2 23
REMARK SMILES IDX 3 24 4 25 1 26 18 29 24 31 25 32 26 33 27 34 28 36 29 37
REMARK SMILES IDX 30 38 91 39 31 40 90 41 32 42 33 43 34 44 84 45 35 46 89 47
REMARK SMILES IDX 83 48 85 49 36 50 88 51 82 52 81 53 37 55 69 56 49 57 68 58
REMARK SMILES IDX 50 59 53 60 67 61 86 62 51 63 52 64 66 66 87 67 54 68 38 69
REMARK SMILES IDX 39 70 47 71 40 72 42 73 48 74 41 75 43 76 44 77 45 78 46 79
REMARK SMILES IDX 70 80 71 81 79 82 72 83 74 84 80 85 73 86 75 87 76 88 77 89
REMARK SMILES IDX 78 90 55 91 56 92 64 93 57 94 59 95 65 96 58 97 60 98 61 99
REMARK SMILES IDX 62 100 63 101
REMARK H PARENT 22 5 1 27 1 28 18 30 26 35 85 54 53 65
REMARK Flexibility Score: inf
ROOT
ATOM      1  C   UNL     1       0.085  -2.288  -4.280  1.00  0.00     0.118 C 
ENDROOT
BRANCH   1   2
ATOM      2  N   UNL     1      -1.303  -2.427  -4.687  1.00  0.00    -0.352 N 
ATOM      3  C   UNL     1      -2.188  -3.479  -4.680  1.00  0.00     0.255 C 
ATOM      4  O   UNL     1      -3.372  -3.216  -4.903  1.00  0.00    -0.269 OA
ATOM      5  H   UNL     1      -1.690  -1.594  -5.042  1.00  0.00     0.163 HD
BRANCH   3   6
ATOM      6  C   UNL     1      -1.840  -4.902  -4.388  1.00  0.00     0.082 A 
ATOM      7  C   UNL     1      -0.217  -6.677  -3.895  1.00  0.00     0.019 A 
ATOM      8  C   UNL     1      -1.247  -7.603  -3.756  1.00  0.00     0.016 A 
ATOM      9  C   UNL     1      -0.530  -5.364  -4.288  1.00  0.00     0.029 A 
ATOM     10  C   UNL     1      -2.570  -7.190  -3.929  1.00  0.00     0.048 A 
ATOM     11  C   UNL     1      -2.862  -5.851  -4.217  1.00  0.00     0.128 A 
BRANCH   7  12
ATOM     12  C   UNL     1       1.192  -7.027  -3.675  1.00  0.00     0.144 A 
ATOM     13  N   UNL     1       2.098  -6.237  -2.958  1.00  0.00    -0.300 N 
ATOM     14  C   UNL     1       3.354  -6.634  -3.357  1.00  0.00     0.113 A 
ATOM     15  C   UNL     1       3.159  -7.748  -4.137  1.00  0.00     0.132 A 
ATOM     16  N   UNL     1       1.826  -8.009  -4.292  1.00  0.00    -0.236 NA
BRANCH  13  17
ATOM     17  C   UNL     1       1.812  -5.179  -2.050  1.00  0.00     0.047 A 
ATOM     18  C   UNL     1       1.150  -3.039  -0.383  1.00  0.00     0.082 A 
ATOM     19  C   UNL     1       0.412  -4.224  -0.317  1.00  0.00     0.024 A 
ATOM     20  C   UNL     1       2.226  -2.920  -1.269  1.00  0.00     0.024 A 
ATOM     21  C   UNL     1       0.738  -5.293  -1.156  1.00  0.00     0.028 A 
ATOM     22  C   UNL     1       2.575  -4.002  -2.086  1.00  0.00     0.028 A 
BRANCH  18  23
ATOM     23  S   UNL     1       0.666  -1.692   0.660  1.00  0.00     0.238 S 
ATOM     24  O   UNL     1       1.397  -1.810   1.905  1.00  0.00    -0.207 OA
ATOM     25  O   UNL     1      -0.766  -1.558   0.607  1.00  0.00    -0.207 OA
BRANCH  23  26
ATOM     26  N   UNL     1       1.273  -0.326  -0.107  1.00  0.00    -0.225 NA
ATOM     27  H   UNL     1       1.034   0.503   0.437  1.00  0.00     0.137 HD
ATOM     28  H   UNL     1       0.866  -0.251  -1.039  1.00  0.00     0.137 HD
ENDBRANCH  23  26
ENDBRANCH  18  23
ENDBRANCH  13  17
ENDBRANCH   7  12
BRANCH  11  29
ATOM     29  O   UNL     1      -4.195  -5.552  -4.328  1.00  0.00    -0.507 OA
ATOM     30  H   UNL     1      -4.838  -6.223  -4.205  1.00  0.00     0.293 HD
ENDBRANCH  11  29
ENDBRANCH   3   6
ENDBRANCH   1   2
BRANCH   1  31
ATOM     31  C   UNL     1       1.075  -2.468  -5.440  1.00  0.00     0.042 C 
BRANCH  31  32
ATOM     32  C   UNL     1       1.346  -1.157  -6.159  1.00  0.00     0.118 C 
BRANCH  32  33
ATOM     33  N   UNL     1       2.098  -0.216  -5.317  1.00  0.00    -0.352 N 
ATOM     34  C   UNL     1       2.454   1.091  -5.585  1.00  0.00     0.251 C 
ATOM     35  H   UNL     1       2.386  -0.565  -4.443  1.00  0.00     0.163 HD
ATOM     36  O   UNL     1       3.354   1.628  -4.947  1.00  0.00    -0.269 OA
BRANCH  34  37
ATOM     37  C   UNL     1       1.733   1.823  -6.640  1.00  0.00     0.039 A 
ATOM     38  C   UNL     1       2.396   2.686  -7.514  1.00  0.00     0.014 A 
ATOM     39  C   UNL     1       0.367   1.590  -6.770  1.00  0.00     0.014 A 
ATOM     40  C   UNL     1       1.679   3.236  -8.572  1.00  0.00     0.010 A 
ATOM     41  C   UNL     1      -0.283   1.967  -7.915  1.00  0.00     0.010 A 
ATOM     42  C   UNL     1       0.345   2.840  -8.787  1.00  0.00    -0.014 A 
BRANCH  42  43
ATOM     43  C   UNL     1      -0.344   3.176 -10.029  1.00  0.00     0.031 A 
ATOM     44  C   UNL     1       0.457   2.803 -11.222  1.00  0.00     0.074 A 
ATOM     45  C   UNL     1      -1.630   3.593 -10.094  1.00  0.00     0.049 A 
ATOM     46  N   UNL     1       1.165   3.602 -11.950  1.00  0.00    -0.248 NA
ATOM     47  C   UNL     1       0.718   1.377 -11.490  1.00  0.00     0.031 C 
ATOM     48  C   UNL     1      -2.594   3.698  -8.989  1.00  0.00     0.029 A 
ATOM     49  N   UNL     1      -2.400   3.895 -11.178  1.00  0.00    -0.354 N 
ATOM     50  C   UNL     1       1.663   2.804 -12.972  1.00  0.00     0.074 A 
ATOM     51  C   UNL     1       1.613   1.455 -12.479  1.00  0.00     0.031 C 
ATOM     52  C   UNL     1      -3.849   3.781  -9.484  1.00  0.00     0.029 A 
ATOM     53  C   UNL     1      -3.775   3.909 -10.925  1.00  0.00     0.049 A 
ATOM     54  H   UNL     1      -2.020   4.086 -12.065  1.00  0.00     0.167 HD
ATOM     55  C   UNL     1       1.688   3.282 -14.247  1.00  0.00     0.034 A 
ATOM     56  C   UNL     1      -4.780   3.988 -11.837  1.00  0.00     0.034 A 
ATOM     57  C   UNL     1       1.508   4.718 -14.257  1.00  0.00     0.049 A 
ATOM     58  C   UNL     1      -4.196   4.571 -13.061  1.00  0.00     0.074 A 
ATOM     59  C   UNL     1       2.127   5.798 -13.660  1.00  0.00     0.029 A 
ATOM     60  N   UNL     1       0.262   5.148 -14.638  1.00  0.00    -0.354 N 
ATOM     61  N   UNL     1      -3.756   5.794 -13.132  1.00  0.00    -0.248 NA
ATOM     62  C   UNL     1      -3.704   3.662 -14.080  1.00  0.00     0.031 C 
ATOM     63  C   UNL     1       1.068   6.697 -13.332  1.00  0.00     0.029 A 
ATOM     64  C   UNL     1      -0.128   6.175 -13.829  1.00  0.00     0.049 A 
ATOM     65  H   UNL     1      -0.267   4.774 -15.379  1.00  0.00     0.167 HD
ATOM     66  C   UNL     1      -2.574   5.676 -13.847  1.00  0.00     0.074 A 
ATOM     67  C   UNL     1      -2.668   4.380 -14.520  1.00  0.00     0.031 C 
ATOM     68  C   UNL     1      -1.515   6.490 -13.566  1.00  0.00     0.034 A 
BRANCH  55  69
ATOM     69  C   UNL     1       1.365   2.457 -15.481  1.00  0.00     0.023 A 
ATOM     70  C   UNL     1       1.519   3.099 -16.732  1.00  0.00     0.012 A 
ATOM     71  C   UNL     1       0.646   1.239 -15.479  1.00  0.00     0.148 A 
ATOM     72  C   UNL     1       0.932   2.591 -17.897  1.00  0.00     0.002 A 
ATOM     73  C   UNL     1       0.140   0.694 -16.652  1.00  0.00     0.091 A 
ATOM     74  F   UNL     1       0.312   0.653 -14.329  1.00  0.00    -0.205 F 
ATOM     75  C   UNL     1       0.248   1.384 -17.859  1.00  0.00     0.022 A 
BRANCH  73  76
ATOM     76  S   UNL     1      -0.714  -0.889 -16.664  1.00  0.00     0.127 S 
ATOM     77  O   UNL     1      -2.080  -0.479 -16.973  1.00  0.00    -0.237 OA
ATOM     78  O   UNL     1      -0.014  -1.590 -17.740  1.00  0.00    -0.237 OA
ATOM     79  O   UNL     1      -0.503  -1.463 -15.341  1.00  0.00    -0.744 OA
ENDBRANCH  73  76
ENDBRANCH  55  69
BRANCH  56  80
ATOM     80  C   UNL     1      -6.140   3.392 -11.855  1.00  0.00     0.023 A 
ATOM     81  C   UNL     1      -7.096   3.858 -12.786  1.00  0.00     0.012 A 
ATOM     82  C   UNL     1      -6.397   2.167 -11.204  1.00  0.00     0.148 A 
ATOM     83  C   UNL     1      -8.236   3.106 -13.097  1.00  0.00     0.002 A 
ATOM     84  C   UNL     1      -7.532   1.422 -11.517  1.00  0.00     0.091 A 
ATOM     85  F   UNL     1      -5.482   1.688 -10.351  1.00  0.00    -0.205 F 
ATOM     86  C   UNL     1      -8.447   1.880 -12.474  1.00  0.00     0.022 A 
BRANCH  84  87
ATOM     87  S   UNL     1      -7.852  -0.189 -10.785  1.00  0.00     0.127 S 
ATOM     88  O   UNL     1      -9.232  -0.039 -10.320  1.00  0.00    -0.237 OA
ATOM     89  O   UNL     1      -7.686  -1.080 -11.930  1.00  0.00    -0.237 OA
ATOM     90  O   UNL     1      -6.871  -0.341  -9.718  1.00  0.00    -0.744 OA
ENDBRANCH  84  87
ENDBRANCH  56  80
BRANCH  68  91
ATOM     91  C   UNL     1      -1.776   7.739 -12.764  1.00  0.00     0.023 A 
ATOM     92  C   UNL     1      -2.219   7.734 -11.425  1.00  0.00     0.012 A 
ATOM     93  C   UNL     1      -1.421   8.960 -13.359  1.00  0.00     0.148 A 
ATOM     94  C   UNL     1      -2.321   8.930 -10.705  1.00  0.00     0.002 A 
ATOM     95  C   UNL     1      -1.475  10.136 -12.628  1.00  0.00     0.091 A 
ATOM     96  F   UNL     1      -1.010   8.943 -14.636  1.00  0.00    -0.205 F 
ATOM     97  C   UNL     1      -1.934  10.129 -11.302  1.00  0.00     0.022 A 
BRANCH  95  98
ATOM     98  S   UNL     1      -0.877  11.681 -13.313  1.00  0.00     0.127 S 
ATOM     99  O   UNL     1      -2.122  12.393 -13.590  1.00  0.00    -0.237 OA
ATOM    100  O   UNL     1      -0.089  12.230 -12.208  1.00  0.00    -0.237 OA
ATOM    101  O   UNL     1      -0.086  11.322 -14.484  1.00  0.00    -0.744 OA
ENDBRANCH  95  98
ENDBRANCH  68  91
ENDBRANCH  42  43
ENDBRANCH  34  37
ENDBRANCH  32  33
ENDBRANCH  31  32
ENDBRANCH   1  31
TORSDOF 18
