REMARK SMILES Cc1ccc(S(=O)(=O)Nc2ccccn2)cc1C(=O)NCCCNC(=O)c1ccc(-c2c3nc(c(-c4cccc(S(=O)(=O)[O-])c4F)c4ccc([nH]4)c(-c4cccc(S(=O)(=O)[O-])c4F)c4nc(c(-c5cccc(S(=O)(=O)[O-])c5F)c5ccc2[nH]5)C=C4)C=C3)cc1
REMARK SMILES IDX 22 1 21 2 20 3 18 4 19 5 17 7 1 8 2 9 3 10 4 11 16 12 5 13
REMARK SMILES IDX 6 14 7 15 8 16 9 17 10 19 11 20 15 21 12 22 14 23 13 24
REMARK SMILES IDX 23 25 24 26 25 27 26 29 27 30 28 31 89 32 29 33 88 34 30 35
REMARK SMILES IDX 31 36 32 37 82 38 33 39 87 40 81 41 83 42 34 43 86 44 80 45
REMARK SMILES IDX 79 46 35 48 67 49 47 50 66 51 48 52 51 53 65 54 84 55 49 56
REMARK SMILES IDX 50 57 64 59 85 60 52 61 36 62 37 63 45 64 38 65 40 66 46 67
REMARK SMILES IDX 39 68 41 69 42 70 43 71 44 72 68 73 69 74 77 75 70 76 72 77
REMARK SMILES IDX 78 78 71 79 73 80 74 81 75 82 76 83 53 84 54 85 62 86 55 87
REMARK SMILES IDX 57 88 63 89 56 90 58 91 59 92 60 93 61 94
REMARK H PARENT 20 6 9 18 24 28 83 47 51 58
REMARK Flexibility Score: inf
ROOT
ATOM      1  C   UNL     1       4.087   0.680  -0.662  1.00  0.00     0.042 C 
ENDROOT
BRANCH   1   2
ATOM      2  C   UNL     1       3.509   1.092   0.685  1.00  0.00     0.118 C 
BRANCH   2   3
ATOM      3  N   UNL     1       2.374   1.969   0.510  1.00  0.00    -0.352 N 
ATOM      4  C   UNL     1       1.022   1.823   0.387  1.00  0.00     0.251 C 
ATOM      5  O   UNL     1       0.426   2.905   0.307  1.00  0.00    -0.269 OA
ATOM      6  H   UNL     1       2.645   2.914   0.469  1.00  0.00     0.163 HD
BRANCH   4   7
ATOM      7  C   UNL     1       0.178   0.562   0.366  1.00  0.00     0.044 A 
ATOM      8  C   UNL     1       1.784  -1.262  -0.562  1.00  0.00     0.045 C 
ATOM      9  C   UNL     1       0.496  -0.767   0.007  1.00  0.00    -0.038 A 
ATOM     10  C   UNL     1      -0.508  -1.763   0.028  1.00  0.00     0.005 A 
ATOM     11  C   UNL     1      -1.844  -1.437   0.170  1.00  0.00     0.022 A 
ATOM     12  C   UNL     1      -1.202   0.842   0.588  1.00  0.00     0.036 A 
ATOM     13  C   UNL     1      -2.199  -0.109   0.362  1.00  0.00     0.088 A 
BRANCH  13  14
ATOM     14  S   UNL     1      -3.905   0.267   0.011  1.00  0.00     0.263 S 
ATOM     15  O   UNL     1      -4.083  -0.005  -1.400  1.00  0.00    -0.201 OA
ATOM     16  O   UNL     1      -4.679  -0.463   1.000  1.00  0.00    -0.201 OA
BRANCH  14  17
ATOM     17  N   UNL     1      -4.245   1.857   0.278  1.00  0.00    -0.263 N 
ATOM     18  H   UNL     1      -5.056   2.064   0.795  1.00  0.00     0.182 HD
BRANCH  17  19
ATOM     19  C   UNL     1      -3.478   2.936  -0.168  1.00  0.00     0.139 A 
ATOM     20  C   UNL     1      -2.749   3.009  -1.341  1.00  0.00     0.048 A 
ATOM     21  N   UNL     1      -3.506   3.896   0.776  1.00  0.00    -0.239 NA
ATOM     22  C   UNL     1      -1.907   4.110  -1.500  1.00  0.00     0.005 A 
ATOM     23  C   UNL     1      -2.689   4.952   0.587  1.00  0.00     0.113 A 
ATOM     24  C   UNL     1      -1.865   5.093  -0.514  1.00  0.00     0.020 A 
ENDBRANCH  17  19
ENDBRANCH  14  17
ENDBRANCH  13  14
ENDBRANCH   4   7
ENDBRANCH   2   3
ENDBRANCH   1   2
BRANCH   1  25
ATOM     25  C   UNL     1       5.327   1.428  -1.110  1.00  0.00     0.118 C 
BRANCH  25  26
ATOM     26  N   UNL     1       6.487   0.535  -1.168  1.00  0.00    -0.352 N 
ATOM     27  C   UNL     1       7.617   0.602  -1.967  1.00  0.00     0.251 C 
ATOM     28  H   UNL     1       6.458  -0.227  -0.546  1.00  0.00     0.163 HD
ATOM     29  O   UNL     1       8.439  -0.305  -1.958  1.00  0.00    -0.269 OA
BRANCH  27  30
ATOM     30  C   UNL     1       7.851   1.855  -2.713  1.00  0.00     0.039 A 
ATOM     31  C   UNL     1       8.833   2.687  -2.174  1.00  0.00     0.014 A 
ATOM     32  C   UNL     1       6.819   2.366  -3.493  1.00  0.00     0.014 A 
ATOM     33  C   UNL     1       8.585   4.049  -2.112  1.00  0.00     0.010 A 
ATOM     34  C   UNL     1       6.524   3.706  -3.348  1.00  0.00     0.010 A 
ATOM     35  C   UNL     1       7.358   4.517  -2.570  1.00  0.00    -0.014 A 
BRANCH  35  36
ATOM     36  C   UNL     1       6.915   5.886  -2.388  1.00  0.00     0.031 A 
ATOM     37  C   UNL     1       7.401   6.873  -3.364  1.00  0.00     0.074 A 
ATOM     38  C   UNL     1       6.055   6.237  -1.406  1.00  0.00     0.049 A 
ATOM     39  N   UNL     1       7.421   8.142  -3.166  1.00  0.00    -0.248 NA
ATOM     40  C   UNL     1       7.983   6.466  -4.637  1.00  0.00     0.031 C 
ATOM     41  C   UNL     1       5.313   7.488  -1.300  1.00  0.00     0.029 A 
ATOM     42  N   UNL     1       5.830   5.612  -0.176  1.00  0.00    -0.354 N 
ATOM     43  C   UNL     1       7.728   8.732  -4.372  1.00  0.00     0.074 A 
ATOM     44  C   UNL     1       8.200   7.654  -5.202  1.00  0.00     0.031 C 
ATOM     45  C   UNL     1       4.952   7.675  -0.021  1.00  0.00     0.029 A 
ATOM     46  C   UNL     1       5.619   6.649   0.759  1.00  0.00     0.049 A 
ATOM     47  H   UNL     1       5.820   4.643   0.002  1.00  0.00     0.167 HD
ATOM     48  C   UNL     1       7.374  10.034  -4.560  1.00  0.00     0.034 A 
ATOM     49  C   UNL     1       6.413   6.875   1.852  1.00  0.00     0.034 A 
ATOM     50  C   UNL     1       6.901  10.627  -3.292  1.00  0.00     0.049 A 
ATOM     51  C   UNL     1       7.033   8.272   1.869  1.00  0.00     0.074 A 
ATOM     52  C   UNL     1       5.648  10.886  -2.758  1.00  0.00     0.029 A 
ATOM     53  N   UNL     1       7.793  10.744  -2.232  1.00  0.00    -0.354 N 
ATOM     54  N   UNL     1       6.835   9.191   0.964  1.00  0.00    -0.248 NA
ATOM     55  C   UNL     1       8.043   8.672   2.847  1.00  0.00     0.031 C 
ATOM     56  C   UNL     1       5.797  11.124  -1.359  1.00  0.00     0.029 A 
ATOM     57  C   UNL     1       7.142  11.051  -1.044  1.00  0.00     0.049 A 
ATOM     58  H   UNL     1       8.767  10.625  -2.314  1.00  0.00     0.167 HD
ATOM     59  C   UNL     1       7.775  10.187   1.101  1.00  0.00     0.074 A 
ATOM     60  C   UNL     1       8.502   9.810   2.304  1.00  0.00     0.031 C 
ATOM     61  C   UNL     1       7.934  11.192   0.179  1.00  0.00     0.034 A 
BRANCH  48  62
ATOM     62  C   UNL     1       7.163  10.687  -5.924  1.00  0.00     0.023 A 
ATOM     63  C   UNL     1       6.387  11.868  -5.953  1.00  0.00     0.012 A 
ATOM     64  C   UNL     1       7.578  10.204  -7.190  1.00  0.00     0.148 A 
ATOM     65  C   UNL     1       5.970  12.471  -7.147  1.00  0.00     0.002 A 
ATOM     66  C   UNL     1       7.125  10.774  -8.385  1.00  0.00     0.091 A 
ATOM     67  F   UNL     1       8.475   9.225  -7.275  1.00  0.00    -0.205 F 
ATOM     68  C   UNL     1       6.313  11.907  -8.366  1.00  0.00     0.022 A 
BRANCH  66  69
ATOM     69  S   UNL     1       7.501  10.069 -10.005  1.00  0.00     0.127 S 
ATOM     70  O   UNL     1       6.164   9.864 -10.566  1.00  0.00    -0.237 OA
ATOM     71  O   UNL     1       8.268  11.138 -10.642  1.00  0.00    -0.237 OA
ATOM     72  O   UNL     1       8.240   8.837  -9.759  1.00  0.00    -0.744 OA
ENDBRANCH  66  69
ENDBRANCH  48  62
BRANCH  49  73
ATOM     73  C   UNL     1       7.115   5.641   2.331  1.00  0.00     0.023 A 
ATOM     74  C   UNL     1       6.305   4.526   2.652  1.00  0.00     0.012 A 
ATOM     75  C   UNL     1       8.465   5.425   2.018  1.00  0.00     0.148 A 
ATOM     76  C   UNL     1       6.759   3.232   2.391  1.00  0.00     0.002 A 
ATOM     77  C   UNL     1       8.915   4.133   1.784  1.00  0.00     0.091 A 
ATOM     78  F   UNL     1       9.286   6.471   1.874  1.00  0.00    -0.205 F 
ATOM     79  C   UNL     1       8.043   3.041   1.889  1.00  0.00     0.022 A 
BRANCH  77  80
ATOM     80  S   UNL     1      10.602   3.877   1.236  1.00  0.00     0.127 S 
ATOM     81  O   UNL     1      11.333   3.940   2.497  1.00  0.00    -0.237 OA
ATOM     82  O   UNL     1      10.545   2.550   0.625  1.00  0.00    -0.237 OA
ATOM     83  O   UNL     1      10.832   4.961   0.292  1.00  0.00    -0.744 OA
ENDBRANCH  77  80
ENDBRANCH  49  73
BRANCH  61  84
ATOM     84  C   UNL     1       8.906  12.368   0.309  1.00  0.00     0.023 A 
ATOM     85  C   UNL     1       9.509  12.718   1.532  1.00  0.00     0.012 A 
ATOM     86  C   UNL     1       9.192  13.234  -0.783  1.00  0.00     0.148 A 
ATOM     87  C   UNL     1      10.462  13.739   1.638  1.00  0.00     0.002 A 
ATOM     88  C   UNL     1      10.120  14.268  -0.675  1.00  0.00     0.091 A 
ATOM     89  F   UNL     1       8.516  13.112  -1.929  1.00  0.00    -0.205 F 
ATOM     90  C   UNL     1      10.787  14.500   0.527  1.00  0.00     0.022 A 
BRANCH  88  91
ATOM     91  S   UNL     1      10.485  15.381  -2.040  1.00  0.00     0.127 S 
ATOM     92  O   UNL     1       9.885  16.629  -1.566  1.00  0.00    -0.237 OA
ATOM     93  O   UNL     1      11.948  15.375  -2.051  1.00  0.00    -0.237 OA
ATOM     94  O   UNL     1       9.865  14.799  -3.220  1.00  0.00    -0.744 OA
ENDBRANCH  88  91
ENDBRANCH  61  84
ENDBRANCH  35  36
ENDBRANCH  27  30
ENDBRANCH  25  26
ENDBRANCH   1  25
TORSDOF 16
