REMARK SMILES CC[C@@H](C)[C@H](NC(=O)[C@H](C)N1C(=O)N2CCC3=c4cc(OC)ccc4=NC3[C@@]2(C)C1=O)C(=O)NCCCNC(=O)c1ccc(-c2c3nc(c(-c4cccc(S(=O)(=O)[O-])c4F)c4ccc([nH]4)c(-c4cccc(S(=O)(=O)[O-])c4F)c4nc(c(-c5cccc(S(=O)(=O)[O-])c5F)c5ccc2[nH]5)C=C4)C=C3)cc1
REMARK SMILES IDX 35 1 34 2 32 3 33 4 5 6 3 7 4 8 2 9 1 10 6 11 7 12 8 14 9 15
REMARK SMILES IDX 10 16 11 17 12 18 30 19 14 20 13 21 28 22 31 23 15 24 27 25
REMARK SMILES IDX 29 26 16 27 17 28 26 29 18 30 25 31 19 32 24 33 20 34 23 35
REMARK SMILES IDX 21 36 22 37 36 38 37 39 38 40 39 41 40 43 41 44 42 45 103 46
REMARK SMILES IDX 43 47 102 48 44 49 45 50 46 51 96 52 47 53 101 54 95 55
REMARK SMILES IDX 97 56 48 57 100 58 94 59 93 60 49 62 81 63 61 64 80 65 62 66
REMARK SMILES IDX 65 67 79 68 98 69 63 70 64 71 78 73 99 74 66 75 50 76 51 77
REMARK SMILES IDX 59 78 52 79 54 80 60 81 53 82 55 83 56 84 57 85 58 86 82 87
REMARK SMILES IDX 83 88 91 89 84 90 86 91 92 92 85 93 87 94 88 95 89 96 90 97
REMARK SMILES IDX 67 98 68 99 76 100 69 101 71 102 77 103 70 104 72 105 73 106
REMARK SMILES IDX 74 107 75 108
REMARK H PARENT 34 5 6 13 38 42 97 61 65 72
REMARK Flexibility Score: inf
ROOT
ATOM      1  C   UNL     1      -3.249  -0.016   4.043  1.00  0.00     0.117 C 
ENDROOT
BRANCH   1   2
ATOM      2  N   UNL     1      -3.757  -1.156   3.304  1.00  0.00    -0.354 N 
ATOM      3  C   UNL     1      -3.153  -1.983   2.409  1.00  0.00     0.242 C 
ATOM      4  O   UNL     1      -3.755  -3.018   2.100  1.00  0.00    -0.273 OA
ATOM      5  H   UNL     1      -4.702  -1.367   3.481  1.00  0.00     0.163 HD
BRANCH   3   6
ATOM      6  C   UNL     1      -1.716  -1.744   1.895  1.00  0.00     0.174 C 
BRANCH   6   7
ATOM      7  C   UNL     1      -0.675  -2.244   2.994  1.00  0.00     0.018 C 
ATOM      8  C   UNL     1      -0.339  -1.264   4.125  1.00  0.00     0.010 C 
BRANCH   7   9
ATOM      9  C   UNL     1       0.608  -2.860   2.381  1.00  0.00     0.002 C 
ATOM     10  C   UNL     1       1.667  -3.286   3.404  1.00  0.00     0.004 C 
ENDBRANCH   7   9
ENDBRANCH   6   7
BRANCH   6  11
ATOM     11  N   UNL     1      -1.595  -0.351   1.383  1.00  0.00    -0.342 N 
ATOM     12  C   UNL     1      -2.087   0.216   0.209  1.00  0.00     0.243 C 
ATOM     13  H   UNL     1      -1.089   0.263   1.963  1.00  0.00     0.164 HD
ATOM     14  O   UNL     1      -2.637   1.309   0.366  1.00  0.00    -0.273 OA
BRANCH  12  15
ATOM     15  C   UNL     1      -2.018  -0.513  -1.180  1.00  0.00     0.181 C 
ATOM     16  C   UNL     1      -0.611  -1.202  -1.145  1.00  0.00     0.042 C 
BRANCH  15  17
ATOM     17  N   UNL     1      -2.128   0.360  -2.441  1.00  0.00    -0.250 N 
ATOM     18  C   UNL     1      -3.025   1.389  -2.857  1.00  0.00     0.328 C 
ATOM     19  C   UNL     1      -1.161   0.256  -3.401  1.00  0.00     0.259 C 
ATOM     20  N   UNL     1      -2.394   2.085  -4.030  1.00  0.00    -0.307 N 
ATOM     21  O   UNL     1      -4.085   1.716  -2.350  1.00  0.00    -0.248 OA
ATOM     22  C   UNL     1      -1.058   1.594  -4.016  1.00  0.00     0.147 C 
ATOM     23  O   UNL     1      -0.411  -0.659  -3.669  1.00  0.00    -0.271 OA
ATOM     24  C   UNL     1      -2.367   3.625  -4.424  1.00  0.00     0.127 C 
ATOM     25  C   UNL     1      -0.486   2.530  -2.912  1.00  0.00     0.168 C 
ATOM     26  C   UNL     1      -0.541   1.498  -5.460  1.00  0.00     0.048 C 
ATOM     27  C   UNL     1      -0.747   4.373  -4.309  1.00  0.00     0.055 C 
ATOM     28  C   UNL     1       0.296   3.704  -3.287  1.00  0.00    -0.032 C 
ATOM     29  N   UNL     1      -0.648   2.416  -1.439  1.00  0.00    -0.274 NA
ATOM     30  C   UNL     1       0.920   4.053  -2.114  1.00  0.00     0.005 A 
ATOM     31  C   UNL     1      -0.164   3.606  -1.139  1.00  0.00     0.066 A 
ATOM     32  C   UNL     1       2.053   3.178  -1.520  1.00  0.00     0.056 A 
ATOM     33  C   UNL     1      -0.025   4.123   0.217  1.00  0.00     0.032 A 
ATOM     34  C   UNL     1       1.966   2.809  -0.197  1.00  0.00     0.119 A 
ATOM     35  C   UNL     1       1.112   3.607   0.706  1.00  0.00     0.048 A 
BRANCH  34  36
ATOM     36  O   UNL     1       2.186   1.470   0.107  1.00  0.00    -0.497 OA
ATOM     37  C   UNL     1       1.946   0.944   1.409  1.00  0.00     0.278 C 
ENDBRANCH  34  36
ENDBRANCH  15  17
ENDBRANCH  12  15
ENDBRANCH   6  11
ENDBRANCH   3   6
ENDBRANCH   1   2
BRANCH   1  38
ATOM     38  C   UNL     1      -3.994   1.267   3.776  1.00  0.00     0.042 C 
BRANCH  38  39
ATOM     39  C   UNL     1      -5.393   1.230   4.353  1.00  0.00     0.118 C 
BRANCH  39  40
ATOM     40  N   UNL     1      -5.395   1.156   5.815  1.00  0.00    -0.352 N 
ATOM     41  C   UNL     1      -5.597   2.137   6.760  1.00  0.00     0.251 C 
ATOM     42  H   UNL     1      -5.226   0.258   6.183  1.00  0.00     0.163 HD
ATOM     43  O   UNL     1      -5.356   1.908   7.941  1.00  0.00    -0.269 OA
BRANCH  41  44
ATOM     44  C   UNL     1      -6.053   3.472   6.325  1.00  0.00     0.039 A 
ATOM     45  C   UNL     1      -7.024   3.576   5.334  1.00  0.00     0.014 A 
ATOM     46  C   UNL     1      -5.454   4.620   6.847  1.00  0.00     0.014 A 
ATOM     47  C   UNL     1      -7.189   4.778   4.669  1.00  0.00     0.010 A 
ATOM     48  C   UNL     1      -5.744   5.862   6.276  1.00  0.00     0.010 A 
ATOM     49  C   UNL     1      -6.561   5.941   5.137  1.00  0.00    -0.014 A 
BRANCH  49  50
ATOM     50  C   UNL     1      -6.800   7.226   4.435  1.00  0.00     0.031 A 
ATOM     51  C   UNL     1      -5.658   8.010   3.842  1.00  0.00     0.074 A 
ATOM     52  C   UNL     1      -8.068   7.666   4.306  1.00  0.00     0.049 A 
ATOM     53  N   UNL     1      -5.687   9.180   3.259  1.00  0.00    -0.248 NA
ATOM     54  C   UNL     1      -4.310   7.415   3.909  1.00  0.00     0.031 C 
ATOM     55  C   UNL     1      -9.260   6.980   4.820  1.00  0.00     0.029 A 
ATOM     56  N   UNL     1      -8.574   8.784   3.696  1.00  0.00    -0.354 N 
ATOM     57  C   UNL     1      -4.370   9.483   2.936  1.00  0.00     0.074 A 
ATOM     58  C   UNL     1      -3.558   8.372   3.378  1.00  0.00     0.031 C 
ATOM     59  C   UNL     1     -10.354   7.667   4.466  1.00  0.00     0.029 A 
ATOM     60  C   UNL     1      -9.942   8.883   3.781  1.00  0.00     0.049 A 
ATOM     61  H   UNL     1      -8.011   9.452   3.240  1.00  0.00     0.167 HD
ATOM     62  C   UNL     1      -3.890  10.584   2.315  1.00  0.00     0.034 A 
ATOM     63  C   UNL     1     -10.778   9.859   3.384  1.00  0.00     0.034 A 
ATOM     64  C   UNL     1      -4.712  11.659   1.827  1.00  0.00     0.049 A 
ATOM     65  C   UNL     1     -10.208  11.076   2.723  1.00  0.00     0.074 A 
ATOM     66  C   UNL     1      -4.313  12.806   1.164  1.00  0.00     0.029 A 
ATOM     67  N   UNL     1      -6.091  11.716   1.937  1.00  0.00    -0.354 N 
ATOM     68  N   UNL     1      -8.961  11.333   2.416  1.00  0.00    -0.248 NA
ATOM     69  C   UNL     1     -11.156  12.131   2.343  1.00  0.00     0.031 C 
ATOM     70  C   UNL     1      -5.450  13.566   0.885  1.00  0.00     0.029 A 
ATOM     71  C   UNL     1      -6.559  12.877   1.349  1.00  0.00     0.049 A 
ATOM     72  H   UNL     1      -6.654  11.033   2.368  1.00  0.00     0.167 HD
ATOM     73  C   UNL     1      -8.979  12.560   1.769  1.00  0.00     0.074 A 
ATOM     74  C   UNL     1     -10.359  12.996   1.729  1.00  0.00     0.031 C 
ATOM     75  C   UNL     1      -7.941  13.263   1.260  1.00  0.00     0.034 A 
BRANCH  62  76
ATOM     76  C   UNL     1      -2.411  10.702   2.069  1.00  0.00     0.023 A 
ATOM     77  C   UNL     1      -1.844  10.056   0.954  1.00  0.00     0.012 A 
ATOM     78  C   UNL     1      -1.632  11.604   2.823  1.00  0.00     0.148 A 
ATOM     79  C   UNL     1      -0.525  10.317   0.582  1.00  0.00     0.002 A 
ATOM     80  C   UNL     1      -0.329  11.880   2.429  1.00  0.00     0.091 A 
ATOM     81  F   UNL     1      -2.198  12.203   3.880  1.00  0.00    -0.205 F 
ATOM     82  C   UNL     1       0.226  11.239   1.309  1.00  0.00     0.022 A 
BRANCH  80  83
ATOM     83  S   UNL     1       0.704  13.095   3.257  1.00  0.00     0.127 S 
ATOM     84  O   UNL     1       1.830  12.271   3.698  1.00  0.00    -0.237 OA
ATOM     85  O   UNL     1       1.015  14.023   2.171  1.00  0.00    -0.237 OA
ATOM     86  O   UNL     1      -0.106  13.650   4.332  1.00  0.00    -0.744 OA
ENDBRANCH  80  83
ENDBRANCH  62  76
BRANCH  63  87
ATOM     87  C   UNL     1     -12.243   9.701   3.581  1.00  0.00     0.023 A 
ATOM     88  C   UNL     1     -13.064   9.461   2.463  1.00  0.00     0.012 A 
ATOM     89  C   UNL     1     -12.817   9.740   4.866  1.00  0.00     0.148 A 
ATOM     90  C   UNL     1     -14.438   9.282   2.621  1.00  0.00     0.002 A 
ATOM     91  C   UNL     1     -14.179   9.519   5.020  1.00  0.00     0.091 A 
ATOM     92  F   UNL     1     -12.011   9.970   5.913  1.00  0.00    -0.205 F 
ATOM     93  C   UNL     1     -14.993   9.301   3.898  1.00  0.00     0.022 A 
BRANCH  91  94
ATOM     94  S   UNL     1     -14.968   9.434   6.631  1.00  0.00     0.127 S 
ATOM     95  O   UNL     1     -15.806  10.630   6.614  1.00  0.00    -0.237 OA
ATOM     96  O   UNL     1     -15.697   8.168   6.542  1.00  0.00    -0.237 OA
ATOM     97  O   UNL     1     -13.884   9.438   7.604  1.00  0.00    -0.744 OA
ENDBRANCH  91  94
ENDBRANCH  63  87
BRANCH  75  98
ATOM     98  C   UNL     1      -8.244  14.549   0.549  1.00  0.00     0.023 A 
ATOM     99  C   UNL     1      -8.525  15.711   1.289  1.00  0.00     0.012 A 
ATOM    100  C   UNL     1      -8.128  14.621  -0.853  1.00  0.00     0.148 A 
ATOM    101  C   UNL     1      -8.698  16.932   0.639  1.00  0.00     0.002 A 
ATOM    102  C   UNL     1      -8.265  15.846  -1.490  1.00  0.00     0.091 A 
ATOM    103  F   UNL     1      -7.867  13.493  -1.530  1.00  0.00    -0.205 F 
ATOM    104  C   UNL     1      -8.555  17.002  -0.746  1.00  0.00     0.022 A 
BRANCH 102 105
ATOM    105  S   UNL     1      -8.025  16.047  -3.257  1.00  0.00     0.127 S 
ATOM    106  O   UNL     1      -9.372  16.404  -3.701  1.00  0.00    -0.237 OA
ATOM    107  O   UNL     1      -7.054  17.140  -3.314  1.00  0.00    -0.237 OA
ATOM    108  O   UNL     1      -7.531  14.768  -3.749  1.00  0.00    -0.744 OA
ENDBRANCH 102 105
ENDBRANCH  75  98
ENDBRANCH  49  50
ENDBRANCH  41  44
ENDBRANCH  39  40
ENDBRANCH  38  39
ENDBRANCH   1  38
TORSDOF 19
