REMARK SMILES O=C(NCCCNC(=O)[C@@H]1C[C@@H](O)CN1C(=O)c1ccccc1)c1ccc(-c2c3nc(c(-c4cccc(S(=O)(=O)[O-])c4F)c4ccc([nH]4)c(-c4cccc(S(=O)(=O)[O-])c4F)c4nc(c(-c5cccc(S(=O)(=O)[O-])c5F)c5ccc2[nH]5)C=C4)C=C3)cc1
REMARK SMILES IDX 4 1 3 2 1 3 2 4 24 6 25 7 86 8 26 9 85 10 27 11 28 12 29 13
REMARK SMILES IDX 79 14 30 15 84 16 78 17 80 18 31 19 83 20 77 21 76 22 32 24
REMARK SMILES IDX 64 25 44 26 63 27 45 28 48 29 62 30 81 31 46 32 47 33 61 35
REMARK SMILES IDX 82 36 49 37 33 38 34 39 42 40 35 41 37 42 43 43 36 44 38 45
REMARK SMILES IDX 39 46 40 47 41 48 65 49 66 50 74 51 67 52 69 53 75 54 68 55
REMARK SMILES IDX 70 56 71 57 72 58 73 59 50 60 51 61 59 62 52 63 54 64 60 65
REMARK SMILES IDX 53 66 55 67 56 68 57 69 58 70 5 71 6 72 7 73 8 74 9 76 10 77
REMARK SMILES IDX 11 78 15 79 12 80 14 81 16 82 17 83 18 84 19 85 23 86 20 87
REMARK SMILES IDX 22 88 21 89 13 90
REMARK H PARENT 3 5 80 23 48 34 7 75 13 91
REMARK Flexibility Score: inf
ROOT
ATOM      1  C   UNL     1       9.684   8.227  -2.416  1.00  0.00     0.118 C 
ENDROOT
BRANCH   1   2
ATOM      2  N   UNL     1       9.706   9.174  -1.313  1.00  0.00    -0.352 N 
ATOM      3  O   UNL     1      10.608  10.415   0.329  1.00  0.00    -0.269 OA
ATOM      4  C   UNL     1      10.775   9.808  -0.727  1.00  0.00     0.251 C 
ATOM      5  H   UNL     1       8.826   9.393  -0.929  1.00  0.00     0.163 HD
BRANCH   4   6
ATOM      6  C   UNL     1      12.118   9.746  -1.350  1.00  0.00     0.039 A 
ATOM      7  C   UNL     1      12.272   9.864  -2.733  1.00  0.00     0.014 A 
ATOM      8  C   UNL     1      13.245   9.605  -0.533  1.00  0.00     0.014 A 
ATOM      9  C   UNL     1      13.529   9.708  -3.307  1.00  0.00     0.010 A 
ATOM     10  C   UNL     1      14.519   9.539  -1.107  1.00  0.00     0.010 A 
ATOM     11  C   UNL     1      14.671   9.566  -2.501  1.00  0.00    -0.014 A 
BRANCH  11  12
ATOM     12  C   UNL     1      16.010   9.552  -3.144  1.00  0.00     0.031 A 
ATOM     13  C   UNL     1      16.908   8.349  -3.073  1.00  0.00     0.074 A 
ATOM     14  C   UNL     1      16.405  10.653  -3.816  1.00  0.00     0.049 A 
ATOM     15  N   UNL     1      18.076   8.165  -3.636  1.00  0.00    -0.248 NA
ATOM     16  C   UNL     1      16.448   7.208  -2.266  1.00  0.00     0.031 C 
ATOM     17  C   UNL     1      15.643  11.902  -3.903  1.00  0.00     0.029 A 
ATOM     18  N   UNL     1      17.533  10.902  -4.554  1.00  0.00    -0.354 N 
ATOM     19  C   UNL     1      18.505   6.907  -3.230  1.00  0.00     0.074 A 
ATOM     20  C   UNL     1      17.476   6.373  -2.363  1.00  0.00     0.031 C 
ATOM     21  C   UNL     1      16.307  12.772  -4.676  1.00  0.00     0.029 A 
ATOM     22  C   UNL     1      17.562  12.164  -5.102  1.00  0.00     0.049 A 
ATOM     23  H   UNL     1      18.253  10.243  -4.680  1.00  0.00     0.167 HD
ATOM     24  C   UNL     1      19.642   6.251  -3.567  1.00  0.00     0.034 A 
ATOM     25  C   UNL     1      18.497  12.771  -5.858  1.00  0.00     0.034 A 
ATOM     26  C   UNL     1      20.646   6.775  -4.457  1.00  0.00     0.049 A 
ATOM     27  C   UNL     1      19.728  12.002  -6.242  1.00  0.00     0.074 A 
ATOM     28  C   UNL     1      21.804   6.161  -4.902  1.00  0.00     0.029 A 
ATOM     29  N   UNL     1      20.617   8.036  -5.032  1.00  0.00    -0.354 N 
ATOM     30  N   UNL     1      20.046  10.762  -5.960  1.00  0.00    -0.248 NA
ATOM     31  C   UNL     1      20.715  12.706  -7.071  1.00  0.00     0.031 C 
ATOM     32  C   UNL     1      22.482   7.056  -5.737  1.00  0.00     0.029 A 
ATOM     33  C   UNL     1      21.739   8.222  -5.824  1.00  0.00     0.049 A 
ATOM     34  H   UNL     1      19.904   8.701  -4.899  1.00  0.00     0.167 HD
ATOM     35  C   UNL     1      21.262  10.531  -6.590  1.00  0.00     0.074 A 
ATOM     36  C   UNL     1      21.602  11.747  -7.301  1.00  0.00     0.031 C 
ATOM     37  C   UNL     1      22.041   9.422  -6.561  1.00  0.00     0.034 A 
BRANCH  24  38
ATOM     38  C   UNL     1      19.846   4.862  -3.018  1.00  0.00     0.023 A 
ATOM     39  C   UNL     1      19.113   3.790  -3.565  1.00  0.00     0.012 A 
ATOM     40  C   UNL     1      20.824   4.602  -2.037  1.00  0.00     0.148 A 
ATOM     41  C   UNL     1      19.335   2.483  -3.132  1.00  0.00     0.002 A 
ATOM     42  C   UNL     1      21.064   3.292  -1.636  1.00  0.00     0.091 A 
ATOM     43  F   UNL     1      21.498   5.637  -1.517  1.00  0.00    -0.205 F 
ATOM     44  C   UNL     1      20.317   2.233  -2.177  1.00  0.00     0.022 A 
BRANCH  42  45
ATOM     45  S   UNL     1      22.356   2.854  -0.465  1.00  0.00     0.127 S 
ATOM     46  O   UNL     1      21.571   2.449   0.700  1.00  0.00    -0.237 OA
ATOM     47  O   UNL     1      23.036   1.757  -1.153  1.00  0.00    -0.237 OA
ATOM     48  O   UNL     1      23.162   4.054  -0.289  1.00  0.00    -0.744 OA
ENDBRANCH  42  45
ENDBRANCH  24  38
BRANCH  25  49
ATOM     49  C   UNL     1      18.273  14.164  -6.336  1.00  0.00     0.023 A 
ATOM     50  C   UNL     1      18.052  14.402  -7.705  1.00  0.00     0.012 A 
ATOM     51  C   UNL     1      18.237  15.246  -5.436  1.00  0.00     0.148 A 
ATOM     52  C   UNL     1      17.826  15.697  -8.174  1.00  0.00     0.002 A 
ATOM     53  C   UNL     1      17.950  16.524  -5.901  1.00  0.00     0.091 A 
ATOM     54  F   UNL     1      18.472  15.006  -4.138  1.00  0.00    -0.205 F 
ATOM     55  C   UNL     1      17.761  16.755  -7.271  1.00  0.00     0.022 A 
BRANCH  53  56
ATOM     56  S   UNL     1      17.701  17.902  -4.776  1.00  0.00     0.127 S 
ATOM     57  O   UNL     1      18.992  18.580  -4.841  1.00  0.00    -0.237 OA
ATOM     58  O   UNL     1      16.595  18.623  -5.408  1.00  0.00    -0.237 OA
ATOM     59  O   UNL     1      17.358  17.292  -3.498  1.00  0.00    -0.744 OA
ENDBRANCH  53  56
ENDBRANCH  25  49
BRANCH  37  60
ATOM     60  C   UNL     1      23.335   9.472  -7.328  1.00  0.00     0.023 A 
ATOM     61  C   UNL     1      24.405  10.243  -6.831  1.00  0.00     0.012 A 
ATOM     62  C   UNL     1      23.508   8.727  -8.510  1.00  0.00     0.148 A 
ATOM     63  C   UNL     1      25.616  10.300  -7.519  1.00  0.00     0.002 A 
ATOM     64  C   UNL     1      24.733   8.754  -9.166  1.00  0.00     0.091 A 
ATOM     65  F   UNL     1      22.470   8.018  -8.979  1.00  0.00    -0.205 F 
ATOM     66  C   UNL     1      25.783   9.548  -8.680  1.00  0.00     0.022 A 
BRANCH  64  67
ATOM     67  S   UNL     1      25.060   7.748 -10.618  1.00  0.00     0.127 S 
ATOM     68  O   UNL     1      24.959   8.734 -11.693  1.00  0.00    -0.237 OA
ATOM     69  O   UNL     1      26.416   7.261 -10.363  1.00  0.00    -0.237 OA
ATOM     70  O   UNL     1      24.039   6.709 -10.619  1.00  0.00    -0.744 OA
ENDBRANCH  64  67
ENDBRANCH  37  60
ENDBRANCH  11  12
ENDBRANCH   4   6
ENDBRANCH   1   2
BRANCH   1  71
ATOM     71  C   UNL     1       9.039   6.903  -2.028  1.00  0.00     0.042 C 
BRANCH  71  72
ATOM     72  C   UNL     1       7.530   6.998  -1.827  1.00  0.00     0.117 C 
BRANCH  72  73
ATOM     73  N   UNL     1       6.843   7.264  -3.078  1.00  0.00    -0.354 N 
ATOM     74  C   UNL     1       6.236   6.380  -3.930  1.00  0.00     0.242 C 
ATOM     75  H   UNL     1       6.808   8.210  -3.352  1.00  0.00     0.163 HD
ATOM     76  O   UNL     1       5.870   6.789  -5.034  1.00  0.00    -0.273 OA
BRANCH  74  77
ATOM     77  C   UNL     1       6.113   4.907  -3.496  1.00  0.00     0.177 C 
ATOM     78  C   UNL     1       7.446   4.178  -3.720  1.00  0.00     0.069 C 
ATOM     79  N   UNL     1       5.144   4.157  -4.298  1.00  0.00    -0.324 N 
ATOM     80  C   UNL     1       7.033   2.796  -4.205  1.00  0.00     0.136 C 
ATOM     81  C   UNL     1       5.791   3.083  -5.044  1.00  0.00     0.152 C 
BRANCH  79  82
ATOM     82  C   UNL     1       3.798   4.445  -4.220  1.00  0.00     0.254 C 
ATOM     83  O   UNL     1       3.326   5.294  -3.471  1.00  0.00    -0.269 OA
BRANCH  82  84
ATOM     84  C   UNL     1       2.884   3.673  -5.077  1.00  0.00     0.040 A 
ATOM     85  C   UNL     1       2.407   4.242  -6.259  1.00  0.00     0.014 A 
ATOM     86  C   UNL     1       2.487   2.392  -4.684  1.00  0.00     0.014 A 
ATOM     87  C   UNL     1       1.542   3.506  -7.070  1.00  0.00     0.001 A 
ATOM     88  C   UNL     1       1.629   1.659  -5.502  1.00  0.00     0.001 A 
ATOM     89  C   UNL     1       1.159   2.216  -6.694  1.00  0.00     0.000 A 
ENDBRANCH  82  84
ENDBRANCH  79  82
BRANCH  80  90
ATOM     90  O   UNL     1       6.699   1.979  -3.079  1.00  0.00    -0.391 OA
ATOM     91  H   UNL     1       6.008   2.415  -2.556  1.00  0.00     0.211 HD
ENDBRANCH  80  90
ENDBRANCH  74  77
ENDBRANCH  72  73
ENDBRANCH  71  72
ENDBRANCH   1  71
TORSDOF 16
