REMARK SMILES Cc1c(Cl)cc2c(c1C)O[C@H](C(F)(F)F)C(C(=O)NCCCNC(=O)c1ccc(-c3c4nc(c(-c5cccc(S(=O)(=O)[O-])c5F)c5ccc([nH]5)c(-c5cccc(S(=O)(=O)[O-])c5F)c5nc(c(-c6cccc(S(=O)(=O)[O-])c6F)c6ccc3[nH]6)C=C5)C=C4)cc1)=C2
REMARK SMILES IDX 22 1 21 2 20 3 19 4 17 5 18 6 16 8 1 9 2 10 3 11 8 12 4 13
REMARK SMILES IDX 5 14 7 15 9 16 6 17 10 18 89 19 11 20 12 21 13 22 14 23
REMARK SMILES IDX 15 24 23 25 24 26 25 28 26 29 27 30 88 31 28 32 87 33 29 34
REMARK SMILES IDX 30 35 31 36 81 37 32 38 86 39 80 40 82 41 33 42 85 43 79 44
REMARK SMILES IDX 78 45 34 47 66 48 46 49 65 50 47 51 50 52 64 53 83 54 48 55
REMARK SMILES IDX 49 56 63 58 84 59 51 60 35 61 36 62 44 63 37 64 39 65 45 66
REMARK SMILES IDX 38 67 40 68 41 69 42 70 43 71 67 72 68 73 76 74 69 75 71 76
REMARK SMILES IDX 77 77 70 78 72 79 73 80 74 81 75 82 52 83 53 84 61 85 54 86
REMARK SMILES IDX 56 87 62 88 55 89 57 90 58 91 59 92 60 93
REMARK H PARENT 19 7 23 27 82 46 50 57
REMARK Flexibility Score: inf
ROOT
ATOM      1  C   UNL     1      -3.932  -3.133  -9.588  1.00  0.00     0.118 C 
ENDROOT
BRANCH   1   2
ATOM      2  C   UNL     1      -3.238  -3.160  -8.234  1.00  0.00     0.042 C 
BRANCH   2   3
ATOM      3  C   UNL     1      -1.841  -2.565  -8.298  1.00  0.00     0.118 C 
BRANCH   3   4
ATOM      4  N   UNL     1      -1.863  -1.109  -8.302  1.00  0.00    -0.352 N 
ATOM      5  C   UNL     1      -1.547  -0.110  -7.445  1.00  0.00     0.251 C 
ATOM      6  O   UNL     1      -1.697   1.034  -7.886  1.00  0.00    -0.270 OA
ATOM      7  H   UNL     1      -2.198  -0.757  -9.159  1.00  0.00     0.163 HD
BRANCH   5   8
ATOM      8  C   UNL     1      -1.038  -0.307  -6.058  1.00  0.00     0.067 C 
ATOM      9  C   UNL     1       1.041   0.220   0.122  1.00  0.00     0.046 C 
ATOM     10  C   UNL     1       0.556   0.367  -1.297  1.00  0.00    -0.026 A 
ATOM     11  C   UNL     1       0.494   1.637  -1.913  1.00  0.00     0.045 A 
ATOM     12  C   UNL     1       0.202  -0.768  -2.061  1.00  0.00    -0.004 A 
ATOM     13  Cl  UNL     1       0.995   3.079  -1.093  1.00  0.00    -0.084 Cl
ATOM     14  C   UNL     1       0.035   1.790  -3.226  1.00  0.00     0.032 A 
ATOM     15  C   UNL     1      -0.266  -0.587  -3.377  1.00  0.00     0.131 A 
ATOM     16  C   UNL     1       0.290  -2.183  -1.542  1.00  0.00     0.049 C 
ATOM     17  C   UNL     1      -0.357   0.676  -3.962  1.00  0.00     0.019 A 
ATOM     18  O   UNL     1      -0.675  -1.711  -4.040  1.00  0.00    -0.475 OA
ATOM     19  C   UNL     1      -0.878   0.806  -5.319  1.00  0.00     0.025 C 
ATOM     20  C   UNL     1      -0.679  -1.646  -5.486  1.00  0.00     0.314 C 
BRANCH  20  21
ATOM     21  C   UNL     1       0.665  -2.176  -6.020  1.00  0.00     0.429 C 
ATOM     22  F   UNL     1       0.778  -3.508  -5.791  1.00  0.00    -0.167 F 
ATOM     23  F   UNL     1       0.803  -2.005  -7.357  1.00  0.00    -0.167 F 
ATOM     24  F   UNL     1       1.731  -1.576  -5.443  1.00  0.00    -0.167 F 
ENDBRANCH  20  21
ENDBRANCH   5   8
ENDBRANCH   3   4
ENDBRANCH   2   3
ENDBRANCH   1   2
BRANCH   1  25
ATOM     25  N   UNL     1      -3.222  -3.945 -10.575  1.00  0.00    -0.352 N 
ATOM     26  C   UNL     1      -3.539  -5.170 -11.104  1.00  0.00     0.251 C 
ATOM     27  H   UNL     1      -2.385  -3.551 -10.913  1.00  0.00     0.163 HD
ATOM     28  O   UNL     1      -2.679  -5.820 -11.696  1.00  0.00    -0.269 OA
BRANCH  26  29
ATOM     29  C   UNL     1      -4.909  -5.699 -10.966  1.00  0.00     0.039 A 
ATOM     30  C   UNL     1      -5.102  -7.059 -10.715  1.00  0.00     0.014 A 
ATOM     31  C   UNL     1      -6.004  -4.844 -11.108  1.00  0.00     0.014 A 
ATOM     32  C   UNL     1      -6.399  -7.548 -10.549  1.00  0.00     0.010 A 
ATOM     33  C   UNL     1      -7.281  -5.309 -10.835  1.00  0.00     0.010 A 
ATOM     34  C   UNL     1      -7.494  -6.669 -10.579  1.00  0.00    -0.014 A 
BRANCH  34  35
ATOM     35  C   UNL     1      -8.881  -7.148 -10.372  1.00  0.00     0.031 A 
ATOM     36  C   UNL     1      -9.898  -6.987 -11.468  1.00  0.00     0.074 A 
ATOM     37  C   UNL     1      -9.240  -7.644  -9.173  1.00  0.00     0.049 A 
ATOM     38  N   UNL     1     -11.170  -7.287 -11.460  1.00  0.00    -0.248 NA
ATOM     39  C   UNL     1      -9.436  -6.376 -12.726  1.00  0.00     0.031 C 
ATOM     40  C   UNL     1      -8.355  -7.773  -8.014  1.00  0.00     0.029 A 
ATOM     41  N   UNL     1     -10.447  -8.115  -8.725  1.00  0.00    -0.354 N 
ATOM     42  C   UNL     1     -11.662  -6.875 -12.692  1.00  0.00     0.074 A 
ATOM     43  C   UNL     1     -10.568  -6.252 -13.401  1.00  0.00     0.031 C 
ATOM     44  C   UNL     1      -9.043  -8.309  -6.995  1.00  0.00     0.029 A 
ATOM     45  C   UNL     1     -10.424  -8.531  -7.415  1.00  0.00     0.049 A 
ATOM     46  H   UNL     1     -11.254  -8.152  -9.288  1.00  0.00     0.167 HD
ATOM     47  C   UNL     1     -12.903  -7.039 -13.205  1.00  0.00     0.034 A 
ATOM     48  C   UNL     1     -11.404  -9.037  -6.641  1.00  0.00     0.034 A 
ATOM     49  C   UNL     1     -13.970  -7.703 -12.508  1.00  0.00     0.049 A 
ATOM     50  C   UNL     1     -12.769  -9.239  -7.240  1.00  0.00     0.074 A 
ATOM     51  C   UNL     1     -15.240  -7.999 -12.966  1.00  0.00     0.029 A 
ATOM     52  N   UNL     1     -13.893  -8.171 -11.205  1.00  0.00    -0.354 N 
ATOM     53  N   UNL     1     -13.179  -8.981  -8.459  1.00  0.00    -0.248 NA
ATOM     54  C   UNL     1     -13.798  -9.829  -6.373  1.00  0.00     0.031 C 
ATOM     55  C   UNL     1     -15.942  -8.620 -11.928  1.00  0.00     0.029 A 
ATOM     56  C   UNL     1     -15.098  -8.740 -10.834  1.00  0.00     0.049 A 
ATOM     57  H   UNL     1     -13.098  -8.107 -10.628  1.00  0.00     0.167 HD
ATOM     58  C   UNL     1     -14.504  -9.398  -8.514  1.00  0.00     0.074 A 
ATOM     59  C   UNL     1     -14.820  -9.948  -7.211  1.00  0.00     0.031 C 
ATOM     60  C   UNL     1     -15.384  -9.318  -9.544  1.00  0.00     0.034 A 
BRANCH  47  61
ATOM     61  C   UNL     1     -13.152  -6.549 -14.608  1.00  0.00     0.023 A 
ATOM     62  C   UNL     1     -12.536  -7.208 -15.693  1.00  0.00     0.012 A 
ATOM     63  C   UNL     1     -14.030  -5.478 -14.862  1.00  0.00     0.148 A 
ATOM     64  C   UNL     1     -12.756  -6.785 -17.003  1.00  0.00     0.002 A 
ATOM     65  C   UNL     1     -14.286  -5.095 -16.174  1.00  0.00     0.091 A 
ATOM     66  F   UNL     1     -14.588  -4.847 -13.819  1.00  0.00    -0.205 F 
ATOM     67  C   UNL     1     -13.640  -5.737 -17.243  1.00  0.00     0.022 A 
BRANCH  65  68
ATOM     68  S   UNL     1     -15.475  -3.816 -16.597  1.00  0.00     0.127 S 
ATOM     69  O   UNL     1     -14.600  -2.746 -17.074  1.00  0.00    -0.237 OA
ATOM     70  O   UNL     1     -16.267  -4.467 -17.641  1.00  0.00    -0.237 OA
ATOM     71  O   UNL     1     -16.205  -3.526 -15.371  1.00  0.00    -0.744 OA
ENDBRANCH  65  68
ENDBRANCH  47  61
BRANCH  48  72
ATOM     72  C   UNL     1     -11.085  -9.470  -5.252  1.00  0.00     0.023 A 
ATOM     73  C   UNL     1     -11.032 -10.847  -4.958  1.00  0.00     0.012 A 
ATOM     74  C   UNL     1     -10.738  -8.541  -4.251  1.00  0.00     0.148 A 
ATOM     75  C   UNL     1     -10.651 -11.290  -3.691  1.00  0.00     0.002 A 
ATOM     76  C   UNL     1     -10.303  -8.990  -3.010  1.00  0.00     0.091 A 
ATOM     77  F   UNL     1     -10.798  -7.236  -4.551  1.00  0.00    -0.205 F 
ATOM     78  C   UNL     1     -10.273 -10.364  -2.723  1.00  0.00     0.022 A 
BRANCH  76  79
ATOM     79  S   UNL     1      -9.654  -7.885  -1.751  1.00  0.00     0.127 S 
ATOM     80  O   UNL     1     -10.622  -8.059  -0.670  1.00  0.00    -0.237 OA
ATOM     81  O   UNL     1      -8.335  -8.464  -1.498  1.00  0.00    -0.237 OA
ATOM     82  O   UNL     1      -9.626  -6.562  -2.360  1.00  0.00    -0.744 OA
ENDBRANCH  76  79
ENDBRANCH  48  72
BRANCH  60  83
ATOM     83  C   UNL     1     -16.782  -9.835  -9.322  1.00  0.00     0.023 A 
ATOM     84  C   UNL     1     -17.671  -9.104  -8.510  1.00  0.00     0.012 A 
ATOM     85  C   UNL     1     -17.249 -10.970 -10.014  1.00  0.00     0.148 A 
ATOM     86  C   UNL     1     -18.999  -9.505  -8.376  1.00  0.00     0.002 A 
ATOM     87  C   UNL     1     -18.587 -11.332  -9.918  1.00  0.00     0.091 A 
ATOM     88  F   UNL     1     -16.382 -11.659 -10.770  1.00  0.00    -0.205 F 
ATOM     89  C   UNL     1     -19.460 -10.608  -9.090  1.00  0.00     0.022 A 
BRANCH  87  90
ATOM     90  S   UNL     1     -19.299 -12.668 -10.886  1.00  0.00     0.127 S 
ATOM     91  O   UNL     1     -19.587 -13.662  -9.853  1.00  0.00    -0.237 OA
ATOM     92  O   UNL     1     -20.481 -12.032 -11.467  1.00  0.00    -0.237 OA
ATOM     93  O   UNL     1     -18.280 -13.053 -11.853  1.00  0.00    -0.744 OA
ENDBRANCH  87  90
ENDBRANCH  60  83
ENDBRANCH  34  35
ENDBRANCH  26  29
ENDBRANCH   1  25
TORSDOF 14
