REMARK SMILES C[NH2+][C@]1(C(=O)NCCCNC(=O)c2ccc(-c3c4nc(c(-c5cccc(S(=O)(=O)[O-])c5F)c5ccc([nH]5)c(-c5cccc(S(=O)(=O)[O-])c5F)c5nc(c(-c6cccc(S(=O)(=O)[O-])c6F)c6ccc3[nH]6)C=C5)C=C4)cc2)CC[C@H](SC2CCCCC2)C1
REMARK SMILES IDX 8 1 7 2 6 3 4 4 5 5 3 7 76 8 86 9 77 10 78 11 2 12 1 13
REMARK SMILES IDX 79 16 80 17 81 18 85 19 82 20 84 21 83 22 9 23 10 24 11 25
REMARK SMILES IDX 12 27 13 28 14 29 75 30 15 31 74 32 16 33 17 34 18 35 68 36
REMARK SMILES IDX 19 37 73 38 67 39 69 40 20 41 72 42 66 43 65 44 21 46 53 47
REMARK SMILES IDX 33 48 52 49 34 50 37 51 51 52 70 53 35 54 36 55 50 57 71 58
REMARK SMILES IDX 38 59 22 60 23 61 31 62 24 63 26 64 32 65 25 66 27 67 28 68
REMARK SMILES IDX 29 69 30 70 54 71 55 72 63 73 56 74 58 75 64 76 57 77 59 78
REMARK SMILES IDX 60 79 61 80 62 81 39 82 40 83 48 84 41 85 43 86 49 87 42 88
REMARK SMILES IDX 44 89 45 90 46 91 47 92
REMARK H PARENT 6 6 2 14 2 15 10 26 69 45 37 56
REMARK Flexibility Score: inf
ROOT
ATOM      1  C   UNL     1       0.837   0.269  -2.300  1.00  0.00     0.042 C 
ENDROOT
BRANCH   1   2
ATOM      2  C   UNL     1       0.479  -1.014  -1.558  1.00  0.00     0.118 C 
BRANCH   2   3
ATOM      3  N   UNL     1       1.048  -1.049  -0.223  1.00  0.00    -0.351 N 
ATOM      4  C   UNL     1       0.505  -0.976   1.022  1.00  0.00     0.281 C 
ATOM      5  O   UNL     1       1.333  -0.924   1.942  1.00  0.00    -0.268 OA
ATOM      6  H   UNL     1       2.028  -1.145  -0.218  1.00  0.00     0.163 HD
BRANCH   4   7
ATOM      7  C   UNL     1      -1.044  -0.930   1.292  1.00  0.00     0.176 C 
ATOM      8  C   UNL     1      -1.656   0.307   0.627  1.00  0.00     0.080 C 
ATOM      9  C   UNL     1      -1.786  -2.122   0.647  1.00  0.00     0.093 C 
ATOM     10  C   UNL     1      -3.086  -0.071   0.291  1.00  0.00     0.022 C 
ATOM     11  C   UNL     1      -3.130  -1.587   0.093  1.00  0.00     0.054 C 
BRANCH   7  12
ATOM     12  N   UNL     1      -1.201  -0.852   2.767  1.00  0.00    -0.336 N 
ATOM     13  C   UNL     1      -2.452  -1.198   3.396  1.00  0.00     0.331 C 
ATOM     14  H   UNL     1      -0.494  -1.468   3.167  1.00  0.00     0.346 HD
ATOM     15  H   UNL     1      -1.124   0.148   2.950  1.00  0.00     0.346 HD
ENDBRANCH   7  12
BRANCH  11  16
ATOM     16  S   UNL     1      -4.526  -2.453   0.930  1.00  0.00    -0.155 SA
BRANCH  16  17
ATOM     17  C   UNL     1      -6.067  -1.716   0.251  1.00  0.00     0.047 C 
ATOM     18  C   UNL     1      -6.213  -0.205   0.436  1.00  0.00     0.014 C 
ATOM     19  C   UNL     1      -6.334  -2.142  -1.194  1.00  0.00     0.014 C 
ATOM     20  C   UNL     1      -7.580   0.290  -0.024  1.00  0.00     0.001 C 
ATOM     21  C   UNL     1      -7.700  -1.625  -1.661  1.00  0.00     0.001 C 
ATOM     22  C   UNL     1      -7.836  -0.116  -1.473  1.00  0.00     0.000 C 
ENDBRANCH  16  17
ENDBRANCH  11  16
ENDBRANCH   4   7
ENDBRANCH   2   3
ENDBRANCH   1   2
BRANCH   1  23
ATOM     23  C   UNL     1       2.331   0.460  -2.526  1.00  0.00     0.118 C 
BRANCH  23  24
ATOM     24  N   UNL     1       2.909  -0.594  -3.349  1.00  0.00    -0.352 N 
ATOM     25  C   UNL     1       3.488  -0.520  -4.590  1.00  0.00     0.251 C 
ATOM     26  H   UNL     1       2.879  -1.496  -2.955  1.00  0.00     0.163 HD
ATOM     27  O   UNL     1       3.719  -1.558  -5.213  1.00  0.00    -0.269 OA
BRANCH  25  28
ATOM     28  C   UNL     1       3.822   0.791  -5.185  1.00  0.00     0.039 A 
ATOM     29  C   UNL     1       3.585   1.000  -6.546  1.00  0.00     0.014 A 
ATOM     30  C   UNL     1       4.382   1.808  -4.408  1.00  0.00     0.014 A 
ATOM     31  C   UNL     1       3.856   2.248  -7.111  1.00  0.00     0.010 A 
ATOM     32  C   UNL     1       4.559   3.076  -4.950  1.00  0.00     0.010 A 
ATOM     33  C   UNL     1       4.314   3.308  -6.311  1.00  0.00    -0.014 A 
BRANCH  33  34
ATOM     34  C   UNL     1       4.549   4.660  -6.876  1.00  0.00     0.031 A 
ATOM     35  C   UNL     1       5.925   5.271  -6.830  1.00  0.00     0.074 A 
ATOM     36  C   UNL     1       3.510   5.374  -7.353  1.00  0.00     0.049 A 
ATOM     37  N   UNL     1       6.314   6.458  -7.217  1.00  0.00    -0.248 NA
ATOM     38  C   UNL     1       7.001   4.452  -6.244  1.00  0.00     0.031 C 
ATOM     39  C   UNL     1       2.116   4.925  -7.381  1.00  0.00     0.029 A 
ATOM     40  N   UNL     1       3.460   6.640  -7.881  1.00  0.00    -0.354 N 
ATOM     41  C   UNL     1       7.661   6.544  -6.886  1.00  0.00     0.074 A 
ATOM     42  C   UNL     1       8.015   5.303  -6.233  1.00  0.00     0.031 C 
ATOM     43  C   UNL     1       1.351   5.894  -7.907  1.00  0.00     0.029 A 
ATOM     44  C   UNL     1       2.190   7.047  -8.220  1.00  0.00     0.049 A 
ATOM     45  H   UNL     1       4.257   7.204  -8.006  1.00  0.00     0.167 HD
ATOM     46  C   UNL     1       8.533   7.551  -7.128  1.00  0.00     0.034 A 
ATOM     47  C   UNL     1       1.749   8.219  -8.716  1.00  0.00     0.034 A 
ATOM     48  C   UNL     1       8.186   8.766  -7.814  1.00  0.00     0.049 A 
ATOM     49  C   UNL     1       2.744   9.310  -9.006  1.00  0.00     0.074 A 
ATOM     50  C   UNL     1       9.015   9.807  -8.192  1.00  0.00     0.029 A 
ATOM     51  N   UNL     1       6.904   9.110  -8.214  1.00  0.00    -0.354 N 
ATOM     52  N   UNL     1       4.043   9.309  -8.832  1.00  0.00    -0.248 NA
ATOM     53  C   UNL     1       2.218  10.550  -9.595  1.00  0.00     0.031 C 
ATOM     54  C   UNL     1       8.228  10.797  -8.788  1.00  0.00     0.029 A 
ATOM     55  C   UNL     1       6.915  10.354  -8.820  1.00  0.00     0.049 A 
ATOM     56  H   UNL     1       6.103   8.551  -8.085  1.00  0.00     0.167 HD
ATOM     57  C   UNL     1       4.495  10.528  -9.325  1.00  0.00     0.074 A 
ATOM     58  C   UNL     1       3.332  11.233  -9.823  1.00  0.00     0.031 C 
ATOM     59  C   UNL     1       5.757  11.023  -9.355  1.00  0.00     0.034 A 
BRANCH  46  60
ATOM     60  C   UNL     1       9.961   7.365  -6.681  1.00  0.00     0.023 A 
ATOM     61  C   UNL     1      10.783   6.423  -7.333  1.00  0.00     0.012 A 
ATOM     62  C   UNL     1      10.505   8.160  -5.653  1.00  0.00     0.148 A 
ATOM     63  C   UNL     1      12.109   6.244  -6.942  1.00  0.00     0.002 A 
ATOM     64  C   UNL     1      11.842   8.011  -5.303  1.00  0.00     0.091 A 
ATOM     65  F   UNL     1       9.705   9.037  -5.030  1.00  0.00    -0.205 F 
ATOM     66  C   UNL     1      12.641   7.044  -5.936  1.00  0.00     0.022 A 
BRANCH  64  67
ATOM     67  S   UNL     1      12.645   9.052  -4.079  1.00  0.00     0.127 S 
ATOM     68  O   UNL     1      12.864   8.105  -2.985  1.00  0.00    -0.237 OA
ATOM     69  O   UNL     1      13.861   9.466  -4.779  1.00  0.00    -0.237 OA
ATOM     70  O   UNL     1      11.710  10.131  -3.792  1.00  0.00    -0.744 OA
ENDBRANCH  64  67
ENDBRANCH  46  60
BRANCH  47  71
ATOM     71  C   UNL     1       0.302   8.401  -9.027  1.00  0.00     0.023 A 
ATOM     72  C   UNL     1      -0.111   8.495 -10.370  1.00  0.00     0.012 A 
ATOM     73  C   UNL     1      -0.666   8.458  -8.005  1.00  0.00     0.148 A 
ATOM     74  C   UNL     1      -1.456   8.679 -10.690  1.00  0.00     0.002 A 
ATOM     75  C   UNL     1      -2.011   8.584  -8.332  1.00  0.00     0.091 A 
ATOM     76  F   UNL     1      -0.252   8.374  -6.733  1.00  0.00    -0.205 F 
ATOM     77  C   UNL     1      -2.407   8.714  -9.673  1.00  0.00     0.022 A 
BRANCH  75  78
ATOM     78  S   UNL     1      -3.315   8.505  -7.100  1.00  0.00     0.127 S 
ATOM     79  O   UNL     1      -3.825   9.873  -7.115  1.00  0.00    -0.237 OA
ATOM     80  O   UNL     1      -4.213   7.504  -7.677  1.00  0.00    -0.237 OA
ATOM     81  O   UNL     1      -2.666   8.086  -5.865  1.00  0.00    -0.744 OA
ENDBRANCH  75  78
ENDBRANCH  47  71
BRANCH  59  82
ATOM     82  C   UNL     1       5.964  12.374  -9.988  1.00  0.00     0.023 A 
ATOM     83  C   UNL     1       5.512  13.538  -9.335  1.00  0.00     0.012 A 
ATOM     84  C   UNL     1       6.676  12.493 -11.199  1.00  0.00     0.148 A 
ATOM     85  C   UNL     1       5.734  14.796  -9.895  1.00  0.00     0.002 A 
ATOM     86  C   UNL     1       6.940  13.752 -11.723  1.00  0.00     0.091 A 
ATOM     87  F   UNL     1       7.083  11.373 -11.814  1.00  0.00    -0.205 F 
ATOM     88  C   UNL     1       6.458  14.903 -11.081  1.00  0.00     0.022 A 
BRANCH  86  89
ATOM     89  S   UNL     1       7.950  13.993 -13.189  1.00  0.00     0.127 S 
ATOM     90  O   UNL     1       6.955  14.427 -14.168  1.00  0.00    -0.237 OA
ATOM     91  O   UNL     1       8.878  15.039 -12.757  1.00  0.00    -0.237 OA
ATOM     92  O   UNL     1       8.575  12.706 -13.463  1.00  0.00    -0.744 OA
ENDBRANCH  86  89
ENDBRANCH  59  82
ENDBRANCH  33  34
ENDBRANCH  25  28
ENDBRANCH  23  24
ENDBRANCH   1  23
TORSDOF 16
