REMARK SMILES O=C(NCCCNC(=O)c1cccc(S(=O)(=O)NC[C@@H]2CCOC2)c1)c1ccc(-c2c3nc(c(-c4cccc(S(=O)(=O)[O-])c4F)c4ccc([nH]4)c(-c4cccc(S(=O)(=O)[O-])c4F)c4nc(c(-c5cccc(S(=O)(=O)[O-])c5F)c5ccc2[nH]5)C=C4)C=C3)cc1
REMARK SMILES IDX 5 1 4 2 3 3 1 4 2 5 26 7 27 8 88 9 28 10 87 11 29 12 30 13
REMARK SMILES IDX 31 14 81 15 32 16 86 17 80 18 82 19 33 20 85 21 79 22 78 23
REMARK SMILES IDX 34 25 66 26 46 27 65 28 47 29 50 30 64 31 83 32 48 33 49 34
REMARK SMILES IDX 63 36 84 37 51 38 35 39 36 40 44 41 37 42 39 43 45 44 38 45
REMARK SMILES IDX 40 46 41 47 42 48 43 49 67 50 68 51 76 52 69 53 71 54 77 55
REMARK SMILES IDX 70 56 72 57 73 58 74 59 75 60 52 61 53 62 61 63 54 64 56 65
REMARK SMILES IDX 62 66 55 67 57 68 58 69 59 70 60 71 6 72 7 73 8 74 9 76
REMARK SMILES IDX 10 77 11 78 25 79 12 80 14 81 13 82 15 83 16 84 17 85 18 86
REMARK SMILES IDX 19 88 20 89 21 90 24 91 22 92 23 93
REMARK H PARENT 3 6 82 24 50 35 7 75 18 87
REMARK Flexibility Score: inf
ROOT
ATOM      1  C   UNL     1       5.172  -0.846   1.933  1.00  0.00     0.042 C 
ENDROOT
BRANCH   1   2
ATOM      2  C   UNL     1       4.718  -1.197   0.524  1.00  0.00     0.118 C 
BRANCH   2   3
ATOM      3  N   UNL     1       3.272  -1.156   0.372  1.00  0.00    -0.352 N 
ATOM      4  O   UNL     1       1.247  -0.271  -0.015  1.00  0.00    -0.269 OA
ATOM      5  C   UNL     1       2.461  -0.200  -0.192  1.00  0.00     0.251 C 
ATOM      6  H   UNL     1       2.797  -1.940   0.732  1.00  0.00     0.163 HD
BRANCH   5   7
ATOM      7  C   UNL     1       3.038   0.918  -0.971  1.00  0.00     0.039 A 
ATOM      8  C   UNL     1       4.091   0.710  -1.865  1.00  0.00     0.014 A 
ATOM      9  C   UNL     1       2.491   2.197  -0.831  1.00  0.00     0.014 A 
ATOM     10  C   UNL     1       4.707   1.794  -2.482  1.00  0.00     0.010 A 
ATOM     11  C   UNL     1       3.047   3.272  -1.530  1.00  0.00     0.010 A 
ATOM     12  C   UNL     1       4.185   3.086  -2.331  1.00  0.00    -0.014 A 
BRANCH  12  13
ATOM     13  C   UNL     1       4.794   4.226  -3.061  1.00  0.00     0.031 A 
ATOM     14  C   UNL     1       5.394   5.386  -2.317  1.00  0.00     0.074 A 
ATOM     15  C   UNL     1       4.768   4.226  -4.408  1.00  0.00     0.049 A 
ATOM     16  N   UNL     1       5.900   6.494  -2.793  1.00  0.00    -0.248 NA
ATOM     17  C   UNL     1       5.419   5.298  -0.848  1.00  0.00     0.031 C 
ATOM     18  C   UNL     1       4.181   3.171  -5.238  1.00  0.00     0.029 A 
ATOM     19  N   UNL     1       5.221   5.149  -5.316  1.00  0.00    -0.354 N 
ATOM     20  C   UNL     1       6.255   7.257  -1.688  1.00  0.00     0.074 A 
ATOM     21  C   UNL     1       5.907   6.484  -0.514  1.00  0.00     0.031 C 
ATOM     22  C   UNL     1       4.307   3.506  -6.529  1.00  0.00     0.029 A 
ATOM     23  C   UNL     1       4.933   4.820  -6.619  1.00  0.00     0.049 A 
ATOM     24  H   UNL     1       5.705   5.967  -5.059  1.00  0.00     0.167 HD
ATOM     25  C   UNL     1       6.832   8.482  -1.654  1.00  0.00     0.034 A 
ATOM     26  C   UNL     1       5.121   5.509  -7.761  1.00  0.00     0.034 A 
ATOM     27  C   UNL     1       7.217   9.223  -2.825  1.00  0.00     0.049 A 
ATOM     28  C   UNL     1       5.787   6.852  -7.700  1.00  0.00     0.074 A 
ATOM     29  C   UNL     1       7.872  10.440  -2.896  1.00  0.00     0.029 A 
ATOM     30  N   UNL     1       6.979   8.821  -4.131  1.00  0.00    -0.354 N 
ATOM     31  N   UNL     1       6.227   7.502  -6.650  1.00  0.00    -0.248 NA
ATOM     32  C   UNL     1       6.010   7.544  -8.976  1.00  0.00     0.031 C 
ATOM     33  C   UNL     1       8.019  10.779  -4.246  1.00  0.00     0.029 A 
ATOM     34  C   UNL     1       7.468   9.767  -5.015  1.00  0.00     0.049 A 
ATOM     35  H   UNL     1       6.528   7.985  -4.391  1.00  0.00     0.167 HD
ATOM     36  C   UNL     1       6.805   8.667  -7.138  1.00  0.00     0.074 A 
ATOM     37  C   UNL     1       6.672   8.626  -8.581  1.00  0.00     0.031 C 
ATOM     38  C   UNL     1       7.381   9.683  -6.452  1.00  0.00     0.034 A 
BRANCH  25  39
ATOM     39  C   UNL     1       7.117   9.084  -0.304  1.00  0.00     0.023 A 
ATOM     40  C   UNL     1       8.188   8.588   0.467  1.00  0.00     0.012 A 
ATOM     41  C   UNL     1       6.362  10.169   0.181  1.00  0.00     0.148 A 
ATOM     42  C   UNL     1       8.482   9.141   1.713  1.00  0.00     0.002 A 
ATOM     43  C   UNL     1       6.685  10.740   1.409  1.00  0.00     0.091 A 
ATOM     44  F   UNL     1       5.329  10.613  -0.550  1.00  0.00    -0.205 F 
ATOM     45  C   UNL     1       7.738  10.222   2.179  1.00  0.00     0.022 A 
BRANCH  43  46
ATOM     46  S   UNL     1       5.819  12.180   2.045  1.00  0.00     0.127 S 
ATOM     47  O   UNL     1       4.856  11.568   2.957  1.00  0.00    -0.237 OA
ATOM     48  O   UNL     1       6.890  12.928   2.704  1.00  0.00    -0.237 OA
ATOM     49  O   UNL     1       5.256  12.843   0.876  1.00  0.00    -0.744 OA
ENDBRANCH  43  46
ENDBRANCH  25  39
BRANCH  26  50
ATOM     50  C   UNL     1       4.702   4.896  -9.052  1.00  0.00     0.023 A 
ATOM     51  C   UNL     1       5.683   4.412  -9.938  1.00  0.00     0.012 A 
ATOM     52  C   UNL     1       3.340   4.698  -9.355  1.00  0.00     0.148 A 
ATOM     53  C   UNL     1       5.314   3.750 -11.109  1.00  0.00     0.002 A 
ATOM     54  C   UNL     1       2.981   3.988 -10.494  1.00  0.00     0.091 A 
ATOM     55  F   UNL     1       2.424   5.176  -8.501  1.00  0.00    -0.205 F 
ATOM     56  C   UNL     1       3.966   3.524 -11.379  1.00  0.00     0.022 A 
BRANCH  54  57
ATOM     57  S   UNL     1       1.282   3.521 -10.842  1.00  0.00     0.127 S 
ATOM     58  O   UNL     1       0.972   4.360 -11.996  1.00  0.00    -0.237 OA
ATOM     59  O   UNL     1       1.416   2.093 -11.136  1.00  0.00    -0.237 OA
ATOM     60  O   UNL     1       0.535   3.815  -9.627  1.00  0.00    -0.744 OA
ENDBRANCH  54  57
ENDBRANCH  26  50
BRANCH  38  61
ATOM     61  C   UNL     1       7.947  10.830  -7.243  1.00  0.00     0.023 A 
ATOM     62  C   UNL     1       7.079  11.793  -7.792  1.00  0.00     0.012 A 
ATOM     63  C   UNL     1       9.340  11.006  -7.354  1.00  0.00     0.148 A 
ATOM     64  C   UNL     1       7.589  12.909  -8.454  1.00  0.00     0.002 A 
ATOM     65  C   UNL     1       9.842  12.141  -7.978  1.00  0.00     0.091 A 
ATOM     66  F   UNL     1      10.146  10.065  -6.842  1.00  0.00    -0.205 F 
ATOM     67  C   UNL     1       8.969  13.090  -8.535  1.00  0.00     0.022 A 
BRANCH  65  68
ATOM     68  S   UNL     1      11.601  12.501  -8.050  1.00  0.00     0.127 S 
ATOM     69  O   UNL     1      11.900  12.245  -9.458  1.00  0.00    -0.237 OA
ATOM     70  O   UNL     1      11.646  13.911  -7.663  1.00  0.00    -0.237 OA
ATOM     71  O   UNL     1      12.234  11.595  -7.101  1.00  0.00    -0.744 OA
ENDBRANCH  65  68
ENDBRANCH  38  61
ENDBRANCH  12  13
ENDBRANCH   5   7
ENDBRANCH   2   3
ENDBRANCH   1   2
BRANCH   1  72
ATOM     72  C   UNL     1       4.750  -1.853   2.990  1.00  0.00     0.118 C 
BRANCH  72  73
ATOM     73  N   UNL     1       5.288  -3.184   2.741  1.00  0.00    -0.352 N 
ATOM     74  C   UNL     1       6.084  -3.991   3.511  1.00  0.00     0.251 C 
ATOM     75  H   UNL     1       5.036  -3.570   1.872  1.00  0.00     0.163 HD
ATOM     76  O   UNL     1       6.581  -4.997   3.010  1.00  0.00    -0.269 OA
BRANCH  74  77
ATOM     77  C   UNL     1       6.324  -3.706   4.944  1.00  0.00     0.041 A 
ATOM     78  C   UNL     1       7.547  -4.074   5.515  1.00  0.00     0.014 A 
ATOM     79  C   UNL     1       5.311  -3.195   5.756  1.00  0.00     0.035 A 
ATOM     80  C   UNL     1       7.762  -3.903   6.885  1.00  0.00     0.002 A 
ATOM     81  C   UNL     1       5.519  -3.037   7.124  1.00  0.00     0.083 A 
ATOM     82  C   UNL     1       6.746  -3.387   7.694  1.00  0.00     0.022 A 
BRANCH  81  83
ATOM     83  S   UNL     1       4.224  -2.427   8.173  1.00  0.00     0.240 S 
ATOM     84  O   UNL     1       4.142  -3.288   9.330  1.00  0.00    -0.207 OA
ATOM     85  O   UNL     1       4.446  -1.004   8.302  1.00  0.00    -0.207 OA
BRANCH  83  86
ATOM     86  N   UNL     1       2.805  -2.576   7.305  1.00  0.00    -0.211 NA
ATOM     87  H   UNL     1       2.927  -1.959   6.502  1.00  0.00     0.141 HD
BRANCH  86  88
ATOM     88  C   UNL     1       2.212  -3.796   6.749  1.00  0.00     0.105 C 
BRANCH  88  89
ATOM     89  C   UNL     1       1.984  -4.940   7.736  1.00  0.00     0.032 C 
ATOM     90  C   UNL     1       3.183  -5.855   7.921  1.00  0.00     0.036 C 
ATOM     91  C   UNL     1       1.001  -5.938   7.127  1.00  0.00     0.165 C 
ATOM     92  C   UNL     1       3.135  -6.763   6.710  1.00  0.00     0.160 C 
ATOM     93  O   UNL     1       1.768  -6.808   6.282  1.00  0.00    -0.381 OA
ENDBRANCH  88  89
ENDBRANCH  86  88
ENDBRANCH  83  86
ENDBRANCH  81  83
ENDBRANCH  74  77
ENDBRANCH  72  73
ENDBRANCH   1  72
TORSDOF 17
