REMARK SMILES O=C(NCc1ccc(C(=O)NCCCNC(=O)c2ccc(-c3c4nc(c(-c5cccc(S(=O)(=O)[O-])c5F)c5ccc([nH]5)c(-c5cccc(S(=O)(=O)[O-])c5F)c5nc(c(-c6cccc(S(=O)(=O)[O-])c6F)c6ccc3[nH]6)C=C5)C=C4)cc2)cc1)Nc1ccccc1Br
REMARK SMILES IDX 13 1 12 2 11 3 9 4 10 5 8 7 5 8 6 9 82 10 7 11 81 12 4 13
REMARK SMILES IDX 3 14 1 15 2 16 83 17 84 20 85 21 89 22 86 23 88 24 90 25
REMARK SMILES IDX 87 26 14 27 15 28 16 29 17 31 18 32 19 33 80 34 20 35 79 36
REMARK SMILES IDX 21 37 22 38 23 39 73 40 24 41 78 42 72 43 74 44 25 45 77 46
REMARK SMILES IDX 71 47 70 48 26 50 58 51 38 52 57 53 39 54 42 55 56 56 75 57
REMARK SMILES IDX 40 58 41 59 55 61 76 62 43 63 27 64 28 65 36 66 29 67 31 68
REMARK SMILES IDX 37 69 30 70 32 71 33 72 34 73 35 74 59 75 60 76 68 77 61 78
REMARK SMILES IDX 63 79 69 80 62 81 64 82 65 83 66 84 67 85 44 86 45 87 53 88
REMARK SMILES IDX 46 89 48 90 54 91 47 92 49 93 50 94 51 95 52 96
REMARK H PARENT 11 6 3 18 83 19 15 30 74 49 42 60
REMARK Flexibility Score: inf
ROOT
ATOM      1  C   UNL     1       7.253  -5.083   4.121  1.00  0.00     0.042 C 
ENDROOT
BRANCH   1   2
ATOM      2  C   UNL     1       7.667  -5.294   2.665  1.00  0.00     0.118 C 
BRANCH   2   3
ATOM      3  N   UNL     1       6.755  -6.189   1.975  1.00  0.00    -0.352 N 
ATOM      4  C   UNL     1       5.777  -5.958   1.042  1.00  0.00     0.251 C 
ATOM      5  O   UNL     1       5.234  -6.936   0.525  1.00  0.00    -0.269 OA
ATOM      6  H   UNL     1       6.858  -7.136   2.223  1.00  0.00     0.163 HD
BRANCH   4   7
ATOM      7  C   UNL     1       5.397  -4.595   0.583  1.00  0.00     0.039 A 
ATOM      8  C   UNL     1       4.672  -2.075  -0.462  1.00  0.00    -0.029 A 
ATOM      9  C   UNL     1       4.608  -3.221  -1.264  1.00  0.00     0.006 A 
ATOM     10  C   UNL     1       5.040  -2.212   0.882  1.00  0.00     0.006 A 
ATOM     11  C   UNL     1       4.969  -4.467  -0.746  1.00  0.00     0.014 A 
ATOM     12  C   UNL     1       5.385  -3.465   1.403  1.00  0.00     0.014 A 
BRANCH   8  13
ATOM     13  C   UNL     1       4.322  -0.726  -1.027  1.00  0.00     0.153 C 
BRANCH  13  14
ATOM     14  N   UNL     1       2.897  -0.491  -1.005  1.00  0.00    -0.334 N 
ATOM     15  O   UNL     1       0.926   0.320  -0.401  1.00  0.00    -0.248 OA
ATOM     16  C   UNL     1       2.139   0.313  -0.214  1.00  0.00     0.319 C 
ATOM     17  N   UNL     1       2.813   1.100   0.675  1.00  0.00    -0.307 N 
ATOM     18  H   UNL     1       2.389  -1.000  -1.677  1.00  0.00     0.165 HD
ATOM     19  H   UNL     1       3.791   1.147   0.579  1.00  0.00     0.171 HD
BRANCH  17  20
ATOM     20  C   UNL     1       2.232   1.855   1.722  1.00  0.00     0.057 A 
ATOM     21  C   UNL     1       2.828   3.104   1.966  1.00  0.00     0.027 A 
ATOM     22  C   UNL     1       1.161   1.451   2.539  1.00  0.00     0.041 A 
ATOM     23  C   UNL     1       2.324   3.967   2.942  1.00  0.00     0.002 A 
ATOM     24  C   UNL     1       0.658   2.325   3.514  1.00  0.00     0.018 A 
ATOM     25  Br  UNL     1       0.464  -0.320   2.584  1.00  0.00    -0.049 Br
ATOM     26  C   UNL     1       1.228   3.583   3.705  1.00  0.00     0.001 A 
ENDBRANCH  17  20
ENDBRANCH  13  14
ENDBRANCH   8  13
ENDBRANCH   4   7
ENDBRANCH   2   3
ENDBRANCH   1   2
BRANCH   1  27
ATOM     27  C   UNL     1       7.490  -6.303   5.010  1.00  0.00     0.118 C 
BRANCH  27  28
ATOM     28  N   UNL     1       8.908  -6.560   5.223  1.00  0.00    -0.352 N 
ATOM     29  C   UNL     1       9.620  -6.652   6.393  1.00  0.00     0.251 C 
ATOM     30  H   UNL     1       9.436  -6.686   4.402  1.00  0.00     0.163 HD
ATOM     31  O   UNL     1      10.848  -6.661   6.347  1.00  0.00    -0.269 OA
BRANCH  29  32
ATOM     32  C   UNL     1       8.930  -6.735   7.700  1.00  0.00     0.039 A 
ATOM     33  C   UNL     1       9.462  -6.034   8.788  1.00  0.00     0.014 A 
ATOM     34  C   UNL     1       7.798  -7.535   7.876  1.00  0.00     0.014 A 
ATOM     35  C   UNL     1       8.834  -6.098  10.035  1.00  0.00     0.010 A 
ATOM     36  C   UNL     1       7.136  -7.548   9.103  1.00  0.00     0.010 A 
ATOM     37  C   UNL     1       7.652  -6.838  10.198  1.00  0.00    -0.014 A 
BRANCH  37  38
ATOM     38  C   UNL     1       6.939  -6.877  11.500  1.00  0.00     0.031 A 
ATOM     39  C   UNL     1       6.802  -8.172  12.255  1.00  0.00     0.074 A 
ATOM     40  C   UNL     1       6.334  -5.763  11.958  1.00  0.00     0.049 A 
ATOM     41  N   UNL     1       6.162  -8.413  13.370  1.00  0.00    -0.248 NA
ATOM     42  C   UNL     1       7.447  -9.358  11.668  1.00  0.00     0.031 C 
ATOM     43  C   UNL     1       6.326  -4.466  11.278  1.00  0.00     0.029 A 
ATOM     44  N   UNL     1       5.584  -5.550  13.088  1.00  0.00    -0.354 N 
ATOM     45  C   UNL     1       6.292  -9.778  13.598  1.00  0.00     0.074 A 
ATOM     46  C   UNL     1       7.051 -10.319  12.491  1.00  0.00     0.031 C 
ATOM     47  C   UNL     1       5.603  -3.595  12.000  1.00  0.00     0.029 A 
ATOM     48  C   UNL     1       5.077  -4.274  13.180  1.00  0.00     0.049 A 
ATOM     49  H   UNL     1       5.423  -6.244  13.767  1.00  0.00     0.167 HD
ATOM     50  C   UNL     1       5.846 -10.510  14.646  1.00  0.00     0.034 A 
ATOM     51  C   UNL     1       4.274  -3.715  14.107  1.00  0.00     0.034 A 
ATOM     52  C   UNL     1       5.139  -9.960  15.771  1.00  0.00     0.049 A 
ATOM     53  C   UNL     1       3.843  -4.537  15.291  1.00  0.00     0.074 A 
ATOM     54  C   UNL     1       4.730 -10.600  16.927  1.00  0.00     0.029 A 
ATOM     55  N   UNL     1       4.733  -8.639  15.880  1.00  0.00    -0.354 N 
ATOM     56  N   UNL     1       4.119  -5.788  15.571  1.00  0.00    -0.248 NA
ATOM     57  C   UNL     1       3.023  -3.861  16.307  1.00  0.00     0.031 C 
ATOM     58  C   UNL     1       4.064  -9.667  17.731  1.00  0.00     0.029 A 
ATOM     59  C   UNL     1       4.074  -8.443  17.082  1.00  0.00     0.049 A 
ATOM     60  H   UNL     1       4.890  -7.942  15.203  1.00  0.00     0.167 HD
ATOM     61  C   UNL     1       3.537  -6.039  16.808  1.00  0.00     0.074 A 
ATOM     62  C   UNL     1       2.911  -4.804  17.234  1.00  0.00     0.031 C 
ATOM     63  C   UNL     1       3.507  -7.194  17.519  1.00  0.00     0.034 A 
BRANCH  50  64
ATOM     64  C   UNL     1       6.165 -11.983  14.659  1.00  0.00     0.023 A 
ATOM     65  C   UNL     1       7.488 -12.401  14.912  1.00  0.00     0.012 A 
ATOM     66  C   UNL     1       5.156 -12.951  14.487  1.00  0.00     0.148 A 
ATOM     67  C   UNL     1       7.809 -13.757  14.961  1.00  0.00     0.002 A 
ATOM     68  C   UNL     1       5.476 -14.301  14.578  1.00  0.00     0.091 A 
ATOM     69  F   UNL     1       3.909 -12.536  14.226  1.00  0.00    -0.205 F 
ATOM     70  C   UNL     1       6.802 -14.706  14.804  1.00  0.00     0.022 A 
BRANCH  68  71
ATOM     71  S   UNL     1       4.239 -15.599  14.466  1.00  0.00     0.127 S 
ATOM     72  O   UNL     1       4.521 -16.163  13.147  1.00  0.00    -0.237 OA
ATOM     73  O   UNL     1       4.598 -16.467  15.589  1.00  0.00    -0.237 OA
ATOM     74  O   UNL     1       2.950 -14.936  14.603  1.00  0.00    -0.744 OA
ENDBRANCH  68  71
ENDBRANCH  50  64
BRANCH  51  75
ATOM     75  C   UNL     1       3.894  -2.279  13.989  1.00  0.00     0.023 A 
ATOM     76  C   UNL     1       4.451  -1.345  14.884  1.00  0.00     0.012 A 
ATOM     77  C   UNL     1       3.025  -1.827  12.977  1.00  0.00     0.148 A 
ATOM     78  C   UNL     1       4.128   0.009  14.792  1.00  0.00     0.002 A 
ATOM     79  C   UNL     1       2.749  -0.469  12.857  1.00  0.00     0.091 A 
ATOM     80  F   UNL     1       2.494  -2.732  12.144  1.00  0.00    -0.205 F 
ATOM     81  C   UNL     1       3.286   0.449  13.773  1.00  0.00     0.022 A 
BRANCH  79  82
ATOM     82  S   UNL     1       1.789   0.199  11.494  1.00  0.00     0.127 S 
ATOM     83  O   UNL     1       0.530   0.535  12.150  1.00  0.00    -0.237 OA
ATOM     84  O   UNL     1       2.598   1.349  11.086  1.00  0.00    -0.237 OA
ATOM     85  O   UNL     1       1.728  -0.867  10.502  1.00  0.00    -0.744 OA
ENDBRANCH  79  82
ENDBRANCH  51  75
BRANCH  63  86
ATOM     86  C   UNL     1       2.801  -7.177  18.849  1.00  0.00     0.023 A 
ATOM     87  C   UNL     1       1.393  -7.142  18.890  1.00  0.00     0.012 A 
ATOM     88  C   UNL     1       3.527  -7.277  20.052  1.00  0.00     0.148 A 
ATOM     89  C   UNL     1       0.720  -7.177  20.111  1.00  0.00     0.002 A 
ATOM     90  C   UNL     1       2.847  -7.357  21.262  1.00  0.00     0.091 A 
ATOM     91  F   UNL     1       4.867  -7.288  19.993  1.00  0.00    -0.205 F 
ATOM     92  C   UNL     1       1.445  -7.298  21.294  1.00  0.00     0.022 A 
BRANCH  90  93
ATOM     93  S   UNL     1       3.698  -7.607  22.825  1.00  0.00     0.127 S 
ATOM     94  O   UNL     1       3.622  -6.275  23.422  1.00  0.00    -0.237 OA
ATOM     95  O   UNL     1       2.863  -8.617  23.478  1.00  0.00    -0.237 OA
ATOM     96  O   UNL     1       5.037  -8.066  22.481  1.00  0.00    -0.744 OA
ENDBRANCH  90  93
ENDBRANCH  63  86
ENDBRANCH  37  38
ENDBRANCH  29  32
ENDBRANCH  27  28
ENDBRANCH   1  27
TORSDOF 16
