REMARK SMILES CCc1cc(OC(F)(F)F)cc2c1O[C@@H](C(F)(F)F)C(C(=O)NCCCNC(=O)c1ccc(-c3c4nc(c(-c5cccc(S(=O)(=O)[O-])c5F)c5ccc([nH]5)c(-c5cccc(S(=O)(=O)[O-])c5F)c5nc(c(-c6cccc(S(=O)(=O)[O-])c6F)c6ccc3[nH]6)C=C5)C=C4)cc1)=C2
REMARK SMILES IDX 25 1 24 2 23 3 21 4 22 5 20 7 3 8 4 9 13 10 5 11 12 12 14 13
REMARK SMILES IDX 11 14 93 15 15 16 2 17 1 18 6 19 7 20 8 21 9 22 10 23 16 24
REMARK SMILES IDX 17 25 18 26 19 27 26 28 27 29 28 30 29 32 30 33 31 34 92 35
REMARK SMILES IDX 32 36 91 37 33 38 34 39 35 40 85 41 36 42 90 43 84 44 86 45
REMARK SMILES IDX 37 46 89 47 83 48 82 49 38 51 70 52 50 53 69 54 51 55 54 56
REMARK SMILES IDX 68 57 87 58 52 59 53 60 67 62 88 63 55 64 39 65 40 66 48 67
REMARK SMILES IDX 41 68 43 69 49 70 42 71 44 72 45 73 46 74 47 75 71 76 72 77
REMARK SMILES IDX 80 78 73 79 75 80 81 81 74 82 76 83 77 84 78 85 79 86 56 87
REMARK SMILES IDX 57 88 65 89 58 90 60 91 66 92 59 93 61 94 62 95 63 96 64 97
REMARK H PARENT 23 6 27 31 86 50 54 61
REMARK Flexibility Score: inf
ROOT
ATOM      1  C   UNL     1       1.429   4.982   7.100  1.00  0.00     0.042 C 
ENDROOT
BRANCH   1   2
ATOM      2  C   UNL     1       0.153   4.802   6.273  1.00  0.00     0.118 C 
BRANCH   2   3
ATOM      3  N   UNL     1       0.280   5.460   4.983  1.00  0.00    -0.352 N 
ATOM      4  C   UNL     1       0.664   5.022   3.757  1.00  0.00     0.251 C 
ATOM      5  O   UNL     1       0.793   5.855   2.863  1.00  0.00    -0.270 OA
ATOM      6  H   UNL     1       0.039   6.415   5.002  1.00  0.00     0.163 HD
BRANCH   4   7
ATOM      7  C   UNL     1       0.850   3.584   3.437  1.00  0.00     0.067 C 
ATOM      8  C   UNL     1       1.009  -0.469   2.337  1.00  0.00    -0.002 A 
ATOM      9  C   UNL     1       1.577  -1.395   3.234  1.00  0.00     0.054 A 
ATOM     10  C   UNL     1       0.947   0.880   2.711  1.00  0.00     0.131 A 
ATOM     11  C   UNL     1       2.084  -0.981   4.468  1.00  0.00     0.130 A 
ATOM     12  C   UNL     1       1.491   1.310   3.921  1.00  0.00     0.021 A 
ATOM     13  O   UNL     1       0.252   1.733   1.901  1.00  0.00    -0.475 OA
ATOM     14  C   UNL     1       2.058   0.377   4.794  1.00  0.00     0.058 A 
ATOM     15  C   UNL     1       1.384   2.710   4.303  1.00  0.00     0.025 C 
ATOM     16  C   UNL     1       0.563   3.153   2.004  1.00  0.00     0.314 C 
BRANCH   8  17
ATOM     17  C   UNL     1       0.456  -0.957   1.015  1.00  0.00     0.036 C 
ATOM     18  C   UNL     1       1.104  -0.302  -0.200  1.00  0.00     0.009 C 
ENDBRANCH   8  17
BRANCH  11  19
ATOM     19  O   UNL     1       2.614  -1.778   5.442  1.00  0.00    -0.406 OA
BRANCH  19  20
ATOM     20  C   UNL     1       2.605  -3.179   5.235  1.00  0.00     0.573 C 
ATOM     21  F   UNL     1       1.348  -3.636   5.036  1.00  0.00    -0.132 F 
ATOM     22  F   UNL     1       3.375  -3.518   4.179  1.00  0.00    -0.132 F 
ATOM     23  F   UNL     1       3.099  -3.789   6.334  1.00  0.00    -0.132 F 
ENDBRANCH  19  20
ENDBRANCH  11  19
BRANCH  16  24
ATOM     24  C   UNL     1      -0.555   3.901   1.243  1.00  0.00     0.429 C 
ATOM     25  F   UNL     1      -0.134   5.055   0.680  1.00  0.00    -0.167 F 
ATOM     26  F   UNL     1      -1.015   3.147   0.204  1.00  0.00    -0.167 F 
ATOM     27  F   UNL     1      -1.626   4.170   2.025  1.00  0.00    -0.167 F 
ENDBRANCH  16  24
ENDBRANCH   4   7
ENDBRANCH   2   3
ENDBRANCH   1   2
BRANCH   1  28
ATOM     28  C   UNL     1       1.602   6.399   7.644  1.00  0.00     0.118 C 
BRANCH  28  29
ATOM     29  N   UNL     1       0.616   6.704   8.670  1.00  0.00    -0.352 N 
ATOM     30  C   UNL     1       0.798   7.084   9.975  1.00  0.00     0.251 C 
ATOM     31  H   UNL     1      -0.323   6.626   8.384  1.00  0.00     0.163 HD
ATOM     32  O   UNL     1      -0.157   7.053  10.747  1.00  0.00    -0.269 OA
BRANCH  30  33
ATOM     33  C   UNL     1       2.125   7.529  10.456  1.00  0.00     0.039 A 
ATOM     34  C   UNL     1       2.542   7.142  11.733  1.00  0.00     0.014 A 
ATOM     35  C   UNL     1       2.931   8.368   9.682  1.00  0.00     0.014 A 
ATOM     36  C   UNL     1       3.783   7.566  12.218  1.00  0.00     0.010 A 
ATOM     37  C   UNL     1       4.196   8.733  10.139  1.00  0.00     0.010 A 
ATOM     38  C   UNL     1       4.628   8.349  11.416  1.00  0.00    -0.014 A 
BRANCH  38  39
ATOM     39  C   UNL     1       5.967   8.778  11.897  1.00  0.00     0.031 A 
ATOM     40  C   UNL     1       6.274  10.239  12.086  1.00  0.00     0.074 A 
ATOM     41  C   UNL     1       6.933   7.856  12.078  1.00  0.00     0.049 A 
ATOM     42  N   UNL     1       7.399  10.807  12.434  1.00  0.00    -0.248 NA
ATOM     43  C   UNL     1       5.181  11.191  11.820  1.00  0.00     0.031 C 
ATOM     44  C   UNL     1       6.781   6.417  11.850  1.00  0.00     0.029 A 
ATOM     45  N   UNL     1       8.242   7.994  12.465  1.00  0.00    -0.354 N 
ATOM     46  C   UNL     1       7.165  12.176  12.390  1.00  0.00     0.074 A 
ATOM     47  C   UNL     1       5.798  12.357  11.954  1.00  0.00     0.031 C 
ATOM     48  C   UNL     1       7.951   5.807  12.097  1.00  0.00     0.029 A 
ATOM     49  C   UNL     1       8.941   6.810  12.475  1.00  0.00     0.049 A 
ATOM     50  H   UNL     1       8.643   8.859  12.712  1.00  0.00     0.167 HD
ATOM     51  C   UNL     1       8.003  13.191  12.709  1.00  0.00     0.034 A 
ATOM     52  C   UNL     1      10.237   6.560  12.750  1.00  0.00     0.034 A 
ATOM     53  C   UNL     1       9.345  13.005  13.192  1.00  0.00     0.049 A 
ATOM     54  C   UNL     1      11.129   7.699  13.160  1.00  0.00     0.074 A 
ATOM     55  C   UNL     1      10.240  13.961  13.637  1.00  0.00     0.029 A 
ATOM     56  N   UNL     1       9.987  11.780  13.290  1.00  0.00    -0.354 N 
ATOM     57  N   UNL     1      10.840   8.973  13.272  1.00  0.00    -0.248 NA
ATOM     58  C   UNL     1      12.514   7.363  13.522  1.00  0.00     0.031 C 
ATOM     59  C   UNL     1      11.431  13.316  13.986  1.00  0.00     0.029 A 
ATOM     60  C   UNL     1      11.270  11.956  13.781  1.00  0.00     0.049 A 
ATOM     61  H   UNL     1       9.590  10.913  13.046  1.00  0.00     0.167 HD
ATOM     62  C   UNL     1      11.993   9.585  13.749  1.00  0.00     0.074 A 
ATOM     63  C   UNL     1      12.979   8.538  13.926  1.00  0.00     0.031 C 
ATOM     64  C   UNL     1      12.221  10.897  14.004  1.00  0.00     0.034 A 
BRANCH  51  65
ATOM     65  C   UNL     1       7.476  14.599  12.600  1.00  0.00     0.023 A 
ATOM     66  C   UNL     1       6.523  15.059  13.532  1.00  0.00     0.012 A 
ATOM     67  C   UNL     1       7.966  15.485  11.621  1.00  0.00     0.148 A 
ATOM     68  C   UNL     1       6.040  16.365  13.470  1.00  0.00     0.002 A 
ATOM     69  C   UNL     1       7.513  16.800  11.593  1.00  0.00     0.091 A 
ATOM     70  F   UNL     1       8.857  15.026  10.730  1.00  0.00    -0.205 F 
ATOM     71  C   UNL     1       6.542  17.237  12.509  1.00  0.00     0.022 A 
BRANCH  69  72
ATOM     72  S   UNL     1       8.156  18.023  10.445  1.00  0.00     0.127 S 
ATOM     73  O   UNL     1       7.023  18.200   9.538  1.00  0.00    -0.237 OA
ATOM     74  O   UNL     1       8.416  19.163  11.324  1.00  0.00    -0.237 OA
ATOM     75  O   UNL     1       9.346  17.430   9.852  1.00  0.00    -0.744 OA
ENDBRANCH  69  72
ENDBRANCH  51  65
BRANCH  52  76
ATOM     76  C   UNL     1      10.745   5.159  12.714  1.00  0.00     0.023 A 
ATOM     77  C   UNL     1      11.071   4.511  13.921  1.00  0.00     0.012 A 
ATOM     78  C   UNL     1      10.867   4.454  11.501  1.00  0.00     0.148 A 
ATOM     79  C   UNL     1      11.539   3.197  13.920  1.00  0.00     0.002 A 
ATOM     80  C   UNL     1      11.280   3.126  11.511  1.00  0.00     0.091 A 
ATOM     81  F   UNL     1      10.562   5.091  10.362  1.00  0.00    -0.205 F 
ATOM     82  C   UNL     1      11.633   2.501  12.717  1.00  0.00     0.022 A 
BRANCH  80  83
ATOM     83  S   UNL     1      11.297   2.113  10.028  1.00  0.00     0.127 S 
ATOM     84  O   UNL     1      12.728   1.975   9.776  1.00  0.00    -0.237 OA
ATOM     85  O   UNL     1      10.630   0.894  10.486  1.00  0.00    -0.237 OA
ATOM     86  O   UNL     1      10.546   2.866   9.031  1.00  0.00    -0.744 OA
ENDBRANCH  80  83
ENDBRANCH  52  76
BRANCH  64  87
ATOM     87  C   UNL     1      13.576  11.281  14.536  1.00  0.00     0.023 A 
ATOM     88  C   UNL     1      14.695  11.265  13.681  1.00  0.00     0.012 A 
ATOM     89  C   UNL     1      13.725  11.733  15.863  1.00  0.00     0.148 A 
ATOM     90  C   UNL     1      15.948  11.664  14.146  1.00  0.00     0.002 A 
ATOM     91  C   UNL     1      14.966  12.175  16.305  1.00  0.00     0.091 A 
ATOM     92  F   UNL     1      12.652  11.722  16.667  1.00  0.00    -0.205 F 
ATOM     93  C   UNL     1      16.081  12.130  15.452  1.00  0.00     0.022 A 
BRANCH  91  94
ATOM     94  S   UNL     1      15.207  12.881  17.939  1.00  0.00     0.127 S 
ATOM     95  O   UNL     1      15.915  11.804  18.628  1.00  0.00    -0.237 OA
ATOM     96  O   UNL     1      16.024  14.061  17.651  1.00  0.00    -0.237 OA
ATOM     97  O   UNL     1      13.875  13.181  18.446  1.00  0.00    -0.744 OA
ENDBRANCH  91  94
ENDBRANCH  64  87
ENDBRANCH  38  39
ENDBRANCH  30  33
ENDBRANCH  28  29
ENDBRANCH   1  28
TORSDOF 17
