REMARK SMILES Cc1cnc2nc(-c3cc(F)c(F)cc3C(=O)NCCCNC(=O)c3ccc(-c4c5nc(c(-c6cccc(S(=O)(=O)[O-])c6F)c6ccc([nH]6)c(-c6cccc(S(=O)(=O)[O-])c6F)c6nc(c(-c7cccc(S(=O)(=O)[O-])c7F)c7ccc4[nH]7)C=C6)C=C5)cc3)[nH]c2c1
REMARK SMILES IDX 21 1 20 2 19 3 18 4 16 5 17 6 15 8 8 9 9 10 10 11 14 12
REMARK SMILES IDX 11 13 12 14 13 15 7 16 1 17 2 18 3 19 90 20 4 21 89 22 5 23
REMARK SMILES IDX 88 24 6 25 22 27 23 28 24 30 25 31 26 32 87 33 27 34 86 35
REMARK SMILES IDX 28 36 29 37 30 38 80 39 31 40 85 41 79 42 81 43 32 44 84 45
REMARK SMILES IDX 78 46 77 47 33 49 65 50 45 51 64 52 46 53 49 54 63 55 82 56
REMARK SMILES IDX 47 57 48 58 62 60 83 61 50 62 34 63 35 64 43 65 36 66 38 67
REMARK SMILES IDX 44 68 37 69 39 70 40 71 41 72 42 73 66 74 67 75 75 76 68 77
REMARK SMILES IDX 70 78 76 79 69 80 71 81 72 82 73 83 74 84 51 85 52 86 60 87
REMARK SMILES IDX 53 88 55 89 61 90 54 91 56 92 57 93 58 94 59 95
REMARK H PARENT 18 7 88 26 22 29 81 48 49 59
REMARK Flexibility Score: inf
ROOT
ATOM      1  C   UNL     1      -0.188   3.276   3.003  1.00  0.00     0.118 C 
ENDROOT
BRANCH   1   2
ATOM      2  C   UNL     1       0.487   4.554   2.533  1.00  0.00     0.042 C 
BRANCH   2   3
ATOM      3  C   UNL     1      -0.519   5.438   1.810  1.00  0.00     0.118 C 
BRANCH   3   4
ATOM      4  N   UNL     1      -0.517   6.814   2.227  1.00  0.00    -0.352 N 
ATOM      5  C   UNL     1      -0.683   7.896   1.397  1.00  0.00     0.252 C 
ATOM      6  O   UNL     1      -1.578   8.696   1.677  1.00  0.00    -0.269 OA
ATOM      7  H   UNL     1      -0.386   6.995   3.185  1.00  0.00     0.163 HD
BRANCH   5   8
ATOM      8  C   UNL     1       0.344   8.329   0.396  1.00  0.00     0.053 A 
ATOM      9  C   UNL     1       0.917   7.649  -0.707  1.00  0.00     0.033 A 
ATOM     10  C   UNL     1       1.798   8.357  -1.558  1.00  0.00     0.055 A 
ATOM     11  C   UNL     1       2.120   9.687  -1.322  1.00  0.00     0.159 A 
ATOM     12  C   UNL     1       0.709   9.684   0.613  1.00  0.00     0.057 A 
ATOM     13  F   UNL     1       2.959  10.317  -2.155  1.00  0.00    -0.204 F 
ATOM     14  C   UNL     1       1.585  10.347  -0.235  1.00  0.00     0.159 A 
ATOM     15  F   UNL     1       1.897  11.628   0.001  1.00  0.00    -0.204 F 
BRANCH   9  16
ATOM     16  C   UNL     1       0.723   6.249  -1.075  1.00  0.00     0.141 A 
ATOM     17  C   UNL     1       1.048   0.374  -0.512  1.00  0.00     0.046 C 
ATOM     18  C   UNL     1       0.736   1.764  -0.987  1.00  0.00    -0.031 A 
ATOM     19  C   UNL     1      -0.548   2.090  -1.440  1.00  0.00     0.117 A 
ATOM     20  C   UNL     1       1.674   2.789  -0.839  1.00  0.00     0.035 A 
ATOM     21  N   UNL     1      -0.995   3.334  -1.742  1.00  0.00    -0.235 NA
ATOM     22  C   UNL     1       1.203   4.072  -1.108  1.00  0.00     0.085 A 
ATOM     23  C   UNL     1      -0.092   4.318  -1.542  1.00  0.00     0.178 A 
ATOM     24  N   UNL     1       1.740   5.320  -0.940  1.00  0.00    -0.337 N 
ATOM     25  N   UNL     1      -0.357   5.669  -1.566  1.00  0.00    -0.209 NA
ATOM     26  H   UNL     1       2.685   5.522  -0.754  1.00  0.00     0.168 HD
ENDBRANCH   9  16
ENDBRANCH   5   8
ENDBRANCH   3   4
ENDBRANCH   2   3
ENDBRANCH   1   2
BRANCH   1  27
ATOM     27  N   UNL     1      -0.841   2.511   1.931  1.00  0.00    -0.352 N 
ATOM     28  C   UNL     1      -1.638   1.380   2.053  1.00  0.00     0.251 C 
ATOM     29  H   UNL     1      -0.696   2.841   1.015  1.00  0.00     0.163 HD
ATOM     30  O   UNL     1      -1.960   0.690   1.105  1.00  0.00    -0.269 OA
BRANCH  28  31
ATOM     31  C   UNL     1      -2.066   1.043   3.419  1.00  0.00     0.039 A 
ATOM     32  C   UNL     1      -1.574  -0.104   4.042  1.00  0.00     0.014 A 
ATOM     33  C   UNL     1      -2.662   2.072   4.134  1.00  0.00     0.014 A 
ATOM     34  C   UNL     1      -1.525  -0.130   5.433  1.00  0.00     0.010 A 
ATOM     35  C   UNL     1      -2.438   2.112   5.489  1.00  0.00     0.010 A 
ATOM     36  C   UNL     1      -1.885   1.015   6.160  1.00  0.00    -0.014 A 
BRANCH  36  37
ATOM     37  C   UNL     1      -1.559   1.125   7.587  1.00  0.00     0.031 A 
ATOM     38  C   UNL     1      -0.182   0.718   8.021  1.00  0.00     0.074 A 
ATOM     39  C   UNL     1      -2.334   1.783   8.477  1.00  0.00     0.049 A 
ATOM     40  N   UNL     1       0.140  -0.241   8.829  1.00  0.00    -0.248 NA
ATOM     41  C   UNL     1       0.976   1.434   7.465  1.00  0.00     0.031 C 
ATOM     42  C   UNL     1      -3.559   2.555   8.228  1.00  0.00     0.029 A 
ATOM     43  N   UNL     1      -2.086   2.031   9.792  1.00  0.00    -0.354 N 
ATOM     44  C   UNL     1       1.518  -0.138   9.037  1.00  0.00     0.074 A 
ATOM     45  C   UNL     1       1.996   0.822   8.074  1.00  0.00     0.031 C 
ATOM     46  C   UNL     1      -3.765   3.410   9.250  1.00  0.00     0.029 A 
ATOM     47  C   UNL     1      -2.842   3.071  10.310  1.00  0.00     0.049 A 
ATOM     48  H   UNL     1      -1.433   1.521  10.324  1.00  0.00     0.167 HD
ATOM     49  C   UNL     1       2.137  -0.713  10.107  1.00  0.00     0.034 A 
ATOM     50  C   UNL     1      -2.727   3.624  11.534  1.00  0.00     0.034 A 
ATOM     51  C   UNL     1       1.261  -1.610  10.812  1.00  0.00     0.049 A 
ATOM     52  C   UNL     1      -2.095   2.617  12.409  1.00  0.00     0.074 A 
ATOM     53  C   UNL     1       0.616  -2.796  10.541  1.00  0.00     0.029 A 
ATOM     54  N   UNL     1       0.689  -1.107  11.953  1.00  0.00    -0.354 N 
ATOM     55  N   UNL     1      -2.648   1.476  12.716  1.00  0.00    -0.248 NA
ATOM     56  C   UNL     1      -0.680   2.731  12.722  1.00  0.00     0.031 C 
ATOM     57  C   UNL     1      -0.594  -2.741  11.295  1.00  0.00     0.029 A 
ATOM     58  C   UNL     1      -0.611  -1.533  11.998  1.00  0.00     0.049 A 
ATOM     59  H   UNL     1       1.135  -0.539  12.622  1.00  0.00     0.167 HD
ATOM     60  C   UNL     1      -1.583   0.599  12.844  1.00  0.00     0.074 A 
ATOM     61  C   UNL     1      -0.417   1.456  13.023  1.00  0.00     0.031 C 
ATOM     62  C   UNL     1      -1.704  -0.717  12.495  1.00  0.00     0.034 A 
BRANCH  49  63
ATOM     63  C   UNL     1       3.437  -0.271  10.748  1.00  0.00     0.023 A 
ATOM     64  C   UNL     1       4.032  -1.141  11.695  1.00  0.00     0.012 A 
ATOM     65  C   UNL     1       3.962   1.035  10.670  1.00  0.00     0.148 A 
ATOM     66  C   UNL     1       5.074  -0.726  12.534  1.00  0.00     0.002 A 
ATOM     67  C   UNL     1       5.056   1.416  11.446  1.00  0.00     0.091 A 
ATOM     68  F   UNL     1       3.329   1.964   9.946  1.00  0.00    -0.205 F 
ATOM     69  C   UNL     1       5.598   0.551  12.399  1.00  0.00     0.022 A 
BRANCH  67  70
ATOM     70  S   UNL     1       5.826   3.026  11.237  1.00  0.00     0.127 S 
ATOM     71  O   UNL     1       5.237   3.782  12.338  1.00  0.00    -0.237 OA
ATOM     72  O   UNL     1       7.247   2.710  11.393  1.00  0.00    -0.237 OA
ATOM     73  O   UNL     1       5.457   3.443   9.889  1.00  0.00    -0.744 OA
ENDBRANCH  67  70
ENDBRANCH  49  63
BRANCH  50  74
ATOM     74  C   UNL     1      -2.997   5.010  11.957  1.00  0.00     0.023 A 
ATOM     75  C   UNL     1      -3.338   5.274  13.294  1.00  0.00     0.012 A 
ATOM     76  C   UNL     1      -2.663   6.096  11.115  1.00  0.00     0.148 A 
ATOM     77  C   UNL     1      -3.306   6.579  13.795  1.00  0.00     0.002 A 
ATOM     78  C   UNL     1      -2.631   7.391  11.619  1.00  0.00     0.091 A 
ATOM     79  F   UNL     1      -2.288   5.843   9.853  1.00  0.00    -0.205 F 
ATOM     80  C   UNL     1      -2.941   7.635  12.963  1.00  0.00     0.022 A 
BRANCH  78  81
ATOM     81  S   UNL     1      -2.137   8.798  10.613  1.00  0.00     0.127 S 
ATOM     82  O   UNL     1      -3.135   9.803  10.980  1.00  0.00    -0.237 OA
ATOM     83  O   UNL     1      -0.790   9.063  11.110  1.00  0.00    -0.237 OA
ATOM     84  O   UNL     1      -2.228   8.342   9.231  1.00  0.00    -0.744 OA
ENDBRANCH  78  81
ENDBRANCH  50  74
BRANCH  62  85
ATOM     85  C   UNL     1      -3.092  -1.284  12.301  1.00  0.00     0.023 A 
ATOM     86  C   UNL     1      -3.954  -0.818  11.287  1.00  0.00     0.012 A 
ATOM     87  C   UNL     1      -3.460  -2.435  13.022  1.00  0.00     0.148 A 
ATOM     88  C   UNL     1      -5.159  -1.467  11.010  1.00  0.00     0.002 A 
ATOM     89  C   UNL     1      -4.636  -3.109  12.709  1.00  0.00     0.091 A 
ATOM     90  F   UNL     1      -2.632  -2.875  13.981  1.00  0.00    -0.205 F 
ATOM     91  C   UNL     1      -5.493  -2.623  11.710  1.00  0.00     0.022 A 
BRANCH  89  92
ATOM     92  S   UNL     1      -5.047  -4.682  13.471  1.00  0.00     0.127 S 
ATOM     93  O   UNL     1      -6.056  -4.293  14.453  1.00  0.00    -0.237 OA
ATOM     94  O   UNL     1      -5.561  -5.458  12.341  1.00  0.00    -0.237 OA
ATOM     95  O   UNL     1      -3.797  -5.195  14.020  1.00  0.00    -0.744 OA
ENDBRANCH  89  92
ENDBRANCH  62  85
ENDBRANCH  36  37
ENDBRANCH  28  31
ENDBRANCH   1  27
TORSDOF 14
