REMARK SMILES Cc1ccc(-c2nn(-c3ccccc3)cc2[C@@H]2[NH2+][C@H](C(=O)NCCCNC(=O)c3ccc(-c4c5nc(c(-c6cccc(S(=O)(=O)[O-])c6F)c6ccc([nH]6)c(-c6cccc(S(=O)(=O)[O-])c6F)c6nc(c(-c7cccc(S(=O)(=O)[O-])c7F)c7ccc4[nH]7)C=C6)C=C5)cc3)CS2)cc1
REMARK SMILES IDX 24 1 23 2 22 3 20 4 21 5 19 7 17 8 18 9 93 10 92 13 16 14
REMARK SMILES IDX 6 15 7 16 8 17 15 18 5 19 1 20 2 21 3 22 95 23 4 24 94 25
REMARK SMILES IDX 9 26 10 27 14 28 11 29 13 30 12 31 25 32 26 33 27 34 28 36
REMARK SMILES IDX 29 37 30 38 91 39 31 40 90 41 32 42 33 43 34 44 84 45 35 46
REMARK SMILES IDX 89 47 83 48 85 49 36 50 88 51 82 52 81 53 37 55 69 56 49 57
REMARK SMILES IDX 68 58 50 59 53 60 67 61 86 62 51 63 52 64 66 66 87 67 54 68
REMARK SMILES IDX 38 69 39 70 47 71 40 72 42 73 48 74 41 75 43 76 44 77 45 78
REMARK SMILES IDX 46 79 70 80 71 81 79 82 72 83 74 84 80 85 73 86 75 87 76 88
REMARK SMILES IDX 77 89 78 90 55 91 56 92 64 93 57 94 59 95 65 96 58 97 60 98
REMARK SMILES IDX 61 99 62 100 63 101
REMARK H PARENT 22 6 18 11 18 12 26 35 85 54 53 65
REMARK Flexibility Score: inf
ROOT
ATOM      1  C   UNL     1      -4.408  -1.781  -1.039  1.00  0.00     0.042 C 
ENDROOT
BRANCH   1   2
ATOM      2  C   UNL     1      -5.813  -1.563  -0.477  1.00  0.00     0.118 C 
BRANCH   2   3
ATOM      3  N   UNL     1      -6.364  -2.749   0.168  1.00  0.00    -0.351 N 
ATOM      4  C   UNL     1      -6.256  -3.247   1.428  1.00  0.00     0.279 C 
ATOM      5  O   UNL     1      -6.965  -4.226   1.703  1.00  0.00    -0.268 OA
ATOM      6  H   UNL     1      -6.926  -3.297  -0.426  1.00  0.00     0.163 HD
BRANCH   4   7
ATOM      7  C   UNL     1      -5.387  -2.639   2.540  1.00  0.00     0.283 C 
ATOM      8  C   UNL     1      -3.826  -0.800   2.847  1.00  0.00     0.278 C 
ATOM      9  N   UNL     1      -4.143  -2.000   2.063  1.00  0.00    -0.320 N 
ATOM     10  S   UNL     1      -4.928  -0.764   4.279  1.00  0.00    -0.087 SA
ATOM     11  H   UNL     1      -3.374  -2.666   2.148  1.00  0.00     0.348 HD
ATOM     12  H   UNL     1      -4.275  -1.724   1.090  1.00  0.00     0.348 HD
ATOM     13  C   UNL     1      -6.204  -1.698   3.408  1.00  0.00     0.151 C 
BRANCH   8  14
ATOM     14  C   UNL     1      -4.006   0.364   1.921  1.00  0.00     0.067 A 
ATOM     15  C   UNL     1      -3.075   0.861   0.956  1.00  0.00     0.103 A 
ATOM     16  N   UNL     1      -3.683   1.702   0.112  1.00  0.00    -0.167 NA
ATOM     17  N   UNL     1      -4.950   1.830   0.542  1.00  0.00    -0.240 N 
ATOM     18  C   UNL     1      -5.131   1.166   1.730  1.00  0.00     0.126 A 
BRANCH  15  19
ATOM     19  C   UNL     1      -1.660   0.567   0.708  1.00  0.00     0.003 A 
ATOM     20  C   UNL     1       2.528  -0.086  -0.145  1.00  0.00     0.044 C 
ATOM     21  C   UNL     1       1.074   0.144   0.136  1.00  0.00    -0.051 A 
ATOM     22  C   UNL     1       0.223  -0.936   0.397  1.00  0.00     0.004 A 
ATOM     23  C   UNL     1       0.540   1.433   0.110  1.00  0.00     0.004 A 
ATOM     24  C   UNL     1      -1.131  -0.726   0.686  1.00  0.00     0.011 A 
ATOM     25  C   UNL     1      -0.812   1.639   0.389  1.00  0.00     0.011 A 
ENDBRANCH  15  19
BRANCH  17  26
ATOM     26  C   UNL     1      -5.901   2.545  -0.230  1.00  0.00     0.065 A 
ATOM     27  C   UNL     1      -5.645   2.720  -1.595  1.00  0.00     0.028 A 
ATOM     28  C   UNL     1      -7.067   3.079   0.326  1.00  0.00     0.028 A 
ATOM     29  C   UNL     1      -6.496   3.477  -2.388  1.00  0.00     0.002 A 
ATOM     30  C   UNL     1      -7.907   3.866  -0.471  1.00  0.00     0.002 A 
ATOM     31  C   UNL     1      -7.601   4.091  -1.812  1.00  0.00     0.000 A 
ENDBRANCH  17  26
ENDBRANCH   8  14
ENDBRANCH   4   7
ENDBRANCH   2   3
ENDBRANCH   1   2
BRANCH   1  32
ATOM     32  C   UNL     1      -4.169  -1.106  -2.383  1.00  0.00     0.118 C 
BRANCH  32  33
ATOM     33  N   UNL     1      -3.396   0.140  -2.447  1.00  0.00    -0.352 N 
ATOM     34  C   UNL     1      -3.184   0.933  -3.580  1.00  0.00     0.251 C 
ATOM     35  H   UNL     1      -2.985   0.449  -1.608  1.00  0.00     0.163 HD
ATOM     36  O   UNL     1      -2.549   1.985  -3.540  1.00  0.00    -0.269 OA
BRANCH  34  37
ATOM     37  C   UNL     1      -3.870   0.521  -4.823  1.00  0.00     0.039 A 
ATOM     38  C   UNL     1      -4.942   1.297  -5.290  1.00  0.00     0.014 A 
ATOM     39  C   UNL     1      -3.748  -0.816  -5.160  1.00  0.00     0.014 A 
ATOM     40  C   UNL     1      -6.042   0.661  -5.860  1.00  0.00     0.010 A 
ATOM     41  C   UNL     1      -4.904  -1.457  -5.529  1.00  0.00     0.010 A 
ATOM     42  C   UNL     1      -6.068  -0.724  -5.848  1.00  0.00    -0.014 A 
BRANCH  42  43
ATOM     43  C   UNL     1      -7.143  -1.578  -6.334  1.00  0.00     0.031 A 
ATOM     44  C   UNL     1      -6.822  -2.304  -7.591  1.00  0.00     0.074 A 
ATOM     45  C   UNL     1      -8.050  -2.064  -5.452  1.00  0.00     0.049 A 
ATOM     46  N   UNL     1      -7.512  -3.272  -8.073  1.00  0.00    -0.248 NA
ATOM     47  C   UNL     1      -5.636  -1.996  -8.392  1.00  0.00     0.031 C 
ATOM     48  C   UNL     1      -8.603  -3.415  -5.446  1.00  0.00     0.029 A 
ATOM     49  N   UNL     1      -8.802  -1.402  -4.475  1.00  0.00    -0.354 N 
ATOM     50  C   UNL     1      -6.737  -3.902  -9.024  1.00  0.00     0.074 A 
ATOM     51  C   UNL     1      -5.623  -3.019  -9.247  1.00  0.00     0.031 C 
ATOM     52  C   UNL     1      -9.734  -3.430  -4.729  1.00  0.00     0.029 A 
ATOM     53  C   UNL     1     -10.059  -2.053  -4.421  1.00  0.00     0.049 A 
ATOM     54  H   UNL     1      -8.514  -0.634  -3.930  1.00  0.00     0.167 HD
ATOM     55  C   UNL     1      -7.094  -5.161  -9.400  1.00  0.00     0.034 A 
ATOM     56  C   UNL     1     -11.266  -1.464  -4.696  1.00  0.00     0.034 A 
ATOM     57  C   UNL     1      -8.426  -5.487  -8.854  1.00  0.00     0.049 A 
ATOM     58  C   UNL     1     -11.931  -2.038  -5.937  1.00  0.00     0.074 A 
ATOM     59  C   UNL     1      -8.902  -6.243  -7.796  1.00  0.00     0.029 A 
ATOM     60  N   UNL     1      -9.493  -4.705  -9.265  1.00  0.00    -0.354 N 
ATOM     61  N   UNL     1     -11.585  -3.147  -6.533  1.00  0.00    -0.248 NA
ATOM     62  C   UNL     1     -12.954  -1.301  -6.679  1.00  0.00     0.031 C 
ATOM     63  C   UNL     1     -10.259  -5.853  -7.552  1.00  0.00     0.029 A 
ATOM     64  C   UNL     1     -10.622  -4.901  -8.490  1.00  0.00     0.049 A 
ATOM     65  H   UNL     1      -9.452  -4.079 -10.024  1.00  0.00     0.167 HD
ATOM     66  C   UNL     1     -12.128  -3.159  -7.794  1.00  0.00     0.074 A 
ATOM     67  C   UNL     1     -12.987  -1.986  -7.829  1.00  0.00     0.031 C 
ATOM     68  C   UNL     1     -11.786  -4.064  -8.764  1.00  0.00     0.034 A 
BRANCH  55  69
ATOM     69  C   UNL     1      -6.230  -6.183 -10.127  1.00  0.00     0.023 A 
ATOM     70  C   UNL     1      -6.767  -7.485 -10.249  1.00  0.00     0.012 A 
ATOM     71  C   UNL     1      -4.916  -6.017 -10.634  1.00  0.00     0.148 A 
ATOM     72  C   UNL     1      -6.044  -8.558 -10.784  1.00  0.00     0.002 A 
ATOM     73  C   UNL     1      -4.190  -7.087 -11.173  1.00  0.00     0.091 A 
ATOM     74  F   UNL     1      -4.325  -4.827 -10.605  1.00  0.00    -0.205 F 
ATOM     75  C   UNL     1      -4.751  -8.362 -11.239  1.00  0.00     0.022 A 
BRANCH  73  76
ATOM     76  S   UNL     1      -2.495  -6.918 -11.773  1.00  0.00     0.127 S 
ATOM     77  O   UNL     1      -1.775  -7.862 -10.915  1.00  0.00    -0.237 OA
ATOM     78  O   UNL     1      -2.614  -7.336 -13.169  1.00  0.00    -0.237 OA
ATOM     79  O   UNL     1      -2.120  -5.522 -11.580  1.00  0.00    -0.744 OA
ENDBRANCH  73  76
ENDBRANCH  55  69
BRANCH  56  80
ATOM     80  C   UNL     1     -11.329  -0.027  -4.301  1.00  0.00     0.023 A 
ATOM     81  C   UNL     1     -11.130   0.201  -2.921  1.00  0.00     0.012 A 
ATOM     82  C   UNL     1     -10.954   0.953  -5.235  1.00  0.00     0.148 A 
ATOM     83  C   UNL     1     -10.237   1.186  -2.530  1.00  0.00     0.002 A 
ATOM     84  C   UNL     1     -10.084   1.944  -4.836  1.00  0.00     0.091 A 
ATOM     85  F   UNL     1     -11.331   0.838  -6.513  1.00  0.00    -0.205 F 
ATOM     86  C   UNL     1      -9.660   1.990  -3.507  1.00  0.00     0.022 A 
BRANCH  84  87
ATOM     87  S   UNL     1      -9.313   3.017  -6.047  1.00  0.00     0.127 S 
ATOM     88  O   UNL     1     -10.282   4.103  -6.137  1.00  0.00    -0.237 OA
ATOM     89  O   UNL     1      -8.047   3.373  -5.407  1.00  0.00    -0.237 OA
ATOM     90  O   UNL     1      -9.161   2.172  -7.223  1.00  0.00    -0.744 OA
ENDBRANCH  84  87
ENDBRANCH  56  80
BRANCH  68  91
ATOM     91  C   UNL     1     -12.521  -4.149 -10.096  1.00  0.00     0.023 A 
ATOM     92  C   UNL     1     -13.874  -3.760 -10.193  1.00  0.00     0.012 A 
ATOM     93  C   UNL     1     -11.956  -4.728 -11.261  1.00  0.00     0.148 A 
ATOM     94  C   UNL     1     -14.580  -3.796 -11.399  1.00  0.00     0.002 A 
ATOM     95  C   UNL     1     -12.682  -4.832 -12.443  1.00  0.00     0.091 A 
ATOM     96  F   UNL     1     -10.711  -5.207 -11.238  1.00  0.00    -0.205 F 
ATOM     97  C   UNL     1     -13.980  -4.328 -12.528  1.00  0.00     0.022 A 
BRANCH  95  98
ATOM     98  S   UNL     1     -12.047  -5.689 -13.892  1.00  0.00     0.127 S 
ATOM     99  O   UNL     1     -13.008  -6.785 -14.023  1.00  0.00    -0.237 OA
ATOM    100  O   UNL     1     -12.155  -4.655 -14.920  1.00  0.00    -0.237 OA
ATOM    101  O   UNL     1     -10.689  -6.099 -13.567  1.00  0.00    -0.744 OA
ENDBRANCH  95  98
ENDBRANCH  68  91
ENDBRANCH  42  43
ENDBRANCH  34  37
ENDBRANCH  32  33
ENDBRANCH   1  32
TORSDOF 16
