REMARK SMILES CCC(CC)(NC(=O)N[C@H](C)C1CC1)C(=O)NCCCNC(=O)c1ccc(-c2c3nc(c(-c4cccc(S(=O)(=O)[O-])c4F)c4ccc([nH]4)c(-c4cccc(S(=O)(=O)[O-])c4F)c4nc(c(-c5cccc(S(=O)(=O)[O-])c5F)c5ccc2[nH]5)C=C4)C=C3)cc1
REMARK SMILES IDX 19 1 18 2 17 3 15 4 16 5 3 7 2 8 1 9 4 10 5 11 6 12 7 13
REMARK SMILES IDX 8 15 9 16 10 18 11 19 12 20 13 21 14 22 20 23 21 24 22 25
REMARK SMILES IDX 23 27 24 28 25 29 86 30 26 31 85 32 27 33 28 34 29 35 79 36
REMARK SMILES IDX 30 37 84 38 78 39 80 40 31 41 83 42 77 43 76 44 32 46 64 47
REMARK SMILES IDX 44 48 63 49 45 50 48 51 62 52 81 53 46 54 47 55 61 57 82 58
REMARK SMILES IDX 49 59 33 60 34 61 42 62 35 63 37 64 43 65 36 66 38 67 39 68
REMARK SMILES IDX 40 69 41 70 65 71 66 72 74 73 67 74 69 75 75 76 68 77 70 78
REMARK SMILES IDX 71 79 72 80 73 81 50 82 51 83 59 84 52 85 54 86 60 87 53 88
REMARK SMILES IDX 55 89 56 90 57 91 58 92
REMARK H PARENT 17 6 6 14 9 17 21 26 80 45 48 56
REMARK Flexibility Score: inf
ROOT
ATOM      1  C   UNL     1       4.218  -2.181   6.331  1.00  0.00     0.042 C 
ENDROOT
BRANCH   1   2
ATOM      2  C   UNL     1       4.284  -3.465   5.488  1.00  0.00     0.117 C 
BRANCH   2   3
ATOM      3  N   UNL     1       3.829  -3.275   4.112  1.00  0.00    -0.354 N 
ATOM      4  C   UNL     1       4.292  -3.938   2.974  1.00  0.00     0.245 C 
ATOM      5  O   UNL     1       3.675  -4.884   2.491  1.00  0.00    -0.272 OA
ATOM      6  H   UNL     1       3.119  -2.607   3.973  1.00  0.00     0.163 HD
BRANCH   4   7
ATOM      7  C   UNL     1       5.731  -3.519   2.505  1.00  0.00     0.120 C 
BRANCH   7   8
ATOM      8  C   UNL     1       6.185  -3.410   1.030  1.00  0.00     0.035 C 
ATOM      9  C   UNL     1       5.959  -4.565   0.071  1.00  0.00     0.007 C 
ENDBRANCH   7   8
BRANCH   7  10
ATOM     10  C   UNL     1       6.562  -4.695   3.161  1.00  0.00     0.035 C 
ATOM     11  C   UNL     1       8.057  -4.793   2.908  1.00  0.00     0.007 C 
ENDBRANCH   7  10
BRANCH   7  12
ATOM     12  N   UNL     1       5.989  -2.188   3.114  1.00  0.00    -0.324 N 
ATOM     13  C   UNL     1       5.401  -0.985   3.104  1.00  0.00     0.315 C 
ATOM     14  H   UNL     1       6.802  -2.191   3.668  1.00  0.00     0.166 HD
ATOM     15  O   UNL     1       6.028  -0.080   3.663  1.00  0.00    -0.249 OA
ATOM     16  N   UNL     1       4.178  -0.651   2.675  1.00  0.00    -0.335 N 
ATOM     17  H   UNL     1       3.975   0.226   3.074  1.00  0.00     0.165 HD
BRANCH  16  18
ATOM     18  C   UNL     1       2.986  -1.026   1.856  1.00  0.00     0.083 C 
ATOM     19  C   UNL     1       1.744  -1.499   2.621  1.00  0.00     0.031 C 
BRANCH  18  20
ATOM     20  C   UNL     1       3.325  -1.783   0.617  1.00  0.00     0.011 C 
ATOM     21  C   UNL     1       2.595  -3.038   0.186  1.00  0.00     0.006 C 
ATOM     22  C   UNL     1       2.414  -1.774  -0.592  1.00  0.00     0.006 C 
ENDBRANCH  18  20
ENDBRANCH  16  18
ENDBRANCH   7  12
ENDBRANCH   4   7
ENDBRANCH   2   3
ENDBRANCH   1   2
BRANCH   1  23
ATOM     23  C   UNL     1       2.878  -1.456   6.344  1.00  0.00     0.118 C 
BRANCH  23  24
ATOM     24  N   UNL     1       1.792  -2.301   6.806  1.00  0.00    -0.352 N 
ATOM     25  C   UNL     1       0.951  -2.126   7.872  1.00  0.00     0.251 C 
ATOM     26  H   UNL     1       1.639  -3.117   6.277  1.00  0.00     0.163 HD
ATOM     27  O   UNL     1       0.220  -3.054   8.232  1.00  0.00    -0.269 OA
BRANCH  25  28
ATOM     28  C   UNL     1       0.921  -0.841   8.602  1.00  0.00     0.039 A 
ATOM     29  C   UNL     1       0.936  -0.864   9.998  1.00  0.00     0.014 A 
ATOM     30  C   UNL     1       0.852   0.380   7.923  1.00  0.00     0.014 A 
ATOM     31  C   UNL     1       0.929   0.338  10.710  1.00  0.00     0.010 A 
ATOM     32  C   UNL     1       0.915   1.579   8.636  1.00  0.00     0.010 A 
ATOM     33  C   UNL     1       0.949   1.573  10.038  1.00  0.00    -0.014 A 
BRANCH  33  34
ATOM     34  C   UNL     1       1.044   2.843  10.809  1.00  0.00     0.031 A 
ATOM     35  C   UNL     1      -0.058   3.869  10.770  1.00  0.00     0.074 A 
ATOM     36  C   UNL     1       2.156   3.089  11.533  1.00  0.00     0.049 A 
ATOM     37  N   UNL     1      -0.162   4.990  11.437  1.00  0.00    -0.248 NA
ATOM     38  C   UNL     1      -1.177   3.618   9.848  1.00  0.00     0.031 C 
ATOM     39  C   UNL     1       3.338   2.225  11.582  1.00  0.00     0.029 A 
ATOM     40  N   UNL     1       2.478   4.137  12.358  1.00  0.00    -0.354 N 
ATOM     41  C   UNL     1      -1.339   5.588  11.004  1.00  0.00     0.074 A 
ATOM     42  C   UNL     1      -1.896   4.724   9.985  1.00  0.00     0.031 C 
ATOM     43  C   UNL     1       4.243   2.763  12.413  1.00  0.00     0.029 A 
ATOM     44  C   UNL     1       3.721   4.021  12.937  1.00  0.00     0.049 A 
ATOM     45  H   UNL     1       1.877   4.899  12.521  1.00  0.00     0.167 HD
ATOM     46  C   UNL     1      -1.921   6.736  11.431  1.00  0.00     0.034 A 
ATOM     47  C   UNL     1       4.368   4.831  13.798  1.00  0.00     0.034 A 
ATOM     48  C   UNL     1      -1.377   7.584  12.461  1.00  0.00     0.049 A 
ATOM     49  C   UNL     1       3.677   6.070  14.296  1.00  0.00     0.074 A 
ATOM     50  C   UNL     1      -1.931   8.722  13.021  1.00  0.00     0.029 A 
ATOM     51  N   UNL     1      -0.149   7.397  13.077  1.00  0.00    -0.354 N 
ATOM     52  N   UNL     1       2.486   6.529  13.999  1.00  0.00    -0.248 NA
ATOM     53  C   UNL     1       4.403   6.878  15.287  1.00  0.00     0.031 C 
ATOM     54  C   UNL     1      -1.022   9.242  13.950  1.00  0.00     0.029 A 
ATOM     55  C   UNL     1       0.078   8.403  14.002  1.00  0.00     0.049 A 
ATOM     56  H   UNL     1       0.472   6.657  12.884  1.00  0.00     0.167 HD
ATOM     57  C   UNL     1       2.304   7.657  14.790  1.00  0.00     0.074 A 
ATOM     58  C   UNL     1       3.496   7.793  15.602  1.00  0.00     0.031 C 
ATOM     59  C   UNL     1       1.250   8.510  14.834  1.00  0.00     0.034 A 
BRANCH  46  60
ATOM     60  C   UNL     1      -3.243   7.125  10.817  1.00  0.00     0.023 A 
ATOM     61  C   UNL     1      -4.397   6.366  11.105  1.00  0.00     0.012 A 
ATOM     62  C   UNL     1      -3.360   8.274  10.009  1.00  0.00     0.148 A 
ATOM     63  C   UNL     1      -5.635   6.720  10.570  1.00  0.00     0.002 A 
ATOM     64  C   UNL     1      -4.606   8.648   9.519  1.00  0.00     0.091 A 
ATOM     65  F   UNL     1      -2.252   8.975   9.730  1.00  0.00    -0.205 F 
ATOM     66  C   UNL     1      -5.742   7.865   9.787  1.00  0.00     0.022 A 
BRANCH  64  67
ATOM     67  S   UNL     1      -4.866  10.152   8.571  1.00  0.00     0.127 S 
ATOM     68  O   UNL     1      -5.173   9.615   7.245  1.00  0.00    -0.237 OA
ATOM     69  O   UNL     1      -6.005  10.757   9.261  1.00  0.00    -0.237 OA
ATOM     70  O   UNL     1      -3.625  10.907   8.665  1.00  0.00    -0.744 OA
ENDBRANCH  64  67
ENDBRANCH  46  60
BRANCH  47  71
ATOM     71  C   UNL     1       5.721   4.456  14.300  1.00  0.00     0.023 A 
ATOM     72  C   UNL     1       5.886   4.084  15.648  1.00  0.00     0.012 A 
ATOM     73  C   UNL     1       6.839   4.449  13.444  1.00  0.00     0.148 A 
ATOM     74  C   UNL     1       7.147   3.750  16.145  1.00  0.00     0.002 A 
ATOM     75  C   UNL     1       8.080   4.057  13.930  1.00  0.00     0.091 A 
ATOM     76  F   UNL     1       6.662   4.815  12.167  1.00  0.00    -0.205 F 
ATOM     77  C   UNL     1       8.241   3.726  15.284  1.00  0.00     0.022 A 
BRANCH  75  78
ATOM     78  S   UNL     1       9.514   3.866  12.866  1.00  0.00     0.127 S 
ATOM     79  O   UNL     1      10.367   4.964  13.313  1.00  0.00    -0.237 OA
ATOM     80  O   UNL     1       9.984   2.530  13.233  1.00  0.00    -0.237 OA
ATOM     81  O   UNL     1       9.010   3.971  11.503  1.00  0.00    -0.744 OA
ENDBRANCH  75  78
ENDBRANCH  47  71
BRANCH  59  82
ATOM     82  C   UNL     1       1.320   9.647  15.822  1.00  0.00     0.023 A 
ATOM     83  C   UNL     1       2.241  10.697  15.632  1.00  0.00     0.012 A 
ATOM     84  C   UNL     1       0.450   9.688  16.930  1.00  0.00     0.148 A 
ATOM     85  C   UNL     1       2.334  11.737  16.557  1.00  0.00     0.002 A 
ATOM     86  C   UNL     1       0.509  10.757  17.817  1.00  0.00     0.091 A 
ATOM     87  F   UNL     1      -0.409   8.674  17.108  1.00  0.00    -0.205 F 
ATOM     88  C   UNL     1       1.463  11.772  17.643  1.00  0.00     0.022 A 
BRANCH  86  89
ATOM     89  S   UNL     1      -0.641  10.932  19.185  1.00  0.00     0.127 S 
ATOM     90  O   UNL     1       0.194  10.563  20.326  1.00  0.00    -0.237 OA
ATOM     91  O   UNL     1      -0.990  12.352  19.118  1.00  0.00    -0.237 OA
ATOM     92  O   UNL     1      -1.746  10.027  18.896  1.00  0.00    -0.744 OA
ENDBRANCH  86  89
ENDBRANCH  59  82
ENDBRANCH  33  34
ENDBRANCH  25  28
ENDBRANCH  23  24
ENDBRANCH   1  23
TORSDOF 18
