REMARK SMILES O=C(C[C@@H](c1ccc(Cl)c(Cl)c1)N1Cc2ccccc2C1=O)NCCCNC(=O)c1ccc(-c2c3nc(c(-c4cccc(S(=O)(=O)[O-])c4F)c4ccc([nH]4)c(-c4cccc(S(=O)(=O)[O-])c4F)c4nc(c(-c5cccc(S(=O)(=O)[O-])c5F)c5ccc2[nH]5)C=C4)C=C3)cc1
REMARK SMILES IDX 25 1 24 2 23 3 1 4 2 5 3 7 4 8 5 9 6 10 12 11 7 12 10 13
REMARK SMILES IDX 8 14 11 15 9 16 13 17 14 18 21 19 15 20 20 21 22 22 16 23
REMARK SMILES IDX 19 24 17 25 18 26 26 27 27 28 28 29 29 31 30 32 31 33 92 34
REMARK SMILES IDX 32 35 91 36 33 37 34 38 35 39 85 40 36 41 90 42 84 43 86 44
REMARK SMILES IDX 37 45 89 46 83 47 82 48 38 50 70 51 50 52 69 53 51 54 54 55
REMARK SMILES IDX 68 56 87 57 52 58 53 59 67 61 88 62 55 63 39 64 40 65 48 66
REMARK SMILES IDX 41 67 43 68 49 69 42 70 44 71 45 72 46 73 47 74 71 75 72 76
REMARK SMILES IDX 80 77 73 78 75 79 81 80 74 81 76 82 77 83 78 84 79 85 56 86
REMARK SMILES IDX 57 87 65 88 58 89 60 90 66 91 59 92 61 93 62 94 63 95 64 96
REMARK H PARENT 23 6 27 30 86 49 54 60
REMARK Flexibility Score: inf
ROOT
ATOM      1  C   UNL     1       2.201   2.362  -2.790  1.00  0.00     0.042 C 
ENDROOT
BRANCH   1   2
ATOM      2  C   UNL     1       1.869   0.908  -2.452  1.00  0.00     0.117 C 
BRANCH   2   3
ATOM      3  N   UNL     1       2.592   0.454  -1.282  1.00  0.00    -0.356 N 
ATOM      4  O   UNL     1       0.832  -0.473  -0.147  1.00  0.00    -0.275 OA
ATOM      5  C   UNL     1       2.018  -0.164  -0.199  1.00  0.00     0.222 C 
ATOM      6  H   UNL     1       3.566   0.598  -1.262  1.00  0.00     0.163 HD
BRANCH   5   7
ATOM      7  C   UNL     1       2.954  -0.402   0.976  1.00  0.00     0.130 C 
BRANCH   7   8
ATOM      8  C   UNL     1       4.005  -1.499   0.720  1.00  0.00     0.125 C 
BRANCH   8   9
ATOM      9  C   UNL     1       5.122  -1.151  -0.265  1.00  0.00    -0.023 A 
ATOM     10  C   UNL     1       5.689   0.132  -0.345  1.00  0.00     0.007 A 
ATOM     11  C   UNL     1       5.633  -2.150  -1.111  1.00  0.00     0.028 A 
ATOM     12  C   UNL     1       6.638   0.439  -1.323  1.00  0.00     0.022 A 
ATOM     13  C   UNL     1       6.618  -1.857  -2.064  1.00  0.00     0.060 A 
ATOM     14  C   UNL     1       7.098  -0.551  -2.192  1.00  0.00     0.059 A 
ATOM     15  Cl  UNL     1       7.193  -3.158  -3.045  1.00  0.00    -0.083 Cl
ATOM     16  Cl  UNL     1       8.249  -0.097  -3.394  1.00  0.00    -0.083 Cl
ENDBRANCH   8   9
BRANCH   8  17
ATOM     17  N   UNL     1       4.599  -1.977   1.969  1.00  0.00    -0.327 N 
ATOM     18  C   UNL     1       4.581  -3.381   2.351  1.00  0.00     0.157 C 
ATOM     19  C   UNL     1       5.290  -1.190   2.875  1.00  0.00     0.255 C 
ATOM     20  C   UNL     1       5.376  -3.386   3.613  1.00  0.00    -0.016 A 
ATOM     21  C   UNL     1       5.798  -2.091   3.914  1.00  0.00     0.045 A 
ATOM     22  O   UNL     1       5.469   0.013   2.853  1.00  0.00    -0.269 OA
ATOM     23  C   UNL     1       5.724  -4.440   4.439  1.00  0.00     0.006 A 
ATOM     24  C   UNL     1       6.578  -1.794   5.014  1.00  0.00     0.014 A 
ATOM     25  C   UNL     1       6.511  -4.164   5.565  1.00  0.00     0.000 A 
ATOM     26  C   UNL     1       6.938  -2.853   5.848  1.00  0.00     0.001 A 
ENDBRANCH   8  17
ENDBRANCH   7   8
ENDBRANCH   5   7
ENDBRANCH   2   3
ENDBRANCH   1   2
BRANCH   1  27
ATOM     27  C   UNL     1       3.682   2.671  -3.017  1.00  0.00     0.118 C 
BRANCH  27  28
ATOM     28  N   UNL     1       4.277   1.918  -4.111  1.00  0.00    -0.352 N 
ATOM     29  C   UNL     1       5.010   2.361  -5.187  1.00  0.00     0.251 C 
ATOM     30  H   UNL     1       4.135   0.945  -4.074  1.00  0.00     0.163 HD
ATOM     31  O   UNL     1       5.305   1.570  -6.080  1.00  0.00    -0.269 OA
BRANCH  29  32
ATOM     32  C   UNL     1       5.412   3.783  -5.299  1.00  0.00     0.039 A 
ATOM     33  C   UNL     1       5.251   4.429  -6.528  1.00  0.00     0.014 A 
ATOM     34  C   UNL     1       5.954   4.480  -4.215  1.00  0.00     0.014 A 
ATOM     35  C   UNL     1       5.561   5.787  -6.650  1.00  0.00     0.010 A 
ATOM     36  C   UNL     1       6.200   5.850  -4.320  1.00  0.00     0.010 A 
ATOM     37  C   UNL     1       5.999   6.523  -5.536  1.00  0.00    -0.014 A 
BRANCH  37  38
ATOM     38  C   UNL     1       6.203   7.996  -5.621  1.00  0.00     0.031 A 
ATOM     39  C   UNL     1       7.560   8.605  -5.390  1.00  0.00     0.074 A 
ATOM     40  C   UNL     1       5.141   8.802  -5.833  1.00  0.00     0.049 A 
ATOM     41  N   UNL     1       7.907   9.867  -5.383  1.00  0.00    -0.248 NA
ATOM     42  C   UNL     1       8.669   7.679  -5.110  1.00  0.00     0.031 C 
ATOM     43  C   UNL     1       3.759   8.350  -6.004  1.00  0.00     0.029 A 
ATOM     44  N   UNL     1       5.053  10.171  -5.913  1.00  0.00    -0.354 N 
ATOM     45  C   UNL     1       9.261   9.891  -5.068  1.00  0.00     0.074 A 
ATOM     46  C   UNL     1       9.666   8.517  -4.863  1.00  0.00     0.031 C 
ATOM     47  C   UNL     1       2.963   9.417  -6.172  1.00  0.00     0.029 A 
ATOM     48  C   UNL     1       3.767  10.632  -6.083  1.00  0.00     0.049 A 
ATOM     49  H   UNL     1       5.835  10.765  -5.855  1.00  0.00     0.167 HD
ATOM     50  C   UNL     1      10.097  10.954  -4.980  1.00  0.00     0.034 A 
ATOM     51  C   UNL     1       3.283  11.889  -6.145  1.00  0.00     0.034 A 
ATOM     52  C   UNL     1       9.701  12.319  -5.209  1.00  0.00     0.049 A 
ATOM     53  C   UNL     1       4.235  13.050  -6.053  1.00  0.00     0.074 A 
ATOM     54  C   UNL     1      10.495  13.453  -5.225  1.00  0.00     0.029 A 
ATOM     55  N   UNL     1       8.401  12.742  -5.440  1.00  0.00    -0.354 N 
ATOM     56  N   UNL     1       5.538  13.041  -5.915  1.00  0.00    -0.248 NA
ATOM     57  C   UNL     1       3.653  14.397  -6.160  1.00  0.00     0.031 C 
ATOM     58  C   UNL     1       9.671  14.565  -5.426  1.00  0.00     0.029 A 
ATOM     59  C   UNL     1       8.368  14.120  -5.579  1.00  0.00     0.049 A 
ATOM     60  H   UNL     1       7.617  12.150  -5.497  1.00  0.00     0.167 HD
ATOM     61  C   UNL     1       5.935  14.374  -5.952  1.00  0.00     0.074 A 
ATOM     62  C   UNL     1       4.736  15.161  -6.151  1.00  0.00     0.031 C 
ATOM     63  C   UNL     1       7.178  14.897  -5.819  1.00  0.00     0.034 A 
BRANCH  50  64
ATOM     64  C   UNL     1      11.545  10.684  -4.654  1.00  0.00     0.023 A 
ATOM     65  C   UNL     1      12.371  10.057  -5.609  1.00  0.00     0.012 A 
ATOM     66  C   UNL     1      12.104  11.111  -3.433  1.00  0.00     0.148 A 
ATOM     67  C   UNL     1      13.719   9.822  -5.339  1.00  0.00     0.002 A 
ATOM     68  C   UNL     1      13.459  10.917  -3.191  1.00  0.00     0.091 A 
ATOM     69  F   UNL     1      11.301  11.692  -2.531  1.00  0.00    -0.205 F 
ATOM     70  C   UNL     1      14.264  10.261  -4.136  1.00  0.00     0.022 A 
BRANCH  68  71
ATOM     71  S   UNL     1      14.277  11.520  -1.709  1.00  0.00     0.127 S 
ATOM     72  O   UNL     1      14.595  10.270  -1.019  1.00  0.00    -0.237 OA
ATOM     73  O   UNL     1      15.435  12.222  -2.262  1.00  0.00    -0.237 OA
ATOM     74  O   UNL     1      13.311  12.375  -1.034  1.00  0.00    -0.744 OA
ENDBRANCH  68  71
ENDBRANCH  50  64
BRANCH  51  75
ATOM     75  C   UNL     1       1.823  12.117  -6.343  1.00  0.00     0.023 A 
ATOM     76  C   UNL     1       1.363  12.663  -7.557  1.00  0.00     0.012 A 
ATOM     77  C   UNL     1       0.889  11.787  -5.341  1.00  0.00     0.148 A 
ATOM     78  C   UNL     1       0.004  12.910  -7.756  1.00  0.00     0.002 A 
ATOM     79  C   UNL     1      -0.468  11.980  -5.569  1.00  0.00     0.091 A 
ATOM     80  F   UNL     1       1.348  11.277  -4.189  1.00  0.00    -0.205 F 
ATOM     81  C   UNL     1      -0.911  12.560  -6.768  1.00  0.00     0.022 A 
BRANCH  79  82
ATOM     82  S   UNL     1      -1.728  11.441  -4.408  1.00  0.00     0.127 S 
ATOM     83  O   UNL     1      -2.271  12.715  -3.943  1.00  0.00    -0.237 OA
ATOM     84  O   UNL     1      -2.620  10.668  -5.272  1.00  0.00    -0.237 OA
ATOM     85  O   UNL     1      -1.028  10.650  -3.405  1.00  0.00    -0.744 OA
ENDBRANCH  79  82
ENDBRANCH  51  75
BRANCH  63  86
ATOM     86  C   UNL     1       7.324  16.395  -5.921  1.00  0.00     0.023 A 
ATOM     87  C   UNL     1       6.839  17.223  -4.889  1.00  0.00     0.012 A 
ATOM     88  C   UNL     1       8.002  16.977  -7.011  1.00  0.00     0.148 A 
ATOM     89  C   UNL     1       6.992  18.608  -4.958  1.00  0.00     0.002 A 
ATOM     90  C   UNL     1       8.199  18.353  -7.047  1.00  0.00     0.091 A 
ATOM     91  F   UNL     1       8.443  16.176  -7.992  1.00  0.00    -0.205 F 
ATOM     92  C   UNL     1       7.682  19.171  -6.029  1.00  0.00     0.022 A 
BRANCH  90  93
ATOM     93  S   UNL     1       9.157  19.159  -8.335  1.00  0.00     0.127 S 
ATOM     94  O   UNL     1       8.122  19.894  -9.061  1.00  0.00    -0.237 OA
ATOM     95  O   UNL     1      10.070  19.999  -7.560  1.00  0.00    -0.237 OA
ATOM     96  O   UNL     1       9.804  18.091  -9.085  1.00  0.00    -0.744 OA
ENDBRANCH  90  93
ENDBRANCH  63  86
ENDBRANCH  37  38
ENDBRANCH  29  32
ENDBRANCH  27  28
ENDBRANCH   1  27
TORSDOF 16
