REMARK SMILES O=C(NCCCNC(=O)c1ccc(NC(=O)[C@@H]2COCCO2)cc1O)c1ccc(-c2c3nc(c(-c4cccc(S(=O)(=O)[O-])c4F)c4ccc([nH]4)c(-c4cccc(S(=O)(=O)[O-])c4F)c4nc(c(-c5cccc(S(=O)(=O)[O-])c5F)c5ccc2[nH]5)C=C4)C=C3)cc1
REMARK SMILES IDX 4 1 3 2 1 3 2 4 26 6 27 7 88 8 28 9 87 10 29 11 30 12 31 13
REMARK SMILES IDX 81 14 32 15 86 16 80 17 82 18 33 19 85 20 79 21 78 22 34 24
REMARK SMILES IDX 66 25 46 26 65 27 47 28 50 29 64 30 83 31 48 32 49 33 63 35
REMARK SMILES IDX 84 36 51 37 35 38 36 39 44 40 37 41 39 42 45 43 38 44 40 45
REMARK SMILES IDX 41 46 42 47 43 48 67 49 68 50 76 51 69 52 71 53 77 54 70 55
REMARK SMILES IDX 72 56 73 57 74 58 75 59 52 60 53 61 61 62 54 63 56 64 62 65
REMARK SMILES IDX 55 66 57 67 58 68 59 69 60 70 5 71 6 72 7 73 8 74 9 76 10 77
REMARK SMILES IDX 11 78 24 79 12 80 23 81 13 82 25 83 14 85 15 86 16 88 17 89
REMARK SMILES IDX 18 90 22 91 19 92 21 93 20 94
REMARK H PARENT 3 5 82 23 50 34 7 75 25 84 14 87
REMARK Flexibility Score: inf
ROOT
ATOM      1  C   UNL     1       4.609  -0.880   0.875  1.00  0.00     0.118 C 
ENDROOT
BRANCH   1   2
ATOM      2  N   UNL     1       3.165  -0.909   0.688  1.00  0.00    -0.352 N 
ATOM      3  O   UNL     1       1.149  -0.190   0.002  1.00  0.00    -0.269 OA
ATOM      4  C   UNL     1       2.369  -0.172  -0.151  1.00  0.00     0.251 C 
ATOM      5  H   UNL     1       2.686  -1.559   1.252  1.00  0.00     0.163 HD
BRANCH   4   6
ATOM      6  C   UNL     1       2.979   0.657  -1.209  1.00  0.00     0.039 A 
ATOM      7  C   UNL     1       4.040   0.167  -1.976  1.00  0.00     0.014 A 
ATOM      8  C   UNL     1       2.473   1.936  -1.447  1.00  0.00     0.014 A 
ATOM      9  C   UNL     1       4.697   1.007  -2.865  1.00  0.00     0.010 A 
ATOM     10  C   UNL     1       3.072   2.745  -2.414  1.00  0.00     0.010 A 
ATOM     11  C   UNL     1       4.208   2.298  -3.107  1.00  0.00    -0.014 A 
BRANCH  11  12
ATOM     12  C   UNL     1       4.839   3.147  -4.145  1.00  0.00     0.031 A 
ATOM     13  C   UNL     1       5.458   4.467  -3.788  1.00  0.00     0.074 A 
ATOM     14  C   UNL     1       4.793   2.740  -5.428  1.00  0.00     0.049 A 
ATOM     15  N   UNL     1       5.962   5.378  -4.578  1.00  0.00    -0.248 NA
ATOM     16  C   UNL     1       5.505   4.817  -2.360  1.00  0.00     0.031 C 
ATOM     17  C   UNL     1       4.184   1.491  -5.891  1.00  0.00     0.029 A 
ATOM     18  N   UNL     1       5.230   3.344  -6.578  1.00  0.00    -0.354 N 
ATOM     19  C   UNL     1       6.337   6.432  -3.754  1.00  0.00     0.074 A 
ATOM     20  C   UNL     1       6.003   6.046  -2.400  1.00  0.00     0.031 C 
ATOM     21  C   UNL     1       4.271   1.427  -7.226  1.00  0.00     0.029 A 
ATOM     22  C   UNL     1       4.883   2.656  -7.716  1.00  0.00     0.049 A 
ATOM     23  H   UNL     1       5.742   4.185  -6.588  1.00  0.00     0.167 HD
ATOM     24  C   UNL     1       6.912   7.610  -4.098  1.00  0.00     0.034 A 
ATOM     25  C   UNL     1       4.995   2.994  -9.015  1.00  0.00     0.034 A 
ATOM     26  C   UNL     1       7.258   7.969  -5.447  1.00  0.00     0.049 A 
ATOM     27  C   UNL     1       5.639   4.299  -9.372  1.00  0.00     0.074 A 
ATOM     28  C   UNL     1       7.916   9.101  -5.894  1.00  0.00     0.029 A 
ATOM     29  N   UNL     1       6.956   7.213  -6.571  1.00  0.00    -0.354 N 
ATOM     30  N   UNL     1       6.106   5.229  -8.575  1.00  0.00    -0.248 NA
ATOM     31  C   UNL     1       5.802   4.593 -10.802  1.00  0.00     0.031 C 
ATOM     32  C   UNL     1       7.978   9.047  -7.290  1.00  0.00     0.029 A 
ATOM     33  C   UNL     1       7.396   7.862  -7.712  1.00  0.00     0.049 A 
ATOM     34  H   UNL     1       6.497   6.342  -6.559  1.00  0.00     0.167 HD
ATOM     35  C   UNL     1       6.648   6.204  -9.401  1.00  0.00     0.074 A 
ATOM     36  C   UNL     1       6.458   5.746 -10.764  1.00  0.00     0.031 C 
ATOM     37  C   UNL     1       7.244   7.372  -9.059  1.00  0.00     0.034 A 
BRANCH  24  38
ATOM     38  C   UNL     1       7.208   8.592  -2.994  1.00  0.00     0.023 A 
ATOM     39  C   UNL     1       8.236   8.321  -2.067  1.00  0.00     0.012 A 
ATOM     40  C   UNL     1       6.493   9.802  -2.895  1.00  0.00     0.148 A 
ATOM     41  C   UNL     1       8.515   9.215  -1.033  1.00  0.00     0.002 A 
ATOM     42  C   UNL     1       6.808  10.710  -1.889  1.00  0.00     0.091 A 
ATOM     43  F   UNL     1       5.505  10.037  -3.770  1.00  0.00    -0.205 F 
ATOM     44  C   UNL     1       7.807  10.412  -0.949  1.00  0.00     0.022 A 
BRANCH  42  45
ATOM     45  S   UNL     1       6.004  12.310  -1.753  1.00  0.00     0.127 S 
ATOM     46  O   UNL     1       5.082  12.083  -0.641  1.00  0.00    -0.237 OA
ATOM     47  O   UNL     1       7.126  13.197  -1.442  1.00  0.00    -0.237 OA
ATOM     48  O   UNL     1       5.384  12.555  -3.048  1.00  0.00    -0.744 OA
ENDBRANCH  42  45
ENDBRANCH  24  38
BRANCH  25  49
ATOM     49  C   UNL     1       4.490   2.051 -10.050  1.00  0.00     0.023 A 
ATOM     50  C   UNL     1       5.404   1.319 -10.828  1.00  0.00     0.012 A 
ATOM     51  C   UNL     1       3.109   1.802 -10.187  1.00  0.00     0.148 A 
ATOM     52  C   UNL     1       4.951   0.361 -11.736  1.00  0.00     0.002 A 
ATOM     53  C   UNL     1       2.669   0.808 -11.049  1.00  0.00     0.091 A 
ATOM     54  F   UNL     1       2.260   2.514  -9.433  1.00  0.00    -0.205 F 
ATOM     55  C   UNL     1       3.587   0.096 -11.836  1.00  0.00     0.022 A 
BRANCH  53  56
ATOM     56  S   UNL     1       0.949   0.295 -11.136  1.00  0.00     0.127 S 
ATOM     57  O   UNL     1       0.590   0.688 -12.496  1.00  0.00    -0.237 OA
ATOM     58  O   UNL     1       1.058  -1.148 -10.920  1.00  0.00    -0.237 OA
ATOM     59  O   UNL     1       0.265   1.016 -10.072  1.00  0.00    -0.744 OA
ENDBRANCH  53  56
ENDBRANCH  25  49
BRANCH  37  60
ATOM     60  C   UNL     1       7.789   8.233 -10.167  1.00  0.00     0.023 A 
ATOM     61  C   UNL     1       6.912   8.982 -10.974  1.00  0.00     0.012 A 
ATOM     62  C   UNL     1       9.181   8.384 -10.326  1.00  0.00     0.148 A 
ATOM     63  C   UNL     1       7.414   9.860 -11.934  1.00  0.00     0.002 A 
ATOM     64  C   UNL     1       9.673   9.297 -11.249  1.00  0.00     0.091 A 
ATOM     65  F   UNL     1       9.994   7.644  -9.558  1.00  0.00    -0.205 F 
ATOM     66  C   UNL     1       8.792  10.029 -12.061  1.00  0.00     0.022 A 
BRANCH  64  67
ATOM     67  S   UNL     1      11.425   9.657 -11.410  1.00  0.00     0.127 S 
ATOM     68  O   UNL     1      11.716   9.130 -12.742  1.00  0.00    -0.237 OA
ATOM     69  O   UNL     1      11.450  11.116 -11.311  1.00  0.00    -0.237 OA
ATOM     70  O   UNL     1      12.084   8.963 -10.312  1.00  0.00    -0.744 OA
ENDBRANCH  64  67
ENDBRANCH  37  60
ENDBRANCH  11  12
ENDBRANCH   4   6
ENDBRANCH   1   2
BRANCH   1  71
ATOM     71  C   UNL     1       5.013  -0.298   2.220  1.00  0.00     0.042 C 
BRANCH  71  72
ATOM     72  C   UNL     1       4.380  -0.989   3.417  1.00  0.00     0.118 C 
BRANCH  72  73
ATOM     73  N   UNL     1       4.570  -2.429   3.408  1.00  0.00    -0.352 N 
ATOM     74  C   UNL     1       5.031  -3.243   4.406  1.00  0.00     0.255 C 
ATOM     75  H   UNL     1       4.335  -2.883   2.566  1.00  0.00     0.163 HD
ATOM     76  O   UNL     1       5.167  -4.449   4.207  1.00  0.00    -0.269 OA
BRANCH  74  77
ATOM     77  C   UNL     1       5.493  -2.663   5.678  1.00  0.00     0.081 A 
ATOM     78  C   UNL     1       6.807  -2.944   6.024  1.00  0.00     0.020 A 
ATOM     79  C   UNL     1       4.716  -1.869   6.523  1.00  0.00     0.130 A 
ATOM     80  C   UNL     1       7.354  -2.389   7.178  1.00  0.00     0.027 A 
ATOM     81  C   UNL     1       5.285  -1.300   7.671  1.00  0.00     0.073 A 
ATOM     82  C   UNL     1       6.629  -1.542   8.004  1.00  0.00     0.044 A 
BRANCH  79  83
ATOM     83  O   UNL     1       3.403  -1.634   6.226  1.00  0.00    -0.507 OA
ATOM     84  H   UNL     1       3.021  -2.013   5.459  1.00  0.00     0.293 HD
ENDBRANCH  79  83
BRANCH  82  85
ATOM     85  N   UNL     1       7.131  -0.899   9.151  1.00  0.00    -0.324 N 
ATOM     86  C   UNL     1       8.334  -0.831   9.795  1.00  0.00     0.255 C 
ATOM     87  H   UNL     1       6.441  -0.364   9.605  1.00  0.00     0.170 HD
ATOM     88  O   UNL     1       8.359  -0.110  10.805  1.00  0.00    -0.272 OA
BRANCH  86  89
ATOM     89  C   UNL     1       9.634  -1.514   9.342  1.00  0.00     0.233 C 
ATOM     90  C   UNL     1      10.212  -0.791   8.114  1.00  0.00     0.202 C 
ATOM     91  O   UNL     1       9.491  -2.927   9.171  1.00  0.00    -0.364 OA
ATOM     92  O   UNL     1      11.391  -1.445   7.619  1.00  0.00    -0.376 OA
ATOM     93  C   UNL     1      10.677  -3.526   8.631  1.00  0.00     0.189 C 
ATOM     94  C   UNL     1      11.126  -2.826   7.349  1.00  0.00     0.188 C 
ENDBRANCH  86  89
ENDBRANCH  82  85
ENDBRANCH  74  77
ENDBRANCH  72  73
ENDBRANCH  71  72
ENDBRANCH   1  71
TORSDOF 16
