REMARK SMILES CC[C@@H](Nc1ccc([N+](=O)[O-])c(N)n1)C(=O)NCCCNC(=O)c1ccc(-c2c3nc(c(-c4cccc(S(=O)(=O)[O-])c4F)c4ccc([nH]4)c(-c4cccc(S(=O)(=O)[O-])c4F)c4nc(c(-c5cccc(S(=O)(=O)[O-])c5F)c5ccc2[nH]5)C=C4)C=C3)cc1
REMARK SMILES IDX 19 1 18 2 17 3 15 4 16 5 3 7 2 8 1 9 4 10 5 12 6 13 14 14
REMARK SMILES IDX 7 15 12 16 8 17 13 18 9 21 10 22 11 23 20 24 21 25 22 26
REMARK SMILES IDX 23 28 24 29 25 30 86 31 26 32 85 33 27 34 28 35 29 36 79 37
REMARK SMILES IDX 30 38 84 39 78 40 80 41 31 42 83 43 77 44 76 45 32 47 64 48
REMARK SMILES IDX 44 49 63 50 45 51 48 52 62 53 81 54 46 55 47 56 61 58 82 59
REMARK SMILES IDX 49 60 33 61 34 62 42 63 35 64 37 65 43 66 36 67 38 68 39 69
REMARK SMILES IDX 40 70 41 71 65 72 66 73 74 74 67 75 69 76 75 77 68 78 70 79
REMARK SMILES IDX 71 80 72 81 73 82 50 83 51 84 59 85 52 86 54 87 60 88 53 89
REMARK SMILES IDX 55 90 56 91 57 92 58 93
REMARK H PARENT 17 6 4 11 13 19 13 20 21 27 80 46 48 57
REMARK Flexibility Score: inf
ROOT
ATOM      1  C   UNL     1      -2.774   0.447  -2.655  1.00  0.00     0.042 C 
ENDROOT
BRANCH   1   2
ATOM      2  C   UNL     1      -1.876  -0.741  -2.987  1.00  0.00     0.117 C 
BRANCH   2   3
ATOM      3  N   UNL     1      -0.762  -0.358  -3.835  1.00  0.00    -0.354 N 
ATOM      4  C   UNL     1       0.570  -0.257  -3.556  1.00  0.00     0.242 C 
ATOM      5  O   UNL     1       1.321   0.075  -4.480  1.00  0.00    -0.273 OA
ATOM      6  H   UNL     1      -1.007  -0.134  -4.762  1.00  0.00     0.163 HD
BRANCH   4   7
ATOM      7  C   UNL     1       1.145  -0.580  -2.158  1.00  0.00     0.169 C 
BRANCH   7   8
ATOM      8  C   UNL     1       0.643   0.392  -1.081  1.00  0.00     0.031 C 
ATOM      9  C   UNL     1       1.261   0.136   0.287  1.00  0.00     0.006 C 
ENDBRANCH   7   8
BRANCH   7  10
ATOM     10  N   UNL     1       0.898  -1.972  -1.798  1.00  0.00    -0.358 N 
ATOM     11  H   UNL     1       0.236  -2.140  -1.089  1.00  0.00     0.162 HD
BRANCH  10  12
ATOM     12  C   UNL     1       1.501  -3.064  -2.355  1.00  0.00     0.129 A 
ATOM     13  C   UNL     1       2.525  -2.997  -3.290  1.00  0.00     0.054 A 
ATOM     14  N   UNL     1       1.042  -4.252  -1.907  1.00  0.00    -0.208 NA
ATOM     15  C   UNL     1       3.099  -4.174  -3.763  1.00  0.00     0.093 A 
ATOM     16  C   UNL     1       1.586  -5.406  -2.362  1.00  0.00     0.204 A 
ATOM     17  C   UNL     1       2.627  -5.398  -3.285  1.00  0.00     0.311 A 
BRANCH  16  18
ATOM     18  N   UNL     1       1.077  -6.534  -1.754  1.00  0.00    -0.378 N 
ATOM     19  H   UNL     1       1.405  -7.424  -2.014  1.00  0.00     0.158 HD
ATOM     20  H   UNL     1       0.384  -6.448  -1.059  1.00  0.00     0.158 HD
ENDBRANCH  16  18
BRANCH  17  21
ATOM     21  N   UNL     1       3.228  -6.631  -3.783  1.00  0.00     0.066 N 
ATOM     22  O   UNL     1       2.638  -7.705  -3.587  1.00  0.00    -0.258 OA
ATOM     23  O   UNL     1       4.295  -6.535  -4.408  1.00  0.00    -0.258 OA
ENDBRANCH  17  21
ENDBRANCH  10  12
ENDBRANCH   7  10
ENDBRANCH   4   7
ENDBRANCH   2   3
ENDBRANCH   1   2
BRANCH   1  24
ATOM     24  C   UNL     1      -3.526   1.014  -3.856  1.00  0.00     0.118 C 
BRANCH  24  25
ATOM     25  N   UNL     1      -4.472   0.063  -4.424  1.00  0.00    -0.352 N 
ATOM     26  C   UNL     1      -5.830   0.161  -4.591  1.00  0.00     0.251 C 
ATOM     27  H   UNL     1      -4.075  -0.782  -4.736  1.00  0.00     0.163 HD
ATOM     28  O   UNL     1      -6.466  -0.844  -4.918  1.00  0.00    -0.269 OA
BRANCH  26  29
ATOM     29  C   UNL     1      -6.536   1.441  -4.370  1.00  0.00     0.039 A 
ATOM     30  C   UNL     1      -7.775   1.423  -3.722  1.00  0.00     0.014 A 
ATOM     31  C   UNL     1      -6.005   2.653  -4.821  1.00  0.00     0.014 A 
ATOM     32  C   UNL     1      -8.447   2.621  -3.471  1.00  0.00     0.010 A 
ATOM     33  C   UNL     1      -6.638   3.853  -4.500  1.00  0.00     0.010 A 
ATOM     34  C   UNL     1      -7.867   3.851  -3.825  1.00  0.00    -0.014 A 
BRANCH  34  35
ATOM     35  C   UNL     1      -8.522   5.138  -3.471  1.00  0.00     0.031 A 
ATOM     36  C   UNL     1      -8.967   6.095  -4.545  1.00  0.00     0.074 A 
ATOM     37  C   UNL     1      -8.646   5.481  -2.173  1.00  0.00     0.049 A 
ATOM     38  N   UNL     1      -9.514   7.277  -4.420  1.00  0.00    -0.248 NA
ATOM     39  C   UNL     1      -8.747   5.684  -5.942  1.00  0.00     0.031 C 
ATOM     40  C   UNL     1      -8.180   4.680  -1.038  1.00  0.00     0.029 A 
ATOM     41  N   UNL     1      -9.177   6.604  -1.587  1.00  0.00    -0.354 N 
ATOM     42  C   UNL     1      -9.678   7.762  -5.713  1.00  0.00     0.074 A 
ATOM     43  C   UNL     1      -9.139   6.761  -6.608  1.00  0.00     0.031 C 
ATOM     44  C   UNL     1      -8.448   5.333   0.103  1.00  0.00     0.029 A 
ATOM     45  C   UNL     1      -9.075   6.611  -0.215  1.00  0.00     0.049 A 
ATOM     46  H   UNL     1      -9.592   7.334  -2.100  1.00  0.00     0.167 HD
ATOM     47  C   UNL     1     -10.252   8.919  -6.120  1.00  0.00     0.034 A 
ATOM     48  C   UNL     1      -9.437   7.545   0.687  1.00  0.00     0.034 A 
ATOM     49  C   UNL     1     -10.822   9.895  -5.229  1.00  0.00     0.049 A 
ATOM     50  C   UNL     1     -10.105   8.805   0.206  1.00  0.00     0.074 A 
ATOM     51  C   UNL     1     -11.498  11.060  -5.550  1.00  0.00     0.029 A 
ATOM     52  N   UNL     1     -10.778   9.827  -3.846  1.00  0.00    -0.354 N 
ATOM     53  N   UNL     1     -10.396   9.169  -1.019  1.00  0.00    -0.248 NA
ATOM     54  C   UNL     1     -10.530   9.766   1.234  1.00  0.00     0.031 C 
ATOM     55  C   UNL     1     -11.842  11.708  -4.359  1.00  0.00     0.029 A 
ATOM     56  C   UNL     1     -11.406  10.932  -3.297  1.00  0.00     0.049 A 
ATOM     57  H   UNL     1     -10.361   9.100  -3.329  1.00  0.00     0.167 HD
ATOM     58  C   UNL     1     -11.066  10.382  -0.907  1.00  0.00     0.074 A 
ATOM     59  C   UNL     1     -11.164  10.675   0.508  1.00  0.00     0.031 C 
ATOM     60  C   UNL     1     -11.543  11.188  -1.887  1.00  0.00     0.034 A 
BRANCH  47  61
ATOM     61  C   UNL     1     -10.349   9.174  -7.603  1.00  0.00     0.023 A 
ATOM     62  C   UNL     1     -11.258   8.423  -8.376  1.00  0.00     0.012 A 
ATOM     63  C   UNL     1      -9.607  10.203  -8.215  1.00  0.00     0.148 A 
ATOM     64  C   UNL     1     -11.406   8.671  -9.740  1.00  0.00     0.002 A 
ATOM     65  C   UNL     1      -9.793  10.474  -9.566  1.00  0.00     0.091 A 
ATOM     66  F   UNL     1      -8.735  10.894  -7.467  1.00  0.00    -0.205 F 
ATOM     67  C   UNL     1     -10.683   9.703 -10.331  1.00  0.00     0.022 A 
BRANCH  65  68
ATOM     68  S   UNL     1      -8.971  11.833 -10.407  1.00  0.00     0.127 S 
ATOM     69  O   UNL     1      -8.072  11.117 -11.313  1.00  0.00    -0.237 OA
ATOM     70  O   UNL     1     -10.090  12.507 -11.066  1.00  0.00    -0.237 OA
ATOM     71  O   UNL     1      -8.314  12.612  -9.368  1.00  0.00    -0.744 OA
ENDBRANCH  65  68
ENDBRANCH  47  61
BRANCH  48  72
ATOM     72  C   UNL     1      -9.224   7.303   2.142  1.00  0.00     0.023 A 
ATOM     73  C   UNL     1     -10.337   7.106   2.984  1.00  0.00     0.012 A 
ATOM     74  C   UNL     1      -7.930   7.254   2.695  1.00  0.00     0.148 A 
ATOM     75  C   UNL     1     -10.166   6.907   4.354  1.00  0.00     0.002 A 
ATOM     76  C   UNL     1      -7.764   6.996   4.050  1.00  0.00     0.091 A 
ATOM     77  F   UNL     1      -6.883   7.456   1.881  1.00  0.00    -0.205 F 
ATOM     78  C   UNL     1      -8.881   6.843   4.886  1.00  0.00     0.022 A 
BRANCH  76  79
ATOM     79  S   UNL     1      -6.144   6.759   4.789  1.00  0.00     0.127 S 
ATOM     80  O   UNL     1      -5.975   7.998   5.543  1.00  0.00    -0.237 OA
ATOM     81  O   UNL     1      -6.355   5.563   5.606  1.00  0.00    -0.237 OA
ATOM     82  O   UNL     1      -5.231   6.563   3.672  1.00  0.00    -0.744 OA
ENDBRANCH  76  79
ENDBRANCH  48  72
BRANCH  60  83
ATOM     83  C   UNL     1     -12.247  12.453  -1.468  1.00  0.00     0.023 A 
ATOM     84  C   UNL     1     -11.506  13.522  -0.925  1.00  0.00     0.012 A 
ATOM     85  C   UNL     1     -13.633  12.604  -1.668  1.00  0.00     0.148 A 
ATOM     86  C   UNL     1     -12.139  14.706  -0.552  1.00  0.00     0.002 A 
ATOM     87  C   UNL     1     -14.249  13.806  -1.342  1.00  0.00     0.091 A 
ATOM     88  F   UNL     1     -14.324  11.570  -2.168  1.00  0.00    -0.205 F 
ATOM     89  C   UNL     1     -13.507  14.853  -0.771  1.00  0.00     0.022 A 
BRANCH  87  90
ATOM     90  S   UNL     1     -15.986  14.120  -1.677  1.00  0.00     0.127 S 
ATOM     91  O   UNL     1     -16.560  14.080  -0.333  1.00  0.00    -0.237 OA
ATOM     92  O   UNL     1     -15.950  15.450  -2.285  1.00  0.00    -0.237 OA
ATOM     93  O   UNL     1     -16.419  13.058  -2.574  1.00  0.00    -0.744 OA
ENDBRANCH  87  90
ENDBRANCH  60  83
ENDBRANCH  34  35
ENDBRANCH  26  29
ENDBRANCH  24  25
ENDBRANCH   1  24
TORSDOF 18
