REMARK SMILES C[C@@H]1[NH2+]CC[C@H]1C(=O)NCc1cccc(C(=O)NCCCNC(=O)c2ccc(-c3c4nc(c(-c5cccc(S(=O)(=O)[O-])c5F)c5ccc([nH]5)c(-c5cccc(S(=O)(=O)[O-])c5F)c5nc(c(-c6cccc(S(=O)(=O)[O-])c6F)c6ccc3[nH]6)C=C5)C=C4)cc2)c1
REMARK SMILES IDX 20 1 19 2 18 3 16 4 17 5 15 7 11 8 12 9 88 10 13 11 14 12
REMARK SMILES IDX 10 13 9 14 7 15 8 16 6 18 1 19 2 20 3 21 4 22 5 25 21 26
REMARK SMILES IDX 22 27 23 28 24 30 25 31 26 32 87 33 27 34 86 35 28 36 29 37
REMARK SMILES IDX 30 38 80 39 31 40 85 41 79 42 81 43 32 44 84 45 78 46 77 47
REMARK SMILES IDX 33 49 65 50 45 51 64 52 46 53 49 54 63 55 82 56 47 57 48 58
REMARK SMILES IDX 62 60 83 61 50 62 34 63 35 64 43 65 36 66 38 67 44 68 37 69
REMARK SMILES IDX 39 70 40 71 41 72 42 73 66 74 67 75 75 76 68 77 70 78 76 79
REMARK SMILES IDX 69 80 71 81 72 82 73 83 74 84 51 85 52 86 60 87 53 88 55 89
REMARK SMILES IDX 61 90 54 91 56 92 57 93 58 94 59 95
REMARK H PARENT 18 6 9 17 3 23 3 24 22 29 81 48 49 59
REMARK Flexibility Score: inf
ROOT
ATOM      1  C   UNL     1       0.349   4.178   6.154  1.00  0.00     0.042 C 
ENDROOT
BRANCH   1   2
ATOM      2  C   UNL     1       1.389   3.286   5.498  1.00  0.00     0.118 C 
BRANCH   2   3
ATOM      3  N   UNL     1       2.095   2.389   6.407  1.00  0.00    -0.352 N 
ATOM      4  C   UNL     1       2.225   1.019   6.497  1.00  0.00     0.251 C 
ATOM      5  O   UNL     1       2.969   0.573   7.373  1.00  0.00    -0.269 OA
ATOM      6  H   UNL     1       2.587   2.868   7.112  1.00  0.00     0.163 HD
BRANCH   4   7
ATOM      7  C   UNL     1       1.451   0.057   5.661  1.00  0.00     0.040 A 
ATOM      8  C   UNL     1      -0.142  -0.349   3.877  1.00  0.00    -0.028 A 
ATOM      9  C   UNL     1      -0.406  -1.617   4.402  1.00  0.00     0.005 A 
ATOM     10  C   UNL     1       0.915   0.386   4.423  1.00  0.00     0.019 A 
ATOM     11  C   UNL     1       0.297  -2.074   5.517  1.00  0.00     0.001 A 
ATOM     12  C   UNL     1       1.179  -1.215   6.179  1.00  0.00     0.014 A 
BRANCH   8  13
ATOM     13  C   UNL     1      -1.091   0.270   2.874  1.00  0.00     0.151 C 
BRANCH  13  14
ATOM     14  N   UNL     1      -0.691   1.595   2.433  1.00  0.00    -0.352 N 
ATOM     15  C   UNL     1      -0.166   2.033   1.261  1.00  0.00     0.229 C 
ATOM     16  O   UNL     1       0.247   3.194   1.218  1.00  0.00    -0.275 OA
ATOM     17  H   UNL     1      -0.826   2.302   3.105  1.00  0.00     0.163 HD
BRANCH  15  18
ATOM     18  C   UNL     1      -0.080   1.141   0.036  1.00  0.00     0.142 C 
ATOM     19  C   UNL     1       2.065  -0.007  -0.669  1.00  0.00     0.076 C 
ATOM     20  C   UNL     1       0.835  -0.066   0.233  1.00  0.00     0.192 C 
ATOM     21  N   UNL     1       0.057  -1.273  -0.096  1.00  0.00    -0.343 N 
ATOM     22  C   UNL     1      -1.176  -0.849  -0.762  1.00  0.00     0.261 C 
ATOM     23  H   UNL     1      -0.170  -1.782   0.759  1.00  0.00     0.346 HD
ATOM     24  H   UNL     1       0.596  -1.887  -0.705  1.00  0.00     0.346 HD
ATOM     25  C   UNL     1      -1.430   0.601  -0.402  1.00  0.00     0.081 C 
ENDBRANCH  15  18
ENDBRANCH  13  14
ENDBRANCH   8  13
ENDBRANCH   4   7
ENDBRANCH   2   3
ENDBRANCH   1   2
BRANCH   1  26
ATOM     26  C   UNL     1       0.925   5.279   7.023  1.00  0.00     0.118 C 
BRANCH  26  27
ATOM     27  N   UNL     1       1.811   6.177   6.288  1.00  0.00    -0.352 N 
ATOM     28  C   UNL     1       1.659   7.486   5.898  1.00  0.00     0.251 C 
ATOM     29  H   UNL     1       2.669   5.773   6.025  1.00  0.00     0.163 HD
ATOM     30  O   UNL     1       2.472   7.974   5.119  1.00  0.00    -0.269 OA
BRANCH  28  31
ATOM     31  C   UNL     1       0.531   8.305   6.395  1.00  0.00     0.039 A 
ATOM     32  C   UNL     1      -0.063   9.235   5.536  1.00  0.00     0.014 A 
ATOM     33  C   UNL     1       0.077   8.191   7.709  1.00  0.00     0.014 A 
ATOM     34  C   UNL     1      -1.151   9.994   5.977  1.00  0.00     0.010 A 
ATOM     35  C   UNL     1      -1.075   8.859   8.109  1.00  0.00     0.010 A 
ATOM     36  C   UNL     1      -1.693   9.782   7.255  1.00  0.00    -0.014 A 
BRANCH  36  37
ATOM     37  C   UNL     1      -2.904  10.508   7.717  1.00  0.00     0.031 A 
ATOM     38  C   UNL     1      -2.852  11.373   8.949  1.00  0.00     0.074 A 
ATOM     39  C   UNL     1      -4.076  10.309   7.084  1.00  0.00     0.049 A 
ATOM     40  N   UNL     1      -3.817  12.039   9.529  1.00  0.00    -0.248 NA
ATOM     41  C   UNL     1      -1.557  11.474   9.643  1.00  0.00     0.031 C 
ATOM     42  C   UNL     1      -4.278   9.416   5.941  1.00  0.00     0.029 A 
ATOM     43  N   UNL     1      -5.326  10.821   7.329  1.00  0.00    -0.354 N 
ATOM     44  C   UNL     1      -3.260  12.597  10.674  1.00  0.00     0.074 A 
ATOM     45  C   UNL     1      -1.883  12.159  10.729  1.00  0.00     0.031 C 
ATOM     46  C   UNL     1      -5.569   9.450   5.578  1.00  0.00     0.029 A 
ATOM     47  C   UNL     1      -6.294  10.338   6.481  1.00  0.00     0.049 A 
ATOM     48  H   UNL     1      -5.511  11.472   8.044  1.00  0.00     0.167 HD
ATOM     49  C   UNL     1      -3.831  13.423  11.582  1.00  0.00     0.034 A 
ATOM     50  C   UNL     1      -7.620  10.575   6.438  1.00  0.00     0.034 A 
ATOM     51  C   UNL     1      -5.188  13.891  11.498  1.00  0.00     0.049 A 
ATOM     52  C   UNL     1      -8.220  11.544   7.417  1.00  0.00     0.074 A 
ATOM     53  C   UNL     1      -5.830  14.819  12.298  1.00  0.00     0.029 A 
ATOM     54  N   UNL     1      -6.119  13.454  10.566  1.00  0.00    -0.354 N 
ATOM     55  N   UNL     1      -7.634  12.205   8.386  1.00  0.00    -0.248 NA
ATOM     56  C   UNL     1      -9.654  11.831   7.274  1.00  0.00     0.031 C 
ATOM     57  C   UNL     1      -7.160  14.915  11.874  1.00  0.00     0.029 A 
ATOM     58  C   UNL     1      -7.336  14.077  10.784  1.00  0.00     0.049 A 
ATOM     59  H   UNL     1      -5.939  12.798   9.855  1.00  0.00     0.167 HD
ATOM     60  C   UNL     1      -8.619  13.006   8.952  1.00  0.00     0.074 A 
ATOM     61  C   UNL     1      -9.833  12.765   8.199  1.00  0.00     0.031 C 
ATOM     62  C   UNL     1      -8.529  13.854  10.007  1.00  0.00     0.034 A 
BRANCH  49  63
ATOM     63  C   UNL     1      -2.974  13.904  12.726  1.00  0.00     0.023 A 
ATOM     64  C   UNL     1      -1.907  14.794  12.479  1.00  0.00     0.012 A 
ATOM     65  C   UNL     1      -3.244  13.505  14.050  1.00  0.00     0.148 A 
ATOM     66  C   UNL     1      -1.095  15.239  13.521  1.00  0.00     0.002 A 
ATOM     67  C   UNL     1      -2.461  13.994  15.090  1.00  0.00     0.091 A 
ATOM     68  F   UNL     1      -4.247  12.642  14.267  1.00  0.00    -0.205 F 
ATOM     69  C   UNL     1      -1.378  14.848  14.826  1.00  0.00     0.022 A 
BRANCH  67  70
ATOM     70  S   UNL     1      -2.798  13.616  16.813  1.00  0.00     0.127 S 
ATOM     71  O   UNL     1      -1.701  12.704  17.135  1.00  0.00    -0.237 OA
ATOM     72  O   UNL     1      -2.700  14.933  17.442  1.00  0.00    -0.237 OA
ATOM     73  O   UNL     1      -4.130  13.028  16.842  1.00  0.00    -0.744 OA
ENDBRANCH  67  70
ENDBRANCH  49  63
BRANCH  50  74
ATOM     74  C   UNL     1      -8.448   9.924   5.384  1.00  0.00     0.023 A 
ATOM     75  C   UNL     1      -8.955  10.698   4.322  1.00  0.00     0.012 A 
ATOM     76  C   UNL     1      -8.683   8.535   5.395  1.00  0.00     0.148 A 
ATOM     77  C   UNL     1      -9.702  10.105   3.304  1.00  0.00     0.002 A 
ATOM     78  C   UNL     1      -9.377   7.942   4.348  1.00  0.00     0.091 A 
ATOM     79  F   UNL     1      -8.195   7.819   6.418  1.00  0.00    -0.205 F 
ATOM     80  C   UNL     1      -9.902   8.727   3.310  1.00  0.00     0.022 A 
BRANCH  78  81
ATOM     81  S   UNL     1      -9.563   6.161   4.199  1.00  0.00     0.127 S 
ATOM     82  O   UNL     1     -11.003   5.994   4.379  1.00  0.00    -0.237 OA
ATOM     83  O   UNL     1      -9.080   5.922   2.838  1.00  0.00    -0.237 OA
ATOM     84  O   UNL     1      -8.726   5.585   5.243  1.00  0.00    -0.744 OA
ENDBRANCH  78  81
ENDBRANCH  50  74
BRANCH  62  85
ATOM     85  C   UNL     1      -9.773  14.608  10.402  1.00  0.00     0.023 A 
ATOM     86  C   UNL     1     -10.844  13.926  11.013  1.00  0.00     0.012 A 
ATOM     87  C   UNL     1      -9.851  16.004  10.228  1.00  0.00     0.148 A 
ATOM     88  C   UNL     1     -11.989  14.616  11.410  1.00  0.00     0.002 A 
ATOM     89  C   UNL     1     -10.973  16.692  10.674  1.00  0.00     0.091 A 
ATOM     90  F   UNL     1      -8.830  16.632   9.628  1.00  0.00    -0.205 F 
ATOM     91  C   UNL     1     -12.049  15.998  11.251  1.00  0.00     0.022 A 
BRANCH  89  92
ATOM     92  S   UNL     1     -11.096  18.482  10.601  1.00  0.00     0.127 S 
ATOM     93  O   UNL     1     -12.084  18.670   9.541  1.00  0.00    -0.237 OA
ATOM     94  O   UNL     1     -11.572  18.815  11.944  1.00  0.00    -0.237 OA
ATOM     95  O   UNL     1      -9.755  18.965  10.299  1.00  0.00    -0.744 OA
ENDBRANCH  89  92
ENDBRANCH  62  85
ENDBRANCH  36  37
ENDBRANCH  28  31
ENDBRANCH  26  27
ENDBRANCH   1  26
TORSDOF 16
