REMARK SMILES Cn1cc2cc(C(=O)NCCCNC(=O)c3ccc(-c4c5nc(c(-c6cccc(S(=O)(=O)[O-])c6F)c6ccc([nH]6)c(-c6cccc(S(=O)(=O)[O-])c6F)c6nc(c(-c7cccc(S(=O)(=O)[O-])c7F)c7ccc4[nH]7)C=C6)C=C5)cc3)ccc2n1
REMARK SMILES IDX 13 1 14 2 15 3 12 5 11 6 10 7 9 8 7 9 8 10 6 12 1 13 2 14
REMARK SMILES IDX 3 15 82 16 4 17 81 18 5 19 80 20 79 21 16 22 17 23 78 24
REMARK SMILES IDX 18 25 77 26 19 27 20 28 21 29 71 30 22 31 76 32 70 33 72 34
REMARK SMILES IDX 23 35 75 36 69 37 68 38 24 40 56 41 36 42 55 43 37 44 40 45
REMARK SMILES IDX 54 46 73 47 38 48 39 49 53 51 74 52 41 53 25 54 26 55 34 56
REMARK SMILES IDX 27 57 29 58 35 59 28 60 30 61 31 62 32 63 33 64 57 65 58 66
REMARK SMILES IDX 66 67 59 68 61 69 67 70 60 71 62 72 63 73 64 74 65 75 42 76
REMARK SMILES IDX 43 77 51 78 44 79 46 80 52 81 45 82 47 83 48 84 49 85 50 86
REMARK H PARENT 13 4 9 11 72 39 40 50
REMARK Flexibility Score: inf
ROOT
ATOM      1  N   UNL     1       8.117   1.618   0.204  1.00  0.00    -0.352 N 
ATOM      2  C   UNL     1       9.206   2.442   0.334  1.00  0.00     0.251 C 
ATOM      3  O   UNL     1       9.764   2.849  -0.683  1.00  0.00    -0.269 OA
ATOM      4  H   UNL     1       7.982   1.250  -0.699  1.00  0.00     0.163 HD
ENDROOT
BRANCH   1   5
ATOM      5  C   UNL     1       7.129   1.198   1.188  1.00  0.00     0.118 C 
BRANCH   5   6
ATOM      6  C   UNL     1       5.710   1.565   0.758  1.00  0.00     0.042 C 
BRANCH   6   7
ATOM      7  C   UNL     1       5.216   0.776  -0.456  1.00  0.00     0.118 C 
BRANCH   7   8
ATOM      8  N   UNL     1       4.846  -0.578  -0.091  1.00  0.00    -0.352 N 
ATOM      9  C   UNL     1       3.645  -1.187   0.161  1.00  0.00     0.251 C 
ATOM     10  O   UNL     1       3.676  -2.401   0.376  1.00  0.00    -0.269 OA
ATOM     11  H   UNL     1       5.617  -1.185  -0.007  1.00  0.00     0.163 HD
BRANCH   9  12
ATOM     12  C   UNL     1       2.318  -0.493   0.143  1.00  0.00     0.040 A 
ATOM     13  C   UNL     1      -3.545  -0.239  -0.016  1.00  0.00     0.173 C 
ATOM     14  N   UNL     1      -2.104  -0.173  -0.034  1.00  0.00    -0.275 N 
ATOM     15  C   UNL     1      -1.242  -1.225  -0.156  1.00  0.00     0.117 A 
ATOM     16  N   UNL     1      -1.505   1.027   0.107  1.00  0.00    -0.173 NA
ATOM     17  C   UNL     1      -0.002  -0.662  -0.043  1.00  0.00     0.021 A 
ATOM     18  C   UNL     1      -0.192   0.749   0.151  1.00  0.00     0.092 A 
ATOM     19  C   UNL     1       1.205  -1.350  -0.070  1.00  0.00     0.025 A 
ATOM     20  C   UNL     1       0.906   1.592   0.362  1.00  0.00     0.032 A 
ATOM     21  C   UNL     1       2.152   0.913   0.384  1.00  0.00     0.016 A 
ENDBRANCH   9  12
ENDBRANCH   7   8
ENDBRANCH   6   7
ENDBRANCH   5   6
ENDBRANCH   1   5
BRANCH   2  22
ATOM     22  C   UNL     1       9.716   2.841   1.665  1.00  0.00     0.039 A 
ATOM     23  C   UNL     1      10.231   4.132   1.824  1.00  0.00     0.014 A 
ATOM     24  C   UNL     1       9.766   1.938   2.731  1.00  0.00     0.014 A 
ATOM     25  C   UNL     1      10.767   4.524   3.054  1.00  0.00     0.010 A 
ATOM     26  C   UNL     1      10.236   2.353   3.977  1.00  0.00     0.010 A 
ATOM     27  C   UNL     1      10.760   3.643   4.146  1.00  0.00    -0.014 A 
BRANCH  27  28
ATOM     28  C   UNL     1      11.309   4.053   5.465  1.00  0.00     0.031 A 
ATOM     29  C   UNL     1      12.511   3.352   6.042  1.00  0.00     0.074 A 
ATOM     30  C   UNL     1      10.683   5.011   6.176  1.00  0.00     0.049 A 
ATOM     31  N   UNL     1      13.109   3.547   7.189  1.00  0.00    -0.248 NA
ATOM     32  C   UNL     1      13.104   2.270   5.237  1.00  0.00     0.031 C 
ATOM     33  C   UNL     1       9.463   5.709   5.762  1.00  0.00     0.029 A 
ATOM     34  N   UNL     1      10.970   5.546   7.406  1.00  0.00    -0.354 N 
ATOM     35  C   UNL     1      14.118   2.595   7.261  1.00  0.00     0.074 A 
ATOM     36  C   UNL     1      14.033   1.799   6.056  1.00  0.00     0.031 C 
ATOM     37  C   UNL     1       9.110   6.582   6.718  1.00  0.00     0.029 A 
ATOM     38  C   UNL     1      10.061   6.491   7.822  1.00  0.00     0.049 A 
ATOM     39  H   UNL     1      11.752   5.280   7.941  1.00  0.00     0.167 HD
ATOM     40  C   UNL     1      15.052   2.416   8.227  1.00  0.00     0.034 A 
ATOM     41  C   UNL     1       9.999   7.203   8.964  1.00  0.00     0.034 A 
ATOM     42  C   UNL     1      15.164   3.241   9.400  1.00  0.00     0.049 A 
ATOM     43  C   UNL     1      11.084   7.029   9.992  1.00  0.00     0.074 A 
ATOM     44  C   UNL     1      16.125   3.200  10.394  1.00  0.00     0.029 A 
ATOM     45  N   UNL     1      14.283   4.258   9.738  1.00  0.00    -0.354 N 
ATOM     46  N   UNL     1      12.124   6.232   9.967  1.00  0.00    -0.248 NA
ATOM     47  C   UNL     1      11.012   7.885  11.185  1.00  0.00     0.031 C 
ATOM     48  C   UNL     1      15.816   4.181  11.342  1.00  0.00     0.029 A 
ATOM     49  C   UNL     1      14.676   4.849  10.927  1.00  0.00     0.049 A 
ATOM     50  H   UNL     1      13.494   4.520   9.211  1.00  0.00     0.167 HD
ATOM     51  C   UNL     1      12.850   6.515  11.118  1.00  0.00     0.074 A 
ATOM     52  C   UNL     1      12.141   7.573  11.807  1.00  0.00     0.031 C 
ATOM     53  C   UNL     1      13.992   5.940  11.572  1.00  0.00     0.034 A 
BRANCH  40  54
ATOM     54  C   UNL     1      16.066   1.318   8.027  1.00  0.00     0.023 A 
ATOM     55  C   UNL     1      17.064   1.466   7.041  1.00  0.00     0.012 A 
ATOM     56  C   UNL     1      16.072   0.173   8.847  1.00  0.00     0.148 A 
ATOM     57  C   UNL     1      18.026   0.475   6.848  1.00  0.00     0.002 A 
ATOM     58  C   UNL     1      17.062  -0.790   8.679  1.00  0.00     0.091 A 
ATOM     59  F   UNL     1      15.106   0.039   9.767  1.00  0.00    -0.205 F 
ATOM     60  C   UNL     1      18.031  -0.646   7.672  1.00  0.00     0.022 A 
BRANCH  58  61
ATOM     61  S   UNL     1      17.204  -2.231   9.741  1.00  0.00     0.127 S 
ATOM     62  O   UNL     1      16.781  -3.304   8.842  1.00  0.00    -0.237 OA
ATOM     63  O   UNL     1      18.631  -2.236  10.066  1.00  0.00    -0.237 OA
ATOM     64  O   UNL     1      16.326  -1.982  10.875  1.00  0.00    -0.744 OA
ENDBRANCH  58  61
ENDBRANCH  40  54
BRANCH  41  65
ATOM     65  C   UNL     1       8.913   8.206   9.156  1.00  0.00     0.023 A 
ATOM     66  C   UNL     1       9.227   9.578   9.122  1.00  0.00     0.012 A 
ATOM     67  C   UNL     1       7.574   7.812   9.338  1.00  0.00     0.148 A 
ATOM     68  C   UNL     1       8.232  10.541   9.298  1.00  0.00     0.002 A 
ATOM     69  C   UNL     1       6.579   8.776   9.457  1.00  0.00     0.091 A 
ATOM     70  F   UNL     1       7.296   6.501   9.379  1.00  0.00    -0.205 F 
ATOM     71  C   UNL     1       6.908  10.141   9.455  1.00  0.00     0.022 A 
BRANCH  69  72
ATOM     72  S   UNL     1       4.834   8.356   9.528  1.00  0.00     0.127 S 
ATOM     73  O   UNL     1       4.513   8.643  10.923  1.00  0.00    -0.237 OA
ATOM     74  O   UNL     1       4.258   9.286   8.557  1.00  0.00    -0.237 OA
ATOM     75  O   UNL     1       4.754   6.954   9.134  1.00  0.00    -0.744 OA
ENDBRANCH  69  72
ENDBRANCH  41  65
BRANCH  53  76
ATOM     76  C   UNL     1      14.573   6.468  12.857  1.00  0.00     0.023 A 
ATOM     77  C   UNL     1      13.940   6.184  14.083  1.00  0.00     0.012 A 
ATOM     78  C   UNL     1      15.783   7.190  12.855  1.00  0.00     0.148 A 
ATOM     79  C   UNL     1      14.481   6.643  15.283  1.00  0.00     0.002 A 
ATOM     80  C   UNL     1      16.343   7.601  14.059  1.00  0.00     0.091 A 
ATOM     81  F   UNL     1      16.361   7.468  11.677  1.00  0.00    -0.205 F 
ATOM     82  C   UNL     1      15.687   7.340  15.272  1.00  0.00     0.022 A 
BRANCH  80  83
ATOM     83  S   UNL     1      17.940   8.418  14.142  1.00  0.00     0.127 S 
ATOM     84  O   UNL     1      17.553   9.807  14.385  1.00  0.00    -0.237 OA
ATOM     85  O   UNL     1      18.573   7.753  15.282  1.00  0.00    -0.237 OA
ATOM     86  O   UNL     1      18.586   8.160  12.862  1.00  0.00    -0.744 OA
ENDBRANCH  80  83
ENDBRANCH  53  76
ENDBRANCH  27  28
ENDBRANCH   2  22
TORSDOF 13
