REMARK SMILES O=C(NCCCNC(=O)c1ccc(-c2c3nc(c(-c4cccc(S(=O)(=O)[O-])c4F)c4ccc([nH]4)c(-c4cccc(S(=O)(=O)[O-])c4F)c4nc(c(-c5cccc(S(=O)(=O)[O-])c5F)c5ccc2[nH]5)C=C4)C=C3)cc1)C1=Cc2cc(S(F)(F)(F)(F)F)ccc2O[C@H]1C(F)(F)F
REMARK SMILES IDX 6 1 5 2 4 3 3 4 1 5 2 6 73 8 74 9 88 10 75 11 87 12 76 13
REMARK SMILES IDX 86 14 77 15 85 16 84 17 89 18 90 19 91 20 92 21 78 22 79 23
REMARK SMILES IDX 80 24 81 25 82 26 83 27 7 28 8 29 9 31 10 32 11 33 72 34
REMARK SMILES IDX 12 35 71 36 13 37 14 38 15 39 65 40 16 41 70 42 64 43 66 44
REMARK SMILES IDX 17 45 69 46 63 47 62 48 18 50 50 51 30 52 49 53 31 54 34 55
REMARK SMILES IDX 48 56 67 57 32 58 33 59 47 61 68 62 35 63 19 64 20 65 28 66
REMARK SMILES IDX 21 67 23 68 29 69 22 70 24 71 25 72 26 73 27 74 51 75 52 76
REMARK SMILES IDX 60 77 53 78 55 79 61 80 54 81 56 82 57 83 58 84 59 85 36 86
REMARK SMILES IDX 37 87 45 88 38 89 40 90 46 91 39 92 41 93 42 94 43 95 44 96
REMARK H PARENT 3 7 7 30 66 49 34 60
REMARK Flexibility Score: inf
ROOT
ATOM      1  C   UNL     1       4.562   2.531  -2.546  1.00  0.00     0.118 C 
ENDROOT
BRANCH   1   2
ATOM      2  C   UNL     1       5.068   1.233  -1.937  1.00  0.00     0.042 C 
BRANCH   2   3
ATOM      3  C   UNL     1       4.562   1.112  -0.509  1.00  0.00     0.118 C 
BRANCH   3   4
ATOM      4  N   UNL     1       3.092   1.112  -0.509  1.00  0.00    -0.352 N 
ATOM      5  O   UNL     1       1.086  -0.041   0.031  1.00  0.00    -0.270 OA
ATOM      6  C   UNL     1       2.357  -0.041   0.031  1.00  0.00     0.251 C 
ATOM      7  H   UNL     1       2.599   1.884  -0.871  1.00  0.00     0.163 HD
BRANCH   6   8
ATOM      8  C   UNL     1       3.117  -1.233   0.590  1.00  0.00     0.067 C 
ATOM      9  C   UNL     1       4.477  -1.233   0.590  1.00  0.00     0.025 C 
ATOM     10  C   UNL     1       2.357  -2.425   1.149  1.00  0.00     0.314 C 
ATOM     11  C   UNL     1       5.237  -0.041   0.031  1.00  0.00     0.019 A 
ATOM     12  O   UNL     1       3.616   1.263   1.180  1.00  0.00    -0.475 OA
ATOM     13  C   UNL     1       6.294  -0.177  -0.854  1.00  0.00     0.036 A 
ATOM     14  C   UNL     1       4.798   1.157   0.401  1.00  0.00     0.128 A 
ATOM     15  C   UNL     1       7.016   1.020  -1.073  1.00  0.00     0.107 A 
ATOM     16  C   UNL     1       5.478   2.294   0.037  1.00  0.00     0.048 A 
ATOM     17  C   UNL     1       6.567   2.229  -0.787  1.00  0.00     0.028 A 
BRANCH  10  18
ATOM     18  C   UNL     1       0.862  -2.173   1.031  1.00  0.00     0.429 C 
ATOM     19  F   UNL     1       0.314  -3.381   1.128  1.00  0.00    -0.167 F 
ATOM     20  F   UNL     1       0.441  -1.413   2.038  1.00  0.00    -0.167 F 
ATOM     21  F   UNL     1       0.508  -1.616  -0.123  1.00  0.00    -0.167 F 
ENDBRANCH  10  18
BRANCH  15  22
ATOM     22  S   UNL     1       8.671   0.885  -1.794  1.00  0.00     0.310 S 
ATOM     23  F   UNL     1       9.361   0.861  -0.366  1.00  0.00    -0.094 F 
ATOM     24  F   UNL     1       8.789   2.456  -1.747  1.00  0.00    -0.094 F 
ATOM     25  F   UNL     1      10.091   0.769  -2.415  1.00  0.00    -0.094 F 
ATOM     26  F   UNL     1       8.591  -0.689  -1.702  1.00  0.00    -0.094 F 
ATOM     27  F   UNL     1       7.274   0.984  -1.059  1.00  0.00    -0.094 F 
ENDBRANCH  15  22
ENDBRANCH   6   8
ENDBRANCH   3   4
ENDBRANCH   2   3
ENDBRANCH   1   2
BRANCH   1  28
ATOM     28  N   UNL     1       5.052   3.668  -1.753  1.00  0.00    -0.352 N 
ATOM     29  C   UNL     1       5.897   4.693  -2.383  1.00  0.00     0.251 C 
ATOM     30  H   UNL     1       4.814   3.743  -0.801  1.00  0.00     0.163 HD
ATOM     31  O   UNL     1       6.320   5.676  -1.698  1.00  0.00    -0.269 OA
BRANCH  29  32
ATOM     32  C   UNL     1       6.264   4.577  -3.853  1.00  0.00     0.039 A 
ATOM     33  C   UNL     1       7.576   4.790  -4.243  1.00  0.00     0.014 A 
ATOM     34  C   UNL     1       5.325   4.260  -4.738  1.00  0.00     0.014 A 
ATOM     35  C   UNL     1       7.743   4.929  -5.641  1.00  0.00     0.010 A 
ATOM     36  C   UNL     1       5.597   4.285  -6.085  1.00  0.00     0.010 A 
ATOM     37  C   UNL     1       6.858   4.547  -6.543  1.00  0.00    -0.014 A 
BRANCH  37  38
ATOM     38  C   UNL     1       7.221   4.405  -8.012  1.00  0.00     0.031 A 
ATOM     39  C   UNL     1       6.530   5.188  -8.938  1.00  0.00     0.074 A 
ATOM     40  C   UNL     1       8.204   3.491  -8.352  1.00  0.00     0.049 A 
ATOM     41  N   UNL     1       6.702   5.227 -10.261  1.00  0.00    -0.248 NA
ATOM     42  C   UNL     1       5.461   6.134  -8.583  1.00  0.00     0.031 C 
ATOM     43  C   UNL     1       8.912   2.704  -7.423  1.00  0.00     0.029 A 
ATOM     44  N   UNL     1       8.670   3.179  -9.610  1.00  0.00    -0.354 N 
ATOM     45  C   UNL     1       5.868   6.113 -10.808  1.00  0.00     0.074 A 
ATOM     46  C   UNL     1       5.054   6.705  -9.738  1.00  0.00     0.031 C 
ATOM     47  C   UNL     1       9.783   1.921  -8.112  1.00  0.00     0.029 A 
ATOM     48  C   UNL     1       9.635   2.205  -9.482  1.00  0.00     0.049 A 
ATOM     49  H   UNL     1       8.365   3.583 -10.455  1.00  0.00     0.167 HD
ATOM     50  C   UNL     1       5.756   6.453 -12.157  1.00  0.00     0.034 A 
ATOM     51  C   UNL     1      10.355   1.586 -10.492  1.00  0.00     0.034 A 
ATOM     52  C   UNL     1       6.508   5.865 -13.163  1.00  0.00     0.049 A 
ATOM     53  C   UNL     1      10.202   1.884 -11.848  1.00  0.00     0.074 A 
ATOM     54  C   UNL     1       6.412   6.201 -14.527  1.00  0.00     0.029 A 
ATOM     55  N   UNL     1       7.455   4.873 -13.037  1.00  0.00    -0.354 N 
ATOM     56  N   UNL     1       9.396   2.798 -12.391  1.00  0.00    -0.248 NA
ATOM     57  C   UNL     1      10.936   1.213 -12.928  1.00  0.00     0.031 C 
ATOM     58  C   UNL     1       7.284   5.417 -15.216  1.00  0.00     0.029 A 
ATOM     59  C   UNL     1       7.937   4.577 -14.293  1.00  0.00     0.049 A 
ATOM     60  H   UNL     1       7.739   4.449 -12.195  1.00  0.00     0.167 HD
ATOM     61  C   UNL     1       9.540   2.807 -13.718  1.00  0.00     0.074 A 
ATOM     62  C   UNL     1      10.527   1.782 -14.083  1.00  0.00     0.031 C 
ATOM     63  C   UNL     1       8.890   3.632 -14.638  1.00  0.00     0.034 A 
BRANCH  50  64
ATOM     64  C   UNL     1       4.754   7.528 -12.546  1.00  0.00     0.023 A 
ATOM     65  C   UNL     1       4.919   8.794 -12.010  1.00  0.00     0.012 A 
ATOM     66  C   UNL     1       3.760   7.258 -13.383  1.00  0.00     0.148 A 
ATOM     67  C   UNL     1       3.803   9.644 -12.195  1.00  0.00     0.002 A 
ATOM     68  C   UNL     1       2.775   8.186 -13.622  1.00  0.00     0.091 A 
ATOM     69  F   UNL     1       3.716   6.078 -13.996  1.00  0.00    -0.205 F 
ATOM     70  C   UNL     1       2.842   9.438 -13.078  1.00  0.00     0.022 A 
BRANCH  68  71
ATOM     71  S   UNL     1       1.369   7.744 -14.672  1.00  0.00     0.127 S 
ATOM     72  O   UNL     1       0.072   7.876 -13.871  1.00  0.00    -0.237 OA
ATOM     73  O   UNL     1       1.320   8.682 -15.881  1.00  0.00    -0.237 OA
ATOM     74  O   UNL     1       1.544   6.130 -15.211  1.00  0.00    -0.744 OA
ENDBRANCH  68  71
ENDBRANCH  50  64
BRANCH  51  75
ATOM     75  C   UNL     1      11.369   0.523 -10.101  1.00  0.00     0.023 A 
ATOM     76  C   UNL     1      12.693   0.717 -10.460  1.00  0.00     0.012 A 
ATOM     77  C   UNL     1      10.985  -0.569  -9.451  1.00  0.00     0.148 A 
ATOM     78  C   UNL     1      13.495  -0.442 -10.340  1.00  0.00     0.002 A 
ATOM     79  C   UNL     1      11.861  -1.608  -9.250  1.00  0.00     0.091 A 
ATOM     80  F   UNL     1       9.741  -0.657  -8.989  1.00  0.00    -0.205 F 
ATOM     81  C   UNL     1      13.170  -1.508  -9.632  1.00  0.00     0.022 A 
BRANCH  79  82
ATOM     82  S   UNL     1      11.274  -3.131  -8.468  1.00  0.00     0.127 S 
ATOM     83  O   UNL     1      11.476  -4.307  -9.426  1.00  0.00    -0.237 OA
ATOM     84  O   UNL     1      12.062  -3.380  -7.180  1.00  0.00    -0.237 OA
ATOM     85  O   UNL     1       9.611  -2.978  -8.098  1.00  0.00    -0.744 OA
ENDBRANCH  79  82
ENDBRANCH  51  75
BRANCH  63  86
ATOM     86  C   UNL     1       9.250   3.484 -16.107  1.00  0.00     0.023 A 
ATOM     87  C   UNL     1       9.031   2.270 -16.738  1.00  0.00     0.012 A 
ATOM     88  C   UNL     1       9.748   4.523 -16.767  1.00  0.00     0.148 A 
ATOM     89  C   UNL     1       9.643   2.166 -18.010  1.00  0.00     0.002 A 
ATOM     90  C   UNL     1      10.203   4.381 -18.056  1.00  0.00     0.091 A 
ATOM     91  F   UNL     1       9.806   5.713 -16.176  1.00  0.00    -0.205 F 
ATOM     92  C   UNL     1      10.072   3.193 -18.721  1.00  0.00     0.022 A 
BRANCH  90  93
ATOM     93  S   UNL     1      10.987   5.785 -18.885  1.00  0.00     0.127 S 
ATOM     94  O   UNL     1      12.419   5.413 -19.276  1.00  0.00    -0.237 OA
ATOM     95  O   UNL     1      10.192   6.144 -20.143  1.00  0.00    -0.237 OA
ATOM     96  O   UNL     1      11.015   7.128 -17.827  1.00  0.00    -0.744 OA
ENDBRANCH  90  93
ENDBRANCH  63  86
ENDBRANCH  37  38
ENDBRANCH  29  32
ENDBRANCH   1  28
TORSDOF 15
