REMARK SMILES Cn1ncc(SCC(=O)NCCCNC(=O)c2ccc(-c3c4nc(c(-c5cccc(S(=O)(=O)[O-])c5F)c5ccc([nH]5)c(-c5cccc(S(=O)(=O)[O-])c5F)c5nc(c(-c6cccc(S(=O)(=O)[O-])c6F)c6ccc3[nH]6)C=C5)C=C4)cc2)c(Cl)c1=O
REMARK SMILES IDX 12 1 11 2 10 3 8 4 9 5 7 7 6 8 5 9 1 10 2 11 3 12 82 13 4 14
REMARK SMILES IDX 80 15 83 16 81 17 13 18 14 19 15 20 16 22 17 23 18 24 79 25
REMARK SMILES IDX 19 26 78 27 20 28 21 29 22 30 72 31 23 32 77 33 71 34 73 35
REMARK SMILES IDX 24 36 76 37 70 38 69 39 25 41 57 42 37 43 56 44 38 45 41 46
REMARK SMILES IDX 55 47 74 48 39 49 40 50 54 52 75 53 42 54 26 55 27 56 35 57
REMARK SMILES IDX 28 58 30 59 36 60 29 61 31 62 32 63 33 64 34 65 58 66 59 67
REMARK SMILES IDX 67 68 60 69 62 70 68 71 61 72 63 73 64 74 65 75 66 76 43 77
REMARK SMILES IDX 44 78 52 79 45 80 47 81 53 82 46 83 48 84 49 85 50 86 51 87
REMARK H PARENT 10 6 14 21 73 40 41 51
REMARK Flexibility Score: inf
ROOT
ATOM      1  C   UNL     1       1.996  -0.282   7.451  1.00  0.00     0.042 C 
ENDROOT
BRANCH   1   2
ATOM      2  C   UNL     1       1.091   0.842   7.947  1.00  0.00     0.117 C 
BRANCH   2   3
ATOM      3  N   UNL     1       1.182   2.015   7.097  1.00  0.00    -0.355 N 
ATOM      4  C   UNL     1       0.269   2.551   6.242  1.00  0.00     0.230 C 
ATOM      5  O   UNL     1       0.622   3.517   5.563  1.00  0.00    -0.274 OA
ATOM      6  H   UNL     1       2.038   2.498   7.147  1.00  0.00     0.163 HD
BRANCH   4   7
ATOM      7  C   UNL     1      -1.147   2.023   6.188  1.00  0.00     0.175 C 
BRANCH   7   8
ATOM      8  S   UNL     1      -1.349   0.469   5.297  1.00  0.00    -0.113 SA
BRANCH   8   9
ATOM      9  C   UNL     1      -0.556   0.618   3.768  1.00  0.00     0.052 A 
ATOM     10  C   UNL     1       1.244  -0.099  -0.021  1.00  0.00     0.178 C 
ATOM     11  N   UNL     1       0.645   0.197   1.271  1.00  0.00    -0.232 N 
ATOM     12  N   UNL     1       0.657  -0.834   2.167  1.00  0.00    -0.177 NA
ATOM     13  C   UNL     1       0.129   1.457   1.545  1.00  0.00     0.286 A 
ATOM     14  C   UNL     1       0.110  -0.626   3.317  1.00  0.00     0.150 A 
ATOM     15  C   UNL     1      -0.573   1.606   2.864  1.00  0.00     0.123 A 
ATOM     16  O   UNL     1       0.200   2.400   0.757  1.00  0.00    -0.266 OA
ATOM     17  Cl  UNL     1      -1.459   3.083   3.054  1.00  0.00    -0.077 Cl
ENDBRANCH   8   9
ENDBRANCH   7   8
ENDBRANCH   4   7
ENDBRANCH   2   3
ENDBRANCH   1   2
BRANCH   1  18
ATOM     18  C   UNL     1       3.479   0.082   7.399  1.00  0.00     0.118 C 
BRANCH  18  19
ATOM     19  N   UNL     1       4.028   0.392   8.713  1.00  0.00    -0.352 N 
ATOM     20  C   UNL     1       5.063  -0.211   9.385  1.00  0.00     0.251 C 
ATOM     21  H   UNL     1       3.595   1.139   9.186  1.00  0.00     0.163 HD
ATOM     22  O   UNL     1       5.275   0.070  10.562  1.00  0.00    -0.269 OA
BRANCH  20  23
ATOM     23  C   UNL     1       5.905  -1.208   8.695  1.00  0.00     0.039 A 
ATOM     24  C   UNL     1       6.136  -2.442   9.308  1.00  0.00     0.014 A 
ATOM     25  C   UNL     1       6.465  -0.921   7.446  1.00  0.00     0.014 A 
ATOM     26  C   UNL     1       6.873  -3.419   8.636  1.00  0.00     0.010 A 
ATOM     27  C   UNL     1       7.160  -1.912   6.758  1.00  0.00     0.010 A 
ATOM     28  C   UNL     1       7.366  -3.170   7.345  1.00  0.00    -0.014 A 
BRANCH  28  29
ATOM     29  C   UNL     1       8.090  -4.212   6.580  1.00  0.00     0.031 A 
ATOM     30  C   UNL     1       9.555  -4.050   6.290  1.00  0.00     0.074 A 
ATOM     31  C   UNL     1       7.409  -5.258   6.073  1.00  0.00     0.049 A 
ATOM     32  N   UNL     1      10.335  -4.805   5.563  1.00  0.00    -0.248 NA
ATOM     33  C   UNL     1      10.227  -2.881   6.880  1.00  0.00     0.031 C 
ATOM     34  C   UNL     1       5.974  -5.495   6.246  1.00  0.00     0.029 A 
ATOM     35  N   UNL     1       7.827  -6.300   5.285  1.00  0.00    -0.354 N 
ATOM     36  C   UNL     1      11.581  -4.192   5.583  1.00  0.00     0.074 A 
ATOM     37  C   UNL     1      11.451  -2.992   6.381  1.00  0.00     0.031 C 
ATOM     38  C   UNL     1       5.631  -6.611   5.581  1.00  0.00     0.029 A 
ATOM     39  C   UNL     1       6.813  -7.153   4.916  1.00  0.00     0.049 A 
ATOM     40  H   UNL     1       8.764  -6.426   5.011  1.00  0.00     0.167 HD
ATOM     41  C   UNL     1      12.734  -4.605   5.010  1.00  0.00     0.034 A 
ATOM     42  C   UNL     1       6.832  -8.246   4.129  1.00  0.00     0.034 A 
ATOM     43  C   UNL     1      12.872  -5.817   4.252  1.00  0.00     0.049 A 
ATOM     44  C   UNL     1       8.133  -8.701   3.530  1.00  0.00     0.074 A 
ATOM     45  C   UNL     1      14.016  -6.343   3.677  1.00  0.00     0.029 A 
ATOM     46  N   UNL     1      11.839  -6.695   3.968  1.00  0.00    -0.354 N 
ATOM     47  N   UNL     1       9.322  -8.160   3.644  1.00  0.00    -0.248 NA
ATOM     48  C   UNL     1       8.106  -9.930   2.724  1.00  0.00     0.031 C 
ATOM     49  C   UNL     1      13.674  -7.542   3.045  1.00  0.00     0.029 A 
ATOM     50  C   UNL     1      12.319  -7.765   3.235  1.00  0.00     0.049 A 
ATOM     51  H   UNL     1      10.902  -6.574   4.246  1.00  0.00     0.167 HD
ATOM     52  C   UNL     1      10.189  -9.000   2.956  1.00  0.00     0.074 A 
ATOM     53  C   UNL     1       9.391 -10.088   2.430  1.00  0.00     0.031 C 
ATOM     54  C   UNL     1      11.525  -8.872   2.772  1.00  0.00     0.034 A 
BRANCH  41  55
ATOM     55  C   UNL     1      13.967  -3.776   5.237  1.00  0.00     0.023 A 
ATOM     56  C   UNL     1      14.643  -3.882   6.468  1.00  0.00     0.012 A 
ATOM     57  C   UNL     1      14.506  -2.976   4.212  1.00  0.00     0.148 A 
ATOM     58  C   UNL     1      15.836  -3.194   6.681  1.00  0.00     0.002 A 
ATOM     59  C   UNL     1      15.711  -2.317   4.421  1.00  0.00     0.091 A 
ATOM     60  F   UNL     1      13.834  -2.881   3.056  1.00  0.00    -0.205 F 
ATOM     61  C   UNL     1      16.374  -2.421   5.655  1.00  0.00     0.022 A 
BRANCH  59  62
ATOM     62  S   UNL     1      16.521  -1.339   3.150  1.00  0.00     0.127 S 
ATOM     63  O   UNL     1      16.463   0.003   3.729  1.00  0.00    -0.237 OA
ATOM     64  O   UNL     1      17.858  -1.931   3.114  1.00  0.00    -0.237 OA
ATOM     65  O   UNL     1      15.736  -1.524   1.937  1.00  0.00    -0.744 OA
ENDBRANCH  59  62
ENDBRANCH  41  55
BRANCH  42  66
ATOM     66  C   UNL     1       5.582  -9.031   3.941  1.00  0.00     0.023 A 
ATOM     67  C   UNL     1       5.424 -10.240   4.645  1.00  0.00     0.012 A 
ATOM     68  C   UNL     1       4.531  -8.558   3.133  1.00  0.00     0.148 A 
ATOM     69  C   UNL     1       4.242 -10.973   4.539  1.00  0.00     0.002 A 
ATOM     70  C   UNL     1       3.341  -9.273   3.063  1.00  0.00     0.091 A 
ATOM     71  F   UNL     1       4.708  -7.403   2.476  1.00  0.00    -0.205 F 
ATOM     72  C   UNL     1       3.198 -10.486   3.757  1.00  0.00     0.022 A 
BRANCH  70  73
ATOM     73  S   UNL     1       1.901  -8.680   2.169  1.00  0.00     0.127 S 
ATOM     74  O   UNL     1       1.731  -9.716   1.153  1.00  0.00    -0.237 OA
ATOM     75  O   UNL     1       0.881  -8.672   3.219  1.00  0.00    -0.237 OA
ATOM     76  O   UNL     1       2.261  -7.363   1.663  1.00  0.00    -0.744 OA
ENDBRANCH  70  73
ENDBRANCH  42  66
BRANCH  54  77
ATOM     77  C   UNL     1      12.241  -9.947   2.003  1.00  0.00     0.023 A 
ATOM     78  C   UNL     1      12.184  -9.950   0.597  1.00  0.00     0.012 A 
ATOM     79  C   UNL     1      13.071 -10.869   2.670  1.00  0.00     0.148 A 
ATOM     80  C   UNL     1      12.940 -10.863  -0.137  1.00  0.00     0.002 A 
ATOM     81  C   UNL     1      13.847 -11.753   1.932  1.00  0.00     0.091 A 
ATOM     82  F   UNL     1      13.095 -10.852   4.011  1.00  0.00    -0.205 F 
ATOM     83  C   UNL     1      13.780 -11.754   0.529  1.00  0.00     0.022 A 
BRANCH  81  84
ATOM     84  S   UNL     1      15.016 -12.882   2.697  1.00  0.00     0.127 S 
ATOM     85  O   UNL     1      14.373 -14.175   2.471  1.00  0.00    -0.237 OA
ATOM     86  O   UNL     1      16.228 -12.656   1.908  1.00  0.00    -0.237 OA
ATOM     87  O   UNL     1      15.117 -12.473   4.092  1.00  0.00    -0.744 OA
ENDBRANCH  81  84
ENDBRANCH  54  77
ENDBRANCH  28  29
ENDBRANCH  20  23
ENDBRANCH  18  19
ENDBRANCH   1  18
TORSDOF 15
