REMARK SMILES CC(C)S(=O)(=O)N[C@](C)(C(=O)NCCCNC(=O)c1ccc(-c2c3nc(c(-c4cccc(S(=O)(=O)[O-])c4F)c4ccc([nH]4)c(-c4cccc(S(=O)(=O)[O-])c4F)c4nc(c(-c5cccc(S(=O)(=O)[O-])c5F)c5ccc2[nH]5)C=C4)C=C3)cc1)C(F)(F)F
REMARK SMILES IDX 14 1 13 2 12 3 10 4 11 5 8 7 9 8 7 9 4 11 5 12 6 13 2 14
REMARK SMILES IDX 1 15 3 16 82 17 83 18 84 19 85 20 15 21 16 22 17 23 18 25
REMARK SMILES IDX 19 26 20 27 81 28 21 29 80 30 22 31 23 32 24 33 74 34 25 35
REMARK SMILES IDX 79 36 73 37 75 38 26 39 78 40 72 41 71 42 27 44 59 45 39 46
REMARK SMILES IDX 58 47 40 48 43 49 57 50 76 51 41 52 42 53 56 55 77 56 44 57
REMARK SMILES IDX 28 58 29 59 37 60 30 61 32 62 38 63 31 64 33 65 34 66 35 67
REMARK SMILES IDX 36 68 60 69 61 70 69 71 62 72 64 73 70 74 63 75 65 76 66 77
REMARK SMILES IDX 67 78 68 79 45 80 46 81 54 82 47 83 49 84 55 85 48 86 50 87
REMARK SMILES IDX 51 88 52 89 53 90
REMARK H PARENT 12 6 7 10 16 24 75 43 43 54
REMARK Flexibility Score: inf
ROOT
ATOM      1  C   UNL     1      -5.166  -0.052   2.422  1.00  0.00     0.042 C 
ENDROOT
BRANCH   1   2
ATOM      2  C   UNL     1      -4.377   1.146   1.916  1.00  0.00     0.117 C 
BRANCH   2   3
ATOM      3  N   UNL     1      -3.286   1.547   2.790  1.00  0.00    -0.354 N 
ATOM      4  C   UNL     1      -1.927   1.388   2.692  1.00  0.00     0.250 C 
ATOM      5  O   UNL     1      -1.266   2.030   3.511  1.00  0.00    -0.273 OA
ATOM      6  H   UNL     1      -3.577   2.020   3.603  1.00  0.00     0.163 HD
BRANCH   4   7
ATOM      7  C   UNL     1      -1.283   0.469   1.615  1.00  0.00     0.204 C 
ATOM      8  C   UNL     1      -1.751  -0.958   1.883  1.00  0.00     0.050 C 
BRANCH   7   9
ATOM      9  N   UNL     1      -1.820   0.997   0.293  1.00  0.00    -0.191 NA
ATOM     10  H   UNL     1      -2.803   0.727   0.279  1.00  0.00     0.142 HD
BRANCH   9  11
ATOM     11  S   UNL     1      -1.250   0.626  -1.217  1.00  0.00     0.215 S 
ATOM     12  O   UNL     1       0.158   0.346  -1.133  1.00  0.00    -0.212 OA
ATOM     13  O   UNL     1      -1.710   1.743  -2.020  1.00  0.00    -0.212 OA
BRANCH  11  14
ATOM     14  C   UNL     1      -2.141  -0.836  -1.808  1.00  0.00     0.118 C 
ATOM     15  C   UNL     1      -1.689  -2.139  -1.166  1.00  0.00     0.026 C 
ATOM     16  C   UNL     1      -3.655  -0.671  -1.747  1.00  0.00     0.026 C 
ENDBRANCH  11  14
ENDBRANCH   9  11
ENDBRANCH   7   9
BRANCH   7  17
ATOM     17  C   UNL     1       0.248   0.555   1.826  1.00  0.00     0.416 C 
ATOM     18  F   UNL     1       0.599   0.291   3.110  1.00  0.00    -0.168 F 
ATOM     19  F   UNL     1       0.909  -0.374   1.094  1.00  0.00    -0.168 F 
ATOM     20  F   UNL     1       0.743   1.770   1.499  1.00  0.00    -0.168 F 
ENDBRANCH   7  17
ENDBRANCH   4   7
ENDBRANCH   2   3
ENDBRANCH   1   2
BRANCH   1  21
ATOM     21  C   UNL     1      -5.954   0.213   3.694  1.00  0.00     0.118 C 
BRANCH  21  22
ATOM     22  N   UNL     1      -6.950   1.260   3.525  1.00  0.00    -0.352 N 
ATOM     23  C   UNL     1      -8.312   1.220   3.679  1.00  0.00     0.251 C 
ATOM     24  H   UNL     1      -6.588   2.136   3.259  1.00  0.00     0.163 HD
ATOM     25  O   UNL     1      -8.982   2.173   3.287  1.00  0.00    -0.269 OA
BRANCH  23  26
ATOM     26  C   UNL     1      -8.975   0.052   4.300  1.00  0.00     0.039 A 
ATOM     27  C   UNL     1     -10.228  -0.343   3.821  1.00  0.00     0.014 A 
ATOM     28  C   UNL     1      -8.402  -0.622   5.381  1.00  0.00     0.014 A 
ATOM     29  C   UNL     1     -10.886  -1.427   4.407  1.00  0.00     0.010 A 
ATOM     30  C   UNL     1      -9.011  -1.763   5.895  1.00  0.00     0.010 A 
ATOM     31  C   UNL     1     -10.275  -2.158   5.439  1.00  0.00    -0.014 A 
BRANCH  31  32
ATOM     32  C   UNL     1     -10.966  -3.302   6.086  1.00  0.00     0.031 A 
ATOM     33  C   UNL     1     -11.294  -3.250   7.557  1.00  0.00     0.074 A 
ATOM     34  C   UNL     1     -11.248  -4.409   5.371  1.00  0.00     0.049 A 
ATOM     35  N   UNL     1     -11.858  -4.160   8.309  1.00  0.00    -0.248 NA
ATOM     36  C   UNL     1     -10.911  -2.029   8.286  1.00  0.00     0.031 C 
ATOM     37  C   UNL     1     -10.918  -4.611   3.959  1.00  0.00     0.029 A 
ATOM     38  N   UNL     1     -11.857  -5.581   5.741  1.00  0.00    -0.354 N 
ATOM     39  C   UNL     1     -11.863  -3.639   9.598  1.00  0.00     0.074 A 
ATOM     40  C   UNL     1     -11.205  -2.353   9.536  1.00  0.00     0.031 C 
ATOM     41  C   UNL     1     -11.336  -5.829   3.580  1.00  0.00     0.029 A 
ATOM     42  C   UNL     1     -11.934  -6.507   4.727  1.00  0.00     0.049 A 
ATOM     43  H   UNL     1     -12.206  -5.745   6.647  1.00  0.00     0.167 HD
ATOM     44  C   UNL     1     -12.394  -4.165  10.727  1.00  0.00     0.034 A 
ATOM     45  C   UNL     1     -12.423  -7.762   4.723  1.00  0.00     0.034 A 
ATOM     46  C   UNL     1     -13.080  -5.427  10.778  1.00  0.00     0.049 A 
ATOM     47  C   UNL     1     -13.042  -8.309   5.981  1.00  0.00     0.074 A 
ATOM     48  C   UNL     1     -13.720  -6.015  11.854  1.00  0.00     0.029 A 
ATOM     49  N   UNL     1     -13.210  -6.299   9.709  1.00  0.00    -0.354 N 
ATOM     50  N   UNL     1     -13.159  -7.743   7.157  1.00  0.00    -0.248 NA
ATOM     51  C   UNL     1     -13.636  -9.650   5.898  1.00  0.00     0.031 C 
ATOM     52  C   UNL     1     -14.207  -7.261  11.445  1.00  0.00     0.029 A 
ATOM     53  C   UNL     1     -13.915  -7.424  10.100  1.00  0.00     0.049 A 
ATOM     54  H   UNL     1     -12.854  -6.142   8.805  1.00  0.00     0.167 HD
ATOM     55  C   UNL     1     -13.883  -8.636   7.939  1.00  0.00     0.074 A 
ATOM     56  C   UNL     1     -14.188  -9.774   7.097  1.00  0.00     0.031 C 
ATOM     57  C   UNL     1     -14.259  -8.525   9.237  1.00  0.00     0.034 A 
BRANCH  44  58
ATOM     58  C   UNL     1     -12.285  -3.356  11.995  1.00  0.00     0.023 A 
ATOM     59  C   UNL     1     -13.018  -2.158  12.129  1.00  0.00     0.012 A 
ATOM     60  C   UNL     1     -11.498  -3.806  13.073  1.00  0.00     0.148 A 
ATOM     61  C   UNL     1     -12.935  -1.400  13.296  1.00  0.00     0.002 A 
ATOM     62  C   UNL     1     -11.462  -3.072  14.253  1.00  0.00     0.091 A 
ATOM     63  F   UNL     1     -10.793  -4.936  12.922  1.00  0.00    -0.205 F 
ATOM     64  C   UNL     1     -12.167  -1.862  14.361  1.00  0.00     0.022 A 
BRANCH  62  65
ATOM     65  S   UNL     1     -10.572  -3.624  15.711  1.00  0.00     0.127 S 
ATOM     66  O   UNL     1      -9.490  -2.643  15.785  1.00  0.00    -0.237 OA
ATOM     67  O   UNL     1     -11.586  -3.493  16.757  1.00  0.00    -0.237 OA
ATOM     68  O   UNL     1     -10.155  -4.992  15.436  1.00  0.00    -0.744 OA
ENDBRANCH  62  65
ENDBRANCH  44  58
BRANCH  45  69
ATOM     69  C   UNL     1     -12.402  -8.567   3.469  1.00  0.00     0.023 A 
ATOM     70  C   UNL     1     -13.612  -8.864   2.810  1.00  0.00     0.012 A 
ATOM     71  C   UNL     1     -11.190  -9.027   2.919  1.00  0.00     0.148 A 
ATOM     72  C   UNL     1     -13.618  -9.639   1.651  1.00  0.00     0.002 A 
ATOM     73  C   UNL     1     -11.199  -9.748   1.732  1.00  0.00     0.091 A 
ATOM     74  F   UNL     1     -10.051  -8.737   3.563  1.00  0.00    -0.205 F 
ATOM     75  C   UNL     1     -12.413 -10.074   1.107  1.00  0.00     0.022 A 
BRANCH  73  76
ATOM     76  S   UNL     1      -9.690 -10.234   0.889  1.00  0.00     0.127 S 
ATOM     77  O   UNL     1      -9.720 -11.687   1.036  1.00  0.00    -0.237 OA
ATOM     78  O   UNL     1      -9.933  -9.745  -0.468  1.00  0.00    -0.237 OA
ATOM     79  O   UNL     1      -8.609  -9.551   1.588  1.00  0.00    -0.744 OA
ENDBRANCH  73  76
ENDBRANCH  45  69
BRANCH  57  80
ATOM     80  C   UNL     1     -15.108  -9.627   9.817  1.00  0.00     0.023 A 
ATOM     81  C   UNL     1     -14.557 -10.901  10.062  1.00  0.00     0.012 A 
ATOM     82  C   UNL     1     -16.447  -9.373  10.176  1.00  0.00     0.148 A 
ATOM     83  C   UNL     1     -15.339 -11.916  10.613  1.00  0.00     0.002 A 
ATOM     84  C   UNL     1     -17.202 -10.371  10.777  1.00  0.00     0.091 A 
ATOM     85  F   UNL     1     -16.959  -8.160   9.918  1.00  0.00    -0.205 F 
ATOM     86  C   UNL     1     -16.656 -11.648  10.981  1.00  0.00     0.022 A 
BRANCH  84  87
ATOM     87  S   UNL     1     -18.870 -10.082  11.378  1.00  0.00     0.127 S 
ATOM     88  O   UNL     1     -19.670 -10.809  10.394  1.00  0.00    -0.237 OA
ATOM     89  O   UNL     1     -18.831 -10.694  12.706  1.00  0.00    -0.237 OA
ATOM     90  O   UNL     1     -19.049  -8.636  11.385  1.00  0.00    -0.744 OA
ENDBRANCH  84  87
ENDBRANCH  57  80
ENDBRANCH  31  32
ENDBRANCH  23  26
ENDBRANCH  21  22
ENDBRANCH   1  21
TORSDOF 17
