REMARK SMILES O=C1C[C@@H](C(=O)NCCCNC(=O)c2ccc(-c3c4nc(c(-c5cccc(S(=O)(=O)[O-])c5F)c5ccc([nH]5)c(-c5cccc(S(=O)(=O)[O-])c5F)c5nc(c(-c6cccc(S(=O)(=O)[O-])c6F)c6ccc3[nH]6)C=C5)C=C4)cc2)C2(CC[NH+](Cc3c[nH]nc3-c3ccc(Cl)cc3)CC2)N1
REMARK SMILES IDX 9 1 8 2 7 3 5 4 6 5 4 7 1 8 2 9 3 10 96 11 77 12 78 14 95 15
REMARK SMILES IDX 79 16 94 17 80 18 81 20 82 21 83 22 86 23 84 24 85 25 87 27
REMARK SMILES IDX 88 28 93 29 89 30 92 31 90 32 91 33 10 34 11 35 12 36 13 38
REMARK SMILES IDX 14 39 15 40 76 41 16 42 75 43 17 44 18 45 19 46 69 47 20 48
REMARK SMILES IDX 74 49 68 50 70 51 21 52 73 53 67 54 66 55 22 57 54 58 34 59
REMARK SMILES IDX 53 60 35 61 38 62 52 63 71 64 36 65 37 66 51 68 72 69 39 70
REMARK SMILES IDX 23 71 24 72 32 73 25 74 27 75 33 76 26 77 28 78 29 79 30 80
REMARK SMILES IDX 31 81 55 82 56 83 64 84 57 85 59 86 65 87 58 88 60 89 61 90
REMARK SMILES IDX 62 91 63 92 40 93 41 94 49 95 42 96 44 97 50 98 43 99 45 100
REMARK SMILES IDX 46 101 47 102 48 103
REMARK H PARENT 7 6 96 13 80 19 84 26 11 37 70 56 38 67
REMARK Flexibility Score: inf
ROOT
ATOM      1  C   UNL     1       1.393   3.150  -0.837  1.00  0.00     0.042 C 
ENDROOT
BRANCH   1   2
ATOM      2  C   UNL     1       1.405   1.835  -1.615  1.00  0.00     0.117 C 
BRANCH   2   3
ATOM      3  N   UNL     1       2.517   1.698  -2.545  1.00  0.00    -0.356 N 
ATOM      4  C   UNL     1       3.646   0.944  -2.558  1.00  0.00     0.226 C 
ATOM      5  O   UNL     1       4.365   1.058  -3.559  1.00  0.00    -0.275 OA
ATOM      6  H   UNL     1       2.432   2.278  -3.336  1.00  0.00     0.163 HD
BRANCH   4   7
ATOM      7  C   UNL     1       4.107   0.020  -1.430  1.00  0.00     0.114 C 
ATOM      8  O   UNL     1       1.607  -1.149   0.841  1.00  0.00    -0.275 OA
ATOM      9  C   UNL     1       2.539  -0.641   0.251  1.00  0.00     0.221 C 
ATOM     10  C   UNL     1       3.085  -1.071  -1.086  1.00  0.00     0.116 C 
ATOM     11  N   UNL     1       3.262   0.449   0.683  1.00  0.00    -0.349 N 
ATOM     12  C   UNL     1       4.479   0.675  -0.083  1.00  0.00     0.063 C 
ATOM     13  H   UNL     1       2.983   1.019   1.436  1.00  0.00     0.164 HD
ATOM     14  C   UNL     1       4.806   2.174  -0.178  1.00  0.00     0.091 C 
ATOM     15  C   UNL     1       5.592  -0.139   0.646  1.00  0.00     0.091 C 
ATOM     16  C   UNL     1       6.280   2.476  -0.401  1.00  0.00     0.264 C 
ATOM     17  C   UNL     1       7.014   0.415   0.563  1.00  0.00     0.264 C 
ATOM     18  N   UNL     1       7.129   1.861   0.600  1.00  0.00    -0.331 N 
ATOM     19  H   UNL     1       8.095   2.041   0.326  1.00  0.00     0.348 HD
BRANCH  18  20
ATOM     20  C   UNL     1       7.227   2.540   1.905  1.00  0.00     0.303 C 
BRANCH  20  21
ATOM     21  C   UNL     1       5.991   2.532   2.749  1.00  0.00     0.052 A 
ATOM     22  C   UNL     1       5.532   1.489   3.537  1.00  0.00     0.115 A 
ATOM     23  C   UNL     1       5.085   3.609   3.064  1.00  0.00     0.101 A 
ATOM     24  N   UNL     1       4.366   1.901   4.098  1.00  0.00    -0.285 N 
ATOM     25  N   UNL     1       4.052   3.158   3.793  1.00  0.00    -0.175 NA
ATOM     26  H   UNL     1       3.808   1.327   4.673  1.00  0.00     0.189 HD
BRANCH  23  27
ATOM     27  C   UNL     1       5.159   5.038   2.753  1.00  0.00     0.003 A 
ATOM     28  C   UNL     1       5.119   5.960   3.811  1.00  0.00     0.012 A 
ATOM     29  C   UNL     1       5.235   5.526   1.445  1.00  0.00     0.012 A 
ATOM     30  C   UNL     1       5.201   7.335   3.569  1.00  0.00     0.021 A 
ATOM     31  C   UNL     1       5.326   6.900   1.199  1.00  0.00     0.021 A 
ATOM     32  C   UNL     1       5.319   7.798   2.263  1.00  0.00     0.041 A 
ATOM     33  Cl  UNL     1       5.458   9.483   1.953  1.00  0.00    -0.084 Cl
ENDBRANCH  23  27
ENDBRANCH  20  21
ENDBRANCH  18  20
ENDBRANCH   4   7
ENDBRANCH   2   3
ENDBRANCH   1   2
BRANCH   1  34
ATOM     34  C   UNL     1       1.198   4.380  -1.714  1.00  0.00     0.118 C 
BRANCH  34  35
ATOM     35  N   UNL     1      -0.083   4.344  -2.407  1.00  0.00    -0.352 N 
ATOM     36  C   UNL     1      -1.212   5.098  -2.213  1.00  0.00     0.251 C 
ATOM     37  H   UNL     1      -0.148   3.675  -3.126  1.00  0.00     0.163 HD
ATOM     38  O   UNL     1      -2.281   4.696  -2.668  1.00  0.00    -0.269 OA
BRANCH  36  39
ATOM     39  C   UNL     1      -1.151   6.384  -1.486  1.00  0.00     0.039 A 
ATOM     40  C   UNL     1      -2.238   6.767  -0.696  1.00  0.00     0.014 A 
ATOM     41  C   UNL     1      -0.061   7.247  -1.636  1.00  0.00     0.014 A 
ATOM     42  C   UNL     1      -2.218   7.999  -0.038  1.00  0.00     0.010 A 
ATOM     43  C   UNL     1      -0.002   8.430  -0.905  1.00  0.00     0.010 A 
ATOM     44  C   UNL     1      -1.091   8.833  -0.121  1.00  0.00    -0.014 A 
BRANCH  44  45
ATOM     45  C   UNL     1      -1.049  10.137   0.589  1.00  0.00     0.031 A 
ATOM     46  C   UNL     1      -0.915  11.422  -0.188  1.00  0.00     0.074 A 
ATOM     47  C   UNL     1      -1.075  10.160   1.936  1.00  0.00     0.049 A 
ATOM     48  N   UNL     1      -0.854  12.651   0.257  1.00  0.00    -0.248 NA
ATOM     49  C   UNL     1      -0.810  11.316  -1.654  1.00  0.00     0.031 C 
ATOM     50  C   UNL     1      -1.125   8.979   2.801  1.00  0.00     0.029 A 
ATOM     51  N   UNL     1      -1.045  11.212   2.816  1.00  0.00    -0.354 N 
ATOM     52  C   UNL     1      -0.662  13.454  -0.861  1.00  0.00     0.074 A 
ATOM     53  C   UNL     1      -0.586  12.574  -2.005  1.00  0.00     0.031 C 
ATOM     54  C   UNL     1      -1.142   9.372   4.085  1.00  0.00     0.029 A 
ATOM     55  C   UNL     1      -1.067  10.828   4.137  1.00  0.00     0.049 A 
ATOM     56  H   UNL     1      -1.011  12.153   2.530  1.00  0.00     0.167 HD
ATOM     57  C   UNL     1      -0.583  14.803  -0.933  1.00  0.00     0.034 A 
ATOM     58  C   UNL     1      -1.025  11.566   5.263  1.00  0.00     0.034 A 
ATOM     59  C   UNL     1      -0.705  15.675   0.203  1.00  0.00     0.049 A 
ATOM     60  C   UNL     1      -0.974  13.066   5.148  1.00  0.00     0.074 A 
ATOM     61  C   UNL     1      -0.741  17.058   0.224  1.00  0.00     0.029 A 
ATOM     62  N   UNL     1      -0.796  15.252   1.519  1.00  0.00    -0.354 N 
ATOM     63  N   UNL     1      -0.966  13.813   4.070  1.00  0.00    -0.248 NA
ATOM     64  C   UNL     1      -0.963  13.829   6.405  1.00  0.00     0.031 C 
ATOM     65  C   UNL     1      -0.811  17.472   1.557  1.00  0.00     0.029 A 
ATOM     66  C   UNL     1      -0.868  16.346   2.363  1.00  0.00     0.049 A 
ATOM     67  H   UNL     1      -0.808  14.311   1.810  1.00  0.00     0.167 HD
ATOM     68  C   UNL     1      -0.992  15.129   4.517  1.00  0.00     0.074 A 
ATOM     69  C   UNL     1      -1.038  15.076   5.964  1.00  0.00     0.031 C 
ATOM     70  C   UNL     1      -0.968  16.277   3.798  1.00  0.00     0.034 A 
BRANCH  57  71
ATOM     71  C   UNL     1      -0.390  15.432  -2.290  1.00  0.00     0.023 A 
ATOM     72  C   UNL     1      -1.442  15.414  -3.228  1.00  0.00     0.012 A 
ATOM     73  C   UNL     1       0.804  16.111  -2.605  1.00  0.00     0.148 A 
ATOM     74  C   UNL     1      -1.299  16.034  -4.469  1.00  0.00     0.002 A 
ATOM     75  C   UNL     1       0.921  16.768  -3.824  1.00  0.00     0.091 A 
ATOM     76  F   UNL     1       1.800  16.101  -1.707  1.00  0.00    -0.205 F 
ATOM     77  C   UNL     1      -0.123  16.721  -4.761  1.00  0.00     0.022 A 
BRANCH  75  78
ATOM     78  S   UNL     1       2.359  17.751  -4.262  1.00  0.00     0.127 S 
ATOM     79  O   UNL     1       2.929  16.967  -5.357  1.00  0.00    -0.237 OA
ATOM     80  O   UNL     1       1.750  19.017  -4.672  1.00  0.00    -0.237 OA
ATOM     81  O   UNL     1       3.179  17.828  -3.061  1.00  0.00    -0.744 OA
ENDBRANCH  75  78
ENDBRANCH  57  71
BRANCH  58  82
ATOM     82  C   UNL     1      -1.087  10.908   6.599  1.00  0.00     0.023 A 
ATOM     83  C   UNL     1      -2.224  11.094   7.411  1.00  0.00     0.012 A 
ATOM     84  C   UNL     1      -0.032  10.105   7.072  1.00  0.00     0.148 A 
ATOM     85  C   UNL     1      -2.288  10.531   8.686  1.00  0.00     0.002 A 
ATOM     86  C   UNL     1      -0.126   9.500   8.320  1.00  0.00     0.091 A 
ATOM     87  F   UNL     1       1.045   9.945   6.289  1.00  0.00    -0.205 F 
ATOM     88  C   UNL     1      -1.244   9.729   9.137  1.00  0.00     0.022 A 
BRANCH  86  89
ATOM     89  S   UNL     1       1.114   8.355   8.933  1.00  0.00     0.127 S 
ATOM     90  O   UNL     1       1.724   9.126  10.013  1.00  0.00    -0.237 OA
ATOM     91  O   UNL     1       0.293   7.226   9.370  1.00  0.00    -0.237 OA
ATOM     92  O   UNL     1       1.980   8.065   7.798  1.00  0.00    -0.744 OA
ENDBRANCH  86  89
ENDBRANCH  58  82
BRANCH  70  93
ATOM     93  C   UNL     1      -1.046  17.578   4.553  1.00  0.00     0.023 A 
ATOM     94  C   UNL     1       0.049  18.017   5.322  1.00  0.00     0.012 A 
ATOM     95  C   UNL     1      -2.184  18.401   4.436  1.00  0.00     0.148 A 
ATOM     96  C   UNL     1      -0.002  19.237   5.995  1.00  0.00     0.002 A 
ATOM     97  C   UNL     1      -2.206  19.640   5.064  1.00  0.00     0.091 A 
ATOM     98  F   UNL     1      -3.222  17.959   3.712  1.00  0.00    -0.205 F 
ATOM     99  C   UNL     1      -1.123  20.053   5.856  1.00  0.00     0.022 A 
BRANCH  97 100
ATOM    100  S   UNL     1      -3.560  20.802   4.856  1.00  0.00     0.127 S 
ATOM    101  O   UNL     1      -4.178  20.777   6.181  1.00  0.00    -0.237 OA
ATOM    102  O   UNL     1      -2.855  22.043   4.535  1.00  0.00    -0.237 OA
ATOM    103  O   UNL     1      -4.382  20.275   3.775  1.00  0.00    -0.744 OA
ENDBRANCH  97 100
ENDBRANCH  70  93
ENDBRANCH  44  45
ENDBRANCH  36  39
ENDBRANCH  34  35
ENDBRANCH   1  34
TORSDOF 16
