REMARK SMILES O=C(CCN1C(=O)[C@@H]2[C@@H](C1=O)[C@H]1c3ccccc3[C@]2(Br)c2ccccc21)NCCCNC(=O)c1ccc(-c2c3nc(c(-c4cccc(S(=O)(=O)[O-])c4F)c4ccc([nH]4)c(-c4cccc(S(=O)(=O)[O-])c4F)c4nc(c(-c5cccc(S(=O)(=O)[O-])c5F)c5ccc2[nH]5)C=C4)C=C3)cc1
REMARK SMILES IDX 29 1 28 2 27 3 1 4 2 5 3 7 4 8 5 9 6 10 10 11 7 12 8 13 9 14
REMARK SMILES IDX 11 15 19 16 12 17 21 18 20 19 18 20 26 21 13 22 22 23 17 24
REMARK SMILES IDX 25 25 14 26 23 27 16 28 24 29 15 30 30 31 31 32 32 33 33 35
REMARK SMILES IDX 34 36 35 37 96 38 36 39 95 40 37 41 38 42 39 43 89 44 40 45
REMARK SMILES IDX 94 46 88 47 90 48 41 49 93 50 87 51 86 52 42 54 74 55 54 56
REMARK SMILES IDX 73 57 55 58 58 59 72 60 91 61 56 62 57 63 71 65 92 66 59 67
REMARK SMILES IDX 43 68 44 69 52 70 45 71 47 72 53 73 46 74 48 75 49 76 50 77
REMARK SMILES IDX 51 78 75 79 76 80 84 81 77 82 79 83 85 84 78 85 80 86 81 87
REMARK SMILES IDX 82 88 83 89 60 90 61 91 69 92 62 93 64 94 70 95 63 96 65 97
REMARK SMILES IDX 66 98 67 99 68 100
REMARK H PARENT 27 6 31 34 90 53 58 64
REMARK Flexibility Score: inf
ROOT
ATOM      1  C   UNL     1       1.853  -2.342  -2.569  1.00  0.00     0.042 C 
ENDROOT
BRANCH   1   2
ATOM      2  C   UNL     1       1.625  -2.013  -1.100  1.00  0.00     0.117 C 
BRANCH   2   3
ATOM      3  N   UNL     1       2.268  -0.778  -0.706  1.00  0.00    -0.356 N 
ATOM      4  O   UNL     1       0.920  -0.357   1.105  1.00  0.00    -0.275 OA
ATOM      5  C   UNL     1       1.893  -0.076   0.414  1.00  0.00     0.221 C 
ATOM      6  H   UNL     1       3.002  -0.427  -1.261  1.00  0.00     0.163 HD
BRANCH   5   7
ATOM      7  C   UNL     1       2.835   1.049   0.776  1.00  0.00     0.122 C 
BRANCH   7   8
ATOM      8  C   UNL     1       3.894   0.566   1.766  1.00  0.00     0.138 C 
BRANCH   8   9
ATOM      9  N   UNL     1       4.906  -0.369   1.279  1.00  0.00    -0.281 N 
ATOM     10  C   UNL     1       5.747  -1.073   2.156  1.00  0.00     0.235 C 
ATOM     11  C   UNL     1       5.249  -0.629  -0.041  1.00  0.00     0.234 C 
ATOM     12  O   UNL     1       5.664  -1.152   3.366  1.00  0.00    -0.274 OA
ATOM     13  C   UNL     1       6.873  -1.536   1.276  1.00  0.00     0.118 C 
ATOM     14  C   UNL     1       6.023  -1.895   0.046  1.00  0.00     0.105 C 
ATOM     15  O   UNL     1       4.900  -0.058  -1.061  1.00  0.00    -0.274 OA
ATOM     16  C   UNL     1       7.987  -2.584   1.412  1.00  0.00     0.088 C 
ATOM     17  C   UNL     1       6.886  -2.575  -1.015  1.00  0.00     0.063 C 
ATOM     18  C   UNL     1       8.950  -2.087   0.260  1.00  0.00    -0.022 A 
ATOM     19  Br  UNL     1       8.804  -2.521   3.151  1.00  0.00    -0.074 Br
ATOM     20  C   UNL     1       7.505  -3.975   0.962  1.00  0.00    -0.022 A 
ATOM     21  C   UNL     1       8.282  -1.990  -1.010  1.00  0.00    -0.035 A 
ATOM     22  C   UNL     1       7.054  -3.981  -0.398  1.00  0.00    -0.035 A 
ATOM     23  C   UNL     1      10.293  -1.738   0.329  1.00  0.00     0.006 A 
ATOM     24  C   UNL     1       7.542  -5.178   1.663  1.00  0.00     0.006 A 
ATOM     25  C   UNL     1       8.912  -1.495  -2.143  1.00  0.00     0.005 A 
ATOM     26  C   UNL     1       6.833  -5.171  -1.068  1.00  0.00     0.005 A 
ATOM     27  C   UNL     1      10.932  -1.260  -0.825  1.00  0.00     0.000 A 
ATOM     28  C   UNL     1       7.206  -6.366   1.003  1.00  0.00     0.000 A 
ATOM     29  C   UNL     1      10.245  -1.121  -2.041  1.00  0.00     0.000 A 
ATOM     30  C   UNL     1       6.887  -6.366  -0.358  1.00  0.00     0.000 A 
ENDBRANCH   8   9
ENDBRANCH   7   8
ENDBRANCH   5   7
ENDBRANCH   2   3
ENDBRANCH   1   2
BRANCH   1  31
ATOM     31  C   UNL     1       3.287  -2.724  -2.915  1.00  0.00     0.118 C 
BRANCH  31  32
ATOM     32  N   UNL     1       3.668  -4.028  -2.392  1.00  0.00    -0.352 N 
ATOM     33  C   UNL     1       4.228  -5.101  -3.047  1.00  0.00     0.251 C 
ATOM     34  H   UNL     1       3.502  -4.161  -1.431  1.00  0.00     0.163 HD
ATOM     35  O   UNL     1       4.215  -6.202  -2.503  1.00  0.00    -0.269 OA
BRANCH  33  36
ATOM     36  C   UNL     1       4.837  -4.947  -4.391  1.00  0.00     0.039 A 
ATOM     37  C   UNL     1       5.442  -3.757  -4.806  1.00  0.00     0.014 A 
ATOM     38  C   UNL     1       4.769  -6.030  -5.272  1.00  0.00     0.014 A 
ATOM     39  C   UNL     1       5.721  -3.557  -6.152  1.00  0.00     0.010 A 
ATOM     40  C   UNL     1       5.133  -5.859  -6.606  1.00  0.00     0.010 A 
ATOM     41  C   UNL     1       5.505  -4.590  -7.072  1.00  0.00    -0.014 A 
BRANCH  41  42
ATOM     42  C   UNL     1       5.507  -4.299  -8.524  1.00  0.00     0.031 A 
ATOM     43  C   UNL     1       4.214  -4.408  -9.294  1.00  0.00     0.074 A 
ATOM     44  C   UNL     1       6.633  -3.893  -9.137  1.00  0.00     0.049 A 
ATOM     45  N   UNL     1       4.004  -4.261 -10.576  1.00  0.00    -0.248 NA
ATOM     46  C   UNL     1       2.996  -4.727  -8.525  1.00  0.00     0.031 C 
ATOM     47  C   UNL     1       7.933  -3.717  -8.488  1.00  0.00     0.029 A 
ATOM     48  N   UNL     1       6.863  -3.561 -10.447  1.00  0.00    -0.354 N 
ATOM     49  C   UNL     1       2.652  -4.521 -10.771  1.00  0.00     0.074 A 
ATOM     50  C   UNL     1       2.085  -4.838  -9.482  1.00  0.00     0.031 C 
ATOM     51  C   UNL     1       8.824  -3.303  -9.402  1.00  0.00     0.029 A 
ATOM     52  C   UNL     1       8.172  -3.236 -10.707  1.00  0.00     0.049 A 
ATOM     53  H   UNL     1       6.159  -3.556 -11.135  1.00  0.00     0.167 HD
ATOM     54  C   UNL     1       1.943  -4.482 -11.921  1.00  0.00     0.034 A 
ATOM     55  C   UNL     1       8.784  -2.945 -11.870  1.00  0.00     0.034 A 
ATOM     56  C   UNL     1       2.498  -4.110 -13.191  1.00  0.00     0.049 A 
ATOM     57  C   UNL     1       7.980  -2.928 -13.138  1.00  0.00     0.074 A 
ATOM     58  C   UNL     1       1.851  -4.000 -14.409  1.00  0.00     0.029 A 
ATOM     59  N   UNL     1       3.826  -3.782 -13.407  1.00  0.00    -0.354 N 
ATOM     60  N   UNL     1       6.696  -3.139 -13.297  1.00  0.00    -0.248 NA
ATOM     61  C   UNL     1       8.700  -2.619 -14.381  1.00  0.00     0.031 C 
ATOM     62  C   UNL     1       2.794  -3.624 -15.367  1.00  0.00     0.029 A 
ATOM     63  C   UNL     1       4.021  -3.474 -14.740  1.00  0.00     0.049 A 
ATOM     64  H   UNL     1       4.526  -3.771 -12.715  1.00  0.00     0.167 HD
ATOM     65  C   UNL     1       6.448  -2.967 -14.653  1.00  0.00     0.074 A 
ATOM     66  C   UNL     1       7.713  -2.623 -15.270  1.00  0.00     0.031 C 
ATOM     67  C   UNL     1       5.279  -3.091 -15.325  1.00  0.00     0.034 A 
BRANCH  54  68
ATOM     68  C   UNL     1       0.478  -4.817 -11.870  1.00  0.00     0.023 A 
ATOM     69  C   UNL     1      -0.438  -3.858 -11.395  1.00  0.00     0.012 A 
ATOM     70  C   UNL     1       0.003  -6.035 -12.394  1.00  0.00     0.148 A 
ATOM     71  C   UNL     1      -1.809  -4.109 -11.440  1.00  0.00     0.002 A 
ATOM     72  C   UNL     1      -1.365  -6.264 -12.465  1.00  0.00     0.091 A 
ATOM     73  F   UNL     1       0.898  -6.934 -12.826  1.00  0.00    -0.205 F 
ATOM     74  C   UNL     1      -2.272  -5.304 -11.986  1.00  0.00     0.022 A 
BRANCH  72  75
ATOM     75  S   UNL     1      -2.067  -7.746 -13.197  1.00  0.00     0.127 S 
ATOM     76  O   UNL     1      -2.748  -8.346 -12.050  1.00  0.00    -0.237 OA
ATOM     77  O   UNL     1      -2.960  -7.190 -14.214  1.00  0.00    -0.237 OA
ATOM     78  O   UNL     1      -0.944  -8.512 -13.717  1.00  0.00    -0.744 OA
ENDBRANCH  72  75
ENDBRANCH  54  68
BRANCH  55  79
ATOM     79  C   UNL     1      10.235  -2.621 -11.862  1.00  0.00     0.023 A 
ATOM     80  C   UNL     1      10.645  -1.284 -12.014  1.00  0.00     0.012 A 
ATOM     81  C   UNL     1      11.199  -3.619 -11.617  1.00  0.00     0.148 A 
ATOM     82  C   UNL     1      11.995  -0.944 -11.922  1.00  0.00     0.002 A 
ATOM     83  C   UNL     1      12.536  -3.268 -11.487  1.00  0.00     0.091 A 
ATOM     84  F   UNL     1      10.778  -4.883 -11.476  1.00  0.00    -0.205 F 
ATOM     85  C   UNL     1      12.938  -1.932 -11.647  1.00  0.00     0.022 A 
BRANCH  83  86
ATOM     86  S   UNL     1      13.810  -4.450 -11.034  1.00  0.00     0.127 S 
ATOM     87  O   UNL     1      14.674  -4.422 -12.212  1.00  0.00    -0.237 OA
ATOM     88  O   UNL     1      14.378  -3.830  -9.837  1.00  0.00    -0.237 OA
ATOM     89  O   UNL     1      13.118  -5.709 -10.796  1.00  0.00    -0.744 OA
ENDBRANCH  83  86
ENDBRANCH  55  79
BRANCH  67  90
ATOM     90  C   UNL     1       5.282  -2.830 -16.805  1.00  0.00     0.023 A 
ATOM     91  C   UNL     1       5.757  -3.821 -17.683  1.00  0.00     0.012 A 
ATOM     92  C   UNL     1       4.686  -1.663 -17.322  1.00  0.00     0.148 A 
ATOM     93  C   UNL     1       5.644  -3.651 -19.062  1.00  0.00     0.002 A 
ATOM     94  C   UNL     1       4.546  -1.516 -18.695  1.00  0.00     0.091 A 
ATOM     95  F   UNL     1       4.245  -0.737 -16.459  1.00  0.00    -0.205 F 
ATOM     96  C   UNL     1       5.028  -2.507 -19.567  1.00  0.00     0.022 A 
BRANCH  94  97
ATOM     97  S   UNL     1       3.703  -0.114 -19.437  1.00  0.00     0.127 S 
ATOM     98  O   UNL     1       4.797   0.545 -20.149  1.00  0.00    -0.237 OA
ATOM     99  O   UNL     1       2.719  -0.767 -20.299  1.00  0.00    -0.237 OA
ATOM    100  O   UNL     1       3.137   0.649 -18.333  1.00  0.00    -0.744 OA
ENDBRANCH  94  97
ENDBRANCH  67  90
ENDBRANCH  41  42
ENDBRANCH  33  36
ENDBRANCH  31  32
ENDBRANCH   1  31
TORSDOF 15
