REMARK SMILES Nc1nonc1C(=O)N1[C@@H]2CC[C@H]1C[C@H](CC(=O)NCCCNC(=O)c1ccc(-c3c4nc(c(-c5cccc(S(=O)(=O)[O-])c5F)c5ccc([nH]5)c(-c5cccc(S(=O)(=O)[O-])c5F)c5nc(c(-c6cccc(S(=O)(=O)[O-])c6F)c6ccc3[nH]6)C=C5)C=C4)cc1)C2
REMARK SMILES IDX 20 1 19 2 17 3 18 4 16 6 15 7 9 8 10 9 13 10 11 11 89 12
REMARK SMILES IDX 12 13 14 14 7 15 8 16 6 17 2 18 3 19 4 20 5 21 1 22 21 25
REMARK SMILES IDX 22 26 23 27 24 28 25 30 26 31 27 32 88 33 28 34 87 35 29 36
REMARK SMILES IDX 30 37 31 38 81 39 32 40 86 41 80 42 82 43 33 44 85 45 79 46
REMARK SMILES IDX 78 47 34 49 66 50 46 51 65 52 47 53 50 54 64 55 83 56 48 57
REMARK SMILES IDX 49 58 63 60 84 61 51 62 35 63 36 64 44 65 37 66 39 67 45 68
REMARK SMILES IDX 38 69 40 70 41 71 42 72 43 73 67 74 68 75 76 76 69 77 71 78
REMARK SMILES IDX 77 79 70 80 72 81 73 82 74 83 75 84 52 85 53 86 61 87 54 88
REMARK SMILES IDX 56 89 62 90 55 91 57 92 58 93 59 94 60 95
REMARK H PARENT 19 5 1 23 1 24 23 29 82 48 50 59
REMARK Flexibility Score: inf
ROOT
ATOM      1  C   UNL     1       5.311   0.636   0.346  1.00  0.00     0.117 C 
ENDROOT
BRANCH   1   2
ATOM      2  N   UNL     1       6.302  -0.164  -0.365  1.00  0.00    -0.356 N 
ATOM      3  C   UNL     1       6.191  -1.031  -1.413  1.00  0.00     0.220 C 
ATOM      4  O   UNL     1       7.223  -1.556  -1.837  1.00  0.00    -0.275 OA
ATOM      5  H   UNL     1       7.220  -0.059  -0.025  1.00  0.00     0.163 HD
BRANCH   3   6
ATOM      6  C   UNL     1       4.850  -1.357  -2.049  1.00  0.00     0.103 C 
BRANCH   6   7
ATOM      7  C   UNL     1       4.213  -2.667  -1.522  1.00  0.00     0.002 C 
ATOM      8  N   UNL     1       1.551  -2.987  -0.513  1.00  0.00    -0.331 N 
ATOM      9  C   UNL     1       1.917  -3.832  -1.641  1.00  0.00     0.086 C 
ATOM     10  C   UNL     1       2.593  -3.231   0.464  1.00  0.00     0.086 C 
ATOM     11  C   UNL     1       2.455  -5.127  -1.005  1.00  0.00     0.027 C 
ATOM     12  C   UNL     1       3.006  -3.068  -2.408  1.00  0.00     0.029 C 
ATOM     13  C   UNL     1       2.791  -4.742   0.437  1.00  0.00     0.027 C 
ATOM     14  C   UNL     1       3.846  -2.506  -0.033  1.00  0.00     0.029 C 
BRANCH   8  15
ATOM     15  C   UNL     1       0.211  -2.938  -0.130  1.00  0.00     0.280 C 
ATOM     16  O   UNL     1      -0.450  -3.970  -0.033  1.00  0.00    -0.267 OA
BRANCH  15  17
ATOM     17  C   UNL     1      -0.390  -1.601  -0.052  1.00  0.00     0.216 A 
ATOM     18  C   UNL     1       0.149  -0.301   0.151  1.00  0.00     0.201 A 
ATOM     19  N   UNL     1      -0.812   0.610   0.014  1.00  0.00    -0.032 NA
ATOM     20  O   UNL     1      -1.970  -0.110  -0.206  1.00  0.00    -0.242 OA
ATOM     21  N   UNL     1      -1.714  -1.467  -0.248  1.00  0.00    -0.042 NA
BRANCH  18  22
ATOM     22  N   UNL     1       1.408   0.047   0.467  1.00  0.00    -0.379 N 
ATOM     23  H   UNL     1       1.644   0.996   0.578  1.00  0.00     0.158 HD
ATOM     24  H   UNL     1       2.095  -0.648   0.589  1.00  0.00     0.158 HD
ENDBRANCH  18  22
ENDBRANCH  15  17
ENDBRANCH   8  15
ENDBRANCH   6   7
ENDBRANCH   3   6
ENDBRANCH   1   2
BRANCH   1  25
ATOM     25  C   UNL     1       4.990   0.079   1.735  1.00  0.00     0.042 C 
BRANCH  25  26
ATOM     26  C   UNL     1       6.040   0.348   2.801  1.00  0.00     0.118 C 
BRANCH  26  27
ATOM     27  N   UNL     1       5.793   1.597   3.495  1.00  0.00    -0.352 N 
ATOM     28  C   UNL     1       5.484   1.833   4.815  1.00  0.00     0.251 C 
ATOM     29  H   UNL     1       5.856   2.403   2.934  1.00  0.00     0.163 HD
ATOM     30  O   UNL     1       5.079   2.953   5.122  1.00  0.00    -0.269 OA
BRANCH  28  31
ATOM     31  C   UNL     1       5.616   0.784   5.864  1.00  0.00     0.039 A 
ATOM     32  C   UNL     1       4.746   0.827   6.960  1.00  0.00     0.014 A 
ATOM     33  C   UNL     1       6.623  -0.185   5.838  1.00  0.00     0.014 A 
ATOM     34  C   UNL     1       4.875  -0.098   8.004  1.00  0.00     0.010 A 
ATOM     35  C   UNL     1       6.692  -1.164   6.833  1.00  0.00     0.010 A 
ATOM     36  C   UNL     1       5.844  -1.113   7.947  1.00  0.00    -0.014 A 
BRANCH  36  37
ATOM     37  C   UNL     1       6.003  -2.087   9.063  1.00  0.00     0.031 A 
ATOM     38  C   UNL     1       7.288  -2.146   9.853  1.00  0.00     0.074 A 
ATOM     39  C   UNL     1       5.011  -2.955   9.344  1.00  0.00     0.049 A 
ATOM     40  N   UNL     1       7.598  -2.913  10.868  1.00  0.00    -0.248 NA
ATOM     41  C   UNL     1       8.379  -1.250   9.432  1.00  0.00     0.031 C 
ATOM     42  C   UNL     1       3.754  -3.073   8.603  1.00  0.00     0.029 A 
ATOM     43  N   UNL     1       4.910  -3.915  10.322  1.00  0.00    -0.354 N 
ATOM     44  C   UNL     1       8.921  -2.619  11.180  1.00  0.00     0.074 A 
ATOM     45  C   UNL     1       9.370  -1.634  10.222  1.00  0.00     0.031 C 
ATOM     46  C   UNL     1       3.003  -4.037   9.160  1.00  0.00     0.029 A 
ATOM     47  C   UNL     1       3.725  -4.614  10.290  1.00  0.00     0.049 A 
ATOM     48  H   UNL     1       5.618  -4.086  10.984  1.00  0.00     0.167 HD
ATOM     49  C   UNL     1       9.685  -3.093  12.194  1.00  0.00     0.034 A 
ATOM     50  C   UNL     1       3.264  -5.597  11.089  1.00  0.00     0.034 A 
ATOM     51  C   UNL     1       9.220  -4.022  13.189  1.00  0.00     0.049 A 
ATOM     52  C   UNL     1       4.094  -6.038  12.265  1.00  0.00     0.074 A 
ATOM     53  C   UNL     1       9.886  -4.490  14.309  1.00  0.00     0.029 A 
ATOM     54  N   UNL     1       7.971  -4.620  13.188  1.00  0.00    -0.354 N 
ATOM     55  N   UNL     1       5.277  -5.620  12.643  1.00  0.00    -0.248 NA
ATOM     56  C   UNL     1       3.504  -7.051  13.154  1.00  0.00     0.031 C 
ATOM     57  C   UNL     1       9.039  -5.377  14.982  1.00  0.00     0.029 A 
ATOM     58  C   UNL     1       7.841  -5.449  14.289  1.00  0.00     0.049 A 
ATOM     59  H   UNL     1       7.276  -4.476  12.505  1.00  0.00     0.167 HD
ATOM     60  C   UNL     1       5.557  -6.286  13.831  1.00  0.00     0.074 A 
ATOM     61  C   UNL     1       4.409  -7.122  14.121  1.00  0.00     0.031 C 
ATOM     62  C   UNL     1       6.670  -6.225  14.602  1.00  0.00     0.034 A 
BRANCH  49  63
ATOM     63  C   UNL     1      11.088  -2.555  12.326  1.00  0.00     0.023 A 
ATOM     64  C   UNL     1      11.280  -1.230  12.769  1.00  0.00     0.012 A 
ATOM     65  C   UNL     1      12.210  -3.366  12.071  1.00  0.00     0.148 A 
ATOM     66  C   UNL     1      12.564  -0.709  12.922  1.00  0.00     0.002 A 
ATOM     67  C   UNL     1      13.489  -2.853  12.267  1.00  0.00     0.091 A 
ATOM     68  F   UNL     1      12.011  -4.616  11.630  1.00  0.00    -0.205 F 
ATOM     69  C   UNL     1      13.667  -1.523  12.682  1.00  0.00     0.022 A 
BRANCH  67  70
ATOM     70  S   UNL     1      14.972  -3.846  12.058  1.00  0.00     0.127 S 
ATOM     71  O   UNL     1      15.500  -3.325  10.798  1.00  0.00    -0.237 OA
ATOM     72  O   UNL     1      15.755  -3.488  13.242  1.00  0.00    -0.237 OA
ATOM     73  O   UNL     1      14.523  -5.231  12.027  1.00  0.00    -0.744 OA
ENDBRANCH  67  70
ENDBRANCH  49  63
BRANCH  50  74
ATOM     74  C   UNL     1       1.902  -6.156  10.863  1.00  0.00     0.023 A 
ATOM     75  C   UNL     1       0.867  -5.840  11.765  1.00  0.00     0.012 A 
ATOM     76  C   UNL     1       1.615  -6.962   9.745  1.00  0.00     0.148 A 
ATOM     77  C   UNL     1      -0.422  -6.338  11.574  1.00  0.00     0.002 A 
ATOM     78  C   UNL     1       0.317  -7.411   9.531  1.00  0.00     0.091 A 
ATOM     79  F   UNL     1       2.616  -7.266   8.906  1.00  0.00    -0.205 F 
ATOM     80  C   UNL     1      -0.700  -7.114  10.452  1.00  0.00     0.022 A 
BRANCH  78  81
ATOM     81  S   UNL     1      -0.152  -8.298   8.041  1.00  0.00     0.127 S 
ATOM     82  O   UNL     1      -0.267  -9.669   8.532  1.00  0.00    -0.237 OA
ATOM     83  O   UNL     1      -1.422  -7.660   7.692  1.00  0.00    -0.237 OA
ATOM     84  O   UNL     1       0.922  -8.048   7.089  1.00  0.00    -0.744 OA
ENDBRANCH  78  81
ENDBRANCH  50  74
BRANCH  62  85
ATOM     85  C   UNL     1       6.696  -7.053  15.860  1.00  0.00     0.023 A 
ATOM     86  C   UNL     1       6.854  -8.450  15.774  1.00  0.00     0.012 A 
ATOM     87  C   UNL     1       6.637  -6.440  17.127  1.00  0.00     0.148 A 
ATOM     88  C   UNL     1       6.920  -9.229  16.929  1.00  0.00     0.002 A 
ATOM     89  C   UNL     1       6.749  -7.218  18.274  1.00  0.00     0.091 A 
ATOM     90  F   UNL     1       6.465  -5.112  17.190  1.00  0.00    -0.205 F 
ATOM     91  C   UNL     1       6.879  -8.612  18.177  1.00  0.00     0.022 A 
BRANCH  89  92
ATOM     92  S   UNL     1       6.799  -6.490  19.916  1.00  0.00     0.127 S 
ATOM     93  O   UNL     1       5.432  -6.710  20.383  1.00  0.00    -0.237 OA
ATOM     94  O   UNL     1       7.812  -7.303  20.591  1.00  0.00    -0.237 OA
ATOM     95  O   UNL     1       7.184  -5.098  19.718  1.00  0.00    -0.744 OA
ENDBRANCH  89  92
ENDBRANCH  62  85
ENDBRANCH  36  37
ENDBRANCH  28  31
ENDBRANCH  26  27
ENDBRANCH  25  26
ENDBRANCH   1  25
TORSDOF 17
