REMARK SMILES O=C(C[C@@H]1C(=O)NC(=S)N1c1ccccc1)NCCCNC(=O)c1ccc(-c2c3nc(c(-c4cccc(S(=O)(=O)[O-])c4F)c4ccc([nH]4)c(-c4cccc(S(=O)(=O)[O-])c4F)c4nc(c(-c5cccc(S(=O)(=O)[O-])c5F)c5ccc2[nH]5)C=C4)C=C3)cc1
REMARK SMILES IDX 19 1 18 2 17 3 1 4 2 5 3 7 4 8 5 9 10 10 6 11 7 12 8 13 9 15
REMARK SMILES IDX 11 16 12 17 16 18 13 19 15 20 14 21 20 22 21 23 22 24 23 26
REMARK SMILES IDX 24 27 25 28 86 29 26 30 85 31 27 32 28 33 29 34 79 35 30 36
REMARK SMILES IDX 84 37 78 38 80 39 31 40 83 41 77 42 76 43 32 45 64 46 44 47
REMARK SMILES IDX 63 48 45 49 48 50 62 51 81 52 46 53 47 54 61 56 82 57 49 58
REMARK SMILES IDX 33 59 34 60 42 61 35 62 37 63 43 64 36 65 38 66 39 67 40 68
REMARK SMILES IDX 41 69 65 70 66 71 74 72 67 73 69 74 75 75 68 76 70 77 71 78
REMARK SMILES IDX 72 79 73 80 50 81 51 82 59 83 52 84 54 85 60 86 53 87 55 88
REMARK SMILES IDX 56 89 57 90 58 91
REMARK H PARENT 17 6 7 14 21 25 80 44 48 55
REMARK Flexibility Score: inf
ROOT
ATOM      1  C   UNL     1       2.375   0.000   3.434  1.00  0.00     0.042 C 
ENDROOT
BRANCH   1   2
ATOM      2  C   UNL     1       2.060   0.824   2.187  1.00  0.00     0.117 C 
BRANCH   2   3
ATOM      3  N   UNL     1       2.800   0.367   1.028  1.00  0.00    -0.356 N 
ATOM      4  O   UNL     1       1.058   0.344  -0.476  1.00  0.00    -0.275 OA
ATOM      5  C   UNL     1       2.235   0.136  -0.204  1.00  0.00     0.222 C 
ATOM      6  H   UNL     1       3.767   0.212   1.129  1.00  0.00     0.163 HD
BRANCH   5   7
ATOM      7  C   UNL     1       3.204  -0.431  -1.222  1.00  0.00     0.135 C 
BRANCH   7   8
ATOM      8  C   UNL     1       4.058   0.594  -1.957  1.00  0.00     0.188 C 
ATOM      9  C   UNL     1       4.350   1.851  -1.141  1.00  0.00     0.249 C 
ATOM     10  N   UNL     1       3.499   1.195  -3.171  1.00  0.00    -0.306 N 
ATOM     11  O   UNL     1       4.855   1.871  -0.028  1.00  0.00    -0.272 OA
ATOM     12  N   UNL     1       3.996   2.945  -1.863  1.00  0.00    -0.301 N 
ATOM     13  C   UNL     1       3.531   2.594  -3.092  1.00  0.00     0.180 C 
ATOM     14  H   UNL     1       4.067   3.872  -1.538  1.00  0.00     0.172 HD
ATOM     15  S   UNL     1       3.094   3.730  -4.224  1.00  0.00    -0.040 S 
BRANCH  10  16
ATOM     16  C   UNL     1       3.497   0.455  -4.376  1.00  0.00     0.044 A 
ATOM     17  C   UNL     1       4.487   0.670  -5.343  1.00  0.00     0.026 A 
ATOM     18  C   UNL     1       2.526  -0.524  -4.593  1.00  0.00     0.026 A 
ATOM     19  C   UNL     1       4.505  -0.091  -6.513  1.00  0.00     0.002 A 
ATOM     20  C   UNL     1       2.542  -1.281  -5.766  1.00  0.00     0.002 A 
ATOM     21  C   UNL     1       3.532  -1.067  -6.724  1.00  0.00     0.000 A 
ENDBRANCH  10  16
ENDBRANCH   7   8
ENDBRANCH   5   7
ENDBRANCH   2   3
ENDBRANCH   1   2
BRANCH   1  22
ATOM     22  C   UNL     1       3.849  -0.057   3.834  1.00  0.00     0.118 C 
BRANCH  22  23
ATOM     23  N   UNL     1       4.419   1.242   4.155  1.00  0.00    -0.352 N 
ATOM     24  C   UNL     1       5.186   1.632   5.229  1.00  0.00     0.251 C 
ATOM     25  H   UNL     1       4.226   1.953   3.503  1.00  0.00     0.163 HD
ATOM     26  O   UNL     1       5.462   2.822   5.363  1.00  0.00    -0.269 OA
BRANCH  24  27
ATOM     27  C   UNL     1       5.663   0.650   6.234  1.00  0.00     0.039 A 
ATOM     28  C   UNL     1       5.656   1.023   7.582  1.00  0.00     0.014 A 
ATOM     29  C   UNL     1       6.151  -0.609   5.872  1.00  0.00     0.014 A 
ATOM     30  C   UNL     1       6.078   0.119   8.562  1.00  0.00     0.010 A 
ATOM     31  C   UNL     1       6.500  -1.537   6.857  1.00  0.00     0.010 A 
ATOM     32  C   UNL     1       6.473  -1.184   8.214  1.00  0.00    -0.014 A 
BRANCH  32  33
ATOM     33  C   UNL     1       6.820  -2.178   9.268  1.00  0.00     0.031 A 
ATOM     34  C   UNL     1       8.201  -2.776   9.358  1.00  0.00     0.074 A 
ATOM     35  C   UNL     1       5.864  -2.587  10.127  1.00  0.00     0.049 A 
ATOM     36  N   UNL     1       8.678  -3.617  10.241  1.00  0.00    -0.248 NA
ATOM     37  C   UNL     1       9.164  -2.402   8.311  1.00  0.00     0.031 C 
ATOM     38  C   UNL     1       4.461  -2.169  10.091  1.00  0.00     0.029 A 
ATOM     39  N   UNL     1       5.922  -3.455  11.191  1.00  0.00    -0.354 N 
ATOM     40  C   UNL     1       9.981  -3.895   9.844  1.00  0.00     0.074 A 
ATOM     41  C   UNL     1      10.208  -3.161   8.617  1.00  0.00     0.031 C 
ATOM     42  C   UNL     1       3.798  -2.762  11.095  1.00  0.00     0.029 A 
ATOM     43  C   UNL     1       4.719  -3.618  11.837  1.00  0.00     0.049 A 
ATOM     44  H   UNL     1       6.747  -3.917  11.464  1.00  0.00     0.167 HD
ATOM     45  C   UNL     1      10.915  -4.662  10.457  1.00  0.00     0.034 A 
ATOM     46  C   UNL     1       4.392  -4.362  12.912  1.00  0.00     0.034 A 
ATOM     47  C   UNL     1      10.702  -5.362  11.697  1.00  0.00     0.049 A 
ATOM     48  C   UNL     1       5.465  -5.146  13.615  1.00  0.00     0.074 A 
ATOM     49  C   UNL     1      11.613  -6.093  12.441  1.00  0.00     0.029 A 
ATOM     50  N   UNL     1       9.495  -5.428  12.374  1.00  0.00    -0.354 N 
ATOM     51  N   UNL     1       6.738  -5.252  13.321  1.00  0.00    -0.248 NA
ATOM     52  C   UNL     1       5.066  -5.876  14.827  1.00  0.00     0.031 C 
ATOM     53  C   UNL     1      10.950  -6.617  13.557  1.00  0.00     0.029 A 
ATOM     54  C   UNL     1       9.634  -6.189  13.523  1.00  0.00     0.049 A 
ATOM     55  H   UNL     1       8.660  -4.997  12.081  1.00  0.00     0.167 HD
ATOM     56  C   UNL     1       7.299  -6.028  14.329  1.00  0.00     0.074 A 
ATOM     57  C   UNL     1       6.231  -6.340  15.257  1.00  0.00     0.031 C 
ATOM     58  C   UNL     1       8.578  -6.458  14.466  1.00  0.00     0.034 A 
BRANCH  45  59
ATOM     59  C   UNL     1      12.284  -4.739   9.825  1.00  0.00     0.023 A 
ATOM     60  C   UNL     1      13.127  -3.608   9.858  1.00  0.00     0.012 A 
ATOM     61  C   UNL     1      12.762  -5.938   9.261  1.00  0.00     0.148 A 
ATOM     62  C   UNL     1      14.407  -3.658   9.307  1.00  0.00     0.002 A 
ATOM     63  C   UNL     1      14.056  -5.993   8.755  1.00  0.00     0.091 A 
ATOM     64  F   UNL     1      11.942  -6.998   9.222  1.00  0.00    -0.205 F 
ATOM     65  C   UNL     1      14.875  -4.851   8.766  1.00  0.00     0.022 A 
BRANCH  63  66
ATOM     66  S   UNL     1      14.783  -7.504   8.110  1.00  0.00     0.127 S 
ATOM     67  O   UNL     1      14.838  -7.217   6.678  1.00  0.00    -0.237 OA
ATOM     68  O   UNL     1      16.085  -7.529   8.777  1.00  0.00    -0.237 OA
ATOM     69  O   UNL     1      13.882  -8.580   8.498  1.00  0.00    -0.744 OA
ENDBRANCH  63  66
ENDBRANCH  45  59
BRANCH  46  70
ATOM     70  C   UNL     1       2.999  -4.329  13.442  1.00  0.00     0.023 A 
ATOM     71  C   UNL     1       2.740  -3.692  14.672  1.00  0.00     0.012 A 
ATOM     72  C   UNL     1       1.929  -4.900  12.727  1.00  0.00     0.148 A 
ATOM     73  C   UNL     1       1.449  -3.656  15.197  1.00  0.00     0.002 A 
ATOM     74  C   UNL     1       0.636  -4.810  13.228  1.00  0.00     0.091 A 
ATOM     75  F   UNL     1       2.197  -5.512  11.565  1.00  0.00    -0.205 F 
ATOM     76  C   UNL     1       0.396  -4.205  14.471  1.00  0.00     0.022 A 
BRANCH  74  77
ATOM     77  S   UNL     1      -0.796  -5.367  12.297  1.00  0.00     0.127 S 
ATOM     78  O   UNL     1      -1.194  -6.556  13.045  1.00  0.00    -0.237 OA
ATOM     79  O   UNL     1      -1.702  -4.225  12.425  1.00  0.00    -0.237 OA
ATOM     80  O   UNL     1      -0.315  -5.601  10.942  1.00  0.00    -0.744 OA
ENDBRANCH  74  77
ENDBRANCH  46  70
BRANCH  58  81
ATOM     81  C   UNL     1       8.905  -7.286  15.683  1.00  0.00     0.023 A 
ATOM     82  C   UNL     1       8.405  -8.599  15.796  1.00  0.00     0.012 A 
ATOM     83  C   UNL     1       9.735  -6.776  16.701  1.00  0.00     0.148 A 
ATOM     84  C   UNL     1       8.684  -9.371  16.923  1.00  0.00     0.002 A 
ATOM     85  C   UNL     1      10.051  -7.570  17.797  1.00  0.00     0.091 A 
ATOM     86  F   UNL     1      10.187  -5.518  16.590  1.00  0.00    -0.205 F 
ATOM     87  C   UNL     1       9.514  -8.861  17.918  1.00  0.00     0.022 A 
BRANCH  85  88
ATOM     88  S   UNL     1      11.191  -7.024  19.074  1.00  0.00     0.127 S 
ATOM     89  O   UNL     1      10.276  -6.641  20.148  1.00  0.00    -0.237 OA
ATOM     90  O   UNL     1      11.969  -8.235  19.340  1.00  0.00    -0.237 OA
ATOM     91  O   UNL     1      11.958  -5.937  18.481  1.00  0.00    -0.744 OA
ENDBRANCH  85  88
ENDBRANCH  58  81
ENDBRANCH  32  33
ENDBRANCH  24  27
ENDBRANCH  22  23
ENDBRANCH   1  22
TORSDOF 15
