REMARK SMILES O=C(NCCCNC(=O)[C@H]1O[C@@H](Oc2c(-c3cc(O)c(O)c(O)c3)oc3cc(O)cc(O)c3c2=O)[C@H](O)[C@@H](O)[C@@H]1O)c1ccc(-c2c3nc(c(-c4cccc(S(=O)(=O)[O-])c4F)c4ccc([nH]4)c(-c4cccc(S(=O)(=O)[O-])c4F)c4nc(c(-c5cccc(S(=O)(=O)[O-])c5F)c5ccc2[nH]5)C=C4)C=C3)cc1
REMARK SMILES IDX 5 1 4 2 3 3 1 4 2 5 42 7 43 8 104 9 44 10 103 11 45 12 46 13
REMARK SMILES IDX 47 14 97 15 48 16 102 17 96 18 98 19 49 20 101 21 95 22
REMARK SMILES IDX 94 23 50 25 82 26 62 27 81 28 63 29 66 30 80 31 99 32 64 33
REMARK SMILES IDX 65 34 79 36 100 37 67 38 51 39 52 40 60 41 53 42 55 43 61 44
REMARK SMILES IDX 54 45 56 46 57 47 58 48 59 49 83 50 84 51 92 52 85 53 87 54
REMARK SMILES IDX 93 55 86 56 88 57 89 58 90 59 91 60 68 61 69 62 77 63 70 64
REMARK SMILES IDX 72 65 78 66 71 67 73 68 74 69 75 70 76 71 6 72 7 73 8 74
REMARK SMILES IDX 9 76 10 77 11 78 40 79 12 80 38 81 36 82 41 83 13 85 14 86
REMARK SMILES IDX 15 87 34 88 25 89 33 90 35 91 26 92 31 93 27 94 30 95 28 96
REMARK SMILES IDX 16 97 17 98 24 99 18 100 22 101 20 102 19 103 23 105 21 107
REMARK SMILES IDX 32 109 29 111 39 113 37 115
REMARK H PARENT 3 6 98 24 66 35 7 75 41 84 19 104 23 106 21 108 32 110 29 112
REMARK H PARENT 39 114 37 116
REMARK Flexibility Score: inf
ROOT
ATOM      1  C   UNL     1       8.647   6.410   1.759  1.00  0.00     0.042 C 
ENDROOT
BRANCH   1   2
ATOM      2  C   UNL     1       8.322   7.413   0.665  1.00  0.00     0.118 C 
BRANCH   2   3
ATOM      3  N   UNL     1       8.614   8.781   1.079  1.00  0.00    -0.352 N 
ATOM      4  O   UNL     1       9.826  10.680   1.144  1.00  0.00    -0.269 OA
ATOM      5  C   UNL     1       9.508   9.665   0.532  1.00  0.00     0.251 C 
ATOM      6  H   UNL     1       8.103   9.113   1.852  1.00  0.00     0.163 HD
BRANCH   5   7
ATOM      7  C   UNL     1      10.077   9.361  -0.793  1.00  0.00     0.039 A 
ATOM      8  C   UNL     1       9.243   8.880  -1.806  1.00  0.00     0.014 A 
ATOM      9  C   UNL     1      11.441   9.543  -1.020  1.00  0.00     0.014 A 
ATOM     10  C   UNL     1       9.791   8.450  -3.002  1.00  0.00     0.010 A 
ATOM     11  C   UNL     1      11.974   9.214  -2.266  1.00  0.00     0.010 A 
ATOM     12  C   UNL     1      11.154   8.656  -3.261  1.00  0.00    -0.014 A 
BRANCH  12  13
ATOM     13  C   UNL     1      11.661   8.426  -4.632  1.00  0.00     0.031 A 
ATOM     14  C   UNL     1      12.718   7.404  -4.918  1.00  0.00     0.074 A 
ATOM     15  C   UNL     1      11.162   9.200  -5.617  1.00  0.00     0.049 A 
ATOM     16  N   UNL     1      13.291   7.123  -6.058  1.00  0.00    -0.248 NA
ATOM     17  C   UNL     1      13.206   6.598  -3.786  1.00  0.00     0.031 C 
ATOM     18  C   UNL     1      10.159  10.255  -5.432  1.00  0.00     0.029 A 
ATOM     19  N   UNL     1      11.440   9.242  -6.958  1.00  0.00    -0.354 N 
ATOM     20  C   UNL     1      14.240   6.149  -5.780  1.00  0.00     0.074 A 
ATOM     21  C   UNL     1      14.159   5.873  -4.361  1.00  0.00     0.031 C 
ATOM     22  C   UNL     1       9.905  10.837  -6.610  1.00  0.00     0.029 A 
ATOM     23  C   UNL     1      10.777  10.251  -7.617  1.00  0.00     0.049 A 
ATOM     24  H   UNL     1      12.051   8.613  -7.404  1.00  0.00     0.167 HD
ATOM     25  C   UNL     1      15.097   5.547  -6.637  1.00  0.00     0.034 A 
ATOM     26  C   UNL     1      10.896  10.696  -8.881  1.00  0.00     0.034 A 
ATOM     27  C   UNL     1      15.141   5.812  -8.051  1.00  0.00     0.049 A 
ATOM     28  C   UNL     1      11.858  10.004  -9.798  1.00  0.00     0.074 A 
ATOM     29  C   UNL     1      15.900   5.177  -9.018  1.00  0.00     0.029 A 
ATOM     30  N   UNL     1      14.424   6.808  -8.696  1.00  0.00    -0.354 N 
ATOM     31  N   UNL     1      12.626   8.970  -9.555  1.00  0.00    -0.248 NA
ATOM     32  C   UNL     1      11.959  10.523 -11.168  1.00  0.00     0.031 C 
ATOM     33  C   UNL     1      15.680   5.821 -10.239  1.00  0.00     0.029 A 
ATOM     34  C   UNL     1      14.753   6.832 -10.040  1.00  0.00     0.049 A 
ATOM     35  H   UNL     1      13.776   7.409  -8.262  1.00  0.00     0.167 HD
ATOM     36  C   UNL     1      13.290   8.704 -10.745  1.00  0.00     0.074 A 
ATOM     37  C   UNL     1      12.805   9.662 -11.717  1.00  0.00     0.031 C 
ATOM     38  C   UNL     1      14.232   7.766 -11.004  1.00  0.00     0.034 A 
BRANCH  25  39
ATOM     39  C   UNL     1      16.063   4.530  -6.093  1.00  0.00     0.023 A 
ATOM     40  C   UNL     1      15.610   3.242  -5.746  1.00  0.00     0.012 A 
ATOM     41  C   UNL     1      17.442   4.816  -6.044  1.00  0.00     0.148 A 
ATOM     42  C   UNL     1      16.514   2.257  -5.349  1.00  0.00     0.002 A 
ATOM     43  C   UNL     1      18.340   3.819  -5.686  1.00  0.00     0.091 A 
ATOM     44  F   UNL     1      17.847   6.055  -6.360  1.00  0.00    -0.205 F 
ATOM     45  C   UNL     1      17.878   2.541  -5.332  1.00  0.00     0.022 A 
BRANCH  43  46
ATOM     46  S   UNL     1      20.119   4.062  -5.703  1.00  0.00     0.127 S 
ATOM     47  O   UNL     1      20.437   3.971  -4.278  1.00  0.00    -0.237 OA
ATOM     48  O   UNL     1      20.576   2.927  -6.503  1.00  0.00    -0.237 OA
ATOM     49  O   UNL     1      20.343   5.368  -6.306  1.00  0.00    -0.744 OA
ENDBRANCH  43  46
ENDBRANCH  25  39
BRANCH  26  50
ATOM     50  C   UNL     1      10.096  11.867  -9.336  1.00  0.00     0.023 A 
ATOM     51  C   UNL     1       9.095  11.694 -10.309  1.00  0.00     0.012 A 
ATOM     52  C   UNL     1      10.312  13.148  -8.790  1.00  0.00     0.148 A 
ATOM     53  C   UNL     1       8.350  12.785 -10.758  1.00  0.00     0.002 A 
ATOM     54  C   UNL     1       9.524  14.216  -9.195  1.00  0.00     0.091 A 
ATOM     55  F   UNL     1      11.280  13.295  -7.873  1.00  0.00    -0.205 F 
ATOM     56  C   UNL     1       8.556  14.042 -10.195  1.00  0.00     0.022 A 
BRANCH  54  57
ATOM     57  S   UNL     1       9.629  15.830  -8.416  1.00  0.00     0.127 S 
ATOM     58  O   UNL     1      10.328  16.608  -9.435  1.00  0.00    -0.237 OA
ATOM     59  O   UNL     1       8.218  16.175  -8.236  1.00  0.00    -0.237 OA
ATOM     60  O   UNL     1      10.353  15.615  -7.170  1.00  0.00    -0.744 OA
ENDBRANCH  54  57
ENDBRANCH  26  50
BRANCH  38  61
ATOM     61  C   UNL     1      14.794   7.717 -12.399  1.00  0.00     0.023 A 
ATOM     62  C   UNL     1      15.674   8.728 -12.832  1.00  0.00     0.012 A 
ATOM     63  C   UNL     1      14.510   6.632 -13.249  1.00  0.00     0.148 A 
ATOM     64  C   UNL     1      16.241   8.674 -14.104  1.00  0.00     0.002 A 
ATOM     65  C   UNL     1      15.120   6.557 -14.495  1.00  0.00     0.091 A 
ATOM     66  F   UNL     1      13.658   5.690 -12.820  1.00  0.00    -0.205 F 
ATOM     67  C   UNL     1      15.975   7.584 -14.929  1.00  0.00     0.022 A 
BRANCH  65  68
ATOM     68  S   UNL     1      14.916   5.147 -15.588  1.00  0.00     0.127 S 
ATOM     69  O   UNL     1      14.190   5.743 -16.709  1.00  0.00    -0.237 OA
ATOM     70  O   UNL     1      16.302   4.784 -15.881  1.00  0.00    -0.237 OA
ATOM     71  O   UNL     1      14.173   4.150 -14.829  1.00  0.00    -0.744 OA
ENDBRANCH  65  68
ENDBRANCH  38  61
ENDBRANCH  12  13
ENDBRANCH   5   7
ENDBRANCH   2   3
ENDBRANCH   1   2
BRANCH   1  72
ATOM     72  C   UNL     1       7.801   6.631   2.998  1.00  0.00     0.117 C 
BRANCH  72  73
ATOM     73  N   UNL     1       6.401   6.410   2.698  1.00  0.00    -0.354 N 
ATOM     74  C   UNL     1       5.626   5.345   3.032  1.00  0.00     0.252 C 
ATOM     75  H   UNL     1       5.953   7.122   2.187  1.00  0.00     0.163 HD
ATOM     76  O   UNL     1       4.511   5.231   2.516  1.00  0.00    -0.272 OA
BRANCH  74  77
ATOM     77  C   UNL     1       6.088   4.379   4.123  1.00  0.00     0.242 C 
ATOM     78  O   UNL     1       7.387   3.802   3.946  1.00  0.00    -0.324 OA
ATOM     79  C   UNL     1       6.040   5.108   5.475  1.00  0.00     0.184 C 
ATOM     80  C   UNL     1       7.610   2.717   4.847  1.00  0.00     0.340 C 
ATOM     81  C   UNL     1       6.146   4.050   6.569  1.00  0.00     0.181 C 
ATOM     82  C   UNL     1       7.324   3.109   6.322  1.00  0.00     0.214 C 
BRANCH  79  83
ATOM     83  O   UNL     1       4.868   5.898   5.682  1.00  0.00    -0.387 OA
ATOM     84  H   UNL     1       4.086   5.324   5.675  1.00  0.00     0.211 HD
ENDBRANCH  79  83
BRANCH  80  85
ATOM     85  O   UNL     1       8.912   2.079   4.767  1.00  0.00    -0.454 OA
BRANCH  85  86
ATOM     86  C   UNL     1      10.043   2.814   4.441  1.00  0.00     0.214 A 
ATOM     87  C   UNL     1      10.882   3.365   5.349  1.00  0.00     0.181 A 
ATOM     88  C   UNL     1      10.529   2.763   3.018  1.00  0.00     0.239 A 
ATOM     89  O   UNL     1      12.052   4.027   5.052  1.00  0.00    -0.452 OA
ATOM     90  C   UNL     1      11.909   3.267   2.752  1.00  0.00     0.111 A 
ATOM     91  O   UNL     1       9.804   2.304   2.143  1.00  0.00    -0.285 OA
ATOM     92  C   UNL     1      12.579   3.896   3.800  1.00  0.00     0.146 A 
ATOM     93  C   UNL     1      12.577   3.144   1.522  1.00  0.00     0.134 A 
ATOM     94  C   UNL     1      13.861   4.425   3.633  1.00  0.00     0.094 A 
ATOM     95  C   UNL     1      13.870   3.665   1.347  1.00  0.00     0.093 A 
ATOM     96  C   UNL     1      14.497   4.309   2.408  1.00  0.00     0.123 A 
BRANCH  87  97
ATOM     97  C   UNL     1      10.599   3.414   6.791  1.00  0.00     0.029 A 
ATOM     98  C   UNL     1      10.333   4.671   7.368  1.00  0.00     0.062 A 
ATOM     99  C   UNL     1      10.440   2.243   7.551  1.00  0.00     0.062 A 
ATOM    100  C   UNL     1       9.746   4.731   8.623  1.00  0.00     0.162 A 
ATOM    101  C   UNL     1       9.879   2.330   8.820  1.00  0.00     0.162 A 
ATOM    102  C   UNL     1       9.484   3.563   9.327  1.00  0.00     0.200 A 
BRANCH 100 103
ATOM    103  O   UNL     1       9.323   5.940   9.094  1.00  0.00    -0.504 OA
ATOM    104  H   UNL     1       9.506   6.721   8.610  1.00  0.00     0.293 HD
ENDBRANCH 100 103
BRANCH 101 105
ATOM    105  O   UNL     1       9.608   1.181   9.506  1.00  0.00    -0.504 OA
ATOM    106  H   UNL     1       9.230   1.225  10.363  1.00  0.00     0.293 HD
ENDBRANCH 101 105
BRANCH 102 107
ATOM    107  O   UNL     1       8.695   3.609  10.446  1.00  0.00    -0.502 OA
ATOM    108  H   UNL     1       8.424   4.436  10.794  1.00  0.00     0.293 HD
ENDBRANCH 102 107
ENDBRANCH  87  97
BRANCH  93 109
ATOM    109  O   UNL     1      11.993   2.494   0.472  1.00  0.00    -0.507 OA
ATOM    110  H   UNL     1      12.449   2.418  -0.343  1.00  0.00     0.293 HD
ENDBRANCH  93 109
BRANCH  96 111
ATOM    111  O   UNL     1      15.747   4.838   2.299  1.00  0.00    -0.508 OA
ATOM    112  H   UNL     1      16.140   5.266   3.034  1.00  0.00     0.293 HD
ENDBRANCH  96 111
ENDBRANCH  85  86
ENDBRANCH  80  85
BRANCH  81 113
ATOM    113  O   UNL     1       6.295   4.684   7.861  1.00  0.00    -0.387 OA
ATOM    114  H   UNL     1       7.112   5.207   7.871  1.00  0.00     0.211 HD
ENDBRANCH  81 113
BRANCH  82 115
ATOM    115  O   UNL     1       7.196   1.972   7.186  1.00  0.00    -0.384 OA
ATOM    116  H   UNL     1       6.394   1.478   6.954  1.00  0.00     0.211 HD
ENDBRANCH  82 115
ENDBRANCH  74  77
ENDBRANCH  72  73
ENDBRANCH   1  72
TORSDOF 24
