REMARK SMILES NS(=O)(=O)c1ccc(N2CCSCC2)c(C(=O)NCCCNC(=O)c2ccc(-c3c4nc(c(-c5cccc(S(=O)(=O)[O-])c5F)c5ccc([nH]5)c(-c5cccc(S(=O)(=O)[O-])c5F)c5nc(c(-c6cccc(S(=O)(=O)[O-])c6F)c6ccc3[nH]6)C=C5)C=C4)cc2)c1
REMARK SMILES IDX 20 1 19 2 18 3 16 4 17 5 15 7 5 8 6 9 88 10 7 11 8 12 2 13
REMARK SMILES IDX 3 14 4 15 1 16 9 19 10 20 14 21 11 22 13 23 12 24 21 25
REMARK SMILES IDX 22 26 23 27 24 29 25 30 26 31 87 32 27 33 86 34 28 35 29 36
REMARK SMILES IDX 30 37 80 38 31 39 85 40 79 41 81 42 32 43 84 44 78 45 77 46
REMARK SMILES IDX 33 48 65 49 45 50 64 51 46 52 49 53 63 54 82 55 47 56 48 57
REMARK SMILES IDX 62 59 83 60 50 61 34 62 35 63 43 64 36 65 38 66 44 67 37 68
REMARK SMILES IDX 39 69 40 70 41 71 42 72 66 73 67 74 75 75 68 76 70 77 76 78
REMARK SMILES IDX 69 79 71 80 72 81 73 82 74 83 51 84 52 85 60 86 53 87 55 88
REMARK SMILES IDX 61 89 54 90 56 91 57 92 58 93 59 94
REMARK H PARENT 18 6 1 17 1 18 22 28 81 47 49 58
REMARK Flexibility Score: inf
ROOT
ATOM      1  C   UNL     1       0.391   3.543   5.771  1.00  0.00     0.042 C 
ENDROOT
BRANCH   1   2
ATOM      2  C   UNL     1       1.533   2.682   5.253  1.00  0.00     0.118 C 
BRANCH   2   3
ATOM      3  N   UNL     1       2.042   1.676   6.189  1.00  0.00    -0.352 N 
ATOM      4  C   UNL     1       2.252   0.308   6.120  1.00  0.00     0.253 C 
ATOM      5  O   UNL     1       2.870  -0.200   7.055  1.00  0.00    -0.269 OA
ATOM      6  H   UNL     1       2.290   2.057   7.061  1.00  0.00     0.163 HD
BRANCH   4   7
ATOM      7  C   UNL     1       1.744  -0.539   4.992  1.00  0.00     0.064 A 
ATOM      8  C   UNL     1       1.010  -0.620   2.674  1.00  0.00     0.083 A 
ATOM      9  C   UNL     1       0.481  -1.889   2.853  1.00  0.00     0.024 A 
ATOM     10  C   UNL     1       1.722   0.001   3.700  1.00  0.00     0.037 A 
ATOM     11  C   UNL     1       0.677  -2.523   4.076  1.00  0.00     0.028 A 
ATOM     12  C   UNL     1       1.287  -1.869   5.172  1.00  0.00     0.050 A 
BRANCH   8  13
ATOM     13  S   UNL     1       0.589   0.312   1.232  1.00  0.00     0.238 S 
ATOM     14  O   UNL     1       1.169   1.631   1.339  1.00  0.00    -0.207 OA
ATOM     15  O   UNL     1      -0.805   0.090   0.935  1.00  0.00    -0.207 OA
BRANCH  13  16
ATOM     16  N   UNL     1       1.448  -0.457   0.015  1.00  0.00    -0.225 NA
ATOM     17  H   UNL     1       1.272   0.011  -0.874  1.00  0.00     0.137 HD
ATOM     18  H   UNL     1       1.151  -1.431  -0.049  1.00  0.00     0.137 HD
ENDBRANCH  13  16
ENDBRANCH   8  13
BRANCH  12  19
ATOM     19  N   UNL     1       1.403  -2.637   6.319  1.00  0.00    -0.369 N 
ATOM     20  C   UNL     1       0.671  -2.315   7.543  1.00  0.00     0.127 C 
ATOM     21  C   UNL     1       2.583  -3.494   6.456  1.00  0.00     0.127 C 
ATOM     22  C   UNL     1       0.050  -3.594   8.128  1.00  0.00     0.091 C 
ATOM     23  C   UNL     1       2.168  -4.898   6.910  1.00  0.00     0.091 C 
ATOM     24  S   UNL     1       1.291  -4.890   8.516  1.00  0.00    -0.158 SA
ENDBRANCH  12  19
ENDBRANCH   4   7
ENDBRANCH   2   3
ENDBRANCH   1   2
BRANCH   1  25
ATOM     25  C   UNL     1       0.704   4.399   6.985  1.00  0.00     0.118 C 
BRANCH  25  26
ATOM     26  N   UNL     1       1.768   5.370   6.758  1.00  0.00    -0.352 N 
ATOM     27  C   UNL     1       1.743   6.732   6.569  1.00  0.00     0.251 C 
ATOM     28  H   UNL     1       2.671   4.977   6.734  1.00  0.00     0.163 HD
ATOM     29  O   UNL     1       2.784   7.302   6.245  1.00  0.00    -0.269 OA
BRANCH  27  30
ATOM     30  C   UNL     1       0.499   7.522   6.726  1.00  0.00     0.039 A 
ATOM     31  C   UNL     1       0.268   8.600   5.862  1.00  0.00     0.014 A 
ATOM     32  C   UNL     1      -0.420   7.252   7.739  1.00  0.00     0.014 A 
ATOM     33  C   UNL     1      -0.911   9.348   5.968  1.00  0.00     0.010 A 
ATOM     34  C   UNL     1      -1.637   7.928   7.779  1.00  0.00     0.010 A 
ATOM     35  C   UNL     1      -1.894   8.992   6.903  1.00  0.00    -0.014 A 
BRANCH  35  36
ATOM     36  C   UNL     1      -3.196   9.707   6.990  1.00  0.00     0.031 A 
ATOM     37  C   UNL     1      -3.605  10.386   8.272  1.00  0.00     0.074 A 
ATOM     38  C   UNL     1      -4.062   9.646   5.960  1.00  0.00     0.049 A 
ATOM     39  N   UNL     1      -4.740  10.962   8.577  1.00  0.00    -0.248 NA
ATOM     40  C   UNL     1      -2.625  10.381   9.371  1.00  0.00     0.031 C 
ATOM     41  C   UNL     1      -3.827   8.940   4.698  1.00  0.00     0.029 A 
ATOM     42  N   UNL     1      -5.330  10.153   5.823  1.00  0.00    -0.354 N 
ATOM     43  C   UNL     1      -4.630  11.337   9.911  1.00  0.00     0.074 A 
ATOM     44  C   UNL     1      -3.332  10.893  10.368  1.00  0.00     0.031 C 
ATOM     45  C   UNL     1      -4.912   9.059   3.917  1.00  0.00     0.029 A 
ATOM     46  C   UNL     1      -5.931   9.823   4.630  1.00  0.00     0.049 A 
ATOM     47  H   UNL     1      -5.769  10.701   6.513  1.00  0.00     0.167 HD
ATOM     48  C   UNL     1      -5.514  12.018  10.680  1.00  0.00     0.034 A 
ATOM     49  C   UNL     1      -7.165  10.099   4.163  1.00  0.00     0.034 A 
ATOM     50  C   UNL     1      -6.774  12.519  10.202  1.00  0.00     0.049 A 
ATOM     51  C   UNL     1      -8.098  10.926   5.003  1.00  0.00     0.074 A 
ATOM     52  C   UNL     1      -7.689  13.320  10.863  1.00  0.00     0.029 A 
ATOM     53  N   UNL     1      -7.299  12.267   8.944  1.00  0.00    -0.354 N 
ATOM     54  N   UNL     1      -7.908  11.419   6.203  1.00  0.00    -0.248 NA
ATOM     55  C   UNL     1      -9.400  11.268   4.412  1.00  0.00     0.031 C 
ATOM     56  C   UNL     1      -8.774  13.542  10.007  1.00  0.00     0.029 A 
ATOM     57  C   UNL     1      -8.527  12.892   8.808  1.00  0.00     0.049 A 
ATOM     58  H   UNL     1      -6.862  11.724   8.249  1.00  0.00     0.167 HD
ATOM     59  C   UNL     1      -9.050  12.153   6.500  1.00  0.00     0.074 A 
ATOM     60  C   UNL     1      -9.919  12.058   5.344  1.00  0.00     0.031 C 
ATOM     61  C   UNL     1      -9.359  12.831   7.633  1.00  0.00     0.034 A 
BRANCH  48  62
ATOM     62  C   UNL     1      -5.114  12.318  12.102  1.00  0.00     0.023 A 
ATOM     63  C   UNL     1      -4.096  13.261  12.352  1.00  0.00     0.012 A 
ATOM     64  C   UNL     1      -5.761  11.698  13.189  1.00  0.00     0.148 A 
ATOM     65  C   UNL     1      -3.696  13.550  13.656  1.00  0.00     0.002 A 
ATOM     66  C   UNL     1      -5.388  12.025  14.489  1.00  0.00     0.091 A 
ATOM     67  F   UNL     1      -6.710  10.786  12.936  1.00  0.00    -0.205 F 
ATOM     68  C   UNL     1      -4.348  12.939  14.724  1.00  0.00     0.022 A 
BRANCH  66  69
ATOM     69  S   UNL     1      -6.223  11.348  15.928  1.00  0.00     0.127 S 
ATOM     70  O   UNL     1      -5.267  10.338  16.378  1.00  0.00    -0.237 OA
ATOM     71  O   UNL     1      -6.332  12.516  16.804  1.00  0.00    -0.237 OA
ATOM     72  O   UNL     1      -7.498  10.839  15.443  1.00  0.00    -0.744 OA
ENDBRANCH  66  69
ENDBRANCH  48  62
BRANCH  49  73
ATOM     73  C   UNL     1      -7.547   9.655   2.792  1.00  0.00     0.023 A 
ATOM     74  C   UNL     1      -7.637  10.611   1.762  1.00  0.00     0.012 A 
ATOM     75  C   UNL     1      -7.758   8.296   2.490  1.00  0.00     0.148 A 
ATOM     76  C   UNL     1      -7.950  10.225   0.459  1.00  0.00     0.002 A 
ATOM     77  C   UNL     1      -8.020   7.912   1.179  1.00  0.00     0.091 A 
ATOM     78  F   UNL     1      -7.677   7.404   3.487  1.00  0.00    -0.205 F 
ATOM     79  C   UNL     1      -8.130   8.876   0.165  1.00  0.00     0.022 A 
BRANCH  77  80
ATOM     80  S   UNL     1      -8.136   6.189   0.681  1.00  0.00     0.127 S 
ATOM     81  O   UNL     1      -9.555   6.066   0.358  1.00  0.00    -0.237 OA
ATOM     82  O   UNL     1      -7.235   6.148  -0.472  1.00  0.00    -0.237 OA
ATOM     83  O   UNL     1      -7.679   5.417   1.828  1.00  0.00    -0.744 OA
ENDBRANCH  77  80
ENDBRANCH  49  73
BRANCH  61  84
ATOM     84  C   UNL     1     -10.682  13.548   7.680  1.00  0.00     0.023 A 
ATOM     85  C   UNL     1     -11.871  12.806   7.830  1.00  0.00     0.012 A 
ATOM     86  C   UNL     1     -10.742  14.955   7.660  1.00  0.00     0.148 A 
ATOM     87  C   UNL     1     -13.101  13.454   7.932  1.00  0.00     0.002 A 
ATOM     88  C   UNL     1     -11.967  15.595   7.808  1.00  0.00     0.091 A 
ATOM     89  F   UNL     1      -9.602  15.642   7.496  1.00  0.00    -0.205 F 
ATOM     90  C   UNL     1     -13.149  14.846   7.933  1.00  0.00     0.022 A 
BRANCH  88  91
ATOM     91  S   UNL     1     -12.110  17.383   7.915  1.00  0.00     0.127 S 
ATOM     92  O   UNL     1     -12.643  17.719   6.596  1.00  0.00    -0.237 OA
ATOM     93  O   UNL     1     -13.056  17.556   9.017  1.00  0.00    -0.237 OA
ATOM     94  O   UNL     1     -10.767  17.873   8.193  1.00  0.00    -0.744 OA
ENDBRANCH  88  91
ENDBRANCH  61  84
ENDBRANCH  35  36
ENDBRANCH  27  30
ENDBRANCH  25  26
ENDBRANCH   1  25
TORSDOF 16
