REMARK SMILES O=C(NCCCNC(=O)[C@H](CO)NC(=O)[C@H](Cc1ccc(O)cc1)NC(=O)c1ccc(F)cc1)c1ccc(-c2c3nc(c(-c4cccc(S(=O)(=O)[O-])c4F)c4ccc([nH]4)c(-c4cccc(S(=O)(=O)[O-])c4F)c4nc(c(-c5cccc(S(=O)(=O)[O-])c5F)c5ccc2[nH]5)C=C4)C=C3)cc1
REMARK SMILES IDX 6 1 5 2 4 3 3 4 1 5 2 6 35 8 36 9 97 10 37 11 96 12 38 13
REMARK SMILES IDX 39 14 40 15 90 16 41 17 95 18 89 19 91 20 42 21 94 22 88 23
REMARK SMILES IDX 87 24 43 26 75 27 55 28 74 29 56 30 59 31 73 32 92 33 57 34
REMARK SMILES IDX 58 35 72 37 93 38 60 39 44 40 45 41 53 42 46 43 48 44 54 45
REMARK SMILES IDX 47 46 49 47 50 48 51 49 52 50 76 51 77 52 85 53 78 54 80 55
REMARK SMILES IDX 86 56 79 57 81 58 82 59 83 60 84 61 61 62 62 63 70 64 63 65
REMARK SMILES IDX 65 66 71 67 64 68 66 69 67 70 68 71 69 72 7 73 8 74 9 76
REMARK SMILES IDX 10 77 13 78 14 79 15 81 16 82 25 83 26 84 27 86 28 87 29 88
REMARK SMILES IDX 34 89 30 90 33 91 31 92 32 93 17 94 18 95 19 96 24 97 20 98
REMARK SMILES IDX 23 99 21 100 22 101 11 103 12 104
REMARK H PARENT 3 7 91 25 59 36 7 75 13 80 25 85 22 102 12 105
REMARK Flexibility Score: inf
ROOT
ATOM      1  C   UNL     1       7.404 -10.903   0.678  1.00  0.00     0.117 C 
ENDROOT
BRANCH   1   2
ATOM      2  C   UNL     1       8.628 -10.582   1.527  1.00  0.00     0.042 C 
BRANCH   2   3
ATOM      3  C   UNL     1       9.441 -11.821   1.900  1.00  0.00     0.118 C 
BRANCH   3   4
ATOM      4  N   UNL     1      10.032 -12.441   0.722  1.00  0.00    -0.352 N 
ATOM      5  O   UNL     1      11.525 -12.579  -0.955  1.00  0.00    -0.269 OA
ATOM      6  C   UNL     1      11.303 -12.296   0.220  1.00  0.00     0.251 C 
ATOM      7  H   UNL     1       9.442 -13.046   0.218  1.00  0.00     0.163 HD
BRANCH   6   8
ATOM      8  C   UNL     1      12.386 -11.808   1.098  1.00  0.00     0.039 A 
ATOM      9  C   UNL     1      12.485 -12.281   2.408  1.00  0.00     0.014 A 
ATOM     10  C   UNL     1      13.339 -10.915   0.600  1.00  0.00     0.014 A 
ATOM     11  C   UNL     1      13.453 -11.767   3.260  1.00  0.00     0.010 A 
ATOM     12  C   UNL     1      14.373 -10.473   1.432  1.00  0.00     0.010 A 
ATOM     13  C   UNL     1      14.430 -10.884   2.772  1.00  0.00    -0.014 A 
BRANCH  13  14
ATOM     14  C   UNL     1      15.558 -10.505   3.659  1.00  0.00     0.031 A 
ATOM     15  C   UNL     1      15.788  -9.079   4.070  1.00  0.00     0.074 A 
ATOM     16  C   UNL     1      16.377 -11.482   4.098  1.00  0.00     0.049 A 
ATOM     17  N   UNL     1      16.724  -8.594   4.844  1.00  0.00    -0.248 NA
ATOM     18  C   UNL     1      14.861  -8.065   3.544  1.00  0.00     0.031 C 
ATOM     19  C   UNL     1      16.265 -12.897   3.729  1.00  0.00     0.029 A 
ATOM     20  N   UNL     1      17.451 -11.448   4.949  1.00  0.00    -0.354 N 
ATOM     21  C   UNL     1      16.526  -7.220   4.870  1.00  0.00     0.074 A 
ATOM     22  C   UNL     1      15.382  -6.944   4.027  1.00  0.00     0.031 C 
ATOM     23  C   UNL     1      17.201 -13.599   4.381  1.00  0.00     0.029 A 
ATOM     24  C   UNL     1      18.024 -12.681   5.159  1.00  0.00     0.049 A 
ATOM     25  H   UNL     1      17.781 -10.621   5.370  1.00  0.00     0.167 HD
ATOM     26  C   UNL     1      17.227  -6.280   5.548  1.00  0.00     0.034 A 
ATOM     27  C   UNL     1      19.104 -13.038   5.880  1.00  0.00     0.034 A 
ATOM     28  C   UNL     1      18.337  -6.575   6.417  1.00  0.00     0.049 A 
ATOM     29  C   UNL     1      19.849 -11.976   6.634  1.00  0.00     0.074 A 
ATOM     30  C   UNL     1      19.074  -5.698   7.192  1.00  0.00     0.029 A 
ATOM     31  N   UNL     1      18.870  -7.838   6.626  1.00  0.00    -0.354 N 
ATOM     32  N   UNL     1      19.583 -10.696   6.726  1.00  0.00    -0.248 NA
ATOM     33  C   UNL     1      21.028 -12.404   7.397  1.00  0.00     0.031 C 
ATOM     34  C   UNL     1      20.069  -6.426   7.850  1.00  0.00     0.029 A 
ATOM     35  C   UNL     1      19.935  -7.762   7.508  1.00  0.00     0.049 A 
ATOM     36  H   UNL     1      18.541  -8.667   6.209  1.00  0.00     0.167 HD
ATOM     37  C   UNL     1      20.550 -10.166   7.569  1.00  0.00     0.074 A 
ATOM     38  C   UNL     1      21.391 -11.271   7.984  1.00  0.00     0.031 C 
ATOM     39  C   UNL     1      20.736  -8.878   7.946  1.00  0.00     0.034 A 
BRANCH  26  40
ATOM     40  C   UNL     1      16.802  -4.840   5.420  1.00  0.00     0.023 A 
ATOM     41  C   UNL     1      15.635  -4.399   6.075  1.00  0.00     0.012 A 
ATOM     42  C   UNL     1      17.613  -3.903   4.747  1.00  0.00     0.148 A 
ATOM     43  C   UNL     1      15.272  -3.052   6.049  1.00  0.00     0.002 A 
ATOM     44  C   UNL     1      17.267  -2.556   4.760  1.00  0.00     0.091 A 
ATOM     45  F   UNL     1      18.709  -4.345   4.114  1.00  0.00    -0.205 F 
ATOM     46  C   UNL     1      16.093  -2.131   5.404  1.00  0.00     0.022 A 
BRANCH  44  47
ATOM     47  S   UNL     1      18.299  -1.279   4.030  1.00  0.00     0.127 S 
ATOM     48  O   UNL     1      17.475  -0.842   2.904  1.00  0.00    -0.237 OA
ATOM     49  O   UNL     1      18.404  -0.308   5.120  1.00  0.00    -0.237 OA
ATOM     50  O   UNL     1      19.551  -1.928   3.670  1.00  0.00    -0.744 OA
ENDBRANCH  44  47
ENDBRANCH  26  40
BRANCH  27  51
ATOM     51  C   UNL     1      19.498 -14.473   5.944  1.00  0.00     0.023 A 
ATOM     52  C   UNL     1      19.329 -15.185   7.147  1.00  0.00     0.012 A 
ATOM     53  C   UNL     1      19.953 -15.158   4.799  1.00  0.00     0.148 A 
ATOM     54  C   UNL     1      19.614 -16.549   7.211  1.00  0.00     0.002 A 
ATOM     55  C   UNL     1      20.173 -16.529   4.853  1.00  0.00     0.091 A 
ATOM     56  F   UNL     1      20.122 -14.459   3.667  1.00  0.00    -0.205 F 
ATOM     57  C   UNL     1      20.019 -17.224   6.062  1.00  0.00     0.022 A 
BRANCH  55  58
ATOM     58  S   UNL     1      20.539 -17.502   3.388  1.00  0.00     0.127 S 
ATOM     59  O   UNL     1      21.934 -17.869   3.614  1.00  0.00    -0.237 OA
ATOM     60  O   UNL     1      19.583 -18.604   3.510  1.00  0.00    -0.237 OA
ATOM     61  O   UNL     1      20.291 -16.618   2.256  1.00  0.00    -0.744 OA
ENDBRANCH  55  58
ENDBRANCH  27  51
BRANCH  39  62
ATOM     62  C   UNL     1      21.889  -8.579   8.867  1.00  0.00     0.023 A 
ATOM     63  C   UNL     1      23.203  -8.595   8.360  1.00  0.00     0.012 A 
ATOM     64  C   UNL     1      21.662  -8.180  10.198  1.00  0.00     0.148 A 
ATOM     65  C   UNL     1      24.278  -8.236   9.172  1.00  0.00     0.002 A 
ATOM     66  C   UNL     1      22.733  -7.776  10.986  1.00  0.00     0.091 A 
ATOM     67  F   UNL     1      20.404  -8.190  10.664  1.00  0.00    -0.205 F 
ATOM     68  C   UNL     1      24.042  -7.814  10.478  1.00  0.00     0.022 A 
BRANCH  66  69
ATOM     69  S   UNL     1      22.517  -7.121  12.645  1.00  0.00     0.127 S 
ATOM     70  O   UNL     1      23.071  -8.197  13.465  1.00  0.00    -0.237 OA
ATOM     71  O   UNL     1      23.329  -5.905  12.606  1.00  0.00    -0.237 OA
ATOM     72  O   UNL     1      21.088  -6.890  12.804  1.00  0.00    -0.744 OA
ENDBRANCH  66  69
ENDBRANCH  39  62
ENDBRANCH  13  14
ENDBRANCH   6   8
ENDBRANCH   3   4
ENDBRANCH   2   3
ENDBRANCH   1   2
BRANCH   1  73
ATOM     73  N   UNL     1       6.503 -11.839   1.329  1.00  0.00    -0.354 N 
ATOM     74  C   UNL     1       5.264 -11.742   1.869  1.00  0.00     0.244 C 
ATOM     75  H   UNL     1       6.877 -12.748   1.392  1.00  0.00     0.163 HD
ATOM     76  O   UNL     1       4.775 -12.808   2.268  1.00  0.00    -0.273 OA
BRANCH  74  77
ATOM     77  C   UNL     1       4.506 -10.420   2.111  1.00  0.00     0.197 C 
BRANCH  77  78
ATOM     78  N   UNL     1       5.082  -9.154   1.652  1.00  0.00    -0.340 N 
ATOM     79  C   UNL     1       5.733  -8.183   2.361  1.00  0.00     0.243 C 
ATOM     80  H   UNL     1       4.986  -8.975   0.688  1.00  0.00     0.164 HD
ATOM     81  O   UNL     1       6.203  -7.225   1.746  1.00  0.00    -0.273 OA
BRANCH  79  82
ATOM     82  C   UNL     1       5.826  -8.295   3.892  1.00  0.00     0.176 C 
BRANCH  82  83
ATOM     83  N   UNL     1       7.133  -7.812   4.347  1.00  0.00    -0.340 N 
ATOM     84  C   UNL     1       7.891  -8.275   5.396  1.00  0.00     0.251 C 
ATOM     85  H   UNL     1       7.516  -7.062   3.838  1.00  0.00     0.164 HD
ATOM     86  O   UNL     1       8.873  -7.647   5.787  1.00  0.00    -0.269 OA
BRANCH  84  87
ATOM     87  C   UNL     1       7.506  -9.526   6.093  1.00  0.00     0.040 A 
ATOM     88  C   UNL     1       7.390 -10.738   5.396  1.00  0.00     0.017 A 
ATOM     89  C   UNL     1       7.234  -9.481   7.465  1.00  0.00     0.017 A 
ATOM     90  C   UNL     1       6.912 -11.878   6.044  1.00  0.00     0.040 A 
ATOM     91  C   UNL     1       6.772 -10.629   8.116  1.00  0.00     0.040 A 
ATOM     92  C   UNL     1       6.597 -11.809   7.397  1.00  0.00     0.123 A 
ATOM     93  F   UNL     1       6.101 -12.891   8.011  1.00  0.00    -0.207 F 
ENDBRANCH  84  87
ENDBRANCH  82  83
BRANCH  82  94
ATOM     94  C   UNL     1       4.658  -7.531   4.564  1.00  0.00     0.070 C 
BRANCH  94  95
ATOM     95  C   UNL     1       3.497  -8.424   4.971  1.00  0.00    -0.045 A 
ATOM     96  C   UNL     1       2.173  -8.069   4.686  1.00  0.00     0.007 A 
ATOM     97  C   UNL     1       3.724  -9.627   5.654  1.00  0.00     0.007 A 
ATOM     98  C   UNL     1       1.123  -8.948   4.986  1.00  0.00     0.046 A 
ATOM     99  C   UNL     1       2.692 -10.522   5.916  1.00  0.00     0.046 A 
ATOM    100  C   UNL     1       1.398 -10.182   5.566  1.00  0.00     0.115 A 
BRANCH 100 101
ATOM    101  O   UNL     1       0.421 -11.098   5.813  1.00  0.00    -0.508 OA
ATOM    102  H   UNL     1      -0.469 -10.905   5.590  1.00  0.00     0.293 HD
ENDBRANCH 100 101
ENDBRANCH  94  95
ENDBRANCH  82  94
ENDBRANCH  79  82
ENDBRANCH  77  78
BRANCH  77 103
ATOM    103  C   UNL     1       3.053 -10.553   1.624  1.00  0.00     0.191 C 
BRANCH 103 104
ATOM    104  O   UNL     1       2.947 -10.244   0.232  1.00  0.00    -0.394 OA
ATOM    105  H   UNL     1       3.231  -9.329   0.082  1.00  0.00     0.210 HD
ENDBRANCH 103 104
ENDBRANCH  77 103
ENDBRANCH  74  77
ENDBRANCH   1  73
TORSDOF 22
