REMARK SMILES COc1cc(OC)c([C@H]2CC[NH2+][C@H]2C(=O)NCCCNC(=O)c2ccc(-c3c4nc(c(-c5cccc(S(=O)(=O)[O-])c5F)c5ccc([nH]5)c(-c5cccc(S(=O)(=O)[O-])c5F)c5nc(c(-c6cccc(S(=O)(=O)[O-])c6F)c6ccc3[nH]6)C=C5)C=C4)cc2)cc1OC
REMARK SMILES IDX 18 1 17 2 16 3 14 4 15 5 13 7 9 8 10 9 11 10 12 11 8 14 3 15
REMARK SMILES IDX 4 16 87 17 5 18 86 19 2 20 1 21 88 22 89 23 6 24 7 25 19 26
REMARK SMILES IDX 20 27 21 28 22 30 23 31 24 32 85 33 25 34 84 35 26 36 27 37
REMARK SMILES IDX 28 38 78 39 29 40 83 41 77 42 79 43 30 44 82 45 76 46 75 47
REMARK SMILES IDX 31 49 63 50 43 51 62 52 44 53 47 54 61 55 80 56 45 57 46 58
REMARK SMILES IDX 60 60 81 61 48 62 32 63 33 64 41 65 34 66 36 67 42 68 35 69
REMARK SMILES IDX 37 70 38 71 39 72 40 73 64 74 65 75 73 76 66 77 68 78 74 79
REMARK SMILES IDX 67 80 69 81 70 82 71 83 72 84 49 85 50 86 58 87 51 88 53 89
REMARK SMILES IDX 59 90 52 91 54 92 55 93 56 94 57 95
REMARK H PARENT 16 6 12 12 12 13 20 29 79 48 47 59
REMARK Flexibility Score: inf
ROOT
ATOM      1  C   UNL     1       1.500   9.997   1.711  1.00  0.00     0.042 C 
ENDROOT
BRANCH   1   2
ATOM      2  C   UNL     1       2.326   9.122   2.647  1.00  0.00     0.118 C 
BRANCH   2   3
ATOM      3  N   UNL     1       1.620   7.936   3.092  1.00  0.00    -0.351 N 
ATOM      4  C   UNL     1       1.611   6.643   2.678  1.00  0.00     0.278 C 
ATOM      5  O   UNL     1       0.840   5.888   3.286  1.00  0.00    -0.268 OA
ATOM      6  H   UNL     1       1.020   8.104   3.854  1.00  0.00     0.163 HD
BRANCH   4   7
ATOM      7  C   UNL     1       2.511   6.080   1.560  1.00  0.00     0.280 C 
ATOM      8  C   UNL     1       2.350   6.465   0.071  1.00  0.00     0.097 C 
ATOM      9  C   UNL     1       3.570   7.364  -0.167  1.00  0.00     0.076 C 
ATOM     10  C   UNL     1       4.633   6.797   0.749  1.00  0.00     0.262 C 
ATOM     11  N   UNL     1       3.947   6.279   1.930  1.00  0.00    -0.335 N 
ATOM     12  H   UNL     1       4.021   6.948   2.697  1.00  0.00     0.346 HD
ATOM     13  H   UNL     1       4.366   5.401   2.234  1.00  0.00     0.346 HD
BRANCH   8  14
ATOM     14  C   UNL     1       1.078   6.998  -0.570  1.00  0.00     0.008 A 
ATOM     15  C   UNL     1      -1.155   8.329  -1.737  1.00  0.00     0.164 A 
ATOM     16  C   UNL     1      -0.031   8.026  -2.506  1.00  0.00     0.097 A 
ATOM     17  C   UNL     1      -1.218   7.880  -0.415  1.00  0.00     0.161 A 
ATOM     18  C   UNL     1       1.056   7.354  -1.935  1.00  0.00     0.126 A 
ATOM     19  C   UNL     1      -0.121   7.186   0.133  1.00  0.00     0.058 A 
BRANCH  15  20
ATOM     20  O   UNL     1      -2.222   8.966  -2.306  1.00  0.00    -0.493 OA
ATOM     21  C   UNL     1      -1.889  10.246  -2.855  1.00  0.00     0.278 C 
ENDBRANCH  15  20
BRANCH  17  22
ATOM     22  O   UNL     1      -2.242   8.050   0.482  1.00  0.00    -0.493 OA
ATOM     23  C   UNL     1      -3.180   9.088   0.221  1.00  0.00     0.278 C 
ENDBRANCH  17  22
BRANCH  18  24
ATOM     24  O   UNL     1       2.120   7.125  -2.772  1.00  0.00    -0.496 OA
ATOM     25  C   UNL     1       2.249   5.744  -3.113  1.00  0.00     0.278 C 
ENDBRANCH  18  24
ENDBRANCH   8  14
ENDBRANCH   4   7
ENDBRANCH   2   3
ENDBRANCH   1   2
BRANCH   1  26
ATOM     26  C   UNL     1       0.206  10.516   2.330  1.00  0.00     0.118 C 
BRANCH  26  27
ATOM     27  N   UNL     1       0.473  11.531   3.341  1.00  0.00    -0.352 N 
ATOM     28  C   UNL     1       0.085  12.847   3.361  1.00  0.00     0.251 C 
ATOM     29  H   UNL     1       1.004  11.232   4.114  1.00  0.00     0.163 HD
ATOM     30  O   UNL     1       0.625  13.630   4.140  1.00  0.00    -0.269 OA
BRANCH  28  31
ATOM     31  C   UNL     1      -0.982  13.320   2.453  1.00  0.00     0.039 A 
ATOM     32  C   UNL     1      -0.821  14.539   1.789  1.00  0.00     0.014 A 
ATOM     33  C   UNL     1      -2.158  12.581   2.292  1.00  0.00     0.014 A 
ATOM     34  C   UNL     1      -1.824  15.000   0.933  1.00  0.00     0.010 A 
ATOM     35  C   UNL     1      -3.132  13.014   1.395  1.00  0.00     0.010 A 
ATOM     36  C   UNL     1      -2.981  14.233   0.716  1.00  0.00    -0.014 A 
BRANCH  36  37
ATOM     37  C   UNL     1      -4.046  14.686  -0.213  1.00  0.00     0.031 A 
ATOM     38  C   UNL     1      -5.416  15.021   0.310  1.00  0.00     0.074 A 
ATOM     39  C   UNL     1      -3.805  14.711  -1.538  1.00  0.00     0.049 A 
ATOM     40  N   UNL     1      -6.489  15.369  -0.352  1.00  0.00    -0.248 NA
ATOM     41  C   UNL     1      -5.615  14.927   1.766  1.00  0.00     0.031 C 
ATOM     42  C   UNL     1      -2.540  14.340  -2.174  1.00  0.00     0.029 A 
ATOM     43  N   UNL     1      -4.624  15.035  -2.590  1.00  0.00    -0.354 N 
ATOM     44  C   UNL     1      -7.496  15.500   0.597  1.00  0.00     0.074 A 
ATOM     45  C   UNL     1      -6.914  15.165   1.878  1.00  0.00     0.031 C 
ATOM     46  C   UNL     1      -2.668  14.455  -3.506  1.00  0.00     0.029 A 
ATOM     47  C   UNL     1      -4.028  14.883  -3.820  1.00  0.00     0.049 A 
ATOM     48  H   UNL     1      -5.551  15.347  -2.475  1.00  0.00     0.167 HD
ATOM     49  C   UNL     1      -8.781  15.892   0.423  1.00  0.00     0.034 A 
ATOM     50  C   UNL     1      -4.523  15.063  -5.061  1.00  0.00     0.034 A 
ATOM     51  C   UNL     1      -9.342  16.277  -0.844  1.00  0.00     0.049 A 
ATOM     52  C   UNL     1      -5.940  15.542  -5.224  1.00  0.00     0.074 A 
ATOM     53  C   UNL     1     -10.602  16.783  -1.109  1.00  0.00     0.029 A 
ATOM     54  N   UNL     1      -8.680  16.195  -2.059  1.00  0.00    -0.354 N 
ATOM     55  N   UNL     1      -6.827  15.820  -4.299  1.00  0.00    -0.248 NA
ATOM     56  C   UNL     1      -6.414  15.765  -6.597  1.00  0.00     0.031 C 
ATOM     57  C   UNL     1     -10.707  16.995  -2.488  1.00  0.00     0.029 A 
ATOM     58  C   UNL     1      -9.508  16.633  -3.079  1.00  0.00     0.049 A 
ATOM     59  H   UNL     1      -7.758  15.873  -2.180  1.00  0.00     0.167 HD
ATOM     60  C   UNL     1      -7.951  16.280  -4.975  1.00  0.00     0.074 A 
ATOM     61  C   UNL     1      -7.625  16.265  -6.387  1.00  0.00     0.031 C 
ATOM     62  C   UNL     1      -9.151  16.665  -4.474  1.00  0.00     0.034 A 
BRANCH  49  63
ATOM     63  C   UNL     1      -9.655  15.988   1.646  1.00  0.00     0.023 A 
ATOM     64  C   UNL     1      -9.448  17.040   2.562  1.00  0.00     0.012 A 
ATOM     65  C   UNL     1     -10.711  15.082   1.861  1.00  0.00     0.148 A 
ATOM     66  C   UNL     1     -10.257  17.170   3.689  1.00  0.00     0.002 A 
ATOM     67  C   UNL     1     -11.540  15.243   2.966  1.00  0.00     0.091 A 
ATOM     68  F   UNL     1     -10.879  14.075   0.993  1.00  0.00    -0.205 F 
ATOM     69  C   UNL     1     -11.308  16.279   3.886  1.00  0.00     0.022 A 
BRANCH  67  70
ATOM     70  S   UNL     1     -12.966  14.191   3.265  1.00  0.00     0.127 S 
ATOM     71  O   UNL     1     -12.491  13.357   4.369  1.00  0.00    -0.237 OA
ATOM     72  O   UNL     1     -13.995  15.163   3.637  1.00  0.00    -0.237 OA
ATOM     73  O   UNL     1     -13.216  13.494   2.013  1.00  0.00    -0.744 OA
ENDBRANCH  67  70
ENDBRANCH  49  63
BRANCH  50  74
ATOM     74  C   UNL     1      -3.642  14.856  -6.244  1.00  0.00     0.023 A 
ATOM     75  C   UNL     1      -3.216  15.970  -6.991  1.00  0.00     0.012 A 
ATOM     76  C   UNL     1      -3.186  13.573  -6.603  1.00  0.00     0.148 A 
ATOM     77  C   UNL     1      -2.374  15.809  -8.092  1.00  0.00     0.002 A 
ATOM     78  C   UNL     1      -2.302  13.426  -7.665  1.00  0.00     0.091 A 
ATOM     79  F   UNL     1      -3.612  12.522  -5.887  1.00  0.00    -0.205 F 
ATOM     80  C   UNL     1      -1.908  14.539  -8.422  1.00  0.00     0.022 A 
BRANCH  78  81
ATOM     81  S   UNL     1      -1.538  11.845  -8.049  1.00  0.00     0.127 S 
ATOM     82  O   UNL     1      -2.300  11.422  -9.222  1.00  0.00    -0.237 OA
ATOM     83  O   UNL     1      -0.152  12.232  -8.320  1.00  0.00    -0.237 OA
ATOM     84  O   UNL     1      -1.704  11.038  -6.849  1.00  0.00    -0.744 OA
ENDBRANCH  78  81
ENDBRANCH  50  74
BRANCH  62  85
ATOM     85  C   UNL     1     -10.202  17.125  -5.450  1.00  0.00     0.023 A 
ATOM     86  C   UNL     1     -10.873  16.177  -6.247  1.00  0.00     0.012 A 
ATOM     87  C   UNL     1     -10.581  18.480  -5.518  1.00  0.00     0.148 A 
ATOM     88  C   UNL     1     -11.888  16.573  -7.116  1.00  0.00     0.002 A 
ATOM     89  C   UNL     1     -11.624  18.861  -6.354  1.00  0.00     0.091 A 
ATOM     90  F   UNL     1      -9.916  19.369  -4.766  1.00  0.00    -0.205 F 
ATOM     91  C   UNL     1     -12.272  17.912  -7.160  1.00  0.00     0.022 A 
BRANCH  89  92
ATOM     92  S   UNL     1     -12.245  20.547  -6.407  1.00  0.00     0.127 S 
ATOM     93  O   UNL     1     -11.713  21.020  -7.684  1.00  0.00    -0.237 OA
ATOM     94  O   UNL     1     -13.694  20.346  -6.387  1.00  0.00    -0.237 OA
ATOM     95  O   UNL     1     -11.712  21.206  -5.222  1.00  0.00    -0.744 OA
ENDBRANCH  89  92
ENDBRANCH  62  85
ENDBRANCH  36  37
ENDBRANCH  28  31
ENDBRANCH  26  27
ENDBRANCH   1  26
TORSDOF 17
