REMARK SMILES C/C(=N\NC(N)=O)c1nnn(-c2ccc(C(=O)NCCCNC(=O)c3ccc(-c4c5nc(c(-c6cccc(S(=O)(=O)[O-])c6F)c6ccc([nH]6)c(-c6cccc(S(=O)(=O)[O-])c6F)c6nc(c(-c7cccc(S(=O)(=O)[O-])c7F)c7ccc4[nH]7)C=C6)C=C5)cc3)cc2)c1C
REMARK SMILES IDX 20 1 19 2 18 3 16 4 17 5 15 7 12 8 13 9 89 10 14 11 88 12
REMARK SMILES IDX 11 13 8 14 9 15 90 16 10 17 91 18 2 19 1 20 3 21 4 22 5 23
REMARK SMILES IDX 6 25 7 26 21 29 22 30 23 31 24 33 25 34 26 35 87 36 27 37
REMARK SMILES IDX 86 38 28 39 29 40 30 41 80 42 31 43 85 44 79 45 81 46 32 47
REMARK SMILES IDX 84 48 78 49 77 50 33 52 65 53 45 54 64 55 46 56 49 57 63 58
REMARK SMILES IDX 82 59 47 60 48 61 62 63 83 64 50 65 34 66 35 67 43 68 36 69
REMARK SMILES IDX 38 70 44 71 37 72 39 73 40 74 41 75 42 76 66 77 67 78 75 79
REMARK SMILES IDX 68 80 70 81 76 82 69 83 71 84 72 85 73 86 74 87 51 88 52 89
REMARK SMILES IDX 60 90 53 91 55 92 61 93 54 94 56 95 57 96 58 97 59 98
REMARK H PARENT 18 6 4 24 6 27 6 28 22 32 81 51 49 62
REMARK Flexibility Score: inf
ROOT
ATOM      1  C   UNL     1       7.887   6.063   4.118  1.00  0.00     0.042 C 
ENDROOT
BRANCH   1   2
ATOM      2  C   UNL     1       8.009   4.563   4.423  1.00  0.00     0.118 C 
BRANCH   2   3
ATOM      3  N   UNL     1       7.655   4.243   5.798  1.00  0.00    -0.352 N 
ATOM      4  C   UNL     1       6.488   3.790   6.368  1.00  0.00     0.251 C 
ATOM      5  O   UNL     1       6.524   3.415   7.538  1.00  0.00    -0.269 OA
ATOM      6  H   UNL     1       8.389   4.376   6.441  1.00  0.00     0.163 HD
BRANCH   4   7
ATOM      7  C   UNL     1       5.209   3.660   5.616  1.00  0.00     0.039 A 
ATOM      8  C   UNL     1       2.910   3.114   4.136  1.00  0.00     0.067 A 
ATOM      9  C   UNL     1       3.077   2.497   5.376  1.00  0.00     0.029 A 
ATOM     10  C   UNL     1       3.801   4.086   3.691  1.00  0.00     0.029 A 
ATOM     11  C   UNL     1       4.247   2.755   6.099  1.00  0.00     0.016 A 
ATOM     12  C   UNL     1       4.918   4.386   4.460  1.00  0.00     0.016 A 
BRANCH   8  13
ATOM     13  N   UNL     1       1.906   2.676   3.261  1.00  0.00    -0.217 N 
ATOM     14  C   UNL     1       0.810   1.790   1.610  1.00  0.00     0.132 A 
ATOM     15  N   UNL     1      -0.078   2.126   2.597  1.00  0.00    -0.128 NA
ATOM     16  C   UNL     1       2.092   2.120   2.007  1.00  0.00     0.071 A 
ATOM     17  N   UNL     1       0.612   2.591   3.630  1.00  0.00    -0.061 NA
ATOM     18  C   UNL     1       3.413   1.806   1.409  1.00  0.00     0.069 C 
BRANCH  14  19
ATOM     19  C   UNL     1       0.428   0.974   0.473  1.00  0.00     0.087 C 
ATOM     20  C   UNL     1       0.722  -0.494   0.616  1.00  0.00     0.071 C 
ATOM     21  N   UNL     1      -0.151   1.608  -0.503  1.00  0.00    -0.174 NA
BRANCH  21  22
ATOM     22  N   UNL     1      -0.579   1.008  -1.652  1.00  0.00    -0.229 N 
ATOM     23  C   UNL     1      -0.002  -0.018  -2.356  1.00  0.00     0.332 C 
ATOM     24  H   UNL     1      -1.419   1.360  -2.027  1.00  0.00     0.195 HD
ATOM     25  N   UNL     1      -0.742  -0.393  -3.436  1.00  0.00    -0.350 N 
ATOM     26  O   UNL     1       1.054  -0.604  -2.114  1.00  0.00    -0.247 OA
ATOM     27  H   UNL     1      -1.587   0.069  -3.637  1.00  0.00     0.161 HD
ATOM     28  H   UNL     1      -0.431  -1.127  -4.014  1.00  0.00     0.161 HD
ENDBRANCH  21  22
ENDBRANCH  14  19
ENDBRANCH   8  13
ENDBRANCH   4   7
ENDBRANCH   2   3
ENDBRANCH   1   2
BRANCH   1  29
ATOM     29  C   UNL     1       9.155   6.826   4.445  1.00  0.00     0.118 C 
BRANCH  29  30
ATOM     30  N   UNL     1      10.238   6.526   3.501  1.00  0.00    -0.352 N 
ATOM     31  C   UNL     1      11.538   6.991   3.514  1.00  0.00     0.251 C 
ATOM     32  H   UNL     1      10.007   5.916   2.764  1.00  0.00     0.163 HD
ATOM     33  O   UNL     1      12.225   6.949   2.499  1.00  0.00    -0.269 OA
BRANCH  31  34
ATOM     34  C   UNL     1      12.082   7.533   4.769  1.00  0.00     0.039 A 
ATOM     35  C   UNL     1      12.909   8.662   4.787  1.00  0.00     0.014 A 
ATOM     36  C   UNL     1      11.710   6.903   5.950  1.00  0.00     0.014 A 
ATOM     37  C   UNL     1      13.287   9.197   6.017  1.00  0.00     0.010 A 
ATOM     38  C   UNL     1      11.918   7.535   7.143  1.00  0.00     0.010 A 
ATOM     39  C   UNL     1      12.769   8.633   7.190  1.00  0.00    -0.014 A 
BRANCH  39  40
ATOM     40  C   UNL     1      12.980   9.239   8.499  1.00  0.00     0.031 A 
ATOM     41  C   UNL     1      12.429  10.616   8.612  1.00  0.00     0.074 A 
ATOM     42  C   UNL     1      13.354   8.488   9.561  1.00  0.00     0.049 A 
ATOM     43  N   UNL     1      13.082  11.726   8.724  1.00  0.00    -0.248 NA
ATOM     44  C   UNL     1      10.986  10.803   8.374  1.00  0.00     0.031 C 
ATOM     45  C   UNL     1      13.583   7.033   9.581  1.00  0.00     0.029 A 
ATOM     46  N   UNL     1      13.437   8.817  10.879  1.00  0.00    -0.354 N 
ATOM     47  C   UNL     1      12.103  12.711   8.866  1.00  0.00     0.074 A 
ATOM     48  C   UNL     1      10.893  12.134   8.356  1.00  0.00     0.031 C 
ATOM     49  C   UNL     1      13.504   6.579  10.850  1.00  0.00     0.029 A 
ATOM     50  C   UNL     1      13.406   7.718  11.739  1.00  0.00     0.049 A 
ATOM     51  H   UNL     1      13.512   9.746  11.196  1.00  0.00     0.167 HD
ATOM     52  C   UNL     1      12.295  13.766   9.710  1.00  0.00     0.034 A 
ATOM     53  C   UNL     1      13.271   7.742  13.087  1.00  0.00     0.034 A 
ATOM     54  C   UNL     1      13.677  13.822  10.128  1.00  0.00     0.049 A 
ATOM     55  C   UNL     1      13.628   9.106  13.526  1.00  0.00     0.074 A 
ATOM     56  C   UNL     1      14.900  14.023   9.528  1.00  0.00     0.029 A 
ATOM     57  N   UNL     1      13.915  13.234  11.345  1.00  0.00    -0.354 N 
ATOM     58  N   UNL     1      14.831   9.596  13.431  1.00  0.00    -0.248 NA
ATOM     59  C   UNL     1      12.566  10.079  13.728  1.00  0.00     0.031 C 
ATOM     60  C   UNL     1      15.827  13.247  10.286  1.00  0.00     0.029 A 
ATOM     61  C   UNL     1      15.149  12.652  11.352  1.00  0.00     0.049 A 
ATOM     62  H   UNL     1      13.286  13.232  12.102  1.00  0.00     0.167 HD
ATOM     63  C   UNL     1      14.623  10.919  13.078  1.00  0.00     0.074 A 
ATOM     64  C   UNL     1      13.243  11.199  13.459  1.00  0.00     0.031 C 
ATOM     65  C   UNL     1      15.484  11.545  12.223  1.00  0.00     0.034 A 
BRANCH  52  66
ATOM     66  C   UNL     1      11.225  14.435  10.573  1.00  0.00     0.023 A 
ATOM     67  C   UNL     1      11.670  15.483  11.418  1.00  0.00     0.012 A 
ATOM     68  C   UNL     1       9.933  13.925  10.840  1.00  0.00     0.148 A 
ATOM     69  C   UNL     1      10.928  15.915  12.525  1.00  0.00     0.002 A 
ATOM     70  C   UNL     1       9.173  14.396  11.908  1.00  0.00     0.091 A 
ATOM     71  F   UNL     1       9.449  12.902  10.140  1.00  0.00    -0.205 F 
ATOM     72  C   UNL     1       9.681  15.364  12.776  1.00  0.00     0.022 A 
BRANCH  70  73
ATOM     73  S   UNL     1       7.536  13.739  12.268  1.00  0.00     0.127 S 
ATOM     74  O   UNL     1       7.786  13.001  13.502  1.00  0.00    -0.237 OA
ATOM     75  O   UNL     1       6.753  14.965  12.424  1.00  0.00    -0.237 OA
ATOM     76  O   UNL     1       7.166  12.936  11.109  1.00  0.00    -0.744 OA
ENDBRANCH  70  73
ENDBRANCH  52  66
BRANCH  53  77
ATOM     77  C   UNL     1      12.702   6.758  14.034  1.00  0.00     0.023 A 
ATOM     78  C   UNL     1      13.096   6.787  15.387  1.00  0.00     0.012 A 
ATOM     79  C   UNL     1      11.564   6.001  13.684  1.00  0.00     0.148 A 
ATOM     80  C   UNL     1      12.349   6.128  16.371  1.00  0.00     0.002 A 
ATOM     81  C   UNL     1      10.822   5.350  14.667  1.00  0.00     0.091 A 
ATOM     82  F   UNL     1      11.163   6.000  12.406  1.00  0.00    -0.205 F 
ATOM     83  C   UNL     1      11.205   5.423  16.013  1.00  0.00     0.022 A 
BRANCH  81  84
ATOM     84  S   UNL     1       9.305   4.458  14.299  1.00  0.00     0.127 S 
ATOM     85  O   UNL     1       9.552   3.167  14.943  1.00  0.00    -0.237 OA
ATOM     86  O   UNL     1       8.302   5.290  14.958  1.00  0.00    -0.237 OA
ATOM     87  O   UNL     1       9.225   4.401  12.845  1.00  0.00    -0.744 OA
ENDBRANCH  81  84
ENDBRANCH  53  77
BRANCH  65  88
ATOM     88  C   UNL     1      16.834  10.913  12.016  1.00  0.00     0.023 A 
ATOM     89  C   UNL     1      17.014   9.676  11.363  1.00  0.00     0.012 A 
ATOM     90  C   UNL     1      17.962  11.665  12.377  1.00  0.00     0.148 A 
ATOM     91  C   UNL     1      18.298   9.193  11.096  1.00  0.00     0.002 A 
ATOM     92  C   UNL     1      19.233  11.206  12.065  1.00  0.00     0.091 A 
ATOM     93  F   UNL     1      17.767  12.837  13.001  1.00  0.00    -0.205 F 
ATOM     94  C   UNL     1      19.408   9.965  11.434  1.00  0.00     0.022 A 
BRANCH  92  95
ATOM     95  S   UNL     1      20.683  12.218  12.361  1.00  0.00     0.127 S 
ATOM     96  O   UNL     1      21.267  11.577  13.537  1.00  0.00    -0.237 OA
ATOM     97  O   UNL     1      21.446  12.043  11.124  1.00  0.00    -0.237 OA
ATOM     98  O   UNL     1      20.188  13.574  12.565  1.00  0.00    -0.744 OA
ENDBRANCH  92  95
ENDBRANCH  65  88
ENDBRANCH  39  40
ENDBRANCH  31  34
ENDBRANCH  29  30
ENDBRANCH   1  29
TORSDOF 16
