REMARK SMILES [NH3+]CCOCC(=O)N[C@]1(C(=O)NCCCNC(=O)c2ccc(-c3c4nc(c(-c5cccc(S(=O)(=O)[O-])c5F)c5ccc([nH]5)c(-c5cccc(S(=O)(=O)[O-])c5F)c5nc(c(-c6cccc(S(=O)(=O)[O-])c6F)c6ccc3[nH]6)C=C5)C=C4)cc2)CCOC1
REMARK SMILES IDX 10 1 11 2 12 3 9 5 82 6 85 7 83 8 84 9 8 10 6 11 7 12 5 14
REMARK SMILES IDX 4 15 3 16 2 17 1 18 13 22 14 23 15 24 16 25 17 26 18 28
REMARK SMILES IDX 19 29 20 30 81 31 21 32 80 33 22 34 23 35 24 36 74 37 25 38
REMARK SMILES IDX 79 39 73 40 75 41 26 42 78 43 72 44 71 45 27 47 59 48 39 49
REMARK SMILES IDX 58 50 40 51 43 52 57 53 76 54 41 55 42 56 56 58 77 59 44 60
REMARK SMILES IDX 28 61 29 62 37 63 30 64 32 65 38 66 31 67 33 68 34 69 35 70
REMARK SMILES IDX 36 71 60 72 61 73 69 74 62 75 64 76 70 77 63 78 65 79 66 80
REMARK SMILES IDX 67 81 68 82 45 83 46 84 54 85 47 86 49 87 55 88 48 89 50 90
REMARK SMILES IDX 51 91 52 92 53 93
REMARK H PARENT 12 4 8 13 1 19 1 20 1 21 16 27 75 46 43 57
REMARK Flexibility Score: inf
ROOT
ATOM      1  C   UNL     1       1.581  -2.413   4.643  1.00  0.00     0.248 C 
ATOM      2  O   UNL     1       1.677  -1.245   5.040  1.00  0.00    -0.272 OA
ATOM      3  N   UNL     1       0.469  -3.081   5.032  1.00  0.00    -0.354 N 
ATOM      4  H   UNL     1      -0.343  -2.531   5.117  1.00  0.00     0.163 HD
ENDROOT
BRANCH   1   5
ATOM      5  C   UNL     1       2.678  -3.050   3.754  1.00  0.00     0.144 C 
ATOM      6  C   UNL     1       3.688  -3.744   4.671  1.00  0.00     0.069 C 
ATOM      7  C   UNL     1       2.233  -4.162   2.794  1.00  0.00     0.198 C 
ATOM      8  C   UNL     1       4.016  -5.040   3.967  1.00  0.00     0.163 C 
ATOM      9  O   UNL     1       2.852  -5.389   3.218  1.00  0.00    -0.378 OA
BRANCH   5  10
ATOM     10  N   UNL     1       3.327  -1.952   2.992  1.00  0.00    -0.338 N 
ATOM     11  C   UNL     1       2.755  -1.085   2.100  1.00  0.00     0.246 C 
ATOM     12  O   UNL     1       3.491  -0.377   1.407  1.00  0.00    -0.272 OA
ATOM     13  H   UNL     1       4.291  -1.832   3.149  1.00  0.00     0.164 HD
BRANCH  11  14
ATOM     14  C   UNL     1       1.225  -1.014   1.933  1.00  0.00     0.260 C 
BRANCH  14  15
ATOM     15  O   UNL     1       0.610  -2.087   1.242  1.00  0.00    -0.366 OA
BRANCH  15  16
ATOM     16  C   UNL     1       1.065  -2.275  -0.098  1.00  0.00     0.222 C 
BRANCH  16  17
ATOM     17  C   UNL     1       0.524  -1.241  -1.100  1.00  0.00     0.287 C 
BRANCH  17  18
ATOM     18  N   UNL     1       1.191   0.063  -1.076  1.00  0.00    -0.356 N 
ATOM     19  H   UNL     1       0.765   0.676  -1.771  1.00  0.00     0.344 HD
ATOM     20  H   UNL     1       2.181  -0.057  -1.290  1.00  0.00     0.344 HD
ATOM     21  H   UNL     1       1.092   0.479  -0.150  1.00  0.00     0.344 HD
ENDBRANCH  17  18
ENDBRANCH  16  17
ENDBRANCH  15  16
ENDBRANCH  14  15
ENDBRANCH  11  14
ENDBRANCH   5  10
ENDBRANCH   1   5
BRANCH   3  22
ATOM     22  C   UNL     1       0.298  -4.487   5.342  1.00  0.00     0.117 C 
BRANCH  22  23
ATOM     23  C   UNL     1       0.431  -4.716   6.841  1.00  0.00     0.042 C 
BRANCH  23  24
ATOM     24  C   UNL     1      -0.562  -3.909   7.668  1.00  0.00     0.118 C 
BRANCH  24  25
ATOM     25  N   UNL     1      -1.944  -4.253   7.365  1.00  0.00    -0.352 N 
ATOM     26  C   UNL     1      -2.905  -4.778   8.194  1.00  0.00     0.251 C 
ATOM     27  H   UNL     1      -2.229  -4.087   6.437  1.00  0.00     0.163 HD
ATOM     28  O   UNL     1      -3.950  -5.213   7.726  1.00  0.00    -0.269 OA
BRANCH  26  29
ATOM     29  C   UNL     1      -2.655  -4.826   9.650  1.00  0.00     0.039 A 
ATOM     30  C   UNL     1      -2.954  -5.995  10.351  1.00  0.00     0.014 A 
ATOM     31  C   UNL     1      -2.107  -3.724  10.312  1.00  0.00     0.014 A 
ATOM     32  C   UNL     1      -2.648  -6.076  11.711  1.00  0.00     0.010 A 
ATOM     33  C   UNL     1      -1.717  -3.841  11.639  1.00  0.00     0.010 A 
ATOM     34  C   UNL     1      -1.996  -5.013  12.358  1.00  0.00    -0.014 A 
BRANCH  34  35
ATOM     35  C   UNL     1      -1.599  -5.106  13.785  1.00  0.00     0.031 A 
ATOM     36  C   UNL     1      -2.168  -4.142  14.791  1.00  0.00     0.074 A 
ATOM     37  C   UNL     1      -0.669  -6.006  14.160  1.00  0.00     0.049 A 
ATOM     38  N   UNL     1      -1.908  -4.035  16.068  1.00  0.00    -0.248 NA
ATOM     39  C   UNL     1      -3.135  -3.148  14.293  1.00  0.00     0.031 C 
ATOM     40  C   UNL     1       0.013  -6.943  13.264  1.00  0.00     0.029 A 
ATOM     41  N   UNL     1      -0.119  -6.265  15.390  1.00  0.00    -0.354 N 
ATOM     42  C   UNL     1      -2.649  -2.949  16.517  1.00  0.00     0.074 A 
ATOM     43  C   UNL     1      -3.336  -2.401  15.369  1.00  0.00     0.031 C 
ATOM     44  C   UNL     1       0.879  -7.681  13.976  1.00  0.00     0.029 A 
ATOM     45  C   UNL     1       0.843  -7.248  15.368  1.00  0.00     0.049 A 
ATOM     46  H   UNL     1      -0.387  -5.792  16.211  1.00  0.00     0.167 HD
ATOM     47  C   UNL     1      -2.772  -2.467  17.777  1.00  0.00     0.034 A 
ATOM     48  C   UNL     1       1.616  -7.738  16.358  1.00  0.00     0.034 A 
ATOM     49  C   UNL     1      -2.113  -3.035  18.921  1.00  0.00     0.049 A 
ATOM     50  C   UNL     1       1.443  -7.200  17.752  1.00  0.00     0.074 A 
ATOM     51  C   UNL     1      -2.234  -2.673  20.251  1.00  0.00     0.029 A 
ATOM     52  N   UNL     1      -1.199  -4.077  18.871  1.00  0.00    -0.354 N 
ATOM     53  N   UNL     1       0.623  -6.273  18.184  1.00  0.00    -0.248 NA
ATOM     54  C   UNL     1       2.277  -7.801  18.803  1.00  0.00     0.031 C 
ATOM     55  C   UNL     1      -1.367  -3.474  21.001  1.00  0.00     0.029 A 
ATOM     56  C   UNL     1      -0.737  -4.362  20.144  1.00  0.00     0.049 A 
ATOM     57  H   UNL     1      -0.920  -4.544  18.051  1.00  0.00     0.167 HD
ATOM     58  C   UNL     1       0.812  -6.207  19.559  1.00  0.00     0.074 A 
ATOM     59  C   UNL     1       1.811  -7.202  19.891  1.00  0.00     0.031 C 
ATOM     60  C   UNL     1       0.222  -5.389  20.465  1.00  0.00     0.034 A 
BRANCH  47  61
ATOM     61  C   UNL     1      -3.690  -1.290  17.989  1.00  0.00     0.023 A 
ATOM     62  C   UNL     1      -5.084  -1.456  17.851  1.00  0.00     0.012 A 
ATOM     63  C   UNL     1      -3.181  -0.034  18.374  1.00  0.00     0.148 A 
ATOM     64  C   UNL     1      -5.952  -0.384  18.052  1.00  0.00     0.002 A 
ATOM     65  C   UNL     1      -4.056   1.017  18.622  1.00  0.00     0.091 A 
ATOM     66  F   UNL     1      -1.852   0.112  18.482  1.00  0.00    -0.205 F 
ATOM     67  C   UNL     1      -5.440   0.848  18.447  1.00  0.00     0.022 A 
BRANCH  65  68
ATOM     68  S   UNL     1      -3.504   2.619  19.216  1.00  0.00     0.127 S 
ATOM     69  O   UNL     1      -3.759   3.468  18.053  1.00  0.00    -0.237 OA
ATOM     70  O   UNL     1      -4.401   2.852  20.348  1.00  0.00    -0.237 OA
ATOM     71  O   UNL     1      -2.103   2.455  19.574  1.00  0.00    -0.744 OA
ENDBRANCH  65  68
ENDBRANCH  47  61
BRANCH  48  72
ATOM     72  C   UNL     1       2.581  -8.838  16.076  1.00  0.00     0.023 A 
ATOM     73  C   UNL     1       2.341 -10.122  16.603  1.00  0.00     0.012 A 
ATOM     74  C   UNL     1       3.719  -8.627  15.275  1.00  0.00     0.148 A 
ATOM     75  C   UNL     1       3.237 -11.166  16.370  1.00  0.00     0.002 A 
ATOM     76  C   UNL     1       4.577  -9.685  14.998  1.00  0.00     0.091 A 
ATOM     77  F   UNL     1       3.933  -7.397  14.788  1.00  0.00    -0.205 F 
ATOM     78  C   UNL     1       4.349 -10.950  15.561  1.00  0.00     0.022 A 
BRANCH  76  79
ATOM     79  S   UNL     1       5.959  -9.534  13.861  1.00  0.00     0.127 S 
ATOM     80  O   UNL     1       7.103  -9.654  14.762  1.00  0.00    -0.237 OA
ATOM     81  O   UNL     1       5.747 -10.680  12.976  1.00  0.00    -0.237 OA
ATOM     82  O   UNL     1       5.798  -8.239  13.214  1.00  0.00    -0.744 OA
ENDBRANCH  76  79
ENDBRANCH  48  72
BRANCH  60  83
ATOM     83  C   UNL     1       0.600  -5.561  21.914  1.00  0.00     0.023 A 
ATOM     84  C   UNL     1       1.874  -5.162  22.363  1.00  0.00     0.012 A 
ATOM     85  C   UNL     1      -0.339  -6.054  22.842  1.00  0.00     0.148 A 
ATOM     86  C   UNL     1       2.221  -5.287  23.708  1.00  0.00     0.002 A 
ATOM     87  C   UNL     1      -0.005  -6.124  24.189  1.00  0.00     0.091 A 
ATOM     88  F   UNL     1      -1.540  -6.443  22.392  1.00  0.00    -0.205 F 
ATOM     89  C   UNL     1       1.279  -5.755  24.622  1.00  0.00     0.022 A 
BRANCH  87  90
ATOM     90  S   UNL     1      -1.184  -6.618  25.450  1.00  0.00     0.127 S 
ATOM     91  O   UNL     1      -0.661  -7.923  25.851  1.00  0.00    -0.237 OA
ATOM     92  O   UNL     1      -1.025  -5.563  26.452  1.00  0.00    -0.237 OA
ATOM     93  O   UNL     1      -2.486  -6.641  24.797  1.00  0.00    -0.744 OA
ENDBRANCH  87  90
ENDBRANCH  60  83
ENDBRANCH  34  35
ENDBRANCH  26  29
ENDBRANCH  24  25
ENDBRANCH  23  24
ENDBRANCH  22  23
ENDBRANCH   3  22
TORSDOF 19
