REMARK SMILES O=C(COCCNC(=O)Nc1cccc(F)c1)NCCCNC(=O)c1ccc(-c2c3nc(c(-c4cccc(S(=O)(=O)[O-])c4F)c4ccc([nH]4)c(-c4cccc(S(=O)(=O)[O-])c4F)c4nc(c(-c5cccc(S(=O)(=O)[O-])c5F)c5ccc2[nH]5)C=C4)C=C3)cc1
REMARK SMILES IDX 19 1 18 2 1 3 2 4 3 6 4 7 5 8 6 9 7 10 8 11 9 13 10 14 11 16
REMARK SMILES IDX 12 17 17 18 13 19 15 20 14 21 16 22 20 23 21 24 22 25 23 26
REMARK SMILES IDX 24 28 25 29 26 30 87 31 27 32 86 33 28 34 29 35 30 36 80 37
REMARK SMILES IDX 31 38 85 39 79 40 81 41 32 42 84 43 78 44 77 45 33 47 65 48
REMARK SMILES IDX 45 49 64 50 46 51 49 52 63 53 82 54 47 55 48 56 62 58 83 59
REMARK SMILES IDX 50 60 34 61 35 62 43 63 36 64 38 65 44 66 37 67 39 68 40 69
REMARK SMILES IDX 41 70 42 71 66 72 67 73 75 74 68 75 70 76 76 77 69 78 71 79
REMARK SMILES IDX 72 80 73 81 74 82 51 83 52 84 60 85 53 86 55 87 61 88 54 89
REMARK SMILES IDX 56 90 57 91 58 92 59 93
REMARK H PARENT 18 5 7 12 10 15 22 27 81 46 49 57
REMARK Flexibility Score: inf
ROOT
ATOM      1  C   UNL     1       2.210   0.873   2.304  1.00  0.00     0.117 C 
ENDROOT
BRANCH   1   2
ATOM      2  N   UNL     1       2.950   0.379   1.167  1.00  0.00    -0.354 N 
ATOM      3  O   UNL     1       1.324  -1.060   0.400  1.00  0.00    -0.272 OA
ATOM      4  C   UNL     1       2.425  -0.538   0.281  1.00  0.00     0.245 C 
ATOM      5  H   UNL     1       3.865   0.710   1.018  1.00  0.00     0.163 HD
BRANCH   4   6
ATOM      6  C   UNL     1       3.367  -0.846  -0.885  1.00  0.00     0.260 C 
BRANCH   6   7
ATOM      7  O   UNL     1       4.051   0.271  -1.436  1.00  0.00    -0.370 OA
BRANCH   7   8
ATOM      8  C   UNL     1       3.222   1.376  -1.797  1.00  0.00     0.182 C 
BRANCH   8   9
ATOM      9  C   UNL     1       2.425   1.191  -3.088  1.00  0.00     0.146 C 
BRANCH   9  10
ATOM     10  N   UNL     1       1.190   0.415  -2.979  1.00  0.00    -0.336 N 
ATOM     11  C   UNL     1      -0.122   0.726  -2.930  1.00  0.00     0.319 C 
ATOM     12  H   UNL     1       1.353  -0.555  -2.931  1.00  0.00     0.165 HD
ATOM     13  O   UNL     1      -0.921  -0.168  -2.643  1.00  0.00    -0.249 OA
ATOM     14  N   UNL     1      -0.589   1.984  -3.084  1.00  0.00    -0.308 N 
ATOM     15  H   UNL     1      -1.454   2.155  -2.647  1.00  0.00     0.171 HD
BRANCH  14  16
ATOM     16  C   UNL     1      -0.054   3.083  -3.759  1.00  0.00     0.045 A 
ATOM     17  C   UNL     1       0.660   2.946  -4.955  1.00  0.00     0.026 A 
ATOM     18  C   UNL     1      -0.202   4.337  -3.172  1.00  0.00     0.065 A 
ATOM     19  C   UNL     1       1.371   4.031  -5.471  1.00  0.00     0.005 A 
ATOM     20  C   UNL     1       0.517   5.407  -3.690  1.00  0.00     0.125 A 
ATOM     21  C   UNL     1       1.324   5.259  -4.814  1.00  0.00     0.039 A 
ATOM     22  F   UNL     1       0.474   6.590  -3.063  1.00  0.00    -0.207 F 
ENDBRANCH  14  16
ENDBRANCH   9  10
ENDBRANCH   8   9
ENDBRANCH   7   8
ENDBRANCH   6   7
ENDBRANCH   4   6
ENDBRANCH   1   2
BRANCH   1  23
ATOM     23  C   UNL     1       2.477   0.058   3.560  1.00  0.00     0.042 C 
BRANCH  23  24
ATOM     24  C   UNL     1       3.948  -0.006   3.958  1.00  0.00     0.118 C 
BRANCH  24  25
ATOM     25  N   UNL     1       4.520   1.299   4.260  1.00  0.00    -0.352 N 
ATOM     26  C   UNL     1       5.296   1.693   5.323  1.00  0.00     0.251 C 
ATOM     27  H   UNL     1       4.321   2.005   3.604  1.00  0.00     0.163 HD
ATOM     28  O   UNL     1       5.574   2.882   5.453  1.00  0.00    -0.269 OA
BRANCH  26  29
ATOM     29  C   UNL     1       5.773   0.706   6.318  1.00  0.00     0.039 A 
ATOM     30  C   UNL     1       5.744   1.059   7.670  1.00  0.00     0.014 A 
ATOM     31  C   UNL     1       6.260  -0.547   5.936  1.00  0.00     0.014 A 
ATOM     32  C   UNL     1       6.152   0.137   8.637  1.00  0.00     0.010 A 
ATOM     33  C   UNL     1       6.588  -1.494   6.907  1.00  0.00     0.010 A 
ATOM     34  C   UNL     1       6.547  -1.160   8.267  1.00  0.00    -0.014 A 
BRANCH  34  35
ATOM     35  C   UNL     1       6.894  -2.168   9.304  1.00  0.00     0.031 A 
ATOM     36  C   UNL     1       8.279  -2.754   9.380  1.00  0.00     0.074 A 
ATOM     37  C   UNL     1       5.942  -2.587  10.162  1.00  0.00     0.049 A 
ATOM     38  N   UNL     1       8.763  -3.602  10.250  1.00  0.00    -0.248 NA
ATOM     39  C   UNL     1       9.240  -2.360   8.336  1.00  0.00     0.031 C 
ATOM     40  C   UNL     1       4.540  -2.165  10.132  1.00  0.00     0.029 A 
ATOM     41  N   UNL     1       6.001  -3.462  11.219  1.00  0.00    -0.354 N 
ATOM     42  C   UNL     1      10.068  -3.859   9.849  1.00  0.00     0.074 A 
ATOM     43  C   UNL     1      10.292  -3.110   8.634  1.00  0.00     0.031 C 
ATOM     44  C   UNL     1       3.880  -2.755  11.141  1.00  0.00     0.029 A 
ATOM     45  C   UNL     1       4.801  -3.620  11.874  1.00  0.00     0.049 A 
ATOM     46  H   UNL     1       6.824  -3.933  11.482  1.00  0.00     0.167 HD
ATOM     47  C   UNL     1      11.006  -4.620  10.459  1.00  0.00     0.034 A 
ATOM     48  C   UNL     1       4.476  -4.366  12.950  1.00  0.00     0.034 A 
ATOM     49  C   UNL     1      10.793  -5.320  11.696  1.00  0.00     0.049 A 
ATOM     50  C   UNL     1       5.549  -5.165  13.638  1.00  0.00     0.074 A 
ATOM     51  C   UNL     1      11.713  -6.034  12.443  1.00  0.00     0.029 A 
ATOM     52  N   UNL     1       9.582  -5.402  12.363  1.00  0.00    -0.354 N 
ATOM     53  N   UNL     1       6.821  -5.259  13.338  1.00  0.00    -0.248 NA
ATOM     54  C   UNL     1       5.157  -5.933  14.829  1.00  0.00     0.031 C 
ATOM     55  C   UNL     1      11.050  -6.576  13.546  1.00  0.00     0.029 A 
ATOM     56  C   UNL     1       9.726  -6.168  13.506  1.00  0.00     0.049 A 
ATOM     57  H   UNL     1       8.743  -4.979  12.068  1.00  0.00     0.167 HD
ATOM     58  C   UNL     1       7.388  -6.065  14.318  1.00  0.00     0.074 A 
ATOM     59  C   UNL     1       6.323  -6.427  15.229  1.00  0.00     0.031 C 
ATOM     60  C   UNL     1       8.673  -6.474  14.440  1.00  0.00     0.034 A 
BRANCH  47  61
ATOM     61  C   UNL     1      12.382  -4.687   9.848  1.00  0.00     0.023 A 
ATOM     62  C   UNL     1      13.227  -3.561   9.924  1.00  0.00     0.012 A 
ATOM     63  C   UNL     1      12.880  -5.891   9.311  1.00  0.00     0.148 A 
ATOM     64  C   UNL     1      14.538  -3.624   9.456  1.00  0.00     0.002 A 
ATOM     65  C   UNL     1      14.203  -5.960   8.890  1.00  0.00     0.091 A 
ATOM     66  F   UNL     1      12.056  -6.945   9.234  1.00  0.00    -0.205 F 
ATOM     67  C   UNL     1      15.030  -4.826   8.953  1.00  0.00     0.022 A 
BRANCH  65  68
ATOM     68  S   UNL     1      14.961  -7.481   8.309  1.00  0.00     0.127 S 
ATOM     69  O   UNL     1      15.180  -7.181   6.895  1.00  0.00    -0.237 OA
ATOM     70  O   UNL     1      16.180  -7.545   9.115  1.00  0.00    -0.237 OA
ATOM     71  O   UNL     1      13.996  -8.541   8.577  1.00  0.00    -0.744 OA
ENDBRANCH  65  68
ENDBRANCH  47  61
BRANCH  48  72
ATOM     72  C   UNL     1       3.086  -4.311  13.485  1.00  0.00     0.023 A 
ATOM     73  C   UNL     1       2.840  -3.648  14.703  1.00  0.00     0.012 A 
ATOM     74  C   UNL     1       2.000  -4.838  12.758  1.00  0.00     0.148 A 
ATOM     75  C   UNL     1       1.540  -3.525  15.196  1.00  0.00     0.002 A 
ATOM     76  C   UNL     1       0.703  -4.660  13.225  1.00  0.00     0.091 A 
ATOM     77  F   UNL     1       2.258  -5.474  11.607  1.00  0.00    -0.205 F 
ATOM     78  C   UNL     1       0.471  -4.018  14.451  1.00  0.00     0.022 A 
BRANCH  76  79
ATOM     79  S   UNL     1      -0.741  -5.130  12.266  1.00  0.00     0.127 S 
ATOM     80  O   UNL     1      -1.286  -6.226  13.062  1.00  0.00    -0.237 OA
ATOM     81  O   UNL     1      -1.530  -3.898  12.288  1.00  0.00    -0.237 OA
ATOM     82  O   UNL     1      -0.237  -5.497  10.948  1.00  0.00    -0.744 OA
ENDBRANCH  76  79
ENDBRANCH  48  72
BRANCH  60  83
ATOM     83  C   UNL     1       9.047  -7.343  15.612  1.00  0.00     0.023 A 
ATOM     84  C   UNL     1       8.705  -8.708  15.603  1.00  0.00     0.012 A 
ATOM     85  C   UNL     1       9.892  -6.843  16.624  1.00  0.00     0.148 A 
ATOM     86  C   UNL     1       9.199  -9.565  16.586  1.00  0.00     0.002 A 
ATOM     87  C   UNL     1      10.421  -7.712  17.569  1.00  0.00     0.091 A 
ATOM     88  F   UNL     1      10.195  -5.537  16.613  1.00  0.00    -0.205 F 
ATOM     89  C   UNL     1      10.070  -9.072  17.556  1.00  0.00     0.022 A 
BRANCH  87  90
ATOM     90  S   UNL     1      11.636  -7.196  18.788  1.00  0.00     0.127 S 
ATOM     91  O   UNL     1      10.910  -7.405  20.040  1.00  0.00    -0.237 OA
ATOM     92  O   UNL     1      12.728  -8.140  18.551  1.00  0.00    -0.237 OA
ATOM     93  O   UNL     1      11.953  -5.807  18.483  1.00  0.00    -0.744 OA
ENDBRANCH  87  90
ENDBRANCH  60  83
ENDBRANCH  34  35
ENDBRANCH  26  29
ENDBRANCH  24  25
ENDBRANCH  23  24
ENDBRANCH   1  23
TORSDOF 18
