REMARK SMILES Cc1ccc2nc(NC3=[NH+]C(=O)[C@@H](CC(=O)NCCCNC(=O)c4ccc(-c5c6nc(c(-c7cccc(S(=O)(=O)[O-])c7F)c7ccc([nH]7)c(-c7cccc(S(=O)(=O)[O-])c7F)c7nc(c(-c8cccc(S(=O)(=O)[O-])c8F)c8ccc5[nH]8)C=C7)C=C6)cc4)N3)nc(C)c2c1
REMARK SMILES IDX 19 1 18 2 17 3 15 4 16 5 14 7 13 8 8 9 9 10 10 12 87 13
REMARK SMILES IDX 11 14 12 17 7 18 1 19 2 20 3 21 92 22 4 23 91 24 5 25 89 26
REMARK SMILES IDX 6 27 88 28 90 29 20 30 21 31 22 32 23 34 24 35 25 36 86 37
REMARK SMILES IDX 26 38 85 39 27 40 28 41 29 42 79 43 30 44 84 45 78 46 80 47
REMARK SMILES IDX 31 48 83 49 77 50 76 51 32 53 64 54 44 55 63 56 45 57 48 58
REMARK SMILES IDX 62 59 81 60 46 61 47 62 61 64 82 65 49 66 33 67 34 68 42 69
REMARK SMILES IDX 35 70 37 71 43 72 36 73 38 74 39 75 40 76 41 77 65 78 66 79
REMARK SMILES IDX 74 80 67 81 69 82 75 83 68 84 70 85 71 86 72 87 73 88 50 89
REMARK SMILES IDX 51 90 59 91 52 92 54 93 60 94 53 95 55 96 56 97 57 98 58 99
REMARK H PARENT 17 6 8 11 10 15 87 16 21 33 80 52 48 63
REMARK Flexibility Score: inf
ROOT
ATOM      1  C   UNL     1      -4.093   2.959   8.423  1.00  0.00     0.042 C 
ENDROOT
BRANCH   1   2
ATOM      2  C   UNL     1      -3.463   3.042   9.812  1.00  0.00     0.117 C 
BRANCH   2   3
ATOM      3  N   UNL     1      -4.132   2.143  10.740  1.00  0.00    -0.356 N 
ATOM      4  C   UNL     1      -3.763   0.905  11.178  1.00  0.00     0.224 C 
ATOM      5  O   UNL     1      -4.571   0.259  11.848  1.00  0.00    -0.275 OA
ATOM      6  H   UNL     1      -4.981   2.480  11.109  1.00  0.00     0.163 HD
BRANCH   4   7
ATOM      7  C   UNL     1      -2.388   0.357  10.889  1.00  0.00     0.153 C 
BRANCH   7   8
ATOM      8  C   UNL     1      -2.299  -0.385   9.565  1.00  0.00     0.260 C 
ATOM      9  N   UNL     1      -0.736   1.710   7.221  1.00  0.00    -0.212 N 
ATOM     10  C   UNL     1      -0.966   0.667   8.038  1.00  0.00     0.358 C 
ATOM     11  H   UNL     1      -0.843   2.612   7.602  1.00  0.00     0.270 HD
ATOM     12  N   UNL     1      -0.135  -0.180   8.569  1.00  0.00    -0.211 N 
ATOM     13  N   UNL     1      -2.255   0.550   8.454  1.00  0.00    -0.263 N 
ATOM     14  C   UNL     1      -0.880  -0.971   9.433  1.00  0.00     0.320 C 
ATOM     15  H   UNL     1       0.831  -0.248   8.393  1.00  0.00     0.270 HD
ATOM     16  H   UNL     1      -3.029   1.020   8.068  1.00  0.00     0.261 HD
ATOM     17  O   UNL     1      -0.468  -1.940  10.059  1.00  0.00    -0.252 OA
BRANCH   9  18
ATOM     18  C   UNL     1      -0.360   1.627   5.895  1.00  0.00     0.291 A 
ATOM     19  C   UNL     1       1.011   0.037  -0.182  1.00  0.00     0.044 C 
ATOM     20  C   UNL     1       0.607   0.169   1.256  1.00  0.00    -0.050 A 
ATOM     21  C   UNL     1       0.332  -0.963   2.023  1.00  0.00     0.005 A 
ATOM     22  C   UNL     1       0.556   1.427   1.867  1.00  0.00     0.015 A 
ATOM     23  C   UNL     1       0.018  -0.832   3.375  1.00  0.00     0.029 A 
ATOM     24  C   UNL     1       0.229   1.555   3.238  1.00  0.00     0.022 A 
ATOM     25  C   UNL     1      -0.024   0.406   3.994  1.00  0.00     0.078 A 
ATOM     26  C   UNL     1       0.124   2.757   3.947  1.00  0.00     0.052 A 
ATOM     27  N   UNL     1      -0.309   0.438   5.295  1.00  0.00    -0.198 NA
ATOM     28  N   UNL     1      -0.183   2.797   5.264  1.00  0.00    -0.203 NA
ATOM     29  C   UNL     1       0.343   4.090   3.289  1.00  0.00     0.067 C 
ENDBRANCH   9  18
ENDBRANCH   7   8
ENDBRANCH   4   7
ENDBRANCH   2   3
ENDBRANCH   1   2
BRANCH   1  30
ATOM     30  C   UNL     1      -5.412   3.701   8.299  1.00  0.00     0.118 C 
BRANCH  30  31
ATOM     31  N   UNL     1      -5.238   5.143   8.230  1.00  0.00    -0.352 N 
ATOM     32  C   UNL     1      -5.516   6.022   7.208  1.00  0.00     0.251 C 
ATOM     33  H   UNL     1      -4.863   5.555   9.042  1.00  0.00     0.163 HD
ATOM     34  O   UNL     1      -5.120   7.182   7.294  1.00  0.00    -0.269 OA
BRANCH  32  35
ATOM     35  C   UNL     1      -6.244   5.568   5.999  1.00  0.00     0.039 A 
ATOM     36  C   UNL     1      -7.306   4.669   6.093  1.00  0.00     0.014 A 
ATOM     37  C   UNL     1      -5.846   6.037   4.743  1.00  0.00     0.014 A 
ATOM     38  C   UNL     1      -7.813   4.074   4.944  1.00  0.00     0.010 A 
ATOM     39  C   UNL     1      -6.446   5.527   3.586  1.00  0.00     0.010 A 
ATOM     40  C   UNL     1      -7.390   4.493   3.673  1.00  0.00    -0.014 A 
BRANCH  40  41
ATOM     41  C   UNL     1      -7.947   3.835   2.459  1.00  0.00     0.031 A 
ATOM     42  C   UNL     1      -7.048   3.120   1.483  1.00  0.00     0.074 A 
ATOM     43  C   UNL     1      -9.281   3.844   2.256  1.00  0.00     0.049 A 
ATOM     44  N   UNL     1      -7.370   2.491   0.381  1.00  0.00    -0.248 NA
ATOM     45  C   UNL     1      -5.603   3.107   1.771  1.00  0.00     0.031 C 
ATOM     46  C   UNL     1     -10.261   4.507   3.119  1.00  0.00     0.029 A 
ATOM     47  N   UNL     1     -10.045   3.271   1.270  1.00  0.00    -0.354 N 
ATOM     48  C   UNL     1      -6.175   2.053  -0.176  1.00  0.00     0.074 A 
ATOM     49  C   UNL     1      -5.114   2.487   0.705  1.00  0.00     0.031 C 
ATOM     50  C   UNL     1     -11.495   4.266   2.653  1.00  0.00     0.029 A 
ATOM     51  C   UNL     1     -11.394   3.491   1.422  1.00  0.00     0.049 A 
ATOM     52  H   UNL     1      -9.664   2.752   0.525  1.00  0.00     0.167 HD
ATOM     53  C   UNL     1      -5.980   1.337  -1.308  1.00  0.00     0.034 A 
ATOM     54  C   UNL     1     -12.438   3.131   0.652  1.00  0.00     0.034 A 
ATOM     55  C   UNL     1      -7.036   0.854  -2.154  1.00  0.00     0.049 A 
ATOM     56  C   UNL     1     -12.193   2.344  -0.601  1.00  0.00     0.074 A 
ATOM     57  C   UNL     1      -6.930   0.070  -3.290  1.00  0.00     0.029 A 
ATOM     58  N   UNL     1      -8.385   1.104  -1.964  1.00  0.00    -0.354 N 
ATOM     59  N   UNL     1     -11.059   1.881  -1.067  1.00  0.00    -0.248 NA
ATOM     60  C   UNL     1     -13.364   2.022  -1.428  1.00  0.00     0.031 C 
ATOM     61  C   UNL     1      -8.214  -0.135  -3.800  1.00  0.00     0.029 A 
ATOM     62  C   UNL     1      -9.120   0.501  -2.968  1.00  0.00     0.049 A 
ATOM     63  H   UNL     1      -8.763   1.632  -1.224  1.00  0.00     0.167 HD
ATOM     64  C   UNL     1     -11.380   1.201  -2.234  1.00  0.00     0.074 A 
ATOM     65  C   UNL     1     -12.816   1.296  -2.396  1.00  0.00     0.031 C 
ATOM     66  C   UNL     1     -10.552   0.567  -3.098  1.00  0.00     0.034 A 
BRANCH  53  67
ATOM     67  C   UNL     1      -4.570   0.985  -1.696  1.00  0.00     0.023 A 
ATOM     68  C   UNL     1      -3.916  -0.076  -1.042  1.00  0.00     0.012 A 
ATOM     69  C   UNL     1      -3.945   1.623  -2.786  1.00  0.00     0.148 A 
ATOM     70  C   UNL     1      -2.656  -0.498  -1.465  1.00  0.00     0.002 A 
ATOM     71  C   UNL     1      -2.701   1.180  -3.218  1.00  0.00     0.091 A 
ATOM     72  F   UNL     1      -4.585   2.637  -3.385  1.00  0.00    -0.205 F 
ATOM     73  C   UNL     1      -2.057   0.119  -2.559  1.00  0.00     0.022 A 
BRANCH  71  74
ATOM     74  S   UNL     1      -1.851   1.883  -4.634  1.00  0.00     0.127 S 
ATOM     75  O   UNL     1      -0.654   2.442  -4.004  1.00  0.00    -0.237 OA
ATOM     76  O   UNL     1      -1.608   0.703  -5.462  1.00  0.00    -0.237 OA
ATOM     77  O   UNL     1      -2.761   2.864  -5.207  1.00  0.00    -0.744 OA
ENDBRANCH  71  74
ENDBRANCH  53  67
BRANCH  54  78
ATOM     78  C   UNL     1     -13.815   3.496   1.080  1.00  0.00     0.023 A 
ATOM     79  C   UNL     1     -14.659   2.503   1.611  1.00  0.00     0.012 A 
ATOM     80  C   UNL     1     -14.257   4.833   1.042  1.00  0.00     0.148 A 
ATOM     81  C   UNL     1     -15.925   2.836   2.095  1.00  0.00     0.002 A 
ATOM     82  C   UNL     1     -15.501   5.164   1.562  1.00  0.00     0.091 A 
ATOM     83  F   UNL     1     -13.430   5.757   0.533  1.00  0.00    -0.205 F 
ATOM     84  C   UNL     1     -16.341   4.165   2.081  1.00  0.00     0.022 A 
BRANCH  82  85
ATOM     85  S   UNL     1     -16.084   6.858   1.679  1.00  0.00     0.127 S 
ATOM     86  O   UNL     1     -17.267   6.826   0.822  1.00  0.00    -0.237 OA
ATOM     87  O   UNL     1     -16.362   6.978   3.110  1.00  0.00    -0.237 OA
ATOM     88  O   UNL     1     -14.989   7.690   1.201  1.00  0.00    -0.744 OA
ENDBRANCH  82  85
ENDBRANCH  54  78
BRANCH  66  89
ATOM     89  C   UNL     1     -11.156  -0.094  -4.305  1.00  0.00     0.023 A 
ATOM     90  C   UNL     1     -11.519   0.692  -5.415  1.00  0.00     0.012 A 
ATOM     91  C   UNL     1     -11.227  -1.498  -4.390  1.00  0.00     0.148 A 
ATOM     92  C   UNL     1     -11.947   0.088  -6.596  1.00  0.00     0.002 A 
ATOM     93  C   UNL     1     -11.622  -2.094  -5.581  1.00  0.00     0.091 A 
ATOM     94  F   UNL     1     -10.877  -2.220  -3.316  1.00  0.00    -0.205 F 
ATOM     95  C   UNL     1     -11.985  -1.302  -6.684  1.00  0.00     0.022 A 
BRANCH  93  96
ATOM     96  S   UNL     1     -11.636  -3.874  -5.817  1.00  0.00     0.127 S 
ATOM     97  O   UNL     1     -13.060  -4.134  -6.029  1.00  0.00    -0.237 OA
ATOM     98  O   UNL     1     -10.802  -4.034  -7.008  1.00  0.00    -0.237 OA
ATOM     99  O   UNL     1     -11.080  -4.449  -4.600  1.00  0.00    -0.744 OA
ENDBRANCH  93  96
ENDBRANCH  66  89
ENDBRANCH  40  41
ENDBRANCH  32  35
ENDBRANCH  30  31
ENDBRANCH   1  30
TORSDOF 15
