REMARK SMILES CC[NH2+][C@@]1(C(=O)NCCCNC(=O)c2ccc(-c3c4nc(c(-c5cccc(S(=O)(=O)[O-])c5F)c5ccc([nH]5)c(-c5cccc(S(=O)(=O)[O-])c5F)c5nc(c(-c6cccc(S(=O)(=O)[O-])c6F)c6ccc3[nH]6)C=C5)C=C4)cc2)CC[C@H](Oc2ccc3c(c2)OCO3)C1
REMARK SMILES IDX 9 1 8 2 7 3 5 4 6 5 4 7 77 8 90 9 78 10 79 11 3 12 2 15 1 16
REMARK SMILES IDX 80 17 81 18 82 19 86 20 83 21 85 22 84 23 87 24 89 25 88 26
REMARK SMILES IDX 10 27 11 28 12 29 13 31 14 32 15 33 76 34 16 35 75 36 17 37
REMARK SMILES IDX 18 38 19 39 69 40 20 41 74 42 68 43 70 44 21 45 73 46 67 47
REMARK SMILES IDX 66 48 22 50 54 51 34 52 53 53 35 54 38 55 52 56 71 57 36 58
REMARK SMILES IDX 37 59 51 61 72 62 39 63 23 64 24 65 32 66 25 67 27 68 33 69
REMARK SMILES IDX 26 70 28 71 29 72 30 73 31 74 55 75 56 76 64 77 57 78 59 79
REMARK SMILES IDX 65 80 58 81 60 82 61 83 62 84 63 85 40 86 41 87 49 88 42 89
REMARK SMILES IDX 44 90 50 91 43 92 45 93 46 94 47 95 48 96
REMARK H PARENT 7 6 3 13 3 14 11 30 70 49 38 60
REMARK Flexibility Score: inf
ROOT
ATOM      1  C   UNL     1      -2.477  -1.132  -6.584  1.00  0.00     0.042 C 
ENDROOT
BRANCH   1   2
ATOM      2  C   UNL     1      -2.061  -0.044  -5.610  1.00  0.00     0.118 C 
BRANCH   2   3
ATOM      3  N   UNL     1      -2.031  -0.524  -4.249  1.00  0.00    -0.351 N 
ATOM      4  C   UNL     1      -1.029  -0.902  -3.417  1.00  0.00     0.281 C 
ATOM      5  O   UNL     1      -1.436  -1.519  -2.420  1.00  0.00    -0.268 OA
ATOM      6  H   UNL     1      -2.924  -0.591  -3.840  1.00  0.00     0.163 HD
BRANCH   4   7
ATOM      7  C   UNL     1       0.524  -0.625  -3.638  1.00  0.00     0.179 C 
ATOM      8  C   UNL     1       0.942   0.700  -4.289  1.00  0.00     0.083 C 
ATOM      9  C   UNL     1       1.129  -1.722  -4.531  1.00  0.00     0.124 C 
ATOM     10  C   UNL     1       1.376   0.411  -5.723  1.00  0.00     0.052 C 
ATOM     11  C   UNL     1       1.680  -1.079  -5.817  1.00  0.00     0.180 C 
BRANCH   7  12
ATOM     12  N   UNL     1       1.180  -0.725  -2.294  1.00  0.00    -0.334 N 
ATOM     13  H   UNL     1       0.968  -1.644  -1.905  1.00  0.00     0.347 HD
ATOM     14  H   UNL     1       2.177  -0.573  -2.450  1.00  0.00     0.347 HD
BRANCH  12  15
ATOM     15  C   UNL     1       0.757   0.287  -1.327  1.00  0.00     0.257 C 
ATOM     16  C   UNL     1       1.218  -0.121   0.064  1.00  0.00     0.071 C 
ENDBRANCH  12  15
ENDBRANCH   7  12
BRANCH  11  17
ATOM     17  O   UNL     1       1.130  -1.865  -6.866  1.00  0.00    -0.490 OA
BRANCH  17  18
ATOM     18  C   UNL     1       0.736  -1.447  -8.089  1.00  0.00     0.123 A 
ATOM     19  C   UNL     1       1.133  -0.283  -8.760  1.00  0.00     0.050 A 
ATOM     20  C   UNL     1      -0.174  -2.325  -8.691  1.00  0.00     0.097 A 
ATOM     21  C   UNL     1       0.560   0.054  -9.996  1.00  0.00     0.054 A 
ATOM     22  C   UNL     1      -0.716  -1.976  -9.904  1.00  0.00     0.169 A 
ATOM     23  C   UNL     1      -0.360  -0.815 -10.541  1.00  0.00     0.166 A 
ATOM     24  O   UNL     1      -1.645  -2.682 -10.595  1.00  0.00    -0.453 OA
ATOM     25  O   UNL     1      -0.996  -0.669 -11.735  1.00  0.00    -0.454 OA
ATOM     26  C   UNL     1      -1.634  -1.959 -11.840  1.00  0.00     0.468 C 
ENDBRANCH  17  18
ENDBRANCH  11  17
ENDBRANCH   4   7
ENDBRANCH   2   3
ENDBRANCH   1   2
BRANCH   1  27
ATOM     27  C   UNL     1      -3.981  -1.306  -6.711  1.00  0.00     0.118 C 
BRANCH  27  28
ATOM     28  N   UNL     1      -4.581  -0.281  -7.564  1.00  0.00    -0.352 N 
ATOM     29  C   UNL     1      -5.073  -0.328  -8.850  1.00  0.00     0.251 C 
ATOM     30  H   UNL     1      -4.646   0.605  -7.141  1.00  0.00     0.163 HD
ATOM     31  O   UNL     1      -5.341   0.734  -9.410  1.00  0.00    -0.269 OA
BRANCH  29  32
ATOM     32  C   UNL     1      -5.263  -1.608  -9.580  1.00  0.00     0.039 A 
ATOM     33  C   UNL     1      -5.132  -1.624 -10.977  1.00  0.00     0.014 A 
ATOM     34  C   UNL     1      -5.610  -2.788  -8.927  1.00  0.00     0.014 A 
ATOM     35  C   UNL     1      -5.232  -2.829 -11.689  1.00  0.00     0.010 A 
ATOM     36  C   UNL     1      -5.607  -3.998  -9.613  1.00  0.00     0.010 A 
ATOM     37  C   UNL     1      -5.424  -4.032 -11.002  1.00  0.00    -0.014 A 
BRANCH  37  38
ATOM     38  C   UNL     1      -5.559  -5.342 -11.688  1.00  0.00     0.031 A 
ATOM     39  C   UNL     1      -6.893  -6.030 -11.650  1.00  0.00     0.074 A 
ATOM     40  C   UNL     1      -4.487  -5.975 -12.203  1.00  0.00     0.049 A 
ATOM     41  N   UNL     1      -7.206  -7.245 -12.008  1.00  0.00    -0.248 NA
ATOM     42  C   UNL     1      -8.015  -5.254 -11.092  1.00  0.00     0.031 C 
ATOM     43  C   UNL     1      -3.131  -5.436 -12.242  1.00  0.00     0.029 A 
ATOM     44  N   UNL     1      -4.356  -7.231 -12.743  1.00  0.00    -0.354 N 
ATOM     45  C   UNL     1      -8.544  -7.398 -11.674  1.00  0.00     0.074 A 
ATOM     46  C   UNL     1      -8.975  -6.164 -11.055  1.00  0.00     0.031 C 
ATOM     47  C   UNL     1      -2.299  -6.355 -12.759  1.00  0.00     0.029 A 
ATOM     48  C   UNL     1      -3.056  -7.567 -13.052  1.00  0.00     0.049 A 
ATOM     49  H   UNL     1      -5.120  -7.834 -12.896  1.00  0.00     0.167 HD
ATOM     50  C   UNL     1      -9.351  -8.463 -11.883  1.00  0.00     0.034 A 
ATOM     51  C   UNL     1      -2.533  -8.729 -13.494  1.00  0.00     0.034 A 
ATOM     52  C   UNL     1      -8.923  -9.677 -12.518  1.00  0.00     0.049 A 
ATOM     53  C   UNL     1      -3.456  -9.898 -13.730  1.00  0.00     0.074 A 
ATOM     54  C   UNL     1      -9.678 -10.788 -12.843  1.00  0.00     0.029 A 
ATOM     55  N   UNL     1      -7.622  -9.944 -12.913  1.00  0.00    -0.354 N 
ATOM     56  N   UNL     1      -4.750  -9.979 -13.541  1.00  0.00    -0.248 NA
ATOM     57  C   UNL     1      -2.854 -11.126 -14.273  1.00  0.00     0.031 C 
ATOM     58  C   UNL     1      -8.826 -11.742 -13.406  1.00  0.00     0.029 A 
ATOM     59  C   UNL     1      -7.550 -11.205 -13.475  1.00  0.00     0.049 A 
ATOM     60  H   UNL     1      -6.861  -9.327 -12.809  1.00  0.00     0.167 HD
ATOM     61  C   UNL     1      -5.126 -11.239 -13.993  1.00  0.00     0.074 A 
ATOM     62  C   UNL     1      -3.922 -11.889 -14.467  1.00  0.00     0.031 C 
ATOM     63  C   UNL     1      -6.356 -11.808 -14.010  1.00  0.00     0.034 A 
BRANCH  50  64
ATOM     64  C   UNL     1     -10.784  -8.340 -11.444  1.00  0.00     0.023 A 
ATOM     65  C   UNL     1     -11.650  -7.460 -12.124  1.00  0.00     0.012 A 
ATOM     66  C   UNL     1     -11.278  -9.110 -10.374  1.00  0.00     0.148 A 
ATOM     67  C   UNL     1     -12.975  -7.312 -11.718  1.00  0.00     0.002 A 
ATOM     68  C   UNL     1     -12.613  -8.996 -10.008  1.00  0.00     0.091 A 
ATOM     69  F   UNL     1     -10.432  -9.922  -9.725  1.00  0.00    -0.205 F 
ATOM     70  C   UNL     1     -13.458  -8.088 -10.667  1.00  0.00     0.022 A 
BRANCH  68  71
ATOM     71  S   UNL     1     -13.354 -10.008  -8.724  1.00  0.00     0.127 S 
ATOM     72  O   UNL     1     -13.622  -9.016  -7.685  1.00  0.00    -0.237 OA
ATOM     73  O   UNL     1     -14.546 -10.527  -9.395  1.00  0.00    -0.237 OA
ATOM     74  O   UNL     1     -12.360 -11.017  -8.381  1.00  0.00    -0.744 OA
ENDBRANCH  68  71
ENDBRANCH  50  64
BRANCH  51  75
ATOM     75  C   UNL     1      -1.076  -8.841 -13.797  1.00  0.00     0.023 A 
ATOM     76  C   UNL     1      -0.663  -8.979 -15.138  1.00  0.00     0.012 A 
ATOM     77  C   UNL     1      -0.102  -8.821 -12.780  1.00  0.00     0.148 A 
ATOM     78  C   UNL     1       0.686  -9.139 -15.457  1.00  0.00     0.002 A 
ATOM     79  C   UNL     1       1.245  -8.928 -13.109  1.00  0.00     0.091 A 
ATOM     80  F   UNL     1      -0.513  -8.694 -11.511  1.00  0.00    -0.205 F 
ATOM     81  C   UNL     1       1.640  -9.107 -14.445  1.00  0.00     0.022 A 
BRANCH  79  82
ATOM     82  S   UNL     1       2.559  -8.789 -11.892  1.00  0.00     0.127 S 
ATOM     83  O   UNL     1       3.113 -10.138 -11.893  1.00  0.00    -0.237 OA
ATOM     84  O   UNL     1       3.417  -7.768 -12.493  1.00  0.00    -0.237 OA
ATOM     85  O   UNL     1       1.906  -8.376 -10.654  1.00  0.00    -0.744 OA
ENDBRANCH  79  82
ENDBRANCH  51  75
BRANCH  63  86
ATOM     86  C   UNL     1      -6.501 -13.169 -14.636  1.00  0.00     0.023 A 
ATOM     87  C   UNL     1      -6.027 -14.315 -13.970  1.00  0.00     0.012 A 
ATOM     88  C   UNL     1      -7.220 -13.313 -15.840  1.00  0.00     0.148 A 
ATOM     89  C   UNL     1      -6.249 -15.584 -14.505  1.00  0.00     0.002 A 
ATOM     90  C   UNL     1      -7.484 -14.582 -16.337  1.00  0.00     0.091 A 
ATOM     91  F   UNL     1      -7.645 -12.206 -16.466  1.00  0.00    -0.205 F 
ATOM     92  C   UNL     1      -6.990 -15.718 -15.678  1.00  0.00     0.022 A 
BRANCH  90  93
ATOM     93  S   UNL     1      -8.522 -14.854 -17.778  1.00  0.00     0.127 S 
ATOM     94  O   UNL     1      -7.551 -15.342 -18.756  1.00  0.00    -0.237 OA
ATOM     95  O   UNL     1      -9.462 -15.865 -17.294  1.00  0.00    -0.237 OA
ATOM     96  O   UNL     1      -9.125 -13.566 -18.092  1.00  0.00    -0.744 OA
ENDBRANCH  90  93
ENDBRANCH  63  86
ENDBRANCH  37  38
ENDBRANCH  29  32
ENDBRANCH  27  28
ENDBRANCH   1  27
TORSDOF 17
