REMARK SMILES Cc1cc(/C=C2/C(=O)NC(=S)[NH+]=C2NCCCNC(=O)c2ccc(-c3c4nc(c(-c5cccc(S(=O)(=O)[O-])c5F)c5ccc([nH]5)c(-c5cccc(S(=O)(=O)[O-])c5F)c5nc(c(-c6cccc(S(=O)(=O)[O-])c6F)c6ccc3[nH]6)C=C5)C=C4)cc2)c(C)n1-c1cccc(C(=O)[O-])c1
REMARK SMILES IDX 16 1 15 2 14 3 5 4 6 5 7 6 13 7 8 8 9 9 12 10 10 11 11 15
REMARK SMILES IDX 4 16 1 17 2 18 3 19 86 20 84 21 85 22 87 23 88 24 95 25
REMARK SMILES IDX 89 26 91 27 90 28 92 29 93 30 94 31 17 32 18 33 19 34 20 36
REMARK SMILES IDX 21 37 22 38 83 39 23 40 82 41 24 42 25 43 26 44 76 45 27 46
REMARK SMILES IDX 81 47 75 48 77 49 28 50 80 51 74 52 73 53 29 55 61 56 41 57
REMARK SMILES IDX 60 58 42 59 45 60 59 61 78 62 43 63 44 64 58 66 79 67 46 68
REMARK SMILES IDX 30 69 31 70 39 71 32 72 34 73 40 74 33 75 35 76 36 77 37 78
REMARK SMILES IDX 38 79 62 80 63 81 71 82 64 83 66 84 72 85 65 86 67 87 68 88
REMARK SMILES IDX 69 89 70 90 47 91 48 92 56 93 49 94 51 95 57 96 50 97 52 98
REMARK SMILES IDX 53 99 54 100 55 101
REMARK H PARENT 9 12 12 13 14 14 18 35 77 54 45 65
REMARK Flexibility Score: inf
ROOT
ATOM      1  C   UNL     1      -1.027  -2.371  -4.859  1.00  0.00     0.059 C 
ENDROOT
BRANCH   1   2
ATOM      2  C   UNL     1      -1.808  -3.634  -4.665  1.00  0.00     0.195 C 
BRANCH   2   3
ATOM      3  N   UNL     1      -0.803  -4.673  -4.692  1.00  0.00    -0.305 N 
ATOM      4  C   UNL     1       0.514  -4.715  -1.516  1.00  0.00     0.032 C 
ATOM      5  C   UNL     1       0.065  -5.648  -2.398  1.00  0.00     0.128 C 
ATOM      6  C   UNL     1       0.357  -7.036  -1.862  1.00  0.00     0.319 C 
ATOM      7  C   UNL     1      -0.528  -5.670  -3.803  1.00  0.00     0.234 C 
ATOM      8  O   UNL     1       0.867  -7.276  -0.768  1.00  0.00    -0.250 OA
ATOM      9  N   UNL     1       0.034  -8.081  -2.670  1.00  0.00    -0.229 N 
ATOM     10  N   UNL     1      -0.766  -6.793  -4.437  1.00  0.00    -0.236 N 
ATOM     11  C   UNL     1      -0.529  -8.010  -3.901  1.00  0.00     0.295 C 
ATOM     12  H   UNL     1       0.229  -8.982  -2.325  1.00  0.00     0.268 HD
ATOM     13  H   UNL     1      -1.136  -6.747  -5.348  1.00  0.00     0.268 HD
ATOM     14  H   UNL     1      -0.219  -4.658  -5.485  1.00  0.00     0.256 HD
ATOM     15  S   UNL     1      -0.888  -9.445  -4.689  1.00  0.00    -0.005 S 
BRANCH   4  16
ATOM     16  C   UNL     1       0.665  -3.293  -1.494  1.00  0.00    -0.003 A 
ATOM     17  C   UNL     1       1.738  -0.055   0.046  1.00  0.00     0.065 C 
ATOM     18  C   UNL     1       1.340  -1.212  -0.797  1.00  0.00     0.020 A 
ATOM     19  C   UNL     1       1.620  -2.575  -0.680  1.00  0.00     0.031 A 
ATOM     20  N   UNL     1       0.569  -1.179  -1.950  1.00  0.00    -0.318 N 
ATOM     21  C   UNL     1      -0.251  -2.300  -1.767  1.00  0.00     0.027 A 
ATOM     22  C   UNL     1      -1.729  -2.277  -1.594  1.00  0.00     0.065 C 
BRANCH  20  23
ATOM     23  C   UNL     1       0.431  -0.142  -2.920  1.00  0.00     0.046 A 
ATOM     24  C   UNL     1      -0.551   1.234  -2.343  1.00  0.00     0.026 A 
ATOM     25  C   UNL     1       0.603  -0.472  -4.741  1.00  0.00     0.036 A 
ATOM     26  C   UNL     1      -1.388   2.316  -3.495  1.00  0.00     0.003 A 
ATOM     27  C   UNL     1      -0.293   0.683  -5.969  1.00  0.00    -0.001 A 
ATOM     28  C   UNL     1      -1.267   2.064  -5.256  1.00  0.00     0.010 A 
BRANCH  27  29
ATOM     29  C   UNL     1      -0.232   0.977  -7.415  1.00  0.00     0.072 C 
ATOM     30  O   UNL     1      -0.491   2.109  -7.798  1.00  0.00    -0.545 OA
ATOM     31  O   UNL     1       0.132   0.013  -8.246  1.00  0.00    -0.545 OA
ENDBRANCH  27  29
ENDBRANCH  20  23
ENDBRANCH   4  16
ENDBRANCH   2   3
ENDBRANCH   1   2
BRANCH   1  32
ATOM     32  C   UNL     1      -1.762  -1.020  -4.987  1.00  0.00     0.119 C 
BRANCH  32  33
ATOM     33  N   UNL     1      -1.042   0.355  -4.197  1.00  0.00    -0.352 N 
ATOM     34  C   UNL     1       0.611   1.479  -4.351  1.00  0.00     0.251 C 
ATOM     35  H   UNL     1      -1.613   0.672  -3.460  1.00  0.00     0.163 HD
ATOM     36  O   UNL     1       0.945   2.454  -3.647  1.00  0.00    -0.269 OA
BRANCH  34  37
ATOM     37  C   UNL     1       1.988   1.310  -5.643  1.00  0.00     0.039 A 
ATOM     38  C   UNL     1       2.410   2.439  -6.325  1.00  0.00     0.014 A 
ATOM     39  C   UNL     1       2.600   0.159  -6.361  1.00  0.00     0.014 A 
ATOM     40  C   UNL     1       3.221   2.353  -7.597  1.00  0.00     0.010 A 
ATOM     41  C   UNL     1       3.404   0.081  -7.646  1.00  0.00     0.010 A 
ATOM     42  C   UNL     1       3.755   1.193  -8.368  1.00  0.00    -0.014 A 
BRANCH  42  43
ATOM     43  C   UNL     1       4.789   1.309  -9.761  1.00  0.00     0.031 A 
ATOM     44  C   UNL     1       5.036   2.744  -9.748  1.00  0.00     0.074 A 
ATOM     45  C   UNL     1       5.342   0.815 -11.000  1.00  0.00     0.049 A 
ATOM     46  N   UNL     1       4.032   3.461 -10.121  1.00  0.00    -0.248 NA
ATOM     47  C   UNL     1       6.040   3.430  -8.953  1.00  0.00     0.031 C 
ATOM     48  C   UNL     1       4.999  -0.392 -11.796  1.00  0.00     0.029 A 
ATOM     49  N   UNL     1       6.354   1.368 -11.947  1.00  0.00    -0.354 N 
ATOM     50  C   UNL     1       4.283   4.744  -9.757  1.00  0.00     0.074 A 
ATOM     51  C   UNL     1       5.502   4.660  -8.951  1.00  0.00     0.031 C 
ATOM     52  C   UNL     1       5.809  -0.576 -12.896  1.00  0.00     0.029 A 
ATOM     53  C   UNL     1       6.804   0.496 -13.060  1.00  0.00     0.049 A 
ATOM     54  H   UNL     1       6.711   2.279 -11.837  1.00  0.00     0.167 HD
ATOM     55  C   UNL     1       3.830   5.627 -10.679  1.00  0.00     0.034 A 
ATOM     56  C   UNL     1       7.777   0.660 -14.089  1.00  0.00     0.034 A 
ATOM     57  C   UNL     1       4.891   5.927 -11.597  1.00  0.00     0.049 A 
ATOM     58  C   UNL     1       7.737   2.094 -14.405  1.00  0.00     0.074 A 
ATOM     59  C   UNL     1       6.258   6.056 -11.420  1.00  0.00     0.029 A 
ATOM     60  N   UNL     1       4.680   5.625 -12.919  1.00  0.00    -0.354 N 
ATOM     61  N   UNL     1       6.817   2.544 -15.206  1.00  0.00    -0.248 NA
ATOM     62  C   UNL     1       8.827   3.020 -14.127  1.00  0.00     0.031 C 
ATOM     63  C   UNL     1       6.831   5.372 -12.503  1.00  0.00     0.029 A 
ATOM     64  C   UNL     1       5.865   5.202 -13.483  1.00  0.00     0.049 A 
ATOM     65  H   UNL     1       3.819   5.700 -13.390  1.00  0.00     0.167 HD
ATOM     66  C   UNL     1       6.945   3.894 -15.133  1.00  0.00     0.074 A 
ATOM     67  C   UNL     1       8.309   4.121 -14.681  1.00  0.00     0.031 C 
ATOM     68  C   UNL     1       5.810   4.522 -14.752  1.00  0.00     0.034 A 
BRANCH  55  69
ATOM     69  C   UNL     1       2.362   5.340 -11.034  1.00  0.00     0.023 A 
ATOM     70  C   UNL     1       1.420   6.211 -10.464  1.00  0.00     0.012 A 
ATOM     71  C   UNL     1       1.877   4.142 -11.648  1.00  0.00     0.148 A 
ATOM     72  C   UNL     1       0.055   5.902 -10.476  1.00  0.00     0.002 A 
ATOM     73  C   UNL     1       0.531   3.783 -11.548  1.00  0.00     0.091 A 
ATOM     74  F   UNL     1       2.738   3.344 -12.301  1.00  0.00    -0.205 F 
ATOM     75  C   UNL     1      -0.386   4.680 -10.987  1.00  0.00     0.022 A 
BRANCH  73  76
ATOM     76  S   UNL     1      -0.059   2.107 -11.902  1.00  0.00     0.127 S 
ATOM     77  O   UNL     1      -0.906   1.794 -10.745  1.00  0.00    -0.237 OA
ATOM     78  O   UNL     1      -0.791   2.270 -13.153  1.00  0.00    -0.237 OA
ATOM     79  O   UNL     1       1.121   1.253 -11.957  1.00  0.00    -0.744 OA
ENDBRANCH  73  76
ENDBRANCH  55  69
BRANCH  56  80
ATOM     80  C   UNL     1       8.677   0.045 -15.337  1.00  0.00     0.023 A 
ATOM     81  C   UNL     1       8.804   0.825 -16.562  1.00  0.00     0.012 A 
ATOM     82  C   UNL     1       9.725  -0.904 -15.202  1.00  0.00     0.148 A 
ATOM     83  C   UNL     1       9.903   0.800 -17.454  1.00  0.00     0.002 A 
ATOM     84  C   UNL     1      10.815  -0.967 -16.141  1.00  0.00     0.091 A 
ATOM     85  F   UNL     1       9.723  -1.697 -14.124  1.00  0.00    -0.205 F 
ATOM     86  C   UNL     1      10.924  -0.090 -17.232  1.00  0.00     0.022 A 
BRANCH  84  87
ATOM     87  S   UNL     1      12.216  -2.114 -16.009  1.00  0.00     0.127 S 
ATOM     88  O   UNL     1      12.448  -2.511 -17.401  1.00  0.00    -0.237 OA
ATOM     89  O   UNL     1      13.261  -1.255 -15.452  1.00  0.00    -0.237 OA
ATOM     90  O   UNL     1      11.748  -3.191 -15.150  1.00  0.00    -0.744 OA
ENDBRANCH  84  87
ENDBRANCH  56  80
BRANCH  68  91
ATOM     91  C   UNL     1       4.525   4.180 -15.485  1.00  0.00     0.023 A 
ATOM     92  C   UNL     1       4.092   2.879 -15.832  1.00  0.00     0.012 A 
ATOM     93  C   UNL     1       3.696   5.251 -15.845  1.00  0.00     0.148 A 
ATOM     94  C   UNL     1       2.895   2.664 -16.526  1.00  0.00     0.002 A 
ATOM     95  C   UNL     1       2.477   5.035 -16.476  1.00  0.00     0.091 A 
ATOM     96  F   UNL     1       4.118   6.494 -15.563  1.00  0.00    -0.205 F 
ATOM     97  C   UNL     1       2.075   3.743 -16.831  1.00  0.00     0.022 A 
BRANCH  95  98
ATOM     98  S   UNL     1       1.385   6.416 -16.800  1.00  0.00     0.127 S 
ATOM     99  O   UNL     1       1.735   6.760 -18.177  1.00  0.00    -0.237 OA
ATOM    100  O   UNL     1       0.052   5.843 -16.635  1.00  0.00    -0.237 OA
ATOM    101  O   UNL     1       1.733   7.418 -15.796  1.00  0.00    -0.744 OA
ENDBRANCH  95  98
ENDBRANCH  68  91
ENDBRANCH  42  43
ENDBRANCH  34  37
ENDBRANCH  32  33
ENDBRANCH   1  32
TORSDOF 15
