REMARK SMILES CCc1ccc(C(=O)N[C@H](C(=O)NCCCNC(=O)c2ccc(-c3c4nc(c(-c5cccc(S(=O)(=O)[O-])c5F)c5ccc([nH]5)c(-c5cccc(S(=O)(=O)[O-])c5F)c5nc(c(-c6cccc(S(=O)(=O)[O-])c6F)c6ccc3[nH]6)C=C5)C=C4)cc2)[C@H](C)CC)o1
REMARK SMILES IDX 15 1 14 2 13 3 11 4 12 5 10 7 9 8 7 9 8 10 6 12 3 13 4 14
REMARK SMILES IDX 87 15 5 16 2 17 1 18 83 19 84 20 85 21 86 22 16 23 17 24
REMARK SMILES IDX 18 25 19 27 20 28 21 29 82 30 22 31 81 32 23 33 24 34 25 35
REMARK SMILES IDX 75 36 26 37 80 38 74 39 76 40 27 41 79 42 73 43 72 44 28 46
REMARK SMILES IDX 60 47 40 48 59 49 41 50 44 51 58 52 77 53 42 54 43 55 57 57
REMARK SMILES IDX 78 58 45 59 29 60 30 61 38 62 31 63 33 64 39 65 32 66 34 67
REMARK SMILES IDX 35 68 36 69 37 70 61 71 62 72 70 73 63 74 65 75 71 76 64 77
REMARK SMILES IDX 66 78 67 79 68 80 69 81 46 82 47 83 55 84 48 85 50 86 56 87
REMARK SMILES IDX 49 88 51 89 52 90 53 91 54 92
REMARK H PARENT 13 6 9 11 17 26 76 45 44 56
REMARK Flexibility Score: inf
ROOT
ATOM      1  C   UNL     1       3.509   9.090   2.274  1.00  0.00     0.042 C 
ENDROOT
BRANCH   1   2
ATOM      2  C   UNL     1       4.216   7.746   2.120  1.00  0.00     0.117 C 
BRANCH   2   3
ATOM      3  N   UNL     1       4.993   7.445   3.312  1.00  0.00    -0.354 N 
ATOM      4  C   UNL     1       4.819   6.499   4.282  1.00  0.00     0.242 C 
ATOM      5  O   UNL     1       5.484   6.616   5.314  1.00  0.00    -0.273 OA
ATOM      6  H   UNL     1       5.780   8.022   3.443  1.00  0.00     0.163 HD
BRANCH   4   7
ATOM      7  C   UNL     1       3.865   5.300   4.052  1.00  0.00     0.174 C 
BRANCH   7   8
ATOM      8  N   UNL     1       4.555   4.088   4.537  1.00  0.00    -0.337 N 
ATOM      9  C   UNL     1       5.756   3.501   4.209  1.00  0.00     0.287 C 
ATOM     10  O   UNL     1       5.980   2.416   4.752  1.00  0.00    -0.266 OA
ATOM     11  H   UNL     1       4.056   3.604   5.233  1.00  0.00     0.164 HD
BRANCH   9  12
ATOM     12  C   UNL     1       6.712   4.146   3.332  1.00  0.00     0.191 A 
ATOM     13  C   UNL     1       8.778   4.686   2.735  1.00  0.00     0.104 A 
ATOM     14  C   UNL     1       7.941   5.306   1.836  1.00  0.00     0.046 A 
ATOM     15  O   UNL     1       8.044   3.970   3.630  1.00  0.00    -0.456 OA
ATOM     16  C   UNL     1       6.622   4.923   2.191  1.00  0.00     0.056 A 
BRANCH  13  17
ATOM     17  C   UNL     1      10.257   4.620   2.878  1.00  0.00     0.072 C 
ATOM     18  C   UNL     1      10.854   5.918   3.395  1.00  0.00     0.012 C 
ENDBRANCH  13  17
ENDBRANCH   9  12
ENDBRANCH   7   8
BRANCH   7  19
ATOM     19  C   UNL     1       2.522   5.552   4.832  1.00  0.00     0.018 C 
ATOM     20  C   UNL     1       1.699   4.274   5.051  1.00  0.00     0.010 C 
BRANCH  19  21
ATOM     21  C   UNL     1       1.639   6.591   4.113  1.00  0.00     0.002 C 
ATOM     22  C   UNL     1       0.547   7.219   4.969  1.00  0.00     0.004 C 
ENDBRANCH  19  21
ENDBRANCH   7  19
ENDBRANCH   4   7
ENDBRANCH   2   3
ENDBRANCH   1   2
BRANCH   1  23
ATOM     23  C   UNL     1       4.452  10.275   2.180  1.00  0.00     0.118 C 
BRANCH  23  24
ATOM     24  N   UNL     1       4.799  10.587   0.807  1.00  0.00    -0.352 N 
ATOM     25  C   UNL     1       4.701  11.793   0.156  1.00  0.00     0.251 C 
ATOM     26  H   UNL     1       5.150   9.838   0.273  1.00  0.00     0.163 HD
ATOM     27  O   UNL     1       4.838  11.832  -1.063  1.00  0.00    -0.269 OA
BRANCH  25  28
ATOM     28  C   UNL     1       4.410  13.030   0.919  1.00  0.00     0.039 A 
ATOM     29  C   UNL     1       3.545  13.975   0.363  1.00  0.00     0.014 A 
ATOM     30  C   UNL     1       4.993  13.270   2.168  1.00  0.00     0.014 A 
ATOM     31  C   UNL     1       3.247  15.142   1.070  1.00  0.00     0.010 A 
ATOM     32  C   UNL     1       4.617  14.384   2.912  1.00  0.00     0.010 A 
ATOM     33  C   UNL     1       3.766  15.350   2.358  1.00  0.00    -0.014 A 
BRANCH  33  34
ATOM     34  C   UNL     1       3.459  16.590   3.116  1.00  0.00     0.031 A 
ATOM     35  C   UNL     1       4.566  17.541   3.494  1.00  0.00     0.074 A 
ATOM     36  C   UNL     1       2.193  16.842   3.501  1.00  0.00     0.049 A 
ATOM     37  N   UNL     1       4.492  18.679   4.134  1.00  0.00    -0.248 NA
ATOM     38  C   UNL     1       5.939  17.151   3.129  1.00  0.00     0.031 C 
ATOM     39  C   UNL     1       1.046  15.962   3.265  1.00  0.00     0.029 A 
ATOM     40  N   UNL     1       1.658  17.908   4.179  1.00  0.00    -0.354 N 
ATOM     41  C   UNL     1       5.802  19.124   4.271  1.00  0.00     0.074 A 
ATOM     42  C   UNL     1       6.655  18.109   3.697  1.00  0.00     0.031 C 
ATOM     43  C   UNL     1      -0.060  16.537   3.765  1.00  0.00     0.029 A 
ATOM     44  C   UNL     1       0.301  17.811   4.380  1.00  0.00     0.049 A 
ATOM     45  H   UNL     1       2.196  18.671   4.493  1.00  0.00     0.167 HD
ATOM     46  C   UNL     1       6.256  20.290   4.792  1.00  0.00     0.034 A 
ATOM     47  C   UNL     1      -0.556  18.658   4.982  1.00  0.00     0.034 A 
ATOM     48  C   UNL     1       5.402  21.313   5.328  1.00  0.00     0.049 A 
ATOM     49  C   UNL     1      -0.033  19.959   5.527  1.00  0.00     0.074 A 
ATOM     50  C   UNL     1       5.751  22.561   5.812  1.00  0.00     0.029 A 
ATOM     51  N   UNL     1       4.025  21.205   5.457  1.00  0.00    -0.354 N 
ATOM     52  N   UNL     1       1.190  20.430   5.509  1.00  0.00    -0.248 NA
ATOM     53  C   UNL     1      -1.016  20.864   6.140  1.00  0.00     0.031 C 
ATOM     54  C   UNL     1       4.587  23.197   6.258  1.00  0.00     0.029 A 
ATOM     55  C   UNL     1       3.509  22.359   6.020  1.00  0.00     0.049 A 
ATOM     56  H   UNL     1       3.493  20.421   5.188  1.00  0.00     0.167 HD
ATOM     57  C   UNL     1       1.118  21.702   6.067  1.00  0.00     0.074 A 
ATOM     58  C   UNL     1      -0.273  21.932   6.398  1.00  0.00     0.031 C 
ATOM     59  C   UNL     1       2.114  22.594   6.294  1.00  0.00     0.034 A 
BRANCH  46  60
ATOM     60  C   UNL     1       7.744  20.538   4.752  1.00  0.00     0.023 A 
ATOM     61  C   UNL     1       8.379  20.759   3.512  1.00  0.00     0.012 A 
ATOM     62  C   UNL     1       8.507  20.587   5.934  1.00  0.00     0.148 A 
ATOM     63  C   UNL     1       9.755  20.978   3.444  1.00  0.00     0.002 A 
ATOM     64  C   UNL     1       9.870  20.855   5.863  1.00  0.00     0.091 A 
ATOM     65  F   UNL     1       7.893  20.355   7.104  1.00  0.00    -0.205 F 
ATOM     66  C   UNL     1      10.497  21.035   4.619  1.00  0.00     0.022 A 
BRANCH  64  67
ATOM     67  S   UNL     1      10.900  21.032   7.324  1.00  0.00     0.127 S 
ATOM     68  O   UNL     1      11.690  19.803   7.278  1.00  0.00    -0.237 OA
ATOM     69  O   UNL     1      11.652  22.252   7.026  1.00  0.00    -0.237 OA
ATOM     70  O   UNL     1       9.982  21.146   8.449  1.00  0.00    -0.744 OA
ENDBRANCH  64  67
ENDBRANCH  46  60
BRANCH  47  71
ATOM     71  C   UNL     1      -2.013  18.341   5.020  1.00  0.00     0.023 A 
ATOM     72  C   UNL     1      -2.904  19.101   4.236  1.00  0.00     0.012 A 
ATOM     73  C   UNL     1      -2.516  17.280   5.796  1.00  0.00     0.148 A 
ATOM     74  C   UNL     1      -4.272  18.831   4.249  1.00  0.00     0.002 A 
ATOM     75  C   UNL     1      -3.873  16.980   5.762  1.00  0.00     0.091 A 
ATOM     76  F   UNL     1      -1.653  16.574   6.541  1.00  0.00    -0.205 F 
ATOM     77  C   UNL     1      -4.755  17.765   5.004  1.00  0.00     0.022 A 
BRANCH  75  78
ATOM     78  S   UNL     1      -4.567  15.549   6.597  1.00  0.00     0.127 S 
ATOM     79  O   UNL     1      -5.362  16.174   7.651  1.00  0.00    -0.237 OA
ATOM     80  O   UNL     1      -5.344  14.924   5.526  1.00  0.00    -0.237 OA
ATOM     81  O   UNL     1      -3.426  14.764   7.047  1.00  0.00    -0.744 OA
ENDBRANCH  75  78
ENDBRANCH  47  71
BRANCH  59  82
ATOM     82  C   UNL     1       1.737  23.925   6.889  1.00  0.00     0.023 A 
ATOM     83  C   UNL     1       1.348  24.009   8.240  1.00  0.00     0.012 A 
ATOM     84  C   UNL     1       1.841  25.104   6.124  1.00  0.00     0.148 A 
ATOM     85  C   UNL     1       1.034  25.242   8.811  1.00  0.00     0.002 A 
ATOM     86  C   UNL     1       1.577  26.334   6.714  1.00  0.00     0.091 A 
ATOM     87  F   UNL     1       2.196  25.001   4.835  1.00  0.00    -0.205 F 
ATOM     88  C   UNL     1       1.160  26.404   8.053  1.00  0.00     0.022 A 
BRANCH  86  89
ATOM     89  S   UNL     1       1.810  27.888   5.844  1.00  0.00     0.127 S 
ATOM     90  O   UNL     1       0.429  28.316   5.624  1.00  0.00    -0.237 OA
ATOM     91  O   UNL     1       2.546  28.685   6.826  1.00  0.00    -0.237 OA
ATOM     92  O   UNL     1       2.564  27.566   4.640  1.00  0.00    -0.744 OA
ENDBRANCH  86  89
ENDBRANCH  59  82
ENDBRANCH  33  34
ENDBRANCH  25  28
ENDBRANCH  23  24
ENDBRANCH   1  23
TORSDOF 18
