REMARK SMILES C[C@]([NH3+])(C(=O)N[C@H]1CCCCC[C@@H]1C(=O)NCCCNC(=O)c1ccc(-c2c3nc(c(-c4cccc(S(=O)(=O)[O-])c4F)c4ccc([nH]4)c(-c4cccc(S(=O)(=O)[O-])c4F)c4nc(c(-c5cccc(S(=O)(=O)[O-])c5F)c5ccc2[nH]5)C=C4)C=C3)cc1)C(F)(F)F
REMARK SMILES IDX 17 1 16 2 14 3 15 4 13 6 7 7 6 8 4 9 5 10 2 12 1 13 86 14
REMARK SMILES IDX 87 15 88 16 89 17 3 18 8 22 9 23 10 24 11 25 12 27 18 29
REMARK SMILES IDX 19 30 20 31 21 32 22 34 23 35 24 36 85 37 25 38 84 39 26 40
REMARK SMILES IDX 27 41 28 42 78 43 29 44 83 45 77 46 79 47 30 48 82 49 76 50
REMARK SMILES IDX 75 51 31 53 63 54 43 55 62 56 44 57 47 58 61 59 80 60 45 61
REMARK SMILES IDX 46 62 60 64 81 65 48 66 32 67 33 68 41 69 34 70 36 71 42 72
REMARK SMILES IDX 35 73 37 74 38 75 39 76 40 77 64 78 65 79 73 80 66 81 68 82
REMARK SMILES IDX 74 83 67 84 69 85 70 86 71 87 72 88 49 89 50 90 58 91 51 92
REMARK SMILES IDX 53 93 59 94 52 95 54 96 55 97 56 98 57 99
REMARK H PARENT 16 5 6 11 3 19 3 20 3 21 20 33 79 52 47 63
REMARK Flexibility Score: 90.00
ROOT
ATOM      1  C   UNL     1       2.786   1.401  -0.859  1.00  0.00     0.117 C 
ENDROOT
BRANCH   1   2
ATOM      2  N   UNL     1       1.386   1.792  -0.908  1.00  0.00    -0.356 N 
ATOM      3  C   UNL     1       0.263   1.024  -1.010  1.00  0.00     0.225 C 
ATOM      4  O   UNL     1      -0.820   1.593  -0.874  1.00  0.00    -0.275 OA
ATOM      5  H   UNL     1       1.223   2.761  -0.859  1.00  0.00     0.163 HD
BRANCH   3   6
ATOM      6  C   UNL     1       0.385  -0.476  -1.293  1.00  0.00     0.101 C 
BRANCH   6   7
ATOM      7  C   UNL     1      -0.947  -1.060  -1.861  1.00  0.00     0.094 C 
BRANCH   7   8
ATOM      8  N   UNL     1      -0.938  -1.188  -3.340  1.00  0.00    -0.347 N 
ATOM      9  C   UNL     1      -1.357  -0.411  -4.384  1.00  0.00     0.290 C 
ATOM     10  O   UNL     1      -1.438  -1.014  -5.461  1.00  0.00    -0.267 OA
ATOM     11  H   UNL     1      -0.533  -2.033  -3.641  1.00  0.00     0.164 HD
BRANCH   9  12
ATOM     12  C   UNL     1      -1.593   1.109  -4.291  1.00  0.00     0.266 C 
ATOM     13  C   UNL     1      -0.232   1.812  -4.137  1.00  0.00     0.100 C 
BRANCH  12  14
ATOM     14  C   UNL     1      -2.212   1.571  -5.643  1.00  0.00     0.453 C 
ATOM     15  F   UNL     1      -3.418   1.010  -5.892  1.00  0.00    -0.164 F 
ATOM     16  F   UNL     1      -2.426   2.919  -5.592  1.00  0.00    -0.164 F 
ATOM     17  F   UNL     1      -1.413   1.358  -6.710  1.00  0.00    -0.164 F 
ENDBRANCH  12  14
BRANCH  12  18
ATOM     18  N   UNL     1      -2.490   1.436  -3.131  1.00  0.00    -0.337 N 
ATOM     19  H   UNL     1      -3.386   0.963  -3.249  1.00  0.00     0.345 HD
ATOM     20  H   UNL     1      -2.640   2.444  -3.091  1.00  0.00     0.345 HD
ATOM     21  H   UNL     1      -2.052   1.123  -2.264  1.00  0.00     0.345 HD
ENDBRANCH  12  18
ENDBRANCH   9  12
ENDBRANCH   7   8
BRANCH   7  22
ATOM     22  C   UNL     1      -1.344  -2.446  -1.289  1.00  0.00     0.026 C 
BRANCH  22  23
ATOM     23  C   UNL     1      -0.306  -3.562  -1.467  1.00  0.00     0.002 C 
BRANCH  23  24
ATOM     24  C   UNL     1       0.720  -3.646  -0.344  1.00  0.00     0.000 C 
BRANCH  24  25
ATOM     25  C   UNL     1       1.629  -2.433  -0.227  1.00  0.00     0.001 CG0
ATOM     26  G   UNL     1       0.872  -1.132   0.018  1.00  0.00     0.000 G0
ENDBRANCH  24  25
ENDBRANCH  23  24
ENDBRANCH  22  23
ENDBRANCH   7  22
ENDBRANCH   6   7
BRANCH   6  27
ATOM     27  C   UNL     1       0.872  -1.132   0.018  1.00  0.00     0.015 CG0
ATOM     28  G   UNL     1       1.629  -2.433  -0.227  1.00  0.00     0.000 G0
ENDBRANCH   6  27
ENDBRANCH   3   6
ENDBRANCH   1   2
BRANCH   1  29
ATOM     29  C   UNL     1       3.663   2.128  -1.868  1.00  0.00     0.042 C 
BRANCH  29  30
ATOM     30  C   UNL     1       3.527   3.644  -1.889  1.00  0.00     0.118 C 
BRANCH  30  31
ATOM     31  N   UNL     1       3.756   4.276  -0.596  1.00  0.00    -0.352 N 
ATOM     32  C   UNL     1       4.700   5.196  -0.199  1.00  0.00     0.251 C 
ATOM     33  H   UNL     1       3.130   4.000   0.111  1.00  0.00     0.163 HD
ATOM     34  O   UNL     1       4.761   5.518   0.981  1.00  0.00    -0.269 OA
BRANCH  32  35
ATOM     35  C   UNL     1       5.664   5.762  -1.171  1.00  0.00     0.039 A 
ATOM     36  C   UNL     1       7.005   5.881  -0.793  1.00  0.00     0.014 A 
ATOM     37  C   UNL     1       5.263   6.174  -2.442  1.00  0.00     0.014 A 
ATOM     38  C   UNL     1       7.954   6.326  -1.719  1.00  0.00     0.010 A 
ATOM     39  C   UNL     1       6.219   6.530  -3.389  1.00  0.00     0.010 A 
ATOM     40  C   UNL     1       7.577   6.608  -3.041  1.00  0.00    -0.014 A 
BRANCH  40  41
ATOM     41  C   UNL     1       8.573   6.975  -4.082  1.00  0.00     0.031 A 
ATOM     42  C   UNL     1       8.475   8.301  -4.788  1.00  0.00     0.074 A 
ATOM     43  C   UNL     1       9.496   6.072  -4.474  1.00  0.00     0.049 A 
ATOM     44  N   UNL     1       9.160   8.746  -5.809  1.00  0.00    -0.248 NA
ATOM     45  C   UNL     1       7.448   9.239  -4.303  1.00  0.00     0.031 C 
ATOM     46  C   UNL     1       9.653   4.725  -3.921  1.00  0.00     0.029 A 
ATOM     47  N   UNL     1      10.454   6.138  -5.457  1.00  0.00    -0.354 N 
ATOM     48  C   UNL     1       8.621   9.990  -6.116  1.00  0.00     0.074 A 
ATOM     49  C   UNL     1       7.531  10.217  -5.193  1.00  0.00     0.031 C 
ATOM     50  C   UNL     1      10.644   4.093  -4.571  1.00  0.00     0.029 A 
ATOM     51  C   UNL     1      11.169   4.972  -5.611  1.00  0.00     0.049 A 
ATOM     52  H   UNL     1      10.614   6.944  -5.999  1.00  0.00     0.167 HD
ATOM     53  C   UNL     1       9.014  10.877  -7.061  1.00  0.00     0.034 A 
ATOM     54  C   UNL     1      12.129   4.641  -6.498  1.00  0.00     0.034 A 
ATOM     55  C   UNL     1      10.135  10.676  -7.938  1.00  0.00     0.049 A 
ATOM     56  C   UNL     1      12.576   5.664  -7.509  1.00  0.00     0.074 A 
ATOM     57  C   UNL     1      10.664  11.551  -8.870  1.00  0.00     0.029 A 
ATOM     58  N   UNL     1      10.902   9.523  -7.991  1.00  0.00    -0.354 N 
ATOM     59  N   UNL     1      12.148   6.890  -7.686  1.00  0.00    -0.248 NA
ATOM     60  C   UNL     1      13.662   5.271  -8.420  1.00  0.00     0.031 C 
ATOM     61  C   UNL     1      11.745  10.922  -9.496  1.00  0.00     0.029 A 
ATOM     62  C   UNL     1      11.900   9.663  -8.939  1.00  0.00     0.049 A 
ATOM     63  H   UNL     1      10.758   8.722  -7.436  1.00  0.00     0.167 HD
ATOM     64  C   UNL     1      12.939   7.428  -8.695  1.00  0.00     0.074 A 
ATOM     65  C   UNL     1      13.882   6.399  -9.081  1.00  0.00     0.031 C 
ATOM     66  C   UNL     1      12.879   8.657  -9.262  1.00  0.00     0.034 A 
BRANCH  53  67
ATOM     67  C   UNL     1       8.266  12.181  -7.154  1.00  0.00     0.023 A 
ATOM     68  C   UNL     1       8.438  13.151  -6.146  1.00  0.00     0.012 A 
ATOM     69  C   UNL     1       7.451  12.475  -8.265  1.00  0.00     0.148 A 
ATOM     70  C   UNL     1       7.787  14.380  -6.224  1.00  0.00     0.002 A 
ATOM     71  C   UNL     1       6.840  13.720  -8.358  1.00  0.00     0.091 A 
ATOM     72  F   UNL     1       7.284  11.533  -9.204  1.00  0.00    -0.205 F 
ATOM     73  C   UNL     1       6.997  14.669  -7.333  1.00  0.00     0.022 A 
BRANCH  71  74
ATOM     74  S   UNL     1       5.868  14.220  -9.783  1.00  0.00     0.127 S 
ATOM     75  O   UNL     1       4.515  14.226  -9.229  1.00  0.00    -0.237 OA
ATOM     76  O   UNL     1       6.412  15.546 -10.078  1.00  0.00    -0.237 OA
ATOM     77  O   UNL     1       6.119  13.219 -10.811  1.00  0.00    -0.744 OA
ENDBRANCH  71  74
ENDBRANCH  53  67
BRANCH  54  78
ATOM     78  C   UNL     1      12.783   3.303  -6.429  1.00  0.00     0.023 A 
ATOM     79  C   UNL     1      14.124   3.214  -6.006  1.00  0.00     0.012 A 
ATOM     80  C   UNL     1      12.088   2.123  -6.759  1.00  0.00     0.148 A 
ATOM     81  C   UNL     1      14.772   1.980  -5.947  1.00  0.00     0.002 A 
ATOM     82  C   UNL     1      12.723   0.891  -6.644  1.00  0.00     0.091 A 
ATOM     83  F   UNL     1      10.817   2.227  -7.172  1.00  0.00    -0.205 F 
ATOM     84  C   UNL     1      14.070   0.819  -6.256  1.00  0.00     0.022 A 
BRANCH  82  85
ATOM     85  S   UNL     1      11.854  -0.662  -6.892  1.00  0.00     0.127 S 
ATOM     86  O   UNL     1      12.371  -1.091  -8.188  1.00  0.00    -0.237 OA
ATOM     87  O   UNL     1      12.315  -1.454  -5.751  1.00  0.00    -0.237 OA
ATOM     88  O   UNL     1      10.437  -0.326  -6.850  1.00  0.00    -0.744 OA
ENDBRANCH  82  85
ENDBRANCH  54  78
BRANCH  66  89
ATOM     89  C   UNL     1      13.890   8.993 -10.325  1.00  0.00     0.023 A 
ATOM     90  C   UNL     1      13.766   8.436 -11.613  1.00  0.00     0.012 A 
ATOM     91  C   UNL     1      14.907   9.936 -10.072  1.00  0.00     0.148 A 
ATOM     92  C   UNL     1      14.654   8.794 -12.627  1.00  0.00     0.002 A 
ATOM     93  C   UNL     1      15.758  10.323 -11.100  1.00  0.00     0.091 A 
ATOM     94  F   UNL     1      15.018  10.440  -8.834  1.00  0.00    -0.205 F 
ATOM     95  C   UNL     1      15.640   9.746 -12.374  1.00  0.00     0.022 A 
BRANCH  93  96
ATOM     96  S   UNL     1      16.993  11.611 -10.893  1.00  0.00     0.127 S 
ATOM     97  O   UNL     1      18.234  10.838 -10.896  1.00  0.00    -0.237 OA
ATOM     98  O   UNL     1      16.785  12.435 -12.084  1.00  0.00    -0.237 OA
ATOM     99  O   UNL     1      16.674  12.276  -9.636  1.00  0.00    -0.744 OA
ENDBRANCH  93  96
ENDBRANCH  66  89
ENDBRANCH  40  41
ENDBRANCH  32  35
ENDBRANCH  30  31
ENDBRANCH  29  30
ENDBRANCH   1  29
TORSDOF 17
