REMARK SMILES C=C[C@@H](C)Oc1cnc2ccccc2c1C(=O)NCCCNC(=O)c1ccc(-c2c3nc(c(-c4cccc(S(=O)(=O)[O-])c4F)c4ccc([nH]4)c(-c4cccc(S(=O)(=O)[O-])c4F)c4nc(c(-c5cccc(S(=O)(=O)[O-])c5F)c5ccc2[nH]5)C=C4)C=C3)cc1
REMARK SMILES IDX 20 1 19 2 18 3 16 4 17 5 15 7 6 8 7 9 8 10 14 11 9 12 13 13
REMARK SMILES IDX 10 14 12 15 11 16 5 17 3 18 4 19 2 20 1 21 21 22 22 23 23 24
REMARK SMILES IDX 24 26 25 27 26 28 87 29 27 30 86 31 28 32 29 33 30 34 80 35
REMARK SMILES IDX 31 36 85 37 79 38 81 39 32 40 84 41 78 42 77 43 33 45 65 46
REMARK SMILES IDX 45 47 64 48 46 49 49 50 63 51 82 52 47 53 48 54 62 56 83 57
REMARK SMILES IDX 50 58 34 59 35 60 43 61 36 62 38 63 44 64 37 65 39 66 40 67
REMARK SMILES IDX 41 68 42 69 66 70 67 71 75 72 68 73 70 74 76 75 69 76 71 77
REMARK SMILES IDX 72 78 73 79 74 80 51 81 52 82 60 83 53 84 55 85 61 86 54 87
REMARK SMILES IDX 56 88 57 89 58 90 59 91
REMARK H PARENT 18 6 22 25 81 44 49 55
REMARK Flexibility Score: inf
ROOT
ATOM      1  C   UNL     1      -5.390  -7.017  -0.474  1.00  0.00     0.042 C 
ENDROOT
BRANCH   1   2
ATOM      2  C   UNL     1      -4.957  -5.765  -1.256  1.00  0.00     0.118 C 
BRANCH   2   3
ATOM      3  N   UNL     1      -4.413  -4.773  -0.339  1.00  0.00    -0.352 N 
ATOM      4  C   UNL     1      -3.166  -4.364   0.074  1.00  0.00     0.255 C 
ATOM      5  O   UNL     1      -3.205  -3.603   1.047  1.00  0.00    -0.269 OA
ATOM      6  H   UNL     1      -5.127  -4.259   0.102  1.00  0.00     0.163 HD
BRANCH   4   7
ATOM      7  C   UNL     1      -1.836  -4.670  -0.572  1.00  0.00     0.092 A 
ATOM      8  C   UNL     1      -0.882  -3.626  -0.553  1.00  0.00     0.151 A 
ATOM      9  C   UNL     1       0.367  -3.871  -1.095  1.00  0.00     0.159 A 
ATOM     10  N   UNL     1       0.697  -4.973  -1.786  1.00  0.00    -0.252 NA
ATOM     11  C   UNL     1      -1.437  -5.919  -1.150  1.00  0.00     0.017 A 
ATOM     12  C   UNL     1      -0.187  -5.968  -1.814  1.00  0.00     0.071 A 
ATOM     13  C   UNL     1      -2.126  -7.147  -1.075  1.00  0.00     0.011 A 
ATOM     14  C   UNL     1       0.204  -7.109  -2.502  1.00  0.00     0.029 A 
ATOM     15  C   UNL     1      -1.741  -8.287  -1.784  1.00  0.00     0.001 A 
ATOM     16  C   UNL     1      -0.579  -8.258  -2.529  1.00  0.00     0.002 A 
BRANCH   8  17
ATOM     17  O   UNL     1      -1.107  -2.442   0.095  1.00  0.00    -0.484 OA
BRANCH  17  18
ATOM     18  C   UNL     1      -1.026  -1.211  -0.645  1.00  0.00     0.192 C 
ATOM     19  C   UNL     1      -1.743  -1.245  -1.996  1.00  0.00     0.057 C 
BRANCH  18  20
ATOM     20  C   UNL     1       0.396  -0.709  -0.766  1.00  0.00     0.009 C 
ATOM     21  C   UNL     1       0.972   0.165   0.070  1.00  0.00     0.008 C 
ENDBRANCH  18  20
ENDBRANCH  17  18
ENDBRANCH   8  17
ENDBRANCH   4   7
ENDBRANCH   2   3
ENDBRANCH   1   2
BRANCH   1  22
ATOM     22  C   UNL     1      -6.801  -6.973   0.098  1.00  0.00     0.118 C 
BRANCH  22  23
ATOM     23  N   UNL     1      -7.800  -7.306  -0.900  1.00  0.00    -0.352 N 
ATOM     24  C   UNL     1      -8.585  -8.425  -1.049  1.00  0.00     0.251 C 
ATOM     25  H   UNL     1      -7.939  -6.614  -1.587  1.00  0.00     0.163 HD
ATOM     26  O   UNL     1      -9.162  -8.582  -2.125  1.00  0.00    -0.269 OA
BRANCH  24  27
ATOM     27  C   UNL     1      -8.761  -9.435   0.030  1.00  0.00     0.039 A 
ATOM     28  C   UNL     1      -9.033 -10.759  -0.340  1.00  0.00     0.014 A 
ATOM     29  C   UNL     1      -8.774  -9.098   1.386  1.00  0.00     0.014 A 
ATOM     30  C   UNL     1      -9.308 -11.726   0.634  1.00  0.00     0.010 A 
ATOM     31  C   UNL     1      -8.949 -10.084   2.361  1.00  0.00     0.010 A 
ATOM     32  C   UNL     1      -9.264 -11.400   1.998  1.00  0.00    -0.014 A 
BRANCH  32  33
ATOM     33  C   UNL     1      -9.612 -12.405   3.040  1.00  0.00     0.031 A 
ATOM     34  C   UNL     1     -10.804 -12.187   3.942  1.00  0.00     0.074 A 
ATOM     35  C   UNL     1      -8.841 -13.499   3.207  1.00  0.00     0.049 A 
ATOM     36  N   UNL     1     -11.272 -12.954   4.895  1.00  0.00    -0.248 NA
ATOM     37  C   UNL     1     -11.553 -10.931   3.772  1.00  0.00     0.031 C 
ATOM     38  C   UNL     1      -7.616 -13.790   2.461  1.00  0.00     0.029 A 
ATOM     39  N   UNL     1      -8.967 -14.563   4.065  1.00  0.00    -0.354 N 
ATOM     40  C   UNL     1     -12.338 -12.258   5.458  1.00  0.00     0.074 A 
ATOM     41  C   UNL     1     -12.421 -10.989   4.771  1.00  0.00     0.031 C 
ATOM     42  C   UNL     1      -7.114 -14.963   2.879  1.00  0.00     0.029 A 
ATOM     43  C   UNL     1      -7.970 -15.501   3.932  1.00  0.00     0.049 A 
ATOM     44  H   UNL     1      -9.703 -14.647   4.714  1.00  0.00     0.167 HD
ATOM     45  C   UNL     1     -13.198 -12.651   6.429  1.00  0.00     0.034 A 
ATOM     46  C   UNL     1      -7.776 -16.670   4.575  1.00  0.00     0.034 A 
ATOM     47  C   UNL     1     -13.152 -13.937   7.071  1.00  0.00     0.049 A 
ATOM     48  C   UNL     1      -8.791 -17.122   5.591  1.00  0.00     0.074 A 
ATOM     49  C   UNL     1     -14.019 -14.465   8.011  1.00  0.00     0.029 A 
ATOM     50  N   UNL     1     -12.187 -14.903   6.830  1.00  0.00    -0.354 N 
ATOM     51  N   UNL     1      -9.880 -16.514   5.997  1.00  0.00    -0.248 NA
ATOM     52  C   UNL     1      -8.579 -18.443   6.199  1.00  0.00     0.031 C 
ATOM     53  C   UNL     1     -13.572 -15.749   8.345  1.00  0.00     0.029 A 
ATOM     54  C   UNL     1     -12.440 -16.027   7.597  1.00  0.00     0.049 A 
ATOM     55  H   UNL     1     -11.433 -14.804   6.205  1.00  0.00     0.167 HD
ATOM     56  C   UNL     1     -10.504 -17.395   6.874  1.00  0.00     0.074 A 
ATOM     57  C   UNL     1      -9.681 -18.587   6.922  1.00  0.00     0.031 C 
ATOM     58  C   UNL     1     -11.646 -17.229   7.586  1.00  0.00     0.034 A 
BRANCH  45  59
ATOM     59  C   UNL     1     -14.307 -11.700   6.807  1.00  0.00     0.023 A 
ATOM     60  C   UNL     1     -15.361 -11.467   5.898  1.00  0.00     0.012 A 
ATOM     61  C   UNL     1     -14.334 -11.070   8.067  1.00  0.00     0.148 A 
ATOM     62  C   UNL     1     -16.398 -10.592   6.217  1.00  0.00     0.002 A 
ATOM     63  C   UNL     1     -15.397 -10.234   8.396  1.00  0.00     0.091 A 
ATOM     64  F   UNL     1     -13.317 -11.284   8.913  1.00  0.00    -0.205 F 
ATOM     65  C   UNL     1     -16.422  -9.984   7.468  1.00  0.00     0.022 A 
BRANCH  63  66
ATOM     66  S   UNL     1     -15.561  -9.465  10.012  1.00  0.00     0.127 S 
ATOM     67  O   UNL     1     -15.248  -8.070   9.708  1.00  0.00    -0.237 OA
ATOM     68  O   UNL     1     -16.966  -9.718  10.334  1.00  0.00    -0.237 OA
ATOM     69  O   UNL     1     -14.610 -10.148  10.878  1.00  0.00    -0.744 OA
ENDBRANCH  63  66
ENDBRANCH  45  59
BRANCH  46  70
ATOM     70  C   UNL     1      -6.630 -17.546   4.197  1.00  0.00     0.023 A 
ATOM     71  C   UNL     1      -6.879 -18.746   3.502  1.00  0.00     0.012 A 
ATOM     72  C   UNL     1      -5.300 -17.186   4.489  1.00  0.00     0.148 A 
ATOM     73  C   UNL     1      -5.830 -19.589   3.135  1.00  0.00     0.002 A 
ATOM     74  C   UNL     1      -4.255 -18.004   4.072  1.00  0.00     0.091 A 
ATOM     75  F   UNL     1      -5.082 -16.047   5.160  1.00  0.00    -0.205 F 
ATOM     76  C   UNL     1      -4.519 -19.214   3.410  1.00  0.00     0.022 A 
BRANCH  74  77
ATOM     77  S   UNL     1      -2.532 -17.533   4.265  1.00  0.00     0.127 S 
ATOM     78  O   UNL     1      -2.092 -18.437   5.327  1.00  0.00    -0.237 OA
ATOM     79  O   UNL     1      -1.986 -17.833   2.939  1.00  0.00    -0.237 OA
ATOM     80  O   UNL     1      -2.548 -16.119   4.599  1.00  0.00    -0.744 OA
ENDBRANCH  74  77
ENDBRANCH  46  70
BRANCH  58  81
ATOM     81  C   UNL     1     -12.103 -18.378   8.445  1.00  0.00     0.023 A 
ATOM     82  C   UNL     1     -11.402 -18.696   9.625  1.00  0.00     0.012 A 
ATOM     83  C   UNL     1     -13.259 -19.110   8.110  1.00  0.00     0.148 A 
ATOM     84  C   UNL     1     -11.821 -19.751  10.436  1.00  0.00     0.002 A 
ATOM     85  C   UNL     1     -13.698 -20.128   8.948  1.00  0.00     0.091 A 
ATOM     86  F   UNL     1     -13.902 -18.809   6.972  1.00  0.00    -0.205 F 
ATOM     87  C   UNL     1     -12.974 -20.459  10.103  1.00  0.00     0.022 A 
BRANCH  85  88
ATOM     88  S   UNL     1     -15.227 -21.019   8.638  1.00  0.00     0.127 S 
ATOM     89  O   UNL     1     -14.736 -22.252   8.026  1.00  0.00    -0.237 OA
ATOM     90  O   UNL     1     -15.775 -21.184   9.986  1.00  0.00    -0.237 OA
ATOM     91  O   UNL     1     -16.018 -20.154   7.773  1.00  0.00    -0.744 OA
ENDBRANCH  85  88
ENDBRANCH  58  81
ENDBRANCH  32  33
ENDBRANCH  24  27
ENDBRANCH  22  23
ENDBRANCH   1  22
TORSDOF 16
