REMARK SMILES O=C(NCCCNC(=O)[C@@H]1CCCC[C@@H]1C(=O)Nc1cccc(C(F)(F)F)c1)c1ccc(-c2c3nc(c(-c4cccc(S(=O)(=O)[O-])c4F)c4ccc([nH]4)c(-c4cccc(S(=O)(=O)[O-])c4F)c4nc(c(-c5cccc(S(=O)(=O)[O-])c5F)c5ccc2[nH]5)C=C4)C=C3)cc1
REMARK SMILES IDX 5 1 4 2 3 3 1 4 2 5 29 7 30 8 91 9 31 10 90 11 32 12 33 13
REMARK SMILES IDX 34 14 84 15 35 16 89 17 83 18 85 19 36 20 88 21 82 22 81 23
REMARK SMILES IDX 37 25 69 26 49 27 68 28 50 29 53 30 67 31 86 32 51 33 52 34
REMARK SMILES IDX 66 36 87 37 54 38 38 39 39 40 47 41 40 42 42 43 48 44 41 45
REMARK SMILES IDX 43 46 44 47 45 48 46 49 70 50 71 51 79 52 72 53 74 54 80 55
REMARK SMILES IDX 73 56 75 57 76 58 77 59 78 60 55 61 56 62 64 63 57 64 59 65
REMARK SMILES IDX 65 66 58 67 60 68 61 69 62 70 63 71 6 72 7 73 8 74 9 76
REMARK SMILES IDX 10 77 11 78 15 79 12 80 14 81 13 82 16 83 17 84 18 85 19 87
REMARK SMILES IDX 20 88 28 89 21 90 23 91 22 92 24 93 25 94 26 95 27 96
REMARK H PARENT 3 6 85 24 53 35 7 75 18 86
REMARK Flexibility Score: inf
ROOT
ATOM      1  C   UNL     1       4.522   0.526  -2.492  1.00  0.00     0.042 C 
ENDROOT
BRANCH   1   2
ATOM      2  C   UNL     1       4.377   1.017  -1.058  1.00  0.00     0.118 C 
BRANCH   2   3
ATOM      3  N   UNL     1       2.986   0.983  -0.611  1.00  0.00    -0.352 N 
ATOM      4  O   UNL     1       1.132   0.087   0.289  1.00  0.00    -0.269 OA
ATOM      5  C   UNL     1       2.356   0.131   0.266  1.00  0.00     0.251 C 
ATOM      6  H   UNL     1       2.409   1.680  -0.999  1.00  0.00     0.163 HD
BRANCH   5   7
ATOM      7  C   UNL     1       3.157  -0.725   1.169  1.00  0.00     0.039 A 
ATOM      8  C   UNL     1       4.328  -0.229   1.738  1.00  0.00     0.014 A 
ATOM      9  C   UNL     1       2.723  -2.017   1.483  1.00  0.00     0.014 A 
ATOM     10  C   UNL     1       5.155  -1.072   2.461  1.00  0.00     0.010 A 
ATOM     11  C   UNL     1       3.495  -2.825   2.327  1.00  0.00     0.010 A 
ATOM     12  C   UNL     1       4.733  -2.368   2.801  1.00  0.00    -0.014 A 
BRANCH  12  13
ATOM     13  C   UNL     1       5.579  -3.149   3.739  1.00  0.00     0.031 A 
ATOM     14  C   UNL     1       6.204  -4.457   3.348  1.00  0.00     0.074 A 
ATOM     15  C   UNL     1       5.829  -2.611   4.951  1.00  0.00     0.049 A 
ATOM     16  N   UNL     1       7.046  -5.194   4.026  1.00  0.00    -0.248 NA
ATOM     17  C   UNL     1       5.835  -5.021   2.040  1.00  0.00     0.031 C 
ATOM     18  C   UNL     1       5.225  -1.374   5.460  1.00  0.00     0.029 A 
ATOM     19  N   UNL     1       6.665  -3.006   5.962  1.00  0.00    -0.354 N 
ATOM     20  C   UNL     1       7.287  -6.319   3.247  1.00  0.00     0.074 A 
ATOM     21  C   UNL     1       6.488  -6.177   2.048  1.00  0.00     0.031 C 
ATOM     22  C   UNL     1       5.754  -1.081   6.654  1.00  0.00     0.029 A 
ATOM     23  C   UNL     1       6.678  -2.141   7.031  1.00  0.00     0.049 A 
ATOM     24  H   UNL     1       7.205  -3.829   5.925  1.00  0.00     0.167 HD
ATOM     25  C   UNL     1       8.114  -7.363   3.501  1.00  0.00     0.034 A 
ATOM     26  C   UNL     1       7.346  -2.198   8.198  1.00  0.00     0.034 A 
ATOM     27  C   UNL     1       8.924  -7.480   4.687  1.00  0.00     0.049 A 
ATOM     28  C   UNL     1       8.285  -3.344   8.429  1.00  0.00     0.074 A 
ATOM     29  C   UNL     1       9.816  -8.483   5.025  1.00  0.00     0.029 A 
ATOM     30  N   UNL     1       8.941  -6.566   5.731  1.00  0.00    -0.354 N 
ATOM     31  N   UNL     1       8.579  -4.341   7.630  1.00  0.00    -0.248 NA
ATOM     32  C   UNL     1       9.005  -3.361   9.708  1.00  0.00     0.031 C 
ATOM     33  C   UNL     1      10.360  -8.183   6.279  1.00  0.00     0.029 A 
ATOM     34  C   UNL     1       9.826  -6.980   6.713  1.00  0.00     0.049 A 
ATOM     35  H   UNL     1       8.402  -5.743   5.769  1.00  0.00     0.167 HD
ATOM     36  C   UNL     1       9.525  -5.100   8.303  1.00  0.00     0.074 A 
ATOM     37  C   UNL     1       9.790  -4.419   9.556  1.00  0.00     0.031 C 
ATOM     38  C   UNL     1      10.102  -6.270   7.935  1.00  0.00     0.034 A 
BRANCH  25  39
ATOM     39  C   UNL     1       8.225  -8.446   2.457  1.00  0.00     0.023 A 
ATOM     40  C   UNL     1       8.923  -8.186   1.260  1.00  0.00     0.012 A 
ATOM     41  C   UNL     1       7.713  -9.738   2.689  1.00  0.00     0.148 A 
ATOM     42  C   UNL     1       9.089  -9.184   0.301  1.00  0.00     0.002 A 
ATOM     43  C   UNL     1       7.918 -10.740   1.746  1.00  0.00     0.091 A 
ATOM     44  F   UNL     1       7.037  -9.964   3.825  1.00  0.00    -0.205 F 
ATOM     45  C   UNL     1       8.597 -10.463   0.549  1.00  0.00     0.022 A 
BRANCH  43  46
ATOM     46  S   UNL     1       7.391 -12.440   2.000  1.00  0.00     0.127 S 
ATOM     47  O   UNL     1       6.329 -12.571   1.003  1.00  0.00    -0.237 OA
ATOM     48  O   UNL     1       8.610 -13.188   1.692  1.00  0.00    -0.237 OA
ATOM     49  O   UNL     1       6.957 -12.525   3.387  1.00  0.00    -0.744 OA
ENDBRANCH  43  46
ENDBRANCH  25  39
BRANCH  26  50
ATOM     50  C   UNL     1       7.156  -1.125   9.214  1.00  0.00     0.023 A 
ATOM     51  C   UNL     1       8.215  -0.251   9.523  1.00  0.00     0.012 A 
ATOM     52  C   UNL     1       5.909  -0.941   9.842  1.00  0.00     0.148 A 
ATOM     53  C   UNL     1       8.043   0.767  10.461  1.00  0.00     0.002 A 
ATOM     54  C   UNL     1       5.725   0.116  10.723  1.00  0.00     0.091 A 
ATOM     55  F   UNL     1       4.917  -1.795   9.552  1.00  0.00    -0.205 F 
ATOM     56  C   UNL     1       6.796   0.960  11.050  1.00  0.00     0.022 A 
BRANCH  54  57
ATOM     57  S   UNL     1       4.107   0.521  11.391  1.00  0.00     0.127 S 
ATOM     58  O   UNL     1       4.202  -0.010  12.748  1.00  0.00    -0.237 OA
ATOM     59  O   UNL     1       4.094   1.982  11.299  1.00  0.00    -0.237 OA
ATOM     60  O   UNL     1       3.151  -0.138  10.511  1.00  0.00    -0.744 OA
ENDBRANCH  54  57
ENDBRANCH  26  50
BRANCH  38  61
ATOM     61  C   UNL     1      11.086  -6.876   8.900  1.00  0.00     0.023 A 
ATOM     62  C   UNL     1      10.623  -7.443  10.104  1.00  0.00     0.012 A 
ATOM     63  C   UNL     1      12.462  -6.909   8.603  1.00  0.00     0.148 A 
ATOM     64  C   UNL     1      11.518  -7.992  11.020  1.00  0.00     0.002 A 
ATOM     65  C   UNL     1      13.343  -7.503   9.498  1.00  0.00     0.091 A 
ATOM     66  F   UNL     1      12.886  -6.345   7.463  1.00  0.00    -0.205 F 
ATOM     67  C   UNL     1      12.876  -8.030  10.713  1.00  0.00     0.022 A 
BRANCH  65  68
ATOM     68  S   UNL     1      15.095  -7.677   9.144  1.00  0.00     0.127 S 
ATOM     69  O   UNL     1      15.677  -6.645  10.000  1.00  0.00    -0.237 OA
ATOM     70  O   UNL     1      15.365  -9.049   9.573  1.00  0.00    -0.237 OA
ATOM     71  O   UNL     1      15.235  -7.456   7.710  1.00  0.00    -0.744 OA
ENDBRANCH  65  68
ENDBRANCH  38  61
ENDBRANCH  12  13
ENDBRANCH   5   7
ENDBRANCH   2   3
ENDBRANCH   1   2
BRANCH   1  72
ATOM     72  C   UNL     1       3.904   1.493  -3.492  1.00  0.00     0.117 C 
BRANCH  72  73
ATOM     73  N   UNL     1       4.744   2.656  -3.699  1.00  0.00    -0.356 N 
ATOM     74  C   UNL     1       5.768   2.925  -4.538  1.00  0.00     0.223 C 
ATOM     75  H   UNL     1       4.522   3.407  -3.103  1.00  0.00     0.163 HD
ATOM     76  O   UNL     1       6.337   4.009  -4.340  1.00  0.00    -0.275 OA
BRANCH  74  77
ATOM     77  C   UNL     1       6.182   2.076  -5.754  1.00  0.00     0.091 C 
ATOM     78  C   UNL     1       5.736   0.618  -5.870  1.00  0.00     0.014 C 
ATOM     79  C   UNL     1       7.713   2.252  -5.951  1.00  0.00     0.091 C 
ATOM     80  C   UNL     1       6.326  -0.110  -7.075  1.00  0.00     0.001 C 
ATOM     81  C   UNL     1       8.265   1.456  -7.143  1.00  0.00     0.014 C 
ATOM     82  C   UNL     1       7.838  -0.004  -7.121  1.00  0.00     0.001 C 
BRANCH  79  83
ATOM     83  C   UNL     1       8.515   1.901  -4.685  1.00  0.00     0.228 C 
ATOM     84  O   UNL     1       8.095   1.074  -3.872  1.00  0.00    -0.274 OA
ATOM     85  N   UNL     1       9.799   2.364  -4.537  1.00  0.00    -0.326 N 
ATOM     86  H   UNL     1      10.348   1.865  -3.890  1.00  0.00     0.169 HD
BRANCH  85  87
ATOM     87  C   UNL     1      10.451   3.435  -5.164  1.00  0.00     0.041 A 
ATOM     88  C   UNL     1      11.819   3.317  -5.412  1.00  0.00     0.026 A 
ATOM     89  C   UNL     1       9.796   4.620  -5.503  1.00  0.00     0.039 A 
ATOM     90  C   UNL     1      12.498   4.327  -6.097  1.00  0.00     0.003 A 
ATOM     91  C   UNL     1      10.460   5.639  -6.202  1.00  0.00     0.058 A 
ATOM     92  C   UNL     1      11.818   5.474  -6.507  1.00  0.00     0.013 A 
BRANCH  91  93
ATOM     93  C   UNL     1       9.728   6.886  -6.629  1.00  0.00     0.416 C 
ATOM     94  F   UNL     1      10.273   8.020  -6.106  1.00  0.00    -0.166 F 
ATOM     95  F   UNL     1       9.751   7.056  -7.982  1.00  0.00    -0.166 F 
ATOM     96  F   UNL     1       8.413   6.906  -6.279  1.00  0.00    -0.166 F 
ENDBRANCH  91  93
ENDBRANCH  85  87
ENDBRANCH  79  83
ENDBRANCH  74  77
ENDBRANCH  72  73
ENDBRANCH   1  72
TORSDOF 16
