REMARK SMILES N#Cc1cccnc1N1CC[NH+]([C@@H](C(=O)NCCCNC(=O)c2ccc(-c3c4nc(c(-c5cccc(S(=O)(=O)[O-])c5F)c5ccc([nH]5)c(-c5cccc(S(=O)(=O)[O-])c5F)c5nc(c(-c6cccc(S(=O)(=O)[O-])c6F)c6ccc3[nH]6)C=C5)C=C4)cc2)c2c[nH]c3cc(CO)ccc23)CC1
REMARK SMILES IDX 18 1 17 2 16 3 14 4 15 5 13 7 12 8 9 9 10 10 98 11 11 12
REMARK SMILES IDX 97 13 8 15 3 16 4 17 5 18 7 19 6 20 2 21 1 22 86 23 87 24
REMARK SMILES IDX 96 25 88 26 89 27 95 28 90 30 94 31 91 32 92 33 93 34 19 36
REMARK SMILES IDX 20 37 21 38 22 40 23 41 24 42 85 43 25 44 84 45 26 46 27 47
REMARK SMILES IDX 28 48 78 49 29 50 83 51 77 52 79 53 30 54 82 55 76 56 75 57
REMARK SMILES IDX 31 59 63 60 43 61 62 62 44 63 47 64 61 65 80 66 45 67 46 68
REMARK SMILES IDX 60 70 81 71 48 72 32 73 33 74 41 75 34 76 36 77 42 78 35 79
REMARK SMILES IDX 37 80 38 81 39 82 40 83 64 84 65 85 73 86 66 87 68 88 74 89
REMARK SMILES IDX 67 90 69 91 70 92 71 93 72 94 49 95 50 96 58 97 51 98 53 99
REMARK SMILES IDX 59 100 52 101 54 102 55 103 56 104 57 105
REMARK H PARENT 16 6 12 14 88 29 93 35 20 39 79 58 47 69
REMARK Flexibility Score: inf
ROOT
ATOM      1  C   UNL     1       1.916  -3.117   3.345  1.00  0.00     0.042 C 
ENDROOT
BRANCH   1   2
ATOM      2  C   UNL     1       1.213  -4.457   2.973  1.00  0.00     0.118 C 
BRANCH   2   3
ATOM      3  N   UNL     1      -0.015  -4.366   2.185  1.00  0.00    -0.351 N 
ATOM      4  C   UNL     1      -0.452  -4.748   0.937  1.00  0.00     0.283 C 
ATOM      5  O   UNL     1      -1.675  -4.612   0.813  1.00  0.00    -0.268 OA
ATOM      6  H   UNL     1      -0.726  -3.905   2.686  1.00  0.00     0.163 HD
BRANCH   4   7
ATOM      7  C   UNL     1       0.444  -5.371  -0.182  1.00  0.00     0.307 C 
BRANCH   7   8
ATOM      8  N   UNL     1       1.470  -4.475  -0.858  1.00  0.00    -0.318 N 
ATOM      9  N   UNL     1       0.703  -1.611  -0.912  1.00  0.00    -0.344 N 
ATOM     10  C   UNL     1       0.078  -2.586  -1.808  1.00  0.00     0.179 C 
ATOM     11  C   UNL     1       1.357  -2.180   0.271  1.00  0.00     0.179 C 
ATOM     12  C   UNL     1       1.082  -3.714  -2.070  1.00  0.00     0.284 C 
ATOM     13  C   UNL     1       2.154  -3.484  -0.026  1.00  0.00     0.284 C 
ATOM     14  H   UNL     1       2.077  -5.254  -1.113  1.00  0.00     0.349 HD
BRANCH   9  15
ATOM     15  C   UNL     1      -0.064  -0.466  -0.671  1.00  0.00     0.146 A 
ATOM     16  C   UNL     1       0.533   0.779  -0.442  1.00  0.00     0.095 A 
ATOM     17  C   UNL     1      -0.282   1.897  -0.242  1.00  0.00     0.025 A 
ATOM     18  C   UNL     1      -1.663   1.747  -0.211  1.00  0.00     0.022 A 
ATOM     19  N   UNL     1      -1.416  -0.606  -0.657  1.00  0.00    -0.238 NA
ATOM     20  C   UNL     1      -2.179   0.483  -0.416  1.00  0.00     0.113 A 
BRANCH  16  21
ATOM     21  C   UNL     1       1.960   0.920  -0.362  1.00  0.00     0.103 C 
ATOM     22  N   UNL     1       3.098   0.980  -0.185  1.00  0.00    -0.192 NA
ENDBRANCH  16  21
ENDBRANCH   9  15
ENDBRANCH   7   8
BRANCH   7  23
ATOM     23  C   UNL     1      -0.321  -6.138  -1.312  1.00  0.00     0.044 A 
ATOM     24  C   UNL     1       0.205  -7.213  -2.022  1.00  0.00     0.094 A 
ATOM     25  C   UNL     1      -1.420  -5.700  -2.147  1.00  0.00     0.009 A 
ATOM     26  N   UNL     1       0.004  -6.888  -3.350  1.00  0.00    -0.361 N 
ATOM     27  C   UNL     1      -0.950  -5.901  -3.449  1.00  0.00     0.046 A 
ATOM     28  C   UNL     1      -2.583  -4.923  -1.996  1.00  0.00     0.011 A 
ATOM     29  H   UNL     1       0.473  -7.301  -4.111  1.00  0.00     0.166 HD
ATOM     30  C   UNL     1      -1.329  -5.068  -4.517  1.00  0.00     0.032 A 
ATOM     31  C   UNL     1      -3.069  -4.188  -3.083  1.00  0.00     0.007 A 
ATOM     32  C   UNL     1      -2.350  -4.132  -4.281  1.00  0.00    -0.021 A 
BRANCH  32  33
ATOM     33  C   UNL     1      -2.652  -3.039  -5.277  1.00  0.00     0.191 C 
BRANCH  33  34
ATOM     34  O   UNL     1      -2.788  -1.771  -4.638  1.00  0.00    -0.392 OA
ATOM     35  H   UNL     1      -3.523  -1.805  -4.006  1.00  0.00     0.211 HD
ENDBRANCH  33  34
ENDBRANCH  32  33
ENDBRANCH   7  23
ENDBRANCH   4   7
ENDBRANCH   2   3
ENDBRANCH   1   2
BRANCH   1  36
ATOM     36  C   UNL     1       1.050  -1.861   3.578  1.00  0.00     0.118 C 
BRANCH  36  37
ATOM     37  N   UNL     1       1.109  -1.403   4.954  1.00  0.00    -0.352 N 
ATOM     38  C   UNL     1       1.392  -0.162   5.477  1.00  0.00     0.251 C 
ATOM     39  H   UNL     1       0.914  -2.096   5.626  1.00  0.00     0.163 HD
ATOM     40  O   UNL     1       1.583  -0.076   6.690  1.00  0.00    -0.269 OA
BRANCH  38  41
ATOM     41  C   UNL     1       1.466   1.075   4.651  1.00  0.00     0.039 A 
ATOM     42  C   UNL     1       2.456   2.020   4.955  1.00  0.00     0.014 A 
ATOM     43  C   UNL     1       0.494   1.401   3.703  1.00  0.00     0.014 A 
ATOM     44  C   UNL     1       2.491   3.264   4.303  1.00  0.00     0.010 A 
ATOM     45  C   UNL     1       0.540   2.644   3.046  1.00  0.00     0.010 A 
ATOM     46  C   UNL     1       1.538   3.593   3.328  1.00  0.00    -0.014 A 
BRANCH  46  47
ATOM     47  C   UNL     1       1.582   4.910   2.613  1.00  0.00     0.031 A 
ATOM     48  C   UNL     1       0.460   5.914   2.746  1.00  0.00     0.074 A 
ATOM     49  C   UNL     1       2.611   5.201   1.789  1.00  0.00     0.049 A 
ATOM     50  N   UNL     1       0.325   7.086   2.173  1.00  0.00    -0.248 NA
ATOM     51  C   UNL     1      -0.666   5.546   3.616  1.00  0.00     0.031 C 
ATOM     52  C   UNL     1       3.737   4.313   1.500  1.00  0.00     0.029 A 
ATOM     53  N   UNL     1       2.869   6.318   1.025  1.00  0.00    -0.354 N 
ATOM     54  C   UNL     1      -0.909   7.579   2.584  1.00  0.00     0.074 A 
ATOM     55  C   UNL     1      -1.497   6.564   3.433  1.00  0.00     0.031 C 
ATOM     56  C   UNL     1       4.566   4.918   0.633  1.00  0.00     0.029 A 
ATOM     57  C   UNL     1       4.022   6.226   0.277  1.00  0.00     0.049 A 
ATOM     58  H   UNL     1       2.283   7.109   1.014  1.00  0.00     0.167 HD
ATOM     59  C   UNL     1      -1.494   8.773   2.309  1.00  0.00     0.034 A 
ATOM     60  C   UNL     1       4.581   7.085  -0.601  1.00  0.00     0.034 A 
ATOM     61  C   UNL     1      -0.900   9.812   1.508  1.00  0.00     0.049 A 
ATOM     62  C   UNL     1       3.930   8.418  -0.863  1.00  0.00     0.074 A 
ATOM     63  C   UNL     1      -1.388  11.083   1.250  1.00  0.00     0.029 A 
ATOM     64  N   UNL     1       0.305   9.708   0.834  1.00  0.00    -0.354 N 
ATOM     65  N   UNL     1       2.836   8.919  -0.343  1.00  0.00    -0.248 NA
ATOM     66  C   UNL     1       4.609   9.319  -1.808  1.00  0.00     0.031 C 
ATOM     67  C   UNL     1      -0.490  11.737   0.399  1.00  0.00     0.029 A 
ATOM     68  C   UNL     1       0.572  10.885   0.150  1.00  0.00     0.049 A 
ATOM     69  H   UNL     1       0.888   8.914   0.838  1.00  0.00     0.167 HD
ATOM     70  C   UNL     1       2.717  10.203  -0.868  1.00  0.00     0.074 A 
ATOM     71  C   UNL     1       3.860  10.411  -1.730  1.00  0.00     0.031 C 
ATOM     72  C   UNL     1       1.738  11.118  -0.662  1.00  0.00     0.034 A 
BRANCH  59  73
ATOM     73  C   UNL     1      -2.844   9.053   2.925  1.00  0.00     0.023 A 
ATOM     74  C   UNL     1      -2.937   9.307   4.309  1.00  0.00     0.012 A 
ATOM     75  C   UNL     1      -4.004   9.137   2.129  1.00  0.00     0.148 A 
ATOM     76  C   UNL     1      -4.167   9.602   4.897  1.00  0.00     0.002 A 
ATOM     77  C   UNL     1      -5.219   9.475   2.716  1.00  0.00     0.091 A 
ATOM     78  F   UNL     1      -3.901   8.878   0.818  1.00  0.00    -0.205 F 
ATOM     79  C   UNL     1      -5.304   9.695   4.100  1.00  0.00     0.022 A 
BRANCH  77  80
ATOM     80  S   UNL     1      -6.726   9.697   1.763  1.00  0.00     0.127 S 
ATOM     81  O   UNL     1      -7.484   8.501   2.128  1.00  0.00    -0.237 OA
ATOM     82  O   UNL     1      -7.258  10.946   2.311  1.00  0.00    -0.237 OA
ATOM     83  O   UNL     1      -6.311   9.775   0.370  1.00  0.00    -0.744 OA
ENDBRANCH  77  80
ENDBRANCH  59  73
BRANCH  60  84
ATOM     84  C   UNL     1       5.875   6.739  -1.261  1.00  0.00     0.023 A 
ATOM     85  C   UNL     1       7.042   7.445  -0.905  1.00  0.00     0.012 A 
ATOM     86  C   UNL     1       5.959   5.716  -2.225  1.00  0.00     0.148 A 
ATOM     87  C   UNL     1       8.262   7.158  -1.517  1.00  0.00     0.002 A 
ATOM     88  C   UNL     1       7.189   5.399  -2.792  1.00  0.00     0.091 A 
ATOM     89  F   UNL     1       4.835   5.070  -2.564  1.00  0.00    -0.205 F 
ATOM     90  C   UNL     1       8.338   6.129  -2.451  1.00  0.00     0.022 A 
BRANCH  88  91
ATOM     91  S   UNL     1       7.410   4.020  -3.921  1.00  0.00     0.127 S 
ATOM     92  O   UNL     1       7.716   4.706  -5.174  1.00  0.00    -0.237 OA
ATOM     93  O   UNL     1       8.539   3.313  -3.316  1.00  0.00    -0.237 OA
ATOM     94  O   UNL     1       6.153   3.285  -3.900  1.00  0.00    -0.744 OA
ENDBRANCH  88  91
ENDBRANCH  60  84
BRANCH  72  95
ATOM     95  C   UNL     1       1.864  12.457  -1.347  1.00  0.00     0.023 A 
ATOM     96  C   UNL     1       1.661  12.558  -2.738  1.00  0.00     0.012 A 
ATOM     97  C   UNL     1       2.109  13.627  -0.600  1.00  0.00     0.148 A 
ATOM     98  C   UNL     1       1.731  13.795  -3.378  1.00  0.00     0.002 A 
ATOM     99  C   UNL     1       2.130  14.863  -1.238  1.00  0.00     0.091 A 
ATOM    100  F   UNL     1       2.319  13.512   0.719  1.00  0.00    -0.205 F 
ATOM    101  C   UNL     1       1.953  14.948  -2.628  1.00  0.00     0.022 A 
BRANCH  99 102
ATOM    102  S   UNL     1       2.316  16.409  -0.341  1.00  0.00     0.127 S 
ATOM    103  O   UNL     1       3.675  16.805  -0.707  1.00  0.00    -0.237 OA
ATOM    104  O   UNL     1       1.261  17.237  -0.927  1.00  0.00    -0.237 OA
ATOM    105  O   UNL     1       2.116  16.084   1.065  1.00  0.00    -0.744 OA
ENDBRANCH  99 102
ENDBRANCH  72  95
ENDBRANCH  46  47
ENDBRANCH  38  41
ENDBRANCH  36  37
ENDBRANCH   1  36
TORSDOF 19
