REMARK SMILES Cc1ccccc1CCNC(=O)N[C@H](C)C(=O)NCCCNC(=O)c1ccc(-c2c3nc(c(-c4cccc(S(=O)(=O)[O-])c4F)c4ccc([nH]4)c(-c4cccc(S(=O)(=O)[O-])c4F)c4nc(c(-c5cccc(S(=O)(=O)[O-])c5F)c5ccc2[nH]5)C=C4)C=C3)cc1
REMARK SMILES IDX 19 1 18 2 16 3 17 4 14 6 15 7 13 8 10 9 11 10 12 12 9 14
REMARK SMILES IDX 8 15 7 16 1 17 2 18 3 19 4 20 6 21 5 22 20 23 21 24 22 25
REMARK SMILES IDX 23 26 24 28 25 29 26 30 87 31 27 32 86 33 28 34 29 35 30 36
REMARK SMILES IDX 80 37 31 38 85 39 79 40 81 41 32 42 84 43 78 44 77 45 33 47
REMARK SMILES IDX 65 48 45 49 64 50 46 51 49 52 63 53 82 54 47 55 48 56 62 58
REMARK SMILES IDX 83 59 50 60 34 61 35 62 43 63 36 64 38 65 44 66 37 67 39 68
REMARK SMILES IDX 40 69 41 70 42 71 66 72 67 73 75 74 68 75 70 76 76 77 69 78
REMARK SMILES IDX 71 79 72 80 73 81 74 82 51 83 52 84 60 85 53 86 55 87 61 88
REMARK SMILES IDX 54 89 56 90 57 91 58 92 59 93
REMARK H PARENT 18 5 10 11 13 13 22 27 81 46 49 57
REMARK Flexibility Score: inf
ROOT
ATOM      1  C   UNL     1       2.025   8.668  -2.152  1.00  0.00     0.117 C 
ENDROOT
BRANCH   1   2
ATOM      2  N   UNL     1       2.444   7.554  -1.219  1.00  0.00    -0.354 N 
ATOM      3  C   UNL     1       2.227   6.208  -0.960  1.00  0.00     0.242 C 
ATOM      4  O   UNL     1       2.806   5.723   0.022  1.00  0.00    -0.273 OA
ATOM      5  H   UNL     1       3.096   7.906  -0.570  1.00  0.00     0.163 HD
BRANCH   3   6
ATOM      6  C   UNL     1       1.365   5.279  -1.834  1.00  0.00     0.170 C 
ATOM      7  C   UNL     1       0.296   4.346  -1.233  1.00  0.00     0.041 C 
BRANCH   6   8
ATOM      8  N   UNL     1       0.754   6.069  -2.834  1.00  0.00    -0.327 N 
ATOM      9  N   UNL     1      -0.588   7.392  -1.389  1.00  0.00    -0.338 N 
ATOM     10  C   UNL     1      -0.270   6.897  -2.616  1.00  0.00     0.315 C 
ATOM     11  H   UNL     1      -1.375   7.976  -1.488  1.00  0.00     0.165 HD
ATOM     12  O   UNL     1      -0.889   7.271  -3.615  1.00  0.00    -0.249 OA
ATOM     13  H   UNL     1       1.105   6.003  -3.751  1.00  0.00     0.166 HD
BRANCH   9  14
ATOM     14  C   UNL     1      -0.187   7.383   0.087  1.00  0.00     0.122 C 
BRANCH  14  15
ATOM     15  C   UNL     1       0.914   8.341   0.845  1.00  0.00     0.057 C 
BRANCH  15  16
ATOM     16  C   UNL     1       0.810   9.867   0.696  1.00  0.00    -0.043 A 
ATOM     17  C   UNL     1      -1.221   9.746   2.634  1.00  0.00     0.044 C 
ATOM     18  C   UNL     1      -0.830  10.316   1.277  1.00  0.00    -0.048 A 
ATOM     19  C   UNL     1      -1.748  11.607   0.466  1.00  0.00     0.004 A 
ATOM     20  C   UNL     1      -1.020  12.580  -0.879  1.00  0.00     0.000 A 
ATOM     21  C   UNL     1       1.673  10.937  -0.531  1.00  0.00     0.004 A 
ATOM     22  C   UNL     1       0.724  12.281  -1.367  1.00  0.00     0.000 A 
ENDBRANCH  15  16
ENDBRANCH  14  15
ENDBRANCH   9  14
ENDBRANCH   6   8
ENDBRANCH   3   6
ENDBRANCH   1   2
BRANCH   1  23
ATOM     23  C   UNL     1       0.695   9.688  -2.181  1.00  0.00     0.042 C 
BRANCH  23  24
ATOM     24  C   UNL     1      -0.333  10.553  -0.909  1.00  0.00     0.118 C 
BRANCH  24  25
ATOM     25  N   UNL     1       0.291  11.910   0.532  1.00  0.00    -0.352 N 
ATOM     26  C   UNL     1       0.299  13.308   1.035  1.00  0.00     0.251 C 
ATOM     27  H   UNL     1       0.825  11.391   1.175  1.00  0.00     0.163 HD
ATOM     28  O   UNL     1       0.065  14.361   0.450  1.00  0.00    -0.269 OA
BRANCH  26  29
ATOM     29  C   UNL     1       0.578  13.376   2.486  1.00  0.00     0.039 A 
ATOM     30  C   UNL     1       0.565  14.542   3.257  1.00  0.00     0.014 A 
ATOM     31  C   UNL     1       0.809  12.164   3.106  1.00  0.00     0.014 A 
ATOM     32  C   UNL     1       1.102  14.463   4.537  1.00  0.00     0.010 A 
ATOM     33  C   UNL     1       0.835  12.069   4.424  1.00  0.00     0.010 A 
ATOM     34  C   UNL     1       1.368  13.192   5.004  1.00  0.00    -0.014 A 
BRANCH  34  35
ATOM     35  C   UNL     1       2.187  12.728   6.086  1.00  0.00     0.031 A 
ATOM     36  C   UNL     1       1.412  12.626   7.326  1.00  0.00     0.074 A 
ATOM     37  C   UNL     1       3.182  11.913   5.619  1.00  0.00     0.049 A 
ATOM     38  N   UNL     1       1.906  12.655   8.509  1.00  0.00    -0.248 NA
ATOM     39  C   UNL     1      -0.075  12.610   7.321  1.00  0.00     0.031 C 
ATOM     40  C   UNL     1       3.606  10.602   6.101  1.00  0.00     0.029 A 
ATOM     41  N   UNL     1       3.889  11.999   4.408  1.00  0.00    -0.354 N 
ATOM     42  C   UNL     1       0.888  12.118   9.265  1.00  0.00     0.074 A 
ATOM     43  C   UNL     1      -0.327  12.534   8.628  1.00  0.00     0.031 C 
ATOM     44  C   UNL     1       4.688  10.198   5.400  1.00  0.00     0.029 A 
ATOM     45  C   UNL     1       5.080  11.281   4.509  1.00  0.00     0.049 A 
ATOM     46  H   UNL     1       3.588  12.491   3.610  1.00  0.00     0.167 HD
ATOM     47  C   UNL     1       1.131  10.972   9.964  1.00  0.00     0.034 A 
ATOM     48  C   UNL     1       6.285  11.931   4.560  1.00  0.00     0.034 A 
ATOM     49  C   UNL     1       2.541  10.536   9.812  1.00  0.00     0.049 A 
ATOM     50  C   UNL     1       6.726  12.111   6.013  1.00  0.00     0.074 A 
ATOM     51  C   UNL     1       3.162   9.389   9.350  1.00  0.00     0.029 A 
ATOM     52  N   UNL     1       3.556  11.489   9.905  1.00  0.00    -0.354 N 
ATOM     53  N   UNL     1       6.126  11.561   7.037  1.00  0.00    -0.248 NA
ATOM     54  C   UNL     1       7.874  12.908   6.433  1.00  0.00     0.031 C 
ATOM     55  C   UNL     1       4.539   9.705   9.086  1.00  0.00     0.029 A 
ATOM     56  C   UNL     1       4.768  11.032   9.415  1.00  0.00     0.049 A 
ATOM     57  H   UNL     1       3.425  12.390  10.280  1.00  0.00     0.167 HD
ATOM     58  C   UNL     1       6.594  12.090   8.207  1.00  0.00     0.074 A 
ATOM     59  C   UNL     1       7.779  12.819   7.773  1.00  0.00     0.031 C 
ATOM     60  C   UNL     1       5.925  11.945   9.401  1.00  0.00     0.034 A 
BRANCH  47  61
ATOM     61  C   UNL     1       0.066  10.164  10.684  1.00  0.00     0.023 A 
ATOM     62  C   UNL     1       0.542   9.328  11.712  1.00  0.00     0.012 A 
ATOM     63  C   UNL     1      -1.345  10.186  10.501  1.00  0.00     0.148 A 
ATOM     64  C   UNL     1      -0.318   8.608  12.547  1.00  0.00     0.002 A 
ATOM     65  C   UNL     1      -2.207   9.542  11.393  1.00  0.00     0.091 A 
ATOM     66  F   UNL     1      -1.881  10.736   9.408  1.00  0.00    -0.205 F 
ATOM     67  C   UNL     1      -1.693   8.745  12.415  1.00  0.00     0.022 A 
BRANCH  65  68
ATOM     68  S   UNL     1      -4.002   9.741  11.333  1.00  0.00     0.127 S 
ATOM     69  O   UNL     1      -4.448   8.405  10.940  1.00  0.00    -0.237 OA
ATOM     70  O   UNL     1      -4.324  10.107  12.713  1.00  0.00    -0.237 OA
ATOM     71  O   UNL     1      -4.264  10.793  10.357  1.00  0.00    -0.744 OA
ENDBRANCH  65  68
ENDBRANCH  47  61
BRANCH  48  72
ATOM     72  C   UNL     1       6.418  12.934   3.450  1.00  0.00     0.023 A 
ATOM     73  C   UNL     1       6.492  12.401   2.135  1.00  0.00     0.012 A 
ATOM     74  C   UNL     1       5.949  14.246   3.621  1.00  0.00     0.148 A 
ATOM     75  C   UNL     1       5.929  13.078   1.050  1.00  0.00     0.002 A 
ATOM     76  C   UNL     1       5.331  14.883   2.548  1.00  0.00     0.091 A 
ATOM     77  F   UNL     1       5.971  14.777   4.850  1.00  0.00    -0.205 F 
ATOM     78  C   UNL     1       5.298  14.293   1.271  1.00  0.00     0.022 A 
BRANCH  76  79
ATOM     79  S   UNL     1       4.229  16.282   2.781  1.00  0.00     0.127 S 
ATOM     80  O   UNL     1       4.774  17.267   1.852  1.00  0.00    -0.237 OA
ATOM     81  O   UNL     1       2.969  15.685   2.361  1.00  0.00    -0.237 OA
ATOM     82  O   UNL     1       4.318  16.629   4.191  1.00  0.00    -0.744 OA
ENDBRANCH  76  79
ENDBRANCH  48  72
BRANCH  60  83
ATOM     83  C   UNL     1       6.274  12.693  10.692  1.00  0.00     0.023 A 
ATOM     84  C   UNL     1       7.139  13.801  10.724  1.00  0.00     0.012 A 
ATOM     85  C   UNL     1       5.656  12.358  11.930  1.00  0.00     0.148 A 
ATOM     86  C   UNL     1       7.465  14.465  11.913  1.00  0.00     0.002 A 
ATOM     87  C   UNL     1       5.861  13.118  13.077  1.00  0.00     0.091 A 
ATOM     88  F   UNL     1       4.888  11.264  12.031  1.00  0.00    -0.205 F 
ATOM     89  C   UNL     1       6.808  14.139  13.087  1.00  0.00     0.022 A 
BRANCH  87  90
ATOM     90  S   UNL     1       4.831  12.915  14.537  1.00  0.00     0.127 S 
ATOM     91  O   UNL     1       5.694  12.114  15.402  1.00  0.00    -0.237 OA
ATOM     92  O   UNL     1       4.642  14.299  14.976  1.00  0.00    -0.237 OA
ATOM     93  O   UNL     1       3.614  12.266  14.068  1.00  0.00    -0.744 OA
ENDBRANCH  87  90
ENDBRANCH  60  83
ENDBRANCH  34  35
ENDBRANCH  26  29
ENDBRANCH  24  25
ENDBRANCH  23  24
ENDBRANCH   1  23
TORSDOF 17
