REMARK SMILES C[N@@H+](CC(=O)NCCCNC(=O)c1ccc(-c2c3nc(c(-c4cccc(S(=O)(=O)[O-])c4F)c4ccc([nH]4)c(-c4cccc(S(=O)(=O)[O-])c4F)c4nc(c(-c5cccc(S(=O)(=O)[O-])c5F)c5ccc2[nH]5)C=C4)C=C3)cc1)Cc1noc(-c2ccccc2Cl)n1
REMARK SMILES IDX 7 1 6 2 4 3 5 4 3 6 2 7 1 8 76 10 77 11 78 12 88 13 79 14
REMARK SMILES IDX 80 15 81 16 82 17 86 18 83 19 85 20 87 21 84 22 8 23 9 24
REMARK SMILES IDX 10 25 11 26 12 28 13 29 14 30 75 31 15 32 74 33 16 34 17 35
REMARK SMILES IDX 18 36 68 37 19 38 73 39 67 40 69 41 20 42 72 43 66 44 65 45
REMARK SMILES IDX 21 47 53 48 33 49 52 50 34 51 37 52 51 53 70 54 35 55 36 56
REMARK SMILES IDX 50 58 71 59 38 60 22 61 23 62 31 63 24 64 26 65 32 66 25 67
REMARK SMILES IDX 27 68 28 69 29 70 30 71 54 72 55 73 63 74 56 75 58 76 64 77
REMARK SMILES IDX 57 78 59 79 60 80 61 81 62 82 39 83 40 84 48 85 41 86 43 87
REMARK SMILES IDX 49 88 42 89 44 90 45 91 46 92 47 93
REMARK H PARENT 6 5 2 9 10 27 69 46 37 57
REMARK Flexibility Score: inf
ROOT
ATOM      1  C   UNL     1      -0.544  -1.783  -0.133  1.00  0.00     0.118 C 
ENDROOT
BRANCH   1   2
ATOM      2  N   UNL     1      -1.301  -1.040   0.852  1.00  0.00    -0.351 N 
ATOM      3  C   UNL     1      -1.460   0.300   1.023  1.00  0.00     0.275 C 
ATOM      4  O   UNL     1      -2.265   0.659   1.888  1.00  0.00    -0.269 OA
ATOM      5  H   UNL     1      -1.780  -1.596   1.508  1.00  0.00     0.163 HD
BRANCH   3   6
ATOM      6  C   UNL     1      -0.752   1.325   0.138  1.00  0.00     0.363 C 
BRANCH   6   7
ATOM      7  N   UNL     1       0.642   1.626   0.456  1.00  0.00    -0.323 N 
ATOM      8  C   UNL     1       1.685   0.938  -0.263  1.00  0.00     0.333 C 
ATOM      9  H   UNL     1       0.608   2.516  -0.042  1.00  0.00     0.348 HD
BRANCH   7  10
ATOM     10  C   UNL     1       0.998   2.125   1.787  1.00  0.00     0.345 C 
BRANCH  10  11
ATOM     11  C   UNL     1       0.694   1.227   2.944  1.00  0.00     0.226 A 
ATOM     12  N   UNL     1       1.184  -0.014   3.090  1.00  0.00    -0.056 NA
ATOM     13  N   UNL     1      -0.100   1.655   3.982  1.00  0.00    -0.186 NA
ATOM     14  O   UNL     1       0.614  -0.440   4.296  1.00  0.00    -0.334 OA
ATOM     15  C   UNL     1      -0.148   0.599   4.760  1.00  0.00     0.259 A 
BRANCH  15  16
ATOM     16  C   UNL     1      -0.836   0.394   6.026  1.00  0.00     0.058 A 
ATOM     17  C   UNL     1      -0.160  -0.245   7.083  1.00  0.00     0.015 A 
ATOM     18  C   UNL     1      -2.146   0.847   6.256  1.00  0.00     0.053 A 
ATOM     19  C   UNL     1      -0.766  -0.414   8.332  1.00  0.00     0.001 A 
ATOM     20  C   UNL     1      -2.754   0.666   7.506  1.00  0.00     0.021 A 
ATOM     21  Cl  UNL     1      -3.105   1.621   5.043  1.00  0.00    -0.083 Cl
ATOM     22  C   UNL     1      -2.063   0.042   8.543  1.00  0.00     0.002 A 
ENDBRANCH  15  16
ENDBRANCH  10  11
ENDBRANCH   7  10
ENDBRANCH   6   7
ENDBRANCH   3   6
ENDBRANCH   1   2
BRANCH   1  23
ATOM     23  C   UNL     1       0.690  -2.462   0.451  1.00  0.00     0.042 C 
BRANCH  23  24
ATOM     24  C   UNL     1       0.413  -3.456   1.572  1.00  0.00     0.118 C 
BRANCH  24  25
ATOM     25  N   UNL     1      -0.190  -4.688   1.090  1.00  0.00    -0.352 N 
ATOM     26  C   UNL     1       0.329  -5.958   1.014  1.00  0.00     0.251 C 
ATOM     27  H   UNL     1      -1.116  -4.598   0.767  1.00  0.00     0.163 HD
ATOM     28  O   UNL     1      -0.286  -6.815   0.381  1.00  0.00    -0.269 OA
BRANCH  26  29
ATOM     29  C   UNL     1       1.615  -6.308   1.665  1.00  0.00     0.039 A 
ATOM     30  C   UNL     1       2.488  -7.178   1.002  1.00  0.00     0.014 A 
ATOM     31  C   UNL     1       1.947  -5.840   2.938  1.00  0.00     0.014 A 
ATOM     32  C   UNL     1       3.705  -7.536   1.593  1.00  0.00     0.010 A 
ATOM     33  C   UNL     1       3.196  -6.128   3.488  1.00  0.00     0.010 A 
ATOM     34  C   UNL     1       4.082  -6.995   2.832  1.00  0.00    -0.014 A 
BRANCH  34  35
ATOM     35  C   UNL     1       5.389  -7.334   3.457  1.00  0.00     0.031 A 
ATOM     36  C   UNL     1       5.443  -8.041   4.786  1.00  0.00     0.074 A 
ATOM     37  C   UNL     1       6.535  -6.931   2.872  1.00  0.00     0.049 A 
ATOM     38  N   UNL     1       6.487  -8.384   5.497  1.00  0.00    -0.248 NA
ATOM     39  C   UNL     1       4.155  -8.379   5.415  1.00  0.00     0.031 C 
ATOM     40  C   UNL     1       6.622  -6.155   1.633  1.00  0.00     0.029 A 
ATOM     41  N   UNL     1       7.843  -7.090   3.257  1.00  0.00    -0.354 N 
ATOM     42  C   UNL     1       5.985  -8.936   6.671  1.00  0.00     0.074 A 
ATOM     43  C   UNL     1       4.543  -8.852   6.590  1.00  0.00     0.031 C 
ATOM     44  C   UNL     1       7.912  -5.906   1.361  1.00  0.00     0.029 A 
ATOM     45  C   UNL     1       8.744  -6.482   2.414  1.00  0.00     0.049 A 
ATOM     46  H   UNL     1       8.111  -7.593   4.060  1.00  0.00     0.167 HD
ATOM     47  C   UNL     1       6.657  -9.489   7.708  1.00  0.00     0.034 A 
ATOM     48  C   UNL     1      10.087  -6.392   2.481  1.00  0.00     0.034 A 
ATOM     49  C   UNL     1       8.088  -9.623   7.762  1.00  0.00     0.049 A 
ATOM     50  C   UNL     1      10.816  -7.077   3.604  1.00  0.00     0.074 A 
ATOM     51  C   UNL     1       8.857 -10.276   8.710  1.00  0.00     0.029 A 
ATOM     52  N   UNL     1       8.969  -9.087   6.836  1.00  0.00    -0.354 N 
ATOM     53  N   UNL     1      10.325  -7.759   4.610  1.00  0.00    -0.248 NA
ATOM     54  C   UNL     1      12.285  -7.016   3.580  1.00  0.00     0.031 C 
ATOM     55  C   UNL     1      10.204 -10.114   8.369  1.00  0.00     0.029 A 
ATOM     56  C   UNL     1      10.274  -9.380   7.196  1.00  0.00     0.049 A 
ATOM     57  H   UNL     1       8.705  -8.573   6.039  1.00  0.00     0.167 HD
ATOM     58  C   UNL     1      11.421  -8.231   5.324  1.00  0.00     0.074 A 
ATOM     59  C   UNL     1      12.603  -7.777   4.620  1.00  0.00     0.031 C 
ATOM     60  C   UNL     1      11.444  -8.961   6.466  1.00  0.00     0.034 A 
BRANCH  47  61
ATOM     61  C   UNL     1       5.844 -10.042   8.851  1.00  0.00     0.023 A 
ATOM     62  C   UNL     1       5.084 -11.216   8.662  1.00  0.00     0.012 A 
ATOM     63  C   UNL     1       5.859  -9.429  10.118  1.00  0.00     0.148 A 
ATOM     64  C   UNL     1       4.319 -11.744   9.700  1.00  0.00     0.002 A 
ATOM     65  C   UNL     1       5.128  -9.987  11.162  1.00  0.00     0.091 A 
ATOM     66  F   UNL     1       6.566  -8.301  10.277  1.00  0.00    -0.205 F 
ATOM     67  C   UNL     1       4.348 -11.136  10.952  1.00  0.00     0.022 A 
BRANCH  65  68
ATOM     68  S   UNL     1       5.167  -9.317  12.829  1.00  0.00     0.127 S 
ATOM     69  O   UNL     1       3.881  -8.625  12.899  1.00  0.00    -0.237 OA
ATOM     70  O   UNL     1       5.252 -10.527  13.649  1.00  0.00    -0.237 OA
ATOM     71  O   UNL     1       6.347  -8.466  12.887  1.00  0.00    -0.744 OA
ENDBRANCH  65  68
ENDBRANCH  47  61
BRANCH  48  72
ATOM     72  C   UNL     1      10.827  -5.681   1.400  1.00  0.00     0.023 A 
ATOM     73  C   UNL     1      11.571  -6.426   0.466  1.00  0.00     0.012 A 
ATOM     74  C   UNL     1      10.741  -4.282   1.254  1.00  0.00     0.148 A 
ATOM     75  C   UNL     1      12.234  -5.790  -0.584  1.00  0.00     0.002 A 
ATOM     76  C   UNL     1      11.358  -3.661   0.174  1.00  0.00     0.091 A 
ATOM     77  F   UNL     1      10.035  -3.592   2.160  1.00  0.00    -0.205 F 
ATOM     78  C   UNL     1      12.118  -4.411  -0.737  1.00  0.00     0.022 A 
BRANCH  76  79
ATOM     79  S   UNL     1      11.148  -1.913  -0.182  1.00  0.00     0.127 S 
ATOM     80  O   UNL     1      12.491  -1.393   0.069  1.00  0.00    -0.237 OA
ATOM     81  O   UNL     1      10.752  -1.940  -1.592  1.00  0.00    -0.237 OA
ATOM     82  O   UNL     1      10.111  -1.446   0.724  1.00  0.00    -0.744 OA
ENDBRANCH  76  79
ENDBRANCH  48  72
BRANCH  60  83
ATOM     83  C   UNL     1      12.790  -9.338   7.029  1.00  0.00     0.023 A 
ATOM     84  C   UNL     1      13.588  -8.355   7.648  1.00  0.00     0.012 A 
ATOM     85  C   UNL     1      13.232 -10.676   7.013  1.00  0.00     0.148 A 
ATOM     86  C   UNL     1      14.816  -8.691   8.216  1.00  0.00     0.002 A 
ATOM     87  C   UNL     1      14.435 -11.012   7.623  1.00  0.00     0.091 A 
ATOM     88  F   UNL     1      12.470 -11.594   6.402  1.00  0.00    -0.205 F 
ATOM     89  C   UNL     1      15.234 -10.020   8.214  1.00  0.00     0.022 A 
BRANCH  87  90
ATOM     90  S   UNL     1      15.005 -12.712   7.751  1.00  0.00     0.127 S 
ATOM     91  O   UNL     1      16.072 -12.745   6.752  1.00  0.00    -0.237 OA
ATOM     92  O   UNL     1      15.465 -12.783   9.138  1.00  0.00    -0.237 OA
ATOM     93  O   UNL     1      13.846 -13.544   7.458  1.00  0.00    -0.744 OA
ENDBRANCH  87  90
ENDBRANCH  60  83
ENDBRANCH  34  35
ENDBRANCH  26  29
ENDBRANCH  24  25
ENDBRANCH  23  24
ENDBRANCH   1  23
TORSDOF 17
