REMARK SMILES CCOc1cc(OCC)cc(-c2ccc([C@@H](C)C(=O)NCCCNC(=O)c3ccc(-c4c5nc(c(-c6cccc(S(=O)(=O)[O-])c6F)c6ccc([nH]6)c(-c6cccc(S(=O)(=O)[O-])c6F)c6nc(c(-c7cccc(S(=O)(=O)[O-])c7F)c7ccc4[nH]7)C=C6)C=C5)cc3)cc2F)c1
REMARK SMILES IDX 21 1 20 2 18 3 19 4 16 6 17 7 15 8 12 9 13 10 91 11 14 12
REMARK SMILES IDX 90 13 92 14 11 15 4 16 5 17 93 18 6 19 10 20 3 21 2 22 1 23
REMARK SMILES IDX 7 24 8 25 9 26 22 27 23 28 24 29 25 30 26 32 27 33 28 34
REMARK SMILES IDX 89 35 29 36 88 37 30 38 31 39 32 40 82 41 33 42 87 43 81 44
REMARK SMILES IDX 83 45 34 46 86 47 80 48 79 49 35 51 67 52 47 53 66 54 48 55
REMARK SMILES IDX 51 56 65 57 84 58 49 59 50 60 64 62 85 63 52 64 36 65 37 66
REMARK SMILES IDX 45 67 38 68 40 69 46 70 39 71 41 72 42 73 43 74 44 75 68 76
REMARK SMILES IDX 69 77 77 78 70 79 72 80 78 81 71 82 73 83 74 84 75 85 76 86
REMARK SMILES IDX 53 87 54 88 62 89 55 90 57 91 63 92 56 93 58 94 59 95 60 96
REMARK SMILES IDX 61 97
REMARK H PARENT 20 5 24 31 83 50 51 61
REMARK Flexibility Score: inf
ROOT
ATOM      1  C   UNL     1       9.659  -1.515   1.550  1.00  0.00     0.117 C 
ENDROOT
BRANCH   1   2
ATOM      2  N   UNL     1       8.918  -2.716   1.881  1.00  0.00    -0.356 N 
ATOM      3  C   UNL     1       8.267  -3.636   1.118  1.00  0.00     0.227 C 
ATOM      4  O   UNL     1       7.714  -4.558   1.733  1.00  0.00    -0.274 OA
ATOM      5  H   UNL     1       8.877  -2.903   2.847  1.00  0.00     0.163 HD
BRANCH   3   6
ATOM      6  C   UNL     1       8.195  -3.599  -0.416  1.00  0.00     0.105 C 
ATOM      7  C   UNL     1       9.549  -3.659  -1.123  1.00  0.00     0.023 C 
BRANCH   6   8
ATOM      8  C   UNL     1       7.239  -2.550  -0.951  1.00  0.00    -0.033 A 
ATOM      9  C   UNL     1       5.360  -0.576  -1.806  1.00  0.00     0.018 A 
ATOM     10  C   UNL     1       6.700  -0.256  -1.525  1.00  0.00     0.012 A 
ATOM     11  C   UNL     1       4.993  -1.919  -1.661  1.00  0.00     0.131 A 
ATOM     12  C   UNL     1       7.628  -1.228  -1.156  1.00  0.00     0.005 A 
ATOM     13  C   UNL     1       5.904  -2.885  -1.222  1.00  0.00     0.044 A 
ATOM     14  F   UNL     1       3.747  -2.325  -1.948  1.00  0.00    -0.206 F 
BRANCH   9  15
ATOM     15  C   UNL     1       4.430   0.495  -2.215  1.00  0.00    -0.008 A 
ATOM     16  C   UNL     1       2.274   1.614  -2.119  1.00  0.00     0.123 A 
ATOM     17  C   UNL     1       2.780   2.695  -2.841  1.00  0.00     0.092 A 
ATOM     18  C   UNL     1       3.088   0.520  -1.820  1.00  0.00     0.055 A 
ATOM     19  C   UNL     1       4.099   2.673  -3.293  1.00  0.00     0.123 A 
ATOM     20  C   UNL     1       4.897   1.570  -2.993  1.00  0.00     0.055 A 
BRANCH  16  21
ATOM     21  O   UNL     1       0.937   1.584  -1.826  1.00  0.00    -0.494 OA
BRANCH  21  22
ATOM     22  C   UNL     1       0.652   1.722  -0.428  1.00  0.00     0.226 C 
ATOM     23  C   UNL     1       0.553   0.366   0.259  1.00  0.00     0.049 C 
ENDBRANCH  21  22
ENDBRANCH  16  21
BRANCH  19  24
ATOM     24  O   UNL     1       4.515   3.767  -3.998  1.00  0.00    -0.494 OA
BRANCH  24  25
ATOM     25  C   UNL     1       5.807   3.756  -4.604  1.00  0.00     0.226 C 
ATOM     26  C   UNL     1       6.916   4.144  -3.635  1.00  0.00     0.049 C 
ENDBRANCH  24  25
ENDBRANCH  19  24
ENDBRANCH   9  15
ENDBRANCH   6   8
ENDBRANCH   3   6
ENDBRANCH   1   2
BRANCH   1  27
ATOM     27  C   UNL     1       8.849  -0.239   1.774  1.00  0.00     0.042 C 
BRANCH  27  28
ATOM     28  C   UNL     1       8.834   0.244   3.219  1.00  0.00     0.118 C 
BRANCH  28  29
ATOM     29  N   UNL     1      10.146   0.699   3.662  1.00  0.00    -0.352 N 
ATOM     30  C   UNL     1      10.571   1.933   4.088  1.00  0.00     0.251 C 
ATOM     31  H   UNL     1      10.845   0.005   3.655  1.00  0.00     0.163 HD
ATOM     32  O   UNL     1      11.778   2.133   4.203  1.00  0.00    -0.269 OA
BRANCH  30  33
ATOM     33  C   UNL     1       9.611   3.018   4.401  1.00  0.00     0.039 A 
ATOM     34  C   UNL     1       9.970   4.338   4.107  1.00  0.00     0.014 A 
ATOM     35  C   UNL     1       8.392   2.760   5.033  1.00  0.00     0.014 A 
ATOM     36  C   UNL     1       9.090   5.384   4.398  1.00  0.00     0.010 A 
ATOM     37  C   UNL     1       7.481   3.793   5.244  1.00  0.00     0.010 A 
ATOM     38  C   UNL     1       7.824   5.118   4.943  1.00  0.00    -0.014 A 
BRANCH  38  39
ATOM     39  C   UNL     1       6.849   6.210   5.199  1.00  0.00     0.031 A 
ATOM     40  C   UNL     1       6.368   6.496   6.597  1.00  0.00     0.074 A 
ATOM     41  C   UNL     1       6.333   6.895   4.158  1.00  0.00     0.049 A 
ATOM     42  N   UNL     1       5.495   7.381   7.004  1.00  0.00    -0.248 NA
ATOM     43  C   UNL     1       6.919   5.661   7.677  1.00  0.00     0.031 C 
ATOM     44  C   UNL     1       6.654   6.658   2.749  1.00  0.00     0.029 A 
ATOM     45  N   UNL     1       5.412   7.911   4.121  1.00  0.00    -0.354 N 
ATOM     46  C   UNL     1       5.360   7.183   8.374  1.00  0.00     0.074 A 
ATOM     47  C   UNL     1       6.218   6.072   8.724  1.00  0.00     0.031 C 
ATOM     48  C   UNL     1       5.952   7.512   1.988  1.00  0.00     0.029 A 
ATOM     49  C   UNL     1       5.108   8.335   2.848  1.00  0.00     0.049 A 
ATOM     50  H   UNL     1       5.006   8.301   4.930  1.00  0.00     0.167 HD
ATOM     51  C   UNL     1       4.614   7.879   9.264  1.00  0.00     0.034 A 
ATOM     52  C   UNL     1       4.244   9.276   2.421  1.00  0.00     0.034 A 
ATOM     53  C   UNL     1       3.798   9.012   8.919  1.00  0.00     0.049 A 
ATOM     54  C   UNL     1       3.460  10.063   3.434  1.00  0.00     0.074 A 
ATOM     55  C   UNL     1       3.086   9.848   9.761  1.00  0.00     0.029 A 
ATOM     56  N   UNL     1       3.576   9.463   7.627  1.00  0.00    -0.354 N 
ATOM     57  N   UNL     1       3.477   9.973   4.742  1.00  0.00    -0.248 NA
ATOM     58  C   UNL     1       2.564  11.107   2.915  1.00  0.00     0.031 C 
ATOM     59  C   UNL     1       2.410  10.788   8.974  1.00  0.00     0.029 A 
ATOM     60  C   UNL     1       2.726  10.556   7.645  1.00  0.00     0.049 A 
ATOM     61  H   UNL     1       3.966   9.065   6.815  1.00  0.00     0.167 HD
ATOM     62  C   UNL     1       2.623  10.968   5.203  1.00  0.00     0.074 A 
ATOM     63  C   UNL     1       2.123  11.663   4.035  1.00  0.00     0.031 C 
ATOM     64  C   UNL     1       2.273  11.269   6.478  1.00  0.00     0.034 A 
BRANCH  51  65
ATOM     65  C   UNL     1       4.682   7.464  10.713  1.00  0.00     0.023 A 
ATOM     66  C   UNL     1       5.861   7.698  11.451  1.00  0.00     0.012 A 
ATOM     67  C   UNL     1       3.568   6.892  11.358  1.00  0.00     0.148 A 
ATOM     68  C   UNL     1       5.944   7.334  12.794  1.00  0.00     0.002 A 
ATOM     69  C   UNL     1       3.642   6.575  12.710  1.00  0.00     0.091 A 
ATOM     70  F   UNL     1       2.462   6.657  10.637  1.00  0.00    -0.205 F 
ATOM     71  C   UNL     1       4.833   6.783  13.425  1.00  0.00     0.022 A 
BRANCH  69  72
ATOM     72  S   UNL     1       2.240   5.935  13.633  1.00  0.00     0.127 S 
ATOM     73  O   UNL     1       2.635   4.543  13.840  1.00  0.00    -0.237 OA
ATOM     74  O   UNL     1       2.264   6.761  14.841  1.00  0.00    -0.237 OA
ATOM     75  O   UNL     1       1.075   6.136  12.783  1.00  0.00    -0.744 OA
ENDBRANCH  69  72
ENDBRANCH  51  65
BRANCH  52  76
ATOM     76  C   UNL     1       4.132   9.575   0.965  1.00  0.00     0.023 A 
ATOM     77  C   UNL     1       4.633  10.795   0.471  1.00  0.00     0.012 A 
ATOM     78  C   UNL     1       3.569   8.648   0.067  1.00  0.00     0.148 A 
ATOM     79  C   UNL     1       4.548  11.101  -0.888  1.00  0.00     0.002 A 
ATOM     80  C   UNL     1       3.538   8.935  -1.292  1.00  0.00     0.091 A 
ATOM     81  F   UNL     1       3.093   7.497   0.561  1.00  0.00    -0.205 F 
ATOM     82  C   UNL     1       4.011  10.168  -1.770  1.00  0.00     0.022 A 
BRANCH  80  83
ATOM     83  S   UNL     1       2.990   7.745  -2.521  1.00  0.00     0.127 S 
ATOM     84  O   UNL     1       1.783   8.387  -3.037  1.00  0.00    -0.237 OA
ATOM     85  O   UNL     1       4.125   7.731  -3.443  1.00  0.00    -0.237 OA
ATOM     86  O   UNL     1       2.778   6.502  -1.792  1.00  0.00    -0.744 OA
ENDBRANCH  80  83
ENDBRANCH  52  76
BRANCH  64  87
ATOM     87  C   UNL     1       1.326  12.422   6.688  1.00  0.00     0.023 A 
ATOM     88  C   UNL     1      -0.032  12.287   6.339  1.00  0.00     0.012 A 
ATOM     89  C   UNL     1       1.770  13.615   7.292  1.00  0.00     0.148 A 
ATOM     90  C   UNL     1      -0.928  13.334   6.558  1.00  0.00     0.002 A 
ATOM     91  C   UNL     1       0.862  14.634   7.554  1.00  0.00     0.091 A 
ATOM     92  F   UNL     1       3.070  13.732   7.599  1.00  0.00    -0.205 F 
ATOM     93  C   UNL     1      -0.484  14.501   7.175  1.00  0.00     0.022 A 
BRANCH  91  94
ATOM     94  S   UNL     1       1.323  16.131   8.433  1.00  0.00     0.127 S 
ATOM     95  O   UNL     1       1.309  17.124   7.359  1.00  0.00    -0.237 OA
ATOM     96  O   UNL     1       0.237  16.268   9.404  1.00  0.00    -0.237 OA
ATOM     97  O   UNL     1       2.628  15.865   9.021  1.00  0.00    -0.744 OA
ENDBRANCH  91  94
ENDBRANCH  64  87
ENDBRANCH  38  39
ENDBRANCH  30  33
ENDBRANCH  28  29
ENDBRANCH  27  28
ENDBRANCH   1  27
TORSDOF 19
