REMARK SMILES CCCc1nnc(SCC(=O)NCCCNC(=O)c2ccc(-c3c4nc(c(-c5cccc(S(=O)(=O)[O-])c5F)c5ccc([nH]5)c(-c5cccc(S(=O)(=O)[O-])c5F)c5nc(c(-c6cccc(S(=O)(=O)[O-])c6F)c6ccc3[nH]6)C=C5)C=C4)cc2)n1C[C@H]1CCCO1
REMARK SMILES IDX 13 1 12 2 10 3 11 4 9 6 8 7 7 8 4 9 5 10 82 11 6 12 3 13
REMARK SMILES IDX 2 14 1 15 83 16 84 17 85 18 88 19 86 20 87 21 14 22 15 23
REMARK SMILES IDX 16 24 17 25 18 27 19 28 20 29 81 30 21 31 80 32 22 33 23 34
REMARK SMILES IDX 24 35 74 36 25 37 79 38 73 39 75 40 26 41 78 42 72 43 71 44
REMARK SMILES IDX 27 46 59 47 39 48 58 49 40 50 43 51 57 52 76 53 41 54 42 55
REMARK SMILES IDX 56 57 77 58 44 59 28 60 29 61 37 62 30 63 32 64 38 65 31 66
REMARK SMILES IDX 33 67 34 68 35 69 36 70 60 71 61 72 69 73 62 74 64 75 70 76
REMARK SMILES IDX 63 77 65 78 66 79 67 80 68 81 45 82 46 83 54 84 47 85 49 86
REMARK SMILES IDX 55 87 48 88 50 89 51 90 52 91 53 92
REMARK H PARENT 12 5 16 26 75 45 43 56
REMARK Flexibility Score: inf
ROOT
ATOM      1  C   UNL     1       1.636   7.590  -9.705  1.00  0.00     0.117 C 
ENDROOT
BRANCH   1   2
ATOM      2  N   UNL     1       2.104   7.327  -8.360  1.00  0.00    -0.355 N 
ATOM      3  C   UNL     1       1.871   6.243  -7.578  1.00  0.00     0.230 C 
ATOM      4  O   UNL     1       2.550   6.116  -6.557  1.00  0.00    -0.274 OA
ATOM      5  H   UNL     1       2.667   8.028  -7.960  1.00  0.00     0.163 HD
BRANCH   3   6
ATOM      6  C   UNL     1       0.918   5.162  -8.022  1.00  0.00     0.178 C 
BRANCH   6   7
ATOM      7  S   UNL     1      -0.784   5.642  -8.194  1.00  0.00    -0.076 SA
BRANCH   7   8
ATOM      8  C   UNL     1      -1.665   5.545  -6.711  1.00  0.00     0.191 A 
ATOM      9  C   UNL     1      -2.428   5.490  -4.654  1.00  0.00     0.133 A 
ATOM     10  N   UNL     1      -3.433   5.752  -5.464  1.00  0.00    -0.134 NA
ATOM     11  N   UNL     1      -1.304   5.210  -5.425  1.00  0.00    -0.303 N 
ATOM     12  N   UNL     1      -2.955   5.803  -6.737  1.00  0.00    -0.123 NA
BRANCH   9  13
ATOM     13  C   UNL     1      -2.531   5.472  -3.159  1.00  0.00     0.077 C 
BRANCH  13  14
ATOM     14  C   UNL     1      -2.881   6.838  -2.555  1.00  0.00     0.005 C 
ATOM     15  C   UNL     1      -4.329   7.263  -2.776  1.00  0.00     0.004 C 
ENDBRANCH  13  14
ENDBRANCH   9  13
BRANCH  11  16
ATOM     16  C   UNL     1      -0.046   4.723  -4.917  1.00  0.00     0.158 C 
BRANCH  16  17
ATOM     17  C   UNL     1       0.153   3.189  -4.877  1.00  0.00     0.138 C 
ATOM     18  C   UNL     1      -0.137   2.355  -6.122  1.00  0.00     0.036 C 
ATOM     19  O   UNL     1       1.523   2.903  -4.533  1.00  0.00    -0.376 OA
ATOM     20  C   UNL     1       1.204   1.927  -6.682  1.00  0.00     0.031 C 
ATOM     21  C   UNL     1       2.222   2.379  -5.662  1.00  0.00     0.160 C 
ENDBRANCH  16  17
ENDBRANCH  11  16
ENDBRANCH   7   8
ENDBRANCH   6   7
ENDBRANCH   3   6
ENDBRANCH   1   2
BRANCH   1  22
ATOM     22  C   UNL     1       0.497   8.605  -9.771  1.00  0.00     0.042 C 
BRANCH  22  23
ATOM     23  C   UNL     1       0.871   9.941  -9.162  1.00  0.00     0.118 C 
BRANCH  23  24
ATOM     24  N   UNL     1       2.007  10.571  -9.839  1.00  0.00    -0.352 N 
ATOM     25  C   UNL     1       2.545  11.814  -9.602  1.00  0.00     0.251 C 
ATOM     26  H   UNL     1       2.436  10.041 -10.549  1.00  0.00     0.163 HD
ATOM     27  O   UNL     1       3.296  12.340 -10.429  1.00  0.00    -0.269 OA
BRANCH  25  28
ATOM     28  C   UNL     1       2.212  12.500  -8.348  1.00  0.00     0.039 A 
ATOM     29  C   UNL     1       1.922  13.866  -8.319  1.00  0.00     0.014 A 
ATOM     30  C   UNL     1       2.140  11.726  -7.192  1.00  0.00     0.014 A 
ATOM     31  C   UNL     1       1.497  14.428  -7.121  1.00  0.00     0.010 A 
ATOM     32  C   UNL     1       1.541  12.233  -6.075  1.00  0.00     0.010 A 
ATOM     33  C   UNL     1       1.296  13.597  -6.008  1.00  0.00    -0.014 A 
BRANCH  33  34
ATOM     34  C   UNL     1       0.709  14.108  -4.779  1.00  0.00     0.031 A 
ATOM     35  C   UNL     1      -0.618  14.741  -4.979  1.00  0.00     0.074 A 
ATOM     36  C   UNL     1       1.222  13.824  -3.562  1.00  0.00     0.049 A 
ATOM     37  N   UNL     1      -0.886  16.005  -4.969  1.00  0.00    -0.248 NA
ATOM     38  C   UNL     1      -1.731  13.902  -5.449  1.00  0.00     0.031 C 
ATOM     39  C   UNL     1       2.344  12.929  -3.240  1.00  0.00     0.029 A 
ATOM     40  N   UNL     1       0.751  14.158  -2.332  1.00  0.00    -0.354 N 
ATOM     41  C   UNL     1      -2.267  16.085  -5.135  1.00  0.00     0.074 A 
ATOM     42  C   UNL     1      -2.666  14.823  -5.693  1.00  0.00     0.031 C 
ATOM     43  C   UNL     1       2.289  12.588  -1.934  1.00  0.00     0.029 A 
ATOM     44  C   UNL     1       1.254  13.375  -1.296  1.00  0.00     0.049 A 
ATOM     45  H   UNL     1       0.110  14.891  -2.186  1.00  0.00     0.167 HD
ATOM     46  C   UNL     1      -2.984  17.047  -4.488  1.00  0.00     0.034 A 
ATOM     47  C   UNL     1       0.812  13.348  -0.015  1.00  0.00     0.034 A 
ATOM     48  C   UNL     1      -2.102  18.062  -3.951  1.00  0.00     0.049 A 
ATOM     49  C   UNL     1       0.079  14.614   0.210  1.00  0.00     0.074 A 
ATOM     50  C   UNL     1      -1.151  18.919  -4.467  1.00  0.00     0.029 A 
ATOM     51  N   UNL     1      -1.861  17.994  -2.600  1.00  0.00    -0.354 N 
ATOM     52  N   UNL     1       0.651  15.786   0.197  1.00  0.00    -0.248 NA
ATOM     53  C   UNL     1      -1.359  14.615   0.004  1.00  0.00     0.031 C 
ATOM     54  C   UNL     1      -0.120  18.963  -3.481  1.00  0.00     0.029 A 
ATOM     55  C   UNL     1      -0.527  18.198  -2.385  1.00  0.00     0.049 A 
ATOM     56  H   UNL     1      -2.535  17.825  -1.903  1.00  0.00     0.167 HD
ATOM     57  C   UNL     1      -0.245  16.591  -0.494  1.00  0.00     0.074 A 
ATOM     58  C   UNL     1      -1.509  15.855  -0.469  1.00  0.00     0.031 C 
ATOM     59  C   UNL     1       0.200  17.620  -1.275  1.00  0.00     0.034 A 
BRANCH  46  60
ATOM     60  C   UNL     1      -4.385  16.874  -3.920  1.00  0.00     0.023 A 
ATOM     61  C   UNL     1      -4.946  18.007  -3.281  1.00  0.00     0.012 A 
ATOM     62  C   UNL     1      -5.037  15.639  -3.697  1.00  0.00     0.148 A 
ATOM     63  C   UNL     1      -6.011  17.898  -2.381  1.00  0.00     0.002 A 
ATOM     64  C   UNL     1      -6.138  15.546  -2.852  1.00  0.00     0.091 A 
ATOM     65  F   UNL     1      -4.544  14.510  -4.203  1.00  0.00    -0.205 F 
ATOM     66  C   UNL     1      -6.604  16.664  -2.160  1.00  0.00     0.022 A 
BRANCH  64  67
ATOM     67  S   UNL     1      -6.968  13.978  -2.549  1.00  0.00     0.127 S 
ATOM     68  O   UNL     1      -6.580  13.709  -1.168  1.00  0.00    -0.237 OA
ATOM     69  O   UNL     1      -8.371  14.347  -2.740  1.00  0.00    -0.237 OA
ATOM     70  O   UNL     1      -6.450  13.055  -3.550  1.00  0.00    -0.744 OA
ENDBRANCH  64  67
ENDBRANCH  46  60
BRANCH  47  71
ATOM     71  C   UNL     1       0.755  12.231   0.956  1.00  0.00     0.023 A 
ATOM     72  C   UNL     1       0.616  12.512   2.331  1.00  0.00     0.012 A 
ATOM     73  C   UNL     1       0.535  10.904   0.522  1.00  0.00     0.148 A 
ATOM     74  C   UNL     1       0.224  11.518   3.235  1.00  0.00     0.002 A 
ATOM     75  C   UNL     1       0.145   9.918   1.425  1.00  0.00     0.091 A 
ATOM     76  F   UNL     1       0.618  10.632  -0.787  1.00  0.00    -0.205 F 
ATOM     77  C   UNL     1      -0.024  10.226   2.781  1.00  0.00     0.022 A 
BRANCH  75  78
ATOM     78  S   UNL     1      -0.230   8.234   0.912  1.00  0.00     0.127 S 
ATOM     79  O   UNL     1       0.591   7.448   1.834  1.00  0.00    -0.237 OA
ATOM     80  O   UNL     1      -1.667   8.153   1.154  1.00  0.00    -0.237 OA
ATOM     81  O   UNL     1       0.176   8.134  -0.485  1.00  0.00    -0.744 OA
ENDBRANCH  75  78
ENDBRANCH  47  71
BRANCH  59  82
ATOM     82  C   UNL     1       1.637  18.050  -1.128  1.00  0.00     0.023 A 
ATOM     83  C   UNL     1       2.726  17.219  -1.464  1.00  0.00     0.012 A 
ATOM     84  C   UNL     1       1.885  19.392  -0.797  1.00  0.00     0.148 A 
ATOM     85  C   UNL     1       4.034  17.713  -1.449  1.00  0.00     0.002 A 
ATOM     86  C   UNL     1       3.180  19.892  -0.829  1.00  0.00     0.091 A 
ATOM     87  F   UNL     1       0.837  20.169  -0.482  1.00  0.00    -0.205 F 
ATOM     88  C   UNL     1       4.260  19.053  -1.145  1.00  0.00     0.022 A 
BRANCH  86  89
ATOM     89  S   UNL     1       3.513  21.634  -0.569  1.00  0.00     0.127 S 
ATOM     90  O   UNL     1       4.085  21.638   0.776  1.00  0.00    -0.237 OA
ATOM     91  O   UNL     1       4.464  21.936  -1.640  1.00  0.00    -0.237 OA
ATOM     92  O   UNL     1       2.230  22.314  -0.706  1.00  0.00    -0.744 OA
ENDBRANCH  86  89
ENDBRANCH  59  82
ENDBRANCH  33  34
ENDBRANCH  25  28
ENDBRANCH  23  24
ENDBRANCH  22  23
ENDBRANCH   1  22
TORSDOF 19
