REMARK SMILES CCN(CC)c1ncc(NC(=O)c2ccc(C)cc2)cc1C(=O)NCCCNC(=O)c1ccc(-c2c3nc(c(-c4cccc(S(=O)(=O)[O-])c4F)c4ccc([nH]4)c(-c4cccc(S(=O)(=O)[O-])c4F)c4nc(c(-c5cccc(S(=O)(=O)[O-])c5F)c5ccc2[nH]5)C=C4)C=C3)cc1
REMARK SMILES IDX 26 1 25 2 24 3 22 4 23 5 21 7 6 8 7 9 8 10 20 11 9 12 3 13
REMARK SMILES IDX 2 14 1 15 4 16 5 17 10 18 11 19 12 21 13 22 14 23 19 24
REMARK SMILES IDX 15 25 18 26 16 27 17 28 27 29 28 30 29 31 30 33 31 34 32 35
REMARK SMILES IDX 93 36 33 37 92 38 34 39 35 40 36 41 86 42 37 43 91 44 85 45
REMARK SMILES IDX 87 46 38 47 90 48 84 49 83 50 39 52 71 53 51 54 70 55 52 56
REMARK SMILES IDX 55 57 69 58 88 59 53 60 54 61 68 63 89 64 56 65 40 66 41 67
REMARK SMILES IDX 49 68 42 69 44 70 50 71 43 72 45 73 46 74 47 75 48 76 72 77
REMARK SMILES IDX 73 78 81 79 74 80 76 81 82 82 75 83 77 84 78 85 79 86 80 87
REMARK SMILES IDX 57 88 58 89 66 90 59 91 61 92 67 93 60 94 62 95 63 96 64 97
REMARK SMILES IDX 65 98
REMARK H PARENT 24 6 10 20 28 32 87 51 55 62
REMARK Flexibility Score: inf
ROOT
ATOM      1  C   UNL     1       5.755   0.995   0.356  1.00  0.00     0.042 C 
ENDROOT
BRANCH   1   2
ATOM      2  C   UNL     1       5.003   1.602   1.535  1.00  0.00     0.118 C 
BRANCH   2   3
ATOM      3  N   UNL     1       3.568   1.357   1.524  1.00  0.00    -0.352 N 
ATOM      4  C   UNL     1       2.767   0.296   1.892  1.00  0.00     0.255 C 
ATOM      5  O   UNL     1       1.615   0.599   2.207  1.00  0.00    -0.269 OA
ATOM      6  H   UNL     1       3.054   2.120   1.175  1.00  0.00     0.163 HD
BRANCH   4   7
ATOM      7  C   UNL     1       3.206  -1.136   1.934  1.00  0.00     0.084 A 
ATOM      8  C   UNL     1       2.271  -2.188   1.817  1.00  0.00     0.141 A 
ATOM      9  N   UNL     1       2.648  -3.481   2.008  1.00  0.00    -0.236 NA
ATOM     10  C   UNL     1       3.941  -3.768   2.264  1.00  0.00     0.139 A 
ATOM     11  C   UNL     1       4.542  -1.492   2.180  1.00  0.00     0.045 A 
ATOM     12  C   UNL     1       4.942  -2.823   2.295  1.00  0.00     0.060 A 
BRANCH   8  13
ATOM     13  N   UNL     1       0.935  -2.021   1.496  1.00  0.00    -0.357 N 
BRANCH  13  14
ATOM     14  C   UNL     1       0.562  -1.956   0.083  1.00  0.00     0.114 C 
ATOM     15  C   UNL     1       0.523  -0.530  -0.441  1.00  0.00     0.027 C 
ENDBRANCH  13  14
BRANCH  13  16
ATOM     16  C   UNL     1      -0.055  -2.517   2.452  1.00  0.00     0.114 C 
ATOM     17  C   UNL     1      -0.252  -4.029   2.406  1.00  0.00     0.027 C 
ENDBRANCH  13  16
ENDBRANCH   8  13
BRANCH  12  18
ATOM     18  N   UNL     1       6.315  -3.079   2.482  1.00  0.00    -0.321 N 
ATOM     19  C   UNL     1       7.054  -4.238   2.411  1.00  0.00     0.255 C 
ATOM     20  H   UNL     1       6.844  -2.280   2.706  1.00  0.00     0.170 HD
ATOM     21  O   UNL     1       8.187  -4.263   2.890  1.00  0.00    -0.269 OA
BRANCH  19  22
ATOM     22  C   UNL     1       6.551  -5.446   1.722  1.00  0.00     0.040 A 
ATOM     23  C   UNL     1       6.750  -6.690   2.329  1.00  0.00     0.014 A 
ATOM     24  C   UNL     1       5.920  -5.368   0.476  1.00  0.00     0.014 A 
ATOM     25  C   UNL     1       6.239  -7.843   1.731  1.00  0.00     0.004 A 
ATOM     26  C   UNL     1       5.394  -6.521  -0.109  1.00  0.00     0.004 A 
ATOM     27  C   UNL     1       5.529  -7.762   0.526  1.00  0.00    -0.051 A 
ATOM     28  C   UNL     1       4.952  -9.002  -0.090  1.00  0.00     0.044 C 
ENDBRANCH  19  22
ENDBRANCH  12  18
ENDBRANCH   4   7
ENDBRANCH   2   3
ENDBRANCH   1   2
BRANCH   1  29
ATOM     29  C   UNL     1       6.084   2.031  -0.709  1.00  0.00     0.118 C 
BRANCH  29  30
ATOM     30  N   UNL     1       7.317   2.768  -0.447  1.00  0.00    -0.352 N 
ATOM     31  C   UNL     1       7.850   3.857  -1.115  1.00  0.00     0.251 C 
ATOM     32  H   UNL     1       7.846   2.444   0.317  1.00  0.00     0.163 HD
ATOM     33  O   UNL     1       8.973   4.250  -0.809  1.00  0.00    -0.269 OA
BRANCH  31  34
ATOM     34  C   UNL     1       7.017   4.595  -2.091  1.00  0.00     0.039 A 
ATOM     35  C   UNL     1       6.932   5.988  -1.969  1.00  0.00     0.014 A 
ATOM     36  C   UNL     1       6.155   3.910  -2.942  1.00  0.00     0.014 A 
ATOM     37  C   UNL     1       5.817   6.651  -2.475  1.00  0.00     0.010 A 
ATOM     38  C   UNL     1       5.010   4.543  -3.367  1.00  0.00     0.010 A 
ATOM     39  C   UNL     1       4.808   5.892  -3.057  1.00  0.00    -0.014 A 
BRANCH  39  40
ATOM     40  C   UNL     1       3.467   6.375  -3.342  1.00  0.00     0.031 A 
ATOM     41  C   UNL     1       3.144   6.875  -4.689  1.00  0.00     0.074 A 
ATOM     42  C   UNL     1       2.506   6.145  -2.419  1.00  0.00     0.049 A 
ATOM     43  N   UNL     1       2.059   7.495  -5.001  1.00  0.00    -0.248 NA
ATOM     44  C   UNL     1       4.069   6.726  -5.805  1.00  0.00     0.031 C 
ATOM     45  C   UNL     1       1.062   6.163  -2.613  1.00  0.00     0.029 A 
ATOM     46  N   UNL     1       2.655   6.045  -1.030  1.00  0.00    -0.354 N 
ATOM     47  C   UNL     1       2.007   7.572  -6.378  1.00  0.00     0.074 A 
ATOM     48  C   UNL     1       3.321   7.171  -6.817  1.00  0.00     0.031 C 
ATOM     49  C   UNL     1       0.473   6.372  -1.424  1.00  0.00     0.029 A 
ATOM     50  C   UNL     1       1.538   6.708  -0.492  1.00  0.00     0.049 A 
ATOM     51  H   UNL     1       3.385   5.605  -0.536  1.00  0.00     0.167 HD
ATOM     52  C   UNL     1       0.803   7.819  -6.972  1.00  0.00     0.034 A 
ATOM     53  C   UNL     1       1.625   7.884   0.205  1.00  0.00     0.034 A 
ATOM     54  C   UNL     1      -0.204   8.175  -5.958  1.00  0.00     0.049 A 
ATOM     55  C   UNL     1       0.788   9.005  -0.399  1.00  0.00     0.074 A 
ATOM     56  C   UNL     1      -1.195   7.453  -5.312  1.00  0.00     0.029 A 
ATOM     57  N   UNL     1      -0.064   9.365  -5.251  1.00  0.00    -0.354 N 
ATOM     58  N   UNL     1       0.248   8.957  -1.586  1.00  0.00    -0.248 NA
ATOM     59  C   UNL     1       0.517  10.274   0.274  1.00  0.00     0.031 C 
ATOM     60  C   UNL     1      -1.561   8.169  -4.137  1.00  0.00     0.029 A 
ATOM     61  C   UNL     1      -0.826   9.342  -4.093  1.00  0.00     0.049 A 
ATOM     62  H   UNL     1       0.500  10.120  -5.535  1.00  0.00     0.167 HD
ATOM     63  C   UNL     1      -0.311  10.168  -1.897  1.00  0.00     0.074 A 
ATOM     64  C   UNL     1      -0.186  10.932  -0.666  1.00  0.00     0.031 C 
ATOM     65  C   UNL     1      -0.765  10.460  -3.155  1.00  0.00     0.034 A 
BRANCH  52  66
ATOM     66  C   UNL     1       0.433   7.460  -8.410  1.00  0.00     0.023 A 
ATOM     67  C   UNL     1      -0.945   7.372  -8.718  1.00  0.00     0.012 A 
ATOM     68  C   UNL     1       1.312   7.111  -9.463  1.00  0.00     0.148 A 
ATOM     69  C   UNL     1      -1.420   6.877  -9.941  1.00  0.00     0.002 A 
ATOM     70  C   UNL     1       0.844   6.566 -10.665  1.00  0.00     0.091 A 
ATOM     71  F   UNL     1       2.614   7.367  -9.359  1.00  0.00    -0.205 F 
ATOM     72  C   UNL     1      -0.524   6.441 -10.905  1.00  0.00     0.022 A 
BRANCH  70  73
ATOM     73  S   UNL     1       1.956   5.933 -11.937  1.00  0.00     0.127 S 
ATOM     74  O   UNL     1       1.452   4.572 -12.137  1.00  0.00    -0.237 OA
ATOM     75  O   UNL     1       1.708   6.843 -13.053  1.00  0.00    -0.237 OA
ATOM     76  O   UNL     1       3.300   5.990 -11.374  1.00  0.00    -0.744 OA
ENDBRANCH  70  73
ENDBRANCH  52  66
BRANCH  53  77
ATOM     77  C   UNL     1       2.934   8.075   0.907  1.00  0.00     0.023 A 
ATOM     78  C   UNL     1       3.309   7.086   1.850  1.00  0.00     0.012 A 
ATOM     79  C   UNL     1       3.925   8.940   0.410  1.00  0.00     0.148 A 
ATOM     80  C   UNL     1       4.651   6.852   2.153  1.00  0.00     0.002 A 
ATOM     81  C   UNL     1       5.264   8.713   0.735  1.00  0.00     0.091 A 
ATOM     82  F   UNL     1       3.564   9.931  -0.415  1.00  0.00    -0.205 F 
ATOM     83  C   UNL     1       5.632   7.641   1.563  1.00  0.00     0.022 A 
BRANCH  81  84
ATOM     84  S   UNL     1       6.581   9.704   0.013  1.00  0.00     0.127 S 
ATOM     85  O   UNL     1       6.724  10.766   1.003  1.00  0.00    -0.237 OA
ATOM     86  O   UNL     1       7.697   8.760  -0.042  1.00  0.00    -0.237 OA
ATOM     87  O   UNL     1       6.070  10.094  -1.293  1.00  0.00    -0.744 OA
ENDBRANCH  81  84
ENDBRANCH  53  77
BRANCH  65  88
ATOM     88  C   UNL     1      -1.160  11.841  -3.642  1.00  0.00     0.023 A 
ATOM     89  C   UNL     1      -0.643  13.017  -3.065  1.00  0.00     0.012 A 
ATOM     90  C   UNL     1      -1.938  11.997  -4.819  1.00  0.00     0.148 A 
ATOM     91  C   UNL     1      -0.926  14.284  -3.588  1.00  0.00     0.002 A 
ATOM     92  C   UNL     1      -2.120  13.249  -5.400  1.00  0.00     0.091 A 
ATOM     93  F   UNL     1      -2.520  10.927  -5.380  1.00  0.00    -0.205 F 
ATOM     94  C   UNL     1      -1.643  14.400  -4.771  1.00  0.00     0.022 A 
BRANCH  92  95
ATOM     95  S   UNL     1      -2.818  13.401  -7.052  1.00  0.00     0.127 S 
ATOM     96  O   UNL     1      -4.244  13.545  -6.771  1.00  0.00    -0.237 OA
ATOM     97  O   UNL     1      -2.174  14.614  -7.561  1.00  0.00    -0.237 OA
ATOM     98  O   UNL     1      -2.414  12.182  -7.740  1.00  0.00    -0.744 OA
ENDBRANCH  92  95
ENDBRANCH  65  88
ENDBRANCH  39  40
ENDBRANCH  31  34
ENDBRANCH  29  30
ENDBRANCH   1  29
TORSDOF 18
