REMARK SMILES O=C(NCCCNC(=O)[C@@H]1CN(c2nc(-c3ccccc3)no2)CC[NH2+]1)c1ccc(-c2c3nc(c(-c4cccc(S(=O)(=O)[O-])c4F)c4ccc([nH]4)c(-c4cccc(S(=O)(=O)[O-])c4F)c4nc(c(-c5cccc(S(=O)(=O)[O-])c5F)c5ccc2[nH]5)C=C4)C=C3)cc1
REMARK SMILES IDX 4 1 3 2 1 3 2 4 27 6 28 7 89 8 29 9 88 10 30 11 31 12 32 13
REMARK SMILES IDX 82 14 33 15 87 16 81 17 83 18 34 19 86 20 80 21 79 22 35 24
REMARK SMILES IDX 67 25 47 26 66 27 48 28 51 29 65 30 84 31 49 32 50 33 64 35
REMARK SMILES IDX 85 36 52 37 36 38 37 39 45 40 38 41 40 42 46 43 39 44 41 45
REMARK SMILES IDX 42 46 43 47 44 48 68 49 69 50 77 51 70 52 72 53 78 54 71 55
REMARK SMILES IDX 73 56 74 57 75 58 76 59 53 60 54 61 62 62 55 63 57 64 63 65
REMARK SMILES IDX 56 66 58 67 59 68 60 69 61 70 5 71 6 72 7 73 8 74 9 76 10 77
REMARK SMILES IDX 11 78 26 79 12 80 25 81 24 84 13 85 14 86 23 87 15 88 22 89
REMARK SMILES IDX 16 90 17 91 21 92 18 93 20 94 19 95
REMARK H PARENT 3 5 83 23 51 34 7 75 26 82 26 83
REMARK Flexibility Score: inf
ROOT
ATOM      1  C   UNL     1       4.548  -1.323  -0.284  1.00  0.00     0.118 C 
ENDROOT
BRANCH   1   2
ATOM      2  N   UNL     1       3.141  -0.997  -0.479  1.00  0.00    -0.352 N 
ATOM      3  O   UNL     1       1.206   0.104  -0.190  1.00  0.00    -0.269 OA
ATOM      4  C   UNL     1       2.433   0.125  -0.125  1.00  0.00     0.251 C 
ATOM      5  H   UNL     1       2.615  -1.690  -0.938  1.00  0.00     0.163 HD
BRANCH   4   6
ATOM      6  C   UNL     1       3.134   1.339   0.346  1.00  0.00     0.039 A 
ATOM      7  C   UNL     1       4.300   1.782  -0.282  1.00  0.00     0.014 A 
ATOM      8  C   UNL     1       2.597   2.066   1.413  1.00  0.00     0.014 A 
ATOM      9  C   UNL     1       5.009   2.854   0.250  1.00  0.00     0.010 A 
ATOM     10  C   UNL     1       3.266   3.196   1.892  1.00  0.00     0.010 A 
ATOM     11  C   UNL     1       4.499   3.577   1.341  1.00  0.00    -0.014 A 
BRANCH  11  12
ATOM     12  C   UNL     1       5.251   4.750   1.855  1.00  0.00     0.031 A 
ATOM     13  C   UNL     1       5.815   4.763   3.249  1.00  0.00     0.074 A 
ATOM     14  C   UNL     1       5.431   5.812   1.046  1.00  0.00     0.049 A 
ATOM     15  N   UNL     1       6.537   5.684   3.835  1.00  0.00    -0.248 NA
ATOM     16  C   UNL     1       5.526   3.599   4.103  1.00  0.00     0.031 C 
ATOM     17  C   UNL     1       4.893   5.935  -0.311  1.00  0.00     0.029 A 
ATOM     18  N   UNL     1       6.117   6.984   1.238  1.00  0.00    -0.354 N 
ATOM     19  C   UNL     1       6.751   5.236   5.133  1.00  0.00     0.074 A 
ATOM     20  C   UNL     1       6.074   3.963   5.254  1.00  0.00     0.031 C 
ATOM     21  C   UNL     1       5.298   7.098  -0.842  1.00  0.00     0.029 A 
ATOM     22  C   UNL     1       6.085   7.823   0.149  1.00  0.00     0.049 A 
ATOM     23  H   UNL     1       6.587   7.203   2.075  1.00  0.00     0.167 HD
ATOM     24  C   UNL     1       7.461   5.823   6.128  1.00  0.00     0.034 A 
ATOM     25  C   UNL     1       6.627   9.043  -0.033  1.00  0.00     0.034 A 
ATOM     26  C   UNL     1       8.171   7.067   5.987  1.00  0.00     0.049 A 
ATOM     27  C   UNL     1       7.440   9.651   1.073  1.00  0.00     0.074 A 
ATOM     28  C   UNL     1       8.980   7.705   6.911  1.00  0.00     0.029 A 
ATOM     29  N   UNL     1       8.152   7.867   4.855  1.00  0.00    -0.354 N 
ATOM     30  N   UNL     1       7.744   9.148   2.244  1.00  0.00    -0.248 NA
ATOM     31  C   UNL     1       8.010  10.982   0.821  1.00  0.00     0.031 C 
ATOM     32  C   UNL     1       9.437   8.900   6.343  1.00  0.00     0.029 A 
ATOM     33  C   UNL     1       8.928   8.996   5.058  1.00  0.00     0.049 A 
ATOM     34  H   UNL     1       7.660   7.662   4.027  1.00  0.00     0.167 HD
ATOM     35  C   UNL     1       8.566  10.085   2.858  1.00  0.00     0.074 A 
ATOM     36  C   UNL     1       8.728  11.177   1.919  1.00  0.00     0.031 C 
ATOM     37  C   UNL     1       9.123  10.050   4.094  1.00  0.00     0.034 A 
BRANCH  24  38
ATOM     38  C   UNL     1       7.538   5.104   7.450  1.00  0.00     0.023 A 
ATOM     39  C   UNL     1       8.334   3.946   7.569  1.00  0.00     0.012 A 
ATOM     40  C   UNL     1       6.867   5.598   8.586  1.00  0.00     0.148 A 
ATOM     41  C   UNL     1       8.433   3.272   8.786  1.00  0.00     0.002 A 
ATOM     42  C   UNL     1       7.002   4.943   9.806  1.00  0.00     0.091 A 
ATOM     43  F   UNL     1       6.094   6.685   8.452  1.00  0.00    -0.205 F 
ATOM     44  C   UNL     1       7.775   3.775   9.905  1.00  0.00     0.022 A 
BRANCH  42  45
ATOM     45  S   UNL     1       6.251   5.564  11.315  1.00  0.00     0.127 S 
ATOM     46  O   UNL     1       5.085   4.691  11.446  1.00  0.00    -0.237 OA
ATOM     47  O   UNL     1       7.301   5.329  12.308  1.00  0.00    -0.237 OA
ATOM     48  O   UNL     1       5.965   6.970  11.065  1.00  0.00    -0.744 OA
ENDBRANCH  42  45
ENDBRANCH  24  38
BRANCH  25  49
ATOM     49  C   UNL     1       6.475   9.724  -1.349  1.00  0.00     0.023 A 
ATOM     50  C   UNL     1       7.594   9.845  -2.195  1.00  0.00     0.012 A 
ATOM     51  C   UNL     1       5.222  10.190  -1.794  1.00  0.00     0.148 A 
ATOM     52  C   UNL     1       7.473  10.434  -3.453  1.00  0.00     0.002 A 
ATOM     53  C   UNL     1       5.097  10.724  -3.071  1.00  0.00     0.091 A 
ATOM     54  F   UNL     1       4.173  10.076  -0.968  1.00  0.00    -0.205 F 
ATOM     55  C   UNL     1       6.224  10.861  -3.896  1.00  0.00     0.022 A 
BRANCH  53  56
ATOM     56  S   UNL     1       3.506  11.170  -3.776  1.00  0.00     0.127 S 
ATOM     57  O   UNL     1       3.592  12.628  -3.806  1.00  0.00    -0.237 OA
ATOM     58  O   UNL     1       3.564  10.521  -5.086  1.00  0.00    -0.237 OA
ATOM     59  O   UNL     1       2.507  10.613  -2.874  1.00  0.00    -0.744 OA
ENDBRANCH  53  56
ENDBRANCH  25  49
BRANCH  37  60
ATOM     60  C   UNL     1       9.990  11.214   4.496  1.00  0.00     0.023 A 
ATOM     61  C   UNL     1       9.396  12.450   4.816  1.00  0.00     0.012 A 
ATOM     62  C   UNL     1      11.385  11.064   4.619  1.00  0.00     0.148 A 
ATOM     63  C   UNL     1      10.180  13.529   5.223  1.00  0.00     0.002 A 
ATOM     64  C   UNL     1      12.155  12.130   5.069  1.00  0.00     0.091 A 
ATOM     65  F   UNL     1      11.935   9.887   4.287  1.00  0.00    -0.205 F 
ATOM     66  C   UNL     1      11.557  13.366   5.360  1.00  0.00     0.022 A 
BRANCH  64  67
ATOM     67  S   UNL     1      13.921  11.974   5.362  1.00  0.00     0.127 S 
ATOM     68  O   UNL     1      14.479  12.635   4.184  1.00  0.00    -0.237 OA
ATOM     69  O   UNL     1      14.098  12.709   6.615  1.00  0.00    -0.237 OA
ATOM     70  O   UNL     1      14.181  10.544   5.465  1.00  0.00    -0.744 OA
ENDBRANCH  64  67
ENDBRANCH  37  60
ENDBRANCH  11  12
ENDBRANCH   4   6
ENDBRANCH   1   2
BRANCH   1  71
ATOM     71  C   UNL     1       4.746  -2.526   0.637  1.00  0.00     0.042 C 
BRANCH  71  72
ATOM     72  C   UNL     1       4.179  -3.823   0.069  1.00  0.00     0.118 C 
BRANCH  72  73
ATOM     73  N   UNL     1       4.901  -4.240  -1.119  1.00  0.00    -0.351 N 
ATOM     74  C   UNL     1       5.888  -5.169  -1.254  1.00  0.00     0.280 C 
ATOM     75  H   UNL     1       4.638  -3.785  -1.951  1.00  0.00     0.163 HD
ATOM     76  O   UNL     1       6.397  -5.316  -2.370  1.00  0.00    -0.268 OA
BRANCH  74  77
ATOM     77  C   UNL     1       6.295  -6.062  -0.071  1.00  0.00     0.292 C 
ATOM     78  C   UNL     1       7.835  -6.011   0.063  1.00  0.00     0.197 C 
ATOM     79  N   UNL     1       5.769  -7.436  -0.359  1.00  0.00    -0.333 N 
ATOM     80  N   UNL     1       8.306  -7.023   1.012  1.00  0.00    -0.312 N 
ATOM     81  C   UNL     1       6.290  -8.387   0.640  1.00  0.00     0.283 C 
ATOM     82  H   UNL     1       6.069  -7.725  -1.291  1.00  0.00     0.347 HD
ATOM     83  H   UNL     1       4.750  -7.425  -0.316  1.00  0.00     0.347 HD
ATOM     84  C   UNL     1       7.832  -8.384   0.772  1.00  0.00     0.183 C 
BRANCH  80  85
ATOM     85  C   UNL     1       8.742  -6.660   2.237  1.00  0.00     0.324 A 
ATOM     86  N   UNL     1       8.578  -5.533   2.887  1.00  0.00    -0.171 NA
ATOM     87  O   UNL     1       9.479  -7.575   2.942  1.00  0.00    -0.315 OA
ATOM     88  C   UNL     1       9.229  -5.777   4.075  1.00  0.00     0.204 A 
ATOM     89  N   UNL     1       9.810  -6.982   4.155  1.00  0.00    -0.055 NA
BRANCH  88  90
ATOM     90  C   UNL     1       9.200  -4.858   5.194  1.00  0.00     0.023 A 
ATOM     91  C   UNL     1      10.294  -4.032   5.472  1.00  0.00     0.012 A 
ATOM     92  C   UNL     1       8.087  -4.844   6.046  1.00  0.00     0.012 A 
ATOM     93  C   UNL     1      10.277  -3.205   6.598  1.00  0.00     0.001 A 
ATOM     94  C   UNL     1       8.076  -4.022   7.173  1.00  0.00     0.001 A 
ATOM     95  C   UNL     1       9.171  -3.205   7.449  1.00  0.00     0.000 A 
ENDBRANCH  88  90
ENDBRANCH  80  85
ENDBRANCH  74  77
ENDBRANCH  72  73
ENDBRANCH  71  72
ENDBRANCH   1  71
TORSDOF 15
