REMARK SMILES COc1ccc(F)cc1[C@@H](C(=O)NCCCNC(=O)c1ccc(-c2c3nc(c(-c4cccc(S(=O)(=O)[O-])c4F)c4ccc([nH]4)c(-c4cccc(S(=O)(=O)[O-])c4F)c4nc(c(-c5cccc(S(=O)(=O)[O-])c5F)c5ccc2[nH]5)C=C4)C=C3)cc1)[N@@H+](C)CCn1ccnc1C
REMARK SMILES IDX 14 1 13 2 11 3 12 4 10 6 9 7 3 8 4 9 5 10 8 11 6 12 7 13
REMARK SMILES IDX 2 14 1 15 83 16 84 17 85 19 86 20 87 21 88 22 91 23 89 24
REMARK SMILES IDX 90 25 92 26 15 27 16 28 17 29 18 30 19 32 20 33 21 34 82 35
REMARK SMILES IDX 22 36 81 37 23 38 24 39 25 40 75 41 26 42 80 43 74 44 76 45
REMARK SMILES IDX 27 46 79 47 73 48 72 49 28 51 60 52 40 53 59 54 41 55 44 56
REMARK SMILES IDX 58 57 77 58 42 59 43 60 57 62 78 63 45 64 29 65 30 66 38 67
REMARK SMILES IDX 31 68 33 69 39 70 32 71 34 72 35 73 36 74 37 75 61 76 62 77
REMARK SMILES IDX 70 78 63 79 65 80 71 81 64 82 66 83 67 84 68 85 69 86 46 87
REMARK SMILES IDX 47 88 55 89 48 90 50 91 56 92 49 93 51 94 52 95 53 96 54 97
REMARK H PARENT 13 5 83 18 17 31 76 50 44 61
REMARK Flexibility Score: inf
ROOT
ATOM      1  C   UNL     1      -1.149  -0.750   2.140  1.00  0.00     0.118 C 
ENDROOT
BRANCH   1   2
ATOM      2  N   UNL     1      -2.116   0.197   2.631  1.00  0.00    -0.351 N 
ATOM      3  C   UNL     1      -2.369   1.463   2.215  1.00  0.00     0.283 C 
ATOM      4  O   UNL     1      -3.579   1.735   2.137  1.00  0.00    -0.268 OA
ATOM      5  H   UNL     1      -2.675  -0.121   3.376  1.00  0.00     0.163 HD
BRANCH   3   6
ATOM      6  C   UNL     1      -1.289   2.518   1.822  1.00  0.00     0.309 C 
BRANCH   6   7
ATOM      7  C   UNL     1       0.179   2.267   2.234  1.00  0.00     0.064 A 
ATOM      8  C   UNL     1       1.117   1.647   1.369  1.00  0.00     0.128 A 
ATOM      9  C   UNL     1       2.448   1.421   1.782  1.00  0.00     0.050 A 
ATOM     10  C   UNL     1       2.882   1.807   3.046  1.00  0.00     0.043 A 
ATOM     11  C   UNL     1       0.666   2.627   3.499  1.00  0.00     0.053 A 
ATOM     12  C   UNL     1       1.984   2.420   3.891  1.00  0.00     0.124 A 
ATOM     13  F   UNL     1       2.376   2.830   5.104  1.00  0.00    -0.207 F 
BRANCH   8  14
ATOM     14  O   UNL     1       0.682   1.288   0.114  1.00  0.00    -0.496 OA
ATOM     15  C   UNL     1       1.349   0.167  -0.472  1.00  0.00     0.278 C 
ENDBRANCH   8  14
ENDBRANCH   6   7
BRANCH   6  16
ATOM     16  N   UNL     1      -1.790   3.932   2.068  1.00  0.00    -0.322 N 
ATOM     17  C   UNL     1      -2.942   4.278   1.222  1.00  0.00     0.333 C 
ATOM     18  H   UNL     1      -0.940   4.425   1.794  1.00  0.00     0.348 HD
BRANCH  16  19
ATOM     19  C   UNL     1      -1.982   4.459   3.436  1.00  0.00     0.285 C 
BRANCH  19  20
ATOM     20  C   UNL     1      -2.999   3.903   4.475  1.00  0.00     0.184 C 
BRANCH  20  21
ATOM     21  N   UNL     1      -2.762   2.622   5.108  1.00  0.00    -0.330 N 
ATOM     22  C   UNL     1      -1.692   2.323   5.913  1.00  0.00     0.107 A 
ATOM     23  C   UNL     1      -3.627   1.546   5.195  1.00  0.00     0.105 A 
ATOM     24  C   UNL     1      -1.837   1.000   6.244  1.00  0.00     0.131 A 
ATOM     25  N   UNL     1      -3.035   0.527   5.791  1.00  0.00    -0.242 NA
ATOM     26  C   UNL     1      -5.020   1.494   4.675  1.00  0.00     0.087 C 
ENDBRANCH  20  21
ENDBRANCH  19  20
ENDBRANCH  16  19
ENDBRANCH   6  16
ENDBRANCH   3   6
ENDBRANCH   1   2
BRANCH   1  27
ATOM     27  C   UNL     1      -0.228  -1.288   3.221  1.00  0.00     0.042 C 
BRANCH  27  28
ATOM     28  C   UNL     1      -0.940  -2.122   4.282  1.00  0.00     0.118 C 
BRANCH  28  29
ATOM     29  N   UNL     1      -1.571  -3.320   3.744  1.00  0.00    -0.352 N 
ATOM     30  C   UNL     1      -1.400  -4.644   4.066  1.00  0.00     0.251 C 
ATOM     31  H   UNL     1      -2.230  -3.153   3.031  1.00  0.00     0.163 HD
ATOM     32  O   UNL     1      -1.961  -5.503   3.394  1.00  0.00    -0.269 OA
BRANCH  30  33
ATOM     33  C   UNL     1      -0.524  -5.043   5.190  1.00  0.00     0.039 A 
ATOM     34  C   UNL     1       0.330  -6.134   5.007  1.00  0.00     0.014 A 
ATOM     35  C   UNL     1      -0.551  -4.379   6.419  1.00  0.00     0.014 A 
ATOM     36  C   UNL     1       1.199  -6.516   6.030  1.00  0.00     0.010 A 
ATOM     37  C   UNL     1       0.372  -4.711   7.411  1.00  0.00     0.010 A 
ATOM     38  C   UNL     1       1.256  -5.785   7.229  1.00  0.00    -0.014 A 
BRANCH  38  39
ATOM     39  C   UNL     1       2.251  -6.128   8.279  1.00  0.00     0.031 A 
ATOM     40  C   UNL     1       1.805  -6.591   9.639  1.00  0.00     0.074 A 
ATOM     41  C   UNL     1       3.566  -5.979   8.018  1.00  0.00     0.049 A 
ATOM     42  N   UNL     1       2.536  -6.937  10.668  1.00  0.00    -0.248 NA
ATOM     43  C   UNL     1       0.355  -6.663   9.886  1.00  0.00     0.031 C 
ATOM     44  C   UNL     1       4.123  -5.474   6.761  1.00  0.00     0.029 A 
ATOM     45  N   UNL     1       4.672  -6.225   8.794  1.00  0.00    -0.354 N 
ATOM     46  C   UNL     1       1.642  -7.242  11.687  1.00  0.00     0.074 A 
ATOM     47  C   UNL     1       0.313  -7.010  11.166  1.00  0.00     0.031 C 
ATOM     48  C   UNL     1       5.462  -5.466   6.844  1.00  0.00     0.029 A 
ATOM     49  C   UNL     1       5.862  -5.930   8.169  1.00  0.00     0.049 A 
ATOM     50  H   UNL     1       4.619  -6.579   9.711  1.00  0.00     0.167 HD
ATOM     51  C   UNL     1       1.903  -7.704  12.932  1.00  0.00     0.034 A 
ATOM     52  C   UNL     1       7.134  -6.017   8.611  1.00  0.00     0.034 A 
ATOM     53  C   UNL     1       3.225  -7.971  13.433  1.00  0.00     0.049 A 
ATOM     54  C   UNL     1       7.395  -6.551   9.993  1.00  0.00     0.074 A 
ATOM     55  C   UNL     1       3.582  -8.515  14.654  1.00  0.00     0.029 A 
ATOM     56  N   UNL     1       4.402  -7.709  12.752  1.00  0.00    -0.354 N 
ATOM     57  N   UNL     1       6.535  -6.972  10.887  1.00  0.00    -0.248 NA
ATOM     58  C   UNL     1       8.800  -6.655  10.417  1.00  0.00     0.031 C 
ATOM     59  C   UNL     1       4.976  -8.549  14.726  1.00  0.00     0.029 A 
ATOM     60  C   UNL     1       5.487  -8.066  13.533  1.00  0.00     0.049 A 
ATOM     61  H   UNL     1       4.458  -7.325  11.847  1.00  0.00     0.167 HD
ATOM     62  C   UNL     1       7.292  -7.421  11.964  1.00  0.00     0.074 A 
ATOM     63  C   UNL     1       8.682  -7.236  11.604  1.00  0.00     0.031 C 
ATOM     64  C   UNL     1       6.869  -7.930  13.147  1.00  0.00     0.034 A 
BRANCH  51  65
ATOM     65  C   UNL     1       0.739  -8.015  13.836  1.00  0.00     0.023 A 
ATOM     66  C   UNL     1      -0.059  -9.148  13.574  1.00  0.00     0.012 A 
ATOM     67  C   UNL     1       0.509  -7.263  15.006  1.00  0.00     0.148 A 
ATOM     68  C   UNL     1      -1.078  -9.517  14.451  1.00  0.00     0.002 A 
ATOM     69  C   UNL     1      -0.477  -7.665  15.899  1.00  0.00     0.091 A 
ATOM     70  F   UNL     1       1.269  -6.182  15.229  1.00  0.00    -0.205 F 
ATOM     71  C   UNL     1      -1.277  -8.785  15.618  1.00  0.00     0.022 A 
BRANCH  69  72
ATOM     72  S   UNL     1      -0.753  -6.849  17.475  1.00  0.00     0.127 S 
ATOM     73  O   UNL     1      -2.087  -6.281  17.284  1.00  0.00    -0.237 OA
ATOM     74  O   UNL     1      -0.697  -7.970  18.414  1.00  0.00    -0.237 OA
ATOM     75  O   UNL     1       0.320  -5.875  17.621  1.00  0.00    -0.744 OA
ENDBRANCH  69  72
ENDBRANCH  51  65
BRANCH  52  76
ATOM     76  C   UNL     1       8.256  -5.649   7.700  1.00  0.00     0.023 A 
ATOM     77  C   UNL     1       9.102  -6.659   7.200  1.00  0.00     0.012 A 
ATOM     78  C   UNL     1       8.454  -4.319   7.281  1.00  0.00     0.148 A 
ATOM     79  C   UNL     1      10.137  -6.347   6.318  1.00  0.00     0.002 A 
ATOM     80  C   UNL     1       9.447  -4.024   6.354  1.00  0.00     0.091 A 
ATOM     81  F   UNL     1       7.645  -3.371   7.777  1.00  0.00    -0.205 F 
ATOM     82  C   UNL     1      10.302  -5.034   5.885  1.00  0.00     0.022 A 
BRANCH  80  83
ATOM     83  S   UNL     1       9.637  -2.392   5.629  1.00  0.00     0.127 S 
ATOM     84  O   UNL     1      10.926  -1.970   6.172  1.00  0.00    -0.237 OA
ATOM     85  O   UNL     1       9.642  -2.699   4.198  1.00  0.00    -0.237 OA
ATOM     86  O   UNL     1       8.483  -1.623   6.074  1.00  0.00    -0.744 OA
ENDBRANCH  80  83
ENDBRANCH  52  76
BRANCH  64  87
ATOM     87  C   UNL     1       7.904  -8.363  14.152  1.00  0.00     0.023 A 
ATOM     88  C   UNL     1       8.634  -7.395  14.867  1.00  0.00     0.012 A 
ATOM     89  C   UNL     1       8.050  -9.726  14.483  1.00  0.00     0.148 A 
ATOM     90  C   UNL     1       9.503  -7.776  15.889  1.00  0.00     0.002 A 
ATOM     91  C   UNL     1       8.877 -10.094  15.537  1.00  0.00     0.091 A 
ATOM     92  F   UNL     1       7.356 -10.632  13.779  1.00  0.00    -0.205 F 
ATOM     93  C   UNL     1       9.612  -9.122  16.235  1.00  0.00     0.022 A 
BRANCH  91  94
ATOM     94  S   UNL     1       8.999 -11.787  16.126  1.00  0.00     0.127 S 
ATOM     95  O   UNL     1      10.379 -12.123  15.781  1.00  0.00    -0.237 OA
ATOM     96  O   UNL     1       8.749 -11.633  17.560  1.00  0.00    -0.237 OA
ATOM     97  O   UNL     1       7.980 -12.541  15.409  1.00  0.00    -0.744 OA
ENDBRANCH  91  94
ENDBRANCH  64  87
ENDBRANCH  38  39
ENDBRANCH  30  33
ENDBRANCH  28  29
ENDBRANCH  27  28
ENDBRANCH   1  27
TORSDOF 19
