REMARK SMILES Cc1ccc2c(c1)OCCN2c1sc(C(=O)NCCCNC(=O)c2ccc(-c3c4nc(c(-c5cccc(S(=O)(=O)[O-])c5F)c5ccc([nH]5)c(-c5cccc(S(=O)(=O)[O-])c5F)c5nc(c(-c6cccc(S(=O)(=O)[O-])c6F)c6ccc3[nH]6)C=C5)C=C4)cc2)cc1C
REMARK SMILES IDX 20 1 19 2 18 3 17 4 15 5 16 6 14 8 12 9 13 10 88 11 87 12
REMARK SMILES IDX 89 13 11 14 1 15 2 16 3 17 7 18 4 19 6 20 5 21 8 22 9 23
REMARK SMILES IDX 10 24 21 25 22 26 23 28 24 29 25 30 86 31 26 32 85 33 27 34
REMARK SMILES IDX 28 35 29 36 79 37 30 38 84 39 78 40 80 41 31 42 83 43 77 44
REMARK SMILES IDX 76 45 32 47 64 48 44 49 63 50 45 51 48 52 62 53 81 54 46 55
REMARK SMILES IDX 47 56 61 58 82 59 49 60 33 61 34 62 42 63 35 64 37 65 43 66
REMARK SMILES IDX 36 67 38 68 39 69 40 70 41 71 65 72 66 73 74 74 67 75 69 76
REMARK SMILES IDX 75 77 68 78 70 79 71 80 72 81 73 82 50 83 51 84 59 85 52 86
REMARK SMILES IDX 54 87 60 88 53 89 55 90 56 91 57 92 58 93
REMARK H PARENT 17 7 21 27 80 46 48 57
REMARK Flexibility Score: inf
ROOT
ATOM      1  C   UNL     1       0.191  -2.399  10.055  1.00  0.00     0.118 C 
ENDROOT
BRANCH   1   2
ATOM      2  C   UNL     1       0.207  -1.569   8.773  1.00  0.00     0.042 C 
BRANCH   2   3
ATOM      3  C   UNL     1      -1.109  -1.626   8.004  1.00  0.00     0.118 C 
BRANCH   3   4
ATOM      4  N   UNL     1      -2.168  -0.929   8.711  1.00  0.00    -0.351 N 
ATOM      5  C   UNL     1      -2.740   0.310   8.565  1.00  0.00     0.261 C 
ATOM      6  O   UNL     1      -3.685   0.532   9.330  1.00  0.00    -0.268 OA
ATOM      7  H   UNL     1      -2.555  -1.453   9.449  1.00  0.00     0.163 HD
BRANCH   5   8
ATOM      8  C   UNL     1      -2.348   1.280   7.553  1.00  0.00     0.094 A 
ATOM      9  C   UNL     1      -1.342   2.590   5.691  1.00  0.00     0.099 A 
ATOM     10  S   UNL     1      -0.821   1.393   6.810  1.00  0.00    -0.112 S 
ATOM     11  C   UNL     1      -2.586   3.087   6.053  1.00  0.00    -0.015 A 
ATOM     12  C   UNL     1      -3.150   2.324   7.125  1.00  0.00     0.031 A 
ATOM     13  C   UNL     1      -3.308   4.220   5.404  1.00  0.00     0.047 C 
BRANCH   9  14
ATOM     14  N   UNL     1      -0.570   3.010   4.648  1.00  0.00    -0.327 N 
ATOM     15  C   UNL     1       0.992  -0.007  -0.012  1.00  0.00     0.044 C 
ATOM     16  C   UNL     1       0.557   0.772   1.193  1.00  0.00    -0.047 A 
ATOM     17  C   UNL     1      -0.172   0.169   2.219  1.00  0.00     0.006 A 
ATOM     18  C   UNL     1       0.888   2.124   1.311  1.00  0.00     0.052 A 
ATOM     19  C   UNL     1      -0.562   0.904   3.346  1.00  0.00     0.030 A 
ATOM     20  C   UNL     1       0.500   2.856   2.439  1.00  0.00     0.143 A 
ATOM     21  C   UNL     1      -0.212   2.255   3.501  1.00  0.00     0.085 A 
ATOM     22  O   UNL     1       0.870   4.184   2.424  1.00  0.00    -0.490 OA
ATOM     23  C   UNL     1       0.158   4.961   3.392  1.00  0.00     0.251 C 
ATOM     24  C   UNL     1       0.146   4.282   4.755  1.00  0.00     0.165 C 
ENDBRANCH   9  14
ENDBRANCH   5   8
ENDBRANCH   3   4
ENDBRANCH   2   3
ENDBRANCH   1   2
BRANCH   1  25
ATOM     25  N   UNL     1       0.133  -3.834   9.797  1.00  0.00    -0.352 N 
ATOM     26  C   UNL     1       0.992  -4.836  10.182  1.00  0.00     0.251 C 
ATOM     27  H   UNL     1      -0.641  -4.130   9.264  1.00  0.00     0.163 HD
ATOM     28  O   UNL     1       0.860  -5.961   9.707  1.00  0.00    -0.269 OA
BRANCH  26  29
ATOM     29  C   UNL     1       2.083  -4.553  11.139  1.00  0.00     0.039 A 
ATOM     30  C   UNL     1       1.849  -3.779  12.277  1.00  0.00     0.014 A 
ATOM     31  C   UNL     1       3.361  -5.062  10.889  1.00  0.00     0.014 A 
ATOM     32  C   UNL     1       2.921  -3.368  13.062  1.00  0.00     0.010 A 
ATOM     33  C   UNL     1       4.424  -4.716  11.729  1.00  0.00     0.010 A 
ATOM     34  C   UNL     1       4.223  -3.819  12.789  1.00  0.00    -0.014 A 
BRANCH  34  35
ATOM     35  C   UNL     1       5.353  -3.320  13.616  1.00  0.00     0.031 A 
ATOM     36  C   UNL     1       6.437  -2.470  13.009  1.00  0.00     0.074 A 
ATOM     37  C   UNL     1       5.369  -3.582  14.938  1.00  0.00     0.049 A 
ATOM     38  N   UNL     1       7.458  -1.899  13.597  1.00  0.00    -0.248 NA
ATOM     39  C   UNL     1       6.374  -2.228  11.558  1.00  0.00     0.031 C 
ATOM     40  C   UNL     1       4.386  -4.407  15.642  1.00  0.00     0.029 A 
ATOM     41  N   UNL     1       6.223  -3.164  15.926  1.00  0.00    -0.354 N 
ATOM     42  C   UNL     1       8.173  -1.263  12.589  1.00  0.00     0.074 A 
ATOM     43  C   UNL     1       7.480  -1.527  11.348  1.00  0.00     0.031 C 
ATOM     44  C   UNL     1       4.659  -4.389  16.955  1.00  0.00     0.029 A 
ATOM     45  C   UNL     1       5.861  -3.592  17.181  1.00  0.00     0.049 A 
ATOM     46  H   UNL     1       7.019  -2.610  15.754  1.00  0.00     0.167 HD
ATOM     47  C   UNL     1       9.289  -0.503  12.690  1.00  0.00     0.034 A 
ATOM     48  C   UNL     1       6.426  -3.368  18.383  1.00  0.00     0.034 A 
ATOM     49  C   UNL     1       9.948  -0.190  13.928  1.00  0.00     0.049 A 
ATOM     50  C   UNL     1       7.658  -2.517  18.472  1.00  0.00     0.074 A 
ATOM     51  C   UNL     1      11.059   0.609  14.130  1.00  0.00     0.029 A 
ATOM     52  N   UNL     1       9.554  -0.654  15.174  1.00  0.00    -0.354 N 
ATOM     53  N   UNL     1       8.276  -1.868  17.516  1.00  0.00    -0.248 NA
ATOM     54  C   UNL     1       8.267  -2.360  19.801  1.00  0.00     0.031 C 
ATOM     55  C   UNL     1      11.340   0.627  15.500  1.00  0.00     0.029 A 
ATOM     56  C   UNL     1      10.402  -0.159  16.149  1.00  0.00     0.049 A 
ATOM     57  H   UNL     1       8.786  -1.246  15.339  1.00  0.00     0.167 HD
ATOM     58  C   UNL     1       9.344  -1.221  18.125  1.00  0.00     0.074 A 
ATOM     59  C   UNL     1       9.277  -1.538  19.537  1.00  0.00     0.031 C 
ATOM     60  C   UNL     1      10.303  -0.452  17.556  1.00  0.00     0.034 A 
BRANCH  47  61
ATOM     61  C   UNL     1       9.840   0.102  11.428  1.00  0.00     0.023 A 
ATOM     62  C   UNL     1       9.222   1.248  10.891  1.00  0.00     0.012 A 
ATOM     63  C   UNL     1      11.000  -0.413  10.818  1.00  0.00     0.148 A 
ATOM     64  C   UNL     1       9.739   1.865   9.753  1.00  0.00     0.002 A 
ATOM     65  C   UNL     1      11.527   0.224   9.700  1.00  0.00     0.091 A 
ATOM     66  F   UNL     1      11.560  -1.515  11.337  1.00  0.00    -0.205 F 
ATOM     67  C   UNL     1      10.895   1.359   9.164  1.00  0.00     0.022 A 
BRANCH  65  68
ATOM     68  S   UNL     1      13.040  -0.316   8.897  1.00  0.00     0.127 S 
ATOM     69  O   UNL     1      12.527  -0.860   7.640  1.00  0.00    -0.237 OA
ATOM     70  O   UNL     1      13.782   0.937   8.761  1.00  0.00    -0.237 OA
ATOM     71  O   UNL     1      13.647  -1.288   9.796  1.00  0.00    -0.744 OA
ENDBRANCH  65  68
ENDBRANCH  47  61
BRANCH  48  72
ATOM     72  C   UNL     1       5.769  -3.921  19.598  1.00  0.00     0.023 A 
ATOM     73  C   UNL     1       5.020  -3.062  20.422  1.00  0.00     0.012 A 
ATOM     74  C   UNL     1       5.784  -5.303  19.868  1.00  0.00     0.148 A 
ATOM     75  C   UNL     1       4.290  -3.571  21.497  1.00  0.00     0.002 A 
ATOM     76  C   UNL     1       5.021  -5.809  20.913  1.00  0.00     0.091 A 
ATOM     77  F   UNL     1       6.504  -6.096  19.063  1.00  0.00    -0.205 F 
ATOM     78  C   UNL     1       4.279  -4.944  21.733  1.00  0.00     0.022 A 
BRANCH  76  79
ATOM     79  S   UNL     1       4.848  -7.569  21.225  1.00  0.00     0.127 S 
ATOM     80  O   UNL     1       5.364  -7.683  22.587  1.00  0.00    -0.237 OA
ATOM     81  O   UNL     1       3.402  -7.751  21.096  1.00  0.00    -0.237 OA
ATOM     82  O   UNL     1       5.641  -8.235  20.201  1.00  0.00    -0.744 OA
ENDBRANCH  76  79
ENDBRANCH  48  72
BRANCH  60  83
ATOM     83  C   UNL     1      11.382   0.102  18.444  1.00  0.00     0.023 A 
ATOM     84  C   UNL     1      12.462  -0.726  18.804  1.00  0.00     0.012 A 
ATOM     85  C   UNL     1      11.396   1.464  18.802  1.00  0.00     0.148 A 
ATOM     86  C   UNL     1      13.544  -0.207  19.512  1.00  0.00     0.002 A 
ATOM     87  C   UNL     1      12.492   1.981  19.482  1.00  0.00     0.091 A 
ATOM     88  F   UNL     1      10.351   2.227  18.450  1.00  0.00    -0.205 F 
ATOM     89  C   UNL     1      13.565   1.147  19.841  1.00  0.00     0.022 A 
BRANCH  87  90
ATOM     90  S   UNL     1      12.649   3.724  19.888  1.00  0.00     0.127 S 
ATOM     91  O   UNL     1      12.626   3.693  21.350  1.00  0.00    -0.237 OA
ATOM     92  O   UNL     1      13.948   4.060  19.305  1.00  0.00    -0.237 OA
ATOM     93  O   UNL     1      11.511   4.389  19.267  1.00  0.00    -0.744 OA
ENDBRANCH  87  90
ENDBRANCH  60  83
ENDBRANCH  34  35
ENDBRANCH  26  29
ENDBRANCH   1  25
TORSDOF 14
