REMARK SMILES O=C(COC[C@@H]1CCCCO1)NCCCNC(=O)c1ccc(-c2c3nc(c(-c4cccc(S(=O)(=O)[O-])c4F)c4ccc([nH]4)c(-c4cccc(S(=O)(=O)[O-])c4F)c4nc(c(-c5cccc(S(=O)(=O)[O-])c5F)c5ccc2[nH]5)C=C4)C=C3)cc1
REMARK SMILES IDX 14 1 13 2 12 3 1 4 2 5 3 7 4 8 5 9 6 10 7 11 11 12 8 13
REMARK SMILES IDX 10 14 9 15 15 16 16 17 17 18 18 20 19 21 20 22 81 23 21 24
REMARK SMILES IDX 80 25 22 26 23 27 24 28 74 29 25 30 79 31 73 32 75 33 26 34
REMARK SMILES IDX 78 35 72 36 71 37 27 39 59 40 39 41 58 42 40 43 43 44 57 45
REMARK SMILES IDX 76 46 41 47 42 48 56 50 77 51 44 52 28 53 29 54 37 55 30 56
REMARK SMILES IDX 32 57 38 58 31 59 33 60 34 61 35 62 36 63 60 64 61 65 69 66
REMARK SMILES IDX 62 67 64 68 70 69 63 70 65 71 66 72 67 73 68 74 45 75 46 76
REMARK SMILES IDX 54 77 47 78 49 79 55 80 48 81 50 82 51 83 52 84 53 85
REMARK H PARENT 12 6 16 19 75 38 43 49
REMARK Flexibility Score: inf
ROOT
ATOM      1  C   UNL     1       2.249  -0.859  -3.471  1.00  0.00     0.042 C 
ENDROOT
BRANCH   1   2
ATOM      2  C   UNL     1       1.986  -1.541  -2.134  1.00  0.00     0.117 C 
BRANCH   2   3
ATOM      3  N   UNL     1       2.748  -0.948  -1.055  1.00  0.00    -0.354 N 
ATOM      4  O   UNL     1       1.104   0.503  -0.357  1.00  0.00    -0.272 OA
ATOM      5  C   UNL     1       2.244   0.059  -0.264  1.00  0.00     0.246 C 
ATOM      6  H   UNL     1       3.660  -1.276  -0.882  1.00  0.00     0.163 HD
BRANCH   5   7
ATOM      7  C   UNL     1       3.237   0.561   0.792  1.00  0.00     0.260 C 
BRANCH   7   8
ATOM      8  O   UNL     1       3.699  -0.360   1.773  1.00  0.00    -0.369 OA
BRANCH   8   9
ATOM      9  C   UNL     1       2.701  -1.207   2.346  1.00  0.00     0.192 C 
BRANCH   9  10
ATOM     10  C   UNL     1       1.938  -0.677   3.584  1.00  0.00     0.144 C 
ATOM     11  C   UNL     1       1.687   0.828   3.695  1.00  0.00     0.034 C 
ATOM     12  O   UNL     1       2.517  -1.175   4.806  1.00  0.00    -0.376 OA
ATOM     13  C   UNL     1       2.910   1.606   4.176  1.00  0.00     0.005 C 
ATOM     14  C   UNL     1       3.736  -0.532   5.171  1.00  0.00     0.160 C 
ATOM     15  C   UNL     1       3.508   0.951   5.413  1.00  0.00     0.029 C 
ENDBRANCH   9  10
ENDBRANCH   8   9
ENDBRANCH   7   8
ENDBRANCH   5   7
ENDBRANCH   2   3
ENDBRANCH   1   2
BRANCH   1  16
ATOM     16  C   UNL     1       3.719  -0.823  -3.877  1.00  0.00     0.118 C 
BRANCH  16  17
ATOM     17  N   UNL     1       4.315  -2.147  -4.016  1.00  0.00    -0.352 N 
ATOM     18  C   UNL     1       5.058  -2.663  -5.052  1.00  0.00     0.251 C 
ATOM     19  H   UNL     1       4.164  -2.758  -3.259  1.00  0.00     0.163 HD
ATOM     20  O   UNL     1       5.385  -3.842  -5.046  1.00  0.00    -0.269 OA
BRANCH  18  21
ATOM     21  C   UNL     1       5.429  -1.790  -6.186  1.00  0.00     0.039 A 
ATOM     22  C   UNL     1       5.170  -2.227  -7.488  1.00  0.00     0.014 A 
ATOM     23  C   UNL     1       5.997  -0.534  -5.961  1.00  0.00     0.014 A 
ATOM     24  C   UNL     1       5.401  -1.366  -8.564  1.00  0.00     0.010 A 
ATOM     25  C   UNL     1       6.166   0.344  -7.027  1.00  0.00     0.010 A 
ATOM     26  C   UNL     1       5.860  -0.059  -8.337  1.00  0.00    -0.014 A 
BRANCH  26  27
ATOM     27  C   UNL     1       5.998   0.927  -9.439  1.00  0.00     0.031 A 
ATOM     28  C   UNL     1       7.347   1.504  -9.766  1.00  0.00     0.074 A 
ATOM     29  C   UNL     1       4.894   1.399 -10.052  1.00  0.00     0.049 A 
ATOM     30  N   UNL     1       7.652   2.481 -10.579  1.00  0.00    -0.248 NA
ATOM     31  C   UNL     1       8.504   0.926  -9.061  1.00  0.00     0.031 C 
ATOM     32  C   UNL     1       3.522   0.970  -9.773  1.00  0.00     0.029 A 
ATOM     33  N   UNL     1       4.747   2.376 -11.006  1.00  0.00    -0.354 N 
ATOM     34  C   UNL     1       9.022   2.668 -10.450  1.00  0.00     0.074 A 
ATOM     35  C   UNL     1       9.489   1.716  -9.465  1.00  0.00     0.031 C 
ATOM     36  C   UNL     1       2.674   1.685 -10.529  1.00  0.00     0.029 A 
ATOM     37  C   UNL     1       3.435   2.647 -11.320  1.00  0.00     0.049 A 
ATOM     38  H   UNL     1       5.508   2.838 -11.425  1.00  0.00     0.167 HD
ATOM     39  C   UNL     1       9.824   3.538 -11.109  1.00  0.00     0.034 A 
ATOM     40  C   UNL     1       2.904   3.576 -12.139  1.00  0.00     0.034 A 
ATOM     41  C   UNL     1       9.365   4.442 -12.128  1.00  0.00     0.049 A 
ATOM     42  C   UNL     1       3.822   4.495 -12.897  1.00  0.00     0.074 A 
ATOM     43  C   UNL     1      10.112   5.300 -12.915  1.00  0.00     0.029 A 
ATOM     44  N   UNL     1       8.041   4.605 -12.503  1.00  0.00    -0.354 N 
ATOM     45  N   UNL     1       5.131   4.558 -12.870  1.00  0.00    -0.248 NA
ATOM     46  C   UNL     1       3.196   5.449 -13.825  1.00  0.00     0.031 C 
ATOM     47  C   UNL     1       9.238   5.989 -13.761  1.00  0.00     0.029 A 
ATOM     48  C   UNL     1       7.948   5.548 -13.511  1.00  0.00     0.049 A 
ATOM     49  H   UNL     1       7.279   4.122 -12.110  1.00  0.00     0.167 HD
ATOM     50  C   UNL     1       5.487   5.523 -13.804  1.00  0.00     0.074 A 
ATOM     51  C   UNL     1       4.257   6.014 -14.389  1.00  0.00     0.031 C 
ATOM     52  C   UNL     1       6.722   5.972 -14.136  1.00  0.00     0.034 A 
BRANCH  39  53
ATOM     53  C   UNL     1      11.295   3.511 -10.793  1.00  0.00     0.023 A 
ATOM     54  C   UNL     1      12.081   2.434 -11.249  1.00  0.00     0.012 A 
ATOM     55  C   UNL     1      11.911   4.575 -10.104  1.00  0.00     0.148 A 
ATOM     56  C   UNL     1      13.452   2.399 -10.998  1.00  0.00     0.002 A 
ATOM     57  C   UNL     1      13.286   4.552  -9.894  1.00  0.00     0.091 A 
ATOM     58  F   UNL     1      11.144   5.579  -9.658  1.00  0.00    -0.205 F 
ATOM     59  C   UNL     1      14.055   3.461 -10.331  1.00  0.00     0.022 A 
BRANCH  57  60
ATOM     60  S   UNL     1      14.164   5.910  -9.112  1.00  0.00     0.127 S 
ATOM     61  O   UNL     1      14.453   5.354  -7.792  1.00  0.00    -0.237 OA
ATOM     62  O   UNL     1      15.334   6.063  -9.978  1.00  0.00    -0.237 OA
ATOM     63  O   UNL     1      13.247   7.042  -9.131  1.00  0.00    -0.744 OA
ENDBRANCH  57  60
ENDBRANCH  39  53
BRANCH  40  64
ATOM     64  C   UNL     1       1.428   3.633 -12.338  1.00  0.00     0.023 A 
ATOM     65  C   UNL     1       0.884   3.208 -13.566  1.00  0.00     0.012 A 
ATOM     66  C   UNL     1       0.560   4.067 -11.317  1.00  0.00     0.148 A 
ATOM     67  C   UNL     1      -0.493   3.240 -13.785  1.00  0.00     0.002 A 
ATOM     68  C   UNL     1      -0.815   4.046 -11.523  1.00  0.00     0.091 A 
ATOM     69  F   UNL     1       1.097   4.481 -10.161  1.00  0.00    -0.205 F 
ATOM     70  C   UNL     1      -1.343   3.648 -12.761  1.00  0.00     0.022 A 
BRANCH  68  71
ATOM     71  S   UNL     1      -1.987   4.431 -10.216  1.00  0.00     0.127 S 
ATOM     72  O   UNL     1      -2.466   5.749 -10.622  1.00  0.00    -0.237 OA
ATOM     73  O   UNL     1      -2.964   3.350 -10.355  1.00  0.00    -0.237 OA
ATOM     74  O   UNL     1      -1.218   4.385  -8.979  1.00  0.00    -0.744 OA
ENDBRANCH  68  71
ENDBRANCH  40  64
BRANCH  52  75
ATOM     75  C   UNL     1       6.827   7.012 -15.219  1.00  0.00     0.023 A 
ATOM     76  C   UNL     1       6.487   8.349 -14.941  1.00  0.00     0.012 A 
ATOM     77  C   UNL     1       7.365   6.680 -16.479  1.00  0.00     0.148 A 
ATOM     78  C   UNL     1       6.664   9.339 -15.906  1.00  0.00     0.002 A 
ATOM     79  C   UNL     1       7.581   7.678 -17.420  1.00  0.00     0.091 A 
ATOM     80  F   UNL     1       7.664   5.396 -16.728  1.00  0.00    -0.205 F 
ATOM     81  C   UNL     1       7.223   9.007 -17.139  1.00  0.00     0.022 A 
BRANCH  79  82
ATOM     82  S   UNL     1       8.382   7.359 -18.996  1.00  0.00     0.127 S 
ATOM     83  O   UNL     1       7.263   7.479 -19.929  1.00  0.00    -0.237 OA
ATOM     84  O   UNL     1       9.360   8.446 -19.073  1.00  0.00    -0.237 OA
ATOM     85  O   UNL     1       8.966   6.029 -18.887  1.00  0.00    -0.744 OA
ENDBRANCH  79  82
ENDBRANCH  52  75
ENDBRANCH  26  27
ENDBRANCH  18  21
ENDBRANCH  16  17
ENDBRANCH   1  16
TORSDOF 16
