REMARK SMILES O=C(NCCCNC(=O)c1cc(Br)ccc1NC(=O)c1ccc(Br)s1)c1ccc(-c2c3nc(c(-c4cccc(S(=O)(=O)[O-])c4F)c4ccc([nH]4)c(-c4cccc(S(=O)(=O)[O-])c4F)c4nc(c(-c5cccc(S(=O)(=O)[O-])c5F)c5ccc2[nH]5)C=C4)C=C3)cc1
REMARK SMILES IDX 4 1 3 2 1 3 2 4 26 6 27 7 88 8 28 9 87 10 29 11 30 12 31 13
REMARK SMILES IDX 81 14 32 15 86 16 80 17 82 18 33 19 85 20 79 21 78 22 34 24
REMARK SMILES IDX 66 25 46 26 65 27 47 28 50 29 64 30 83 31 48 32 49 33 63 35
REMARK SMILES IDX 84 36 51 37 35 38 36 39 44 40 37 41 39 42 45 43 38 44 40 45
REMARK SMILES IDX 41 46 42 47 43 48 67 49 68 50 76 51 69 52 71 53 77 54 70 55
REMARK SMILES IDX 72 56 73 57 74 58 75 59 52 60 53 61 61 62 54 63 56 64 62 65
REMARK SMILES IDX 55 66 57 67 58 68 59 69 60 70 5 71 6 72 7 73 8 74 9 76 10 77
REMARK SMILES IDX 11 78 16 79 12 80 15 81 13 82 14 83 17 84 18 85 19 87 20 88
REMARK SMILES IDX 21 89 25 90 22 91 23 92 24 93
REMARK H PARENT 3 5 82 23 50 34 7 75 17 86
REMARK Flexibility Score: inf
ROOT
ATOM      1  C   UNL     1       4.662  -1.181   0.833  1.00  0.00     0.118 C 
ENDROOT
BRANCH   1   2
ATOM      2  N   UNL     1       3.226  -1.132   0.605  1.00  0.00    -0.352 N 
ATOM      3  O   UNL     1       1.230  -0.262   0.081  1.00  0.00    -0.269 OA
ATOM      4  C   UNL     1       2.451  -0.205  -0.047  1.00  0.00     0.251 C 
ATOM      5  H   UNL     1       2.725  -1.892   0.982  1.00  0.00     0.163 HD
BRANCH   4   6
ATOM      6  C   UNL     1       3.063   0.860  -0.874  1.00  0.00     0.039 A 
ATOM      7  C   UNL     1       4.148   0.599  -1.714  1.00  0.00     0.014 A 
ATOM      8  C   UNL     1       2.495   2.138  -0.851  1.00  0.00     0.014 A 
ATOM      9  C   UNL     1       4.752   1.638  -2.420  1.00  0.00     0.010 A 
ATOM     10  C   UNL     1       3.052   3.162  -1.621  1.00  0.00     0.010 A 
ATOM     11  C   UNL     1       4.205   2.929  -2.387  1.00  0.00    -0.014 A 
BRANCH  11  12
ATOM     12  C   UNL     1       4.805   4.021  -3.194  1.00  0.00     0.031 A 
ATOM     13  C   UNL     1       5.396   5.232  -2.529  1.00  0.00     0.074 A 
ATOM     14  C   UNL     1       4.765   3.942  -4.538  1.00  0.00     0.049 A 
ATOM     15  N   UNL     1       5.888   6.314  -3.075  1.00  0.00    -0.248 NA
ATOM     16  C   UNL     1       5.427   5.235  -1.057  1.00  0.00     0.031 C 
ATOM     17  C   UNL     1       4.181   2.834  -5.298  1.00  0.00     0.029 A 
ATOM     18  N   UNL     1       5.193   4.819  -5.503  1.00  0.00    -0.354 N 
ATOM     19  C   UNL     1       6.244   7.145  -2.020  1.00  0.00     0.074 A 
ATOM     20  C   UNL     1       5.907   6.444  -0.799  1.00  0.00     0.031 C 
ATOM     21  C   UNL     1       4.276   3.102  -6.608  1.00  0.00     0.029 A 
ATOM     22  C   UNL     1       4.882   4.419  -6.781  1.00  0.00     0.049 A 
ATOM     23  H   UNL     1       5.675   5.652  -5.299  1.00  0.00     0.167 HD
ATOM     24  C   UNL     1       6.811   8.375  -2.065  1.00  0.00     0.034 A 
ATOM     25  C   UNL     1       5.035   5.050  -7.961  1.00  0.00     0.034 A 
ATOM     26  C   UNL     1       7.178   9.050  -3.281  1.00  0.00     0.049 A 
ATOM     27  C   UNL     1       5.688   6.402  -7.987  1.00  0.00     0.074 A 
ATOM     28  C   UNL     1       7.827  10.263  -3.428  1.00  0.00     0.029 A 
ATOM     29  N   UNL     1       6.922   8.575  -4.558  1.00  0.00    -0.354 N 
ATOM     30  N   UNL     1       6.139   7.116  -6.984  1.00  0.00    -0.248 NA
ATOM     31  C   UNL     1       5.883   7.024  -9.304  1.00  0.00     0.031 C 
ATOM     32  C   UNL     1       7.948  10.530  -4.796  1.00  0.00     0.029 A 
ATOM     33  C   UNL     1       7.391   9.474  -5.501  1.00  0.00     0.049 A 
ATOM     34  H   UNL     1       6.472   7.724  -4.765  1.00  0.00     0.167 HD
ATOM     35  C   UNL     1       6.699   8.255  -7.547  1.00  0.00     0.074 A 
ATOM     36  C   UNL     1       6.541   8.131  -8.983  1.00  0.00     0.031 C 
ATOM     37  C   UNL     1       7.280   9.312  -6.929  1.00  0.00     0.034 A 
BRANCH  24  38
ATOM     38  C   UNL     1       7.103   9.057  -0.754  1.00  0.00     0.023 A 
ATOM     39  C   UNL     1       8.174   8.604   0.043  1.00  0.00     0.012 A 
ATOM     40  C   UNL     1       6.353  10.172  -0.333  1.00  0.00     0.148 A 
ATOM     41  C   UNL     1       8.471   9.226   1.255  1.00  0.00     0.002 A 
ATOM     42  C   UNL     1       6.681  10.812   0.858  1.00  0.00     0.091 A 
ATOM     43  F   UNL     1       5.322  10.576  -1.088  1.00  0.00    -0.205 F 
ATOM     44  C   UNL     1       7.732  10.335   1.657  1.00  0.00     0.022 A 
BRANCH  42  45
ATOM     45  S   UNL     1       5.823  12.291   1.412  1.00  0.00     0.127 S 
ATOM     46  O   UNL     1       4.876  11.739   2.379  1.00  0.00    -0.237 OA
ATOM     47  O   UNL     1       6.904  13.081   2.003  1.00  0.00    -0.237 OA
ATOM     48  O   UNL     1       5.239  12.876   0.213  1.00  0.00    -0.744 OA
ENDBRANCH  42  45
ENDBRANCH  24  38
BRANCH  25  49
ATOM     49  C   UNL     1       4.593   4.368  -9.208  1.00  0.00     0.023 A 
ATOM     50  C   UNL     1       5.557   3.847 -10.091  1.00  0.00     0.012 A 
ATOM     51  C   UNL     1       3.226   4.149  -9.472  1.00  0.00     0.148 A 
ATOM     52  C   UNL     1       5.167   3.127 -11.221  1.00  0.00     0.002 A 
ATOM     53  C   UNL     1       2.847   3.384 -10.567  1.00  0.00     0.091 A 
ATOM     54  F   UNL     1       2.327   4.663  -8.621  1.00  0.00    -0.205 F 
ATOM     55  C   UNL     1       3.816   2.884 -11.451  1.00  0.00     0.022 A 
BRANCH  53  56
ATOM     56  S   UNL     1       1.143   2.897 -10.862  1.00  0.00     0.127 S 
ATOM     57  O   UNL     1       0.822   3.649 -12.072  1.00  0.00    -0.237 OA
ATOM     58  O   UNL     1       1.273   1.452 -11.050  1.00  0.00    -0.237 OA
ATOM     59  O   UNL     1       0.409   3.284  -9.665  1.00  0.00    -0.744 OA
ENDBRANCH  53  56
ENDBRANCH  25  49
BRANCH  37  60
ATOM     60  C   UNL     1       7.832  10.415  -7.791  1.00  0.00     0.023 A 
ATOM     61  C   UNL     1       6.954  11.340  -8.387  1.00  0.00     0.012 A 
ATOM     62  C   UNL     1       9.223  10.596  -7.918  1.00  0.00     0.148 A 
ATOM     63  C   UNL     1       7.453  12.423  -9.111  1.00  0.00     0.002 A 
ATOM     64  C   UNL     1       9.713  11.701  -8.604  1.00  0.00     0.091 A 
ATOM     65  F   UNL     1      10.039   9.691  -7.358  1.00  0.00    -0.205 F 
ATOM     66  C   UNL     1       8.830  12.611  -9.207  1.00  0.00     0.022 A 
BRANCH  64  67
ATOM     67  S   UNL     1      11.468  12.074  -8.700  1.00  0.00     0.127 S 
ATOM     68  O   UNL     1      11.758  11.783 -10.103  1.00  0.00    -0.237 OA
ATOM     69  O   UNL     1      11.503  13.495  -8.352  1.00  0.00    -0.237 OA
ATOM     70  O   UNL     1      12.119  11.200  -7.734  1.00  0.00    -0.744 OA
ENDBRANCH  64  67
ENDBRANCH  37  60
ENDBRANCH  11  12
ENDBRANCH   4   6
ENDBRANCH   1   2
BRANCH   1  71
ATOM     71  C   UNL     1       5.032  -0.923   2.288  1.00  0.00     0.042 C 
BRANCH  71  72
ATOM     72  C   UNL     1       4.476  -1.947   3.268  1.00  0.00     0.118 C 
BRANCH  72  73
ATOM     73  N   UNL     1       5.029  -3.284   3.071  1.00  0.00    -0.352 N 
ATOM     74  C   UNL     1       5.828  -4.035   3.899  1.00  0.00     0.253 C 
ATOM     75  H   UNL     1       4.795  -3.711   2.215  1.00  0.00     0.163 HD
ATOM     76  O   UNL     1       6.353  -5.067   3.489  1.00  0.00    -0.269 OA
BRANCH  74  77
ATOM     77  C   UNL     1       6.109  -3.568   5.274  1.00  0.00     0.064 A 
ATOM     78  C   UNL     1       5.022  -3.217   6.090  1.00  0.00     0.031 A 
ATOM     79  C   UNL     1       7.432  -3.469   5.749  1.00  0.00     0.054 A 
ATOM     80  C   UNL     1       5.252  -2.610   7.317  1.00  0.00     0.018 A 
ATOM     81  C   UNL     1       7.632  -2.771   6.944  1.00  0.00     0.028 A 
ATOM     82  Br  UNL     1       3.795  -2.082   8.394  1.00  0.00    -0.051 Br
ATOM     83  C   UNL     1       6.552  -2.347   7.728  1.00  0.00     0.018 A 
BRANCH  79  84
ATOM     84  N   UNL     1       8.488  -4.047   5.003  1.00  0.00    -0.321 N 
ATOM     85  C   UNL     1       9.802  -4.351   5.308  1.00  0.00     0.265 C 
ATOM     86  H   UNL     1       8.235  -4.280   4.081  1.00  0.00     0.170 HD
ATOM     87  O   UNL     1      10.539  -4.692   4.381  1.00  0.00    -0.268 OA
BRANCH  85  88
ATOM     88  C   UNL     1      10.250  -4.339   6.687  1.00  0.00     0.093 A 
ATOM     89  C   UNL     1       9.710  -4.973   7.794  1.00  0.00     0.027 A 
ATOM     90  S   UNL     1      11.667  -3.464   7.097  1.00  0.00    -0.123 S 
ATOM     91  C   UNL     1      10.394  -4.630   8.999  1.00  0.00     0.028 A 
ATOM     92  C   UNL     1      11.460  -3.804   8.743  1.00  0.00     0.071 A 
ATOM     93  Br  UNL     1      12.579  -3.116  10.078  1.00  0.00    -0.039 Br
ENDBRANCH  85  88
ENDBRANCH  79  84
ENDBRANCH  74  77
ENDBRANCH  72  73
ENDBRANCH  71  72
ENDBRANCH   1  71
TORSDOF 15
