REMARK SMILES C[C@H]1[C@H](C(=O)NCCCNC(=O)c2ccc(-c3c4nc(c(-c5cccc(S(=O)(=O)[O-])c5F)c5ccc([nH]5)c(-c5cccc(S(=O)(=O)[O-])c5F)c5nc(c(-c6cccc(S(=O)(=O)[O-])c6F)c6ccc3[nH]6)C=C5)C=C4)cc2)CCN1c1ncnc2sccc12
REMARK SMILES IDX 9 1 8 2 7 3 6 4 4 5 5 6 3 8 1 9 2 10 78 11 76 12 77 13 79 14
REMARK SMILES IDX 80 15 87 16 81 17 83 18 86 19 82 20 84 21 85 22 10 23 11 24
REMARK SMILES IDX 12 26 13 27 14 28 75 29 15 30 74 31 16 32 17 33 18 34 68 35
REMARK SMILES IDX 19 36 73 37 67 38 69 39 20 40 72 41 66 42 65 43 21 45 53 46
REMARK SMILES IDX 33 47 52 48 34 49 37 50 51 51 70 52 35 53 36 54 50 56 71 57
REMARK SMILES IDX 38 58 22 59 23 60 31 61 24 62 26 63 32 64 25 65 27 66 28 67
REMARK SMILES IDX 29 68 30 69 54 70 55 71 63 72 56 73 58 74 64 75 57 76 59 77
REMARK SMILES IDX 60 78 61 79 62 80 39 81 40 82 48 83 41 84 43 85 49 86 42 87
REMARK SMILES IDX 44 88 45 89 46 90 47 91
REMARK H PARENT 6 7 10 25 69 44 37 55
REMARK Flexibility Score: inf
ROOT
ATOM      1  C   UNL     1      -0.112   0.717   5.211  1.00  0.00     0.118 C 
ENDROOT
BRANCH   1   2
ATOM      2  C   UNL     1      -0.245  -0.066   3.911  1.00  0.00     0.042 C 
BRANCH   2   3
ATOM      3  C   UNL     1      -1.121   0.614   2.866  1.00  0.00     0.117 C 
BRANCH   3   4
ATOM      4  N   UNL     1      -0.544   1.854   2.371  1.00  0.00    -0.356 N 
ATOM      5  C   UNL     1      -0.028   2.180   1.157  1.00  0.00     0.225 C 
ATOM      6  O   UNL     1       0.396   3.332   1.015  1.00  0.00    -0.275 OA
ATOM      7  H   UNL     1      -0.525   2.584   3.030  1.00  0.00     0.163 HD
BRANCH   5   8
ATOM      8  C   UNL     1       0.005   1.214  -0.016  1.00  0.00     0.102 C 
ATOM      9  C   UNL     1       2.025  -0.124  -0.698  1.00  0.00     0.032 C 
ATOM     10  C   UNL     1       0.834  -0.047   0.261  1.00  0.00     0.093 C 
ATOM     11  N   UNL     1      -0.096  -1.162   0.042  1.00  0.00    -0.352 N 
ATOM     12  C   UNL     1      -1.382   0.766  -0.463  1.00  0.00     0.037 C 
ATOM     13  C   UNL     1      -1.338  -0.752  -0.573  1.00  0.00     0.119 C 
BRANCH  11  14
ATOM     14  C   UNL     1       0.199  -2.431   0.495  1.00  0.00     0.141 A 
ATOM     15  N   UNL     1       1.363  -2.582   1.185  1.00  0.00    -0.219 NA
ATOM     16  C   UNL     1      -0.606  -3.594   0.333  1.00  0.00     0.054 A 
ATOM     17  C   UNL     1       1.718  -3.783   1.669  1.00  0.00     0.225 A 
ATOM     18  C   UNL     1      -0.118  -4.764   0.904  1.00  0.00     0.128 A 
ATOM     19  C   UNL     1      -1.865  -3.874  -0.315  1.00  0.00     0.026 A 
ATOM     20  N   UNL     1       1.033  -4.916   1.571  1.00  0.00    -0.225 NA
ATOM     21  S   UNL     1      -1.150  -6.107   0.699  1.00  0.00    -0.124 S 
ATOM     22  C   UNL     1      -2.281  -5.179  -0.172  1.00  0.00     0.068 A 
ENDBRANCH  11  14
ENDBRANCH   5   8
ENDBRANCH   3   4
ENDBRANCH   2   3
ENDBRANCH   1   2
BRANCH   1  23
ATOM     23  N   UNL     1      -1.385   0.879   5.902  1.00  0.00    -0.352 N 
ATOM     24  C   UNL     1      -1.769   0.475   7.156  1.00  0.00     0.251 C 
ATOM     25  H   UNL     1      -2.078   1.354   5.389  1.00  0.00     0.163 HD
ATOM     26  O   UNL     1      -2.957   0.543   7.470  1.00  0.00    -0.269 OA
BRANCH  24  27
ATOM     27  C   UNL     1      -0.777  -0.049   8.120  1.00  0.00     0.039 A 
ATOM     28  C   UNL     1      -1.127  -1.139   8.923  1.00  0.00     0.014 A 
ATOM     29  C   UNL     1       0.480   0.543   8.261  1.00  0.00     0.014 A 
ATOM     30  C   UNL     1      -0.197  -1.670   9.819  1.00  0.00     0.010 A 
ATOM     31  C   UNL     1       1.434  -0.038   9.093  1.00  0.00     0.010 A 
ATOM     32  C   UNL     1       1.104  -1.144   9.889  1.00  0.00    -0.014 A 
BRANCH  32  33
ATOM     33  C   UNL     1       2.131  -1.748  10.777  1.00  0.00     0.031 A 
ATOM     34  C   UNL     1       2.745  -0.946  11.893  1.00  0.00     0.074 A 
ATOM     35  C   UNL     1       2.572  -2.996  10.525  1.00  0.00     0.049 A 
ATOM     36  N   UNL     1       3.678  -1.295  12.742  1.00  0.00    -0.248 NA
ATOM     37  C   UNL     1       2.273   0.438  12.061  1.00  0.00     0.031 C 
ATOM     38  C   UNL     1       2.129  -3.841   9.414  1.00  0.00     0.029 A 
ATOM     39  N   UNL     1       3.512  -3.762  11.168  1.00  0.00    -0.354 N 
ATOM     40  C   UNL     1       3.925  -0.171  13.521  1.00  0.00     0.074 A 
ATOM     41  C   UNL     1       3.075   0.885  13.017  1.00  0.00     0.031 C 
ATOM     42  C   UNL     1       2.792  -5.008   9.456  1.00  0.00     0.029 A 
ATOM     43  C   UNL     1       3.723  -4.987  10.579  1.00  0.00     0.049 A 
ATOM     44  H   UNL     1       3.990  -3.463  11.976  1.00  0.00     0.167 HD
ATOM     45  C   UNL     1       4.758  -0.037  14.581  1.00  0.00     0.034 A 
ATOM     46  C   UNL     1       4.572  -5.981  10.905  1.00  0.00     0.034 A 
ATOM     47  C   UNL     1       5.571  -1.101  15.107  1.00  0.00     0.049 A 
ATOM     48  C   UNL     1       5.440  -5.831  12.123  1.00  0.00     0.074 A 
ATOM     49  C   UNL     1       6.381  -1.091  16.229  1.00  0.00     0.029 A 
ATOM     50  N   UNL     1       5.681  -2.364  14.546  1.00  0.00    -0.354 N 
ATOM     51  N   UNL     1       5.536  -4.816  12.948  1.00  0.00    -0.248 NA
ATOM     52  C   UNL     1       6.287  -6.978  12.481  1.00  0.00     0.031 C 
ATOM     53  C   UNL     1       6.993  -2.345  16.337  1.00  0.00     0.029 A 
ATOM     54  C   UNL     1       6.547  -3.142  15.295  1.00  0.00     0.049 A 
ATOM     55  H   UNL     1       5.211  -2.663  13.735  1.00  0.00     0.167 HD
ATOM     56  C   UNL     1       6.429  -5.212  13.937  1.00  0.00     0.074 A 
ATOM     57  C   UNL     1       6.824  -6.570  13.623  1.00  0.00     0.031 C 
ATOM     58  C   UNL     1       6.896  -4.508  14.998  1.00  0.00     0.034 A 
BRANCH  45  59
ATOM     59  C   UNL     1       4.780   1.296  15.286  1.00  0.00     0.023 A 
ATOM     60  C   UNL     1       3.664   1.690  16.053  1.00  0.00     0.012 A 
ATOM     61  C   UNL     1       5.912   2.133  15.234  1.00  0.00     0.148 A 
ATOM     62  C   UNL     1       3.658   2.911  16.727  1.00  0.00     0.002 A 
ATOM     63  C   UNL     1       5.915   3.329  15.945  1.00  0.00     0.091 A 
ATOM     64  F   UNL     1       6.955   1.754  14.483  1.00  0.00    -0.205 F 
ATOM     65  C   UNL     1       4.786   3.724  16.681  1.00  0.00     0.022 A 
BRANCH  63  66
ATOM     66  S   UNL     1       7.349   4.410  16.014  1.00  0.00     0.127 S 
ATOM     67  O   UNL     1       6.911   5.533  15.184  1.00  0.00    -0.237 OA
ATOM     68  O   UNL     1       7.439   4.711  17.444  1.00  0.00    -0.237 OA
ATOM     69  O   UNL     1       8.460   3.636  15.486  1.00  0.00    -0.744 OA
ENDBRANCH  63  66
ENDBRANCH  45  59
BRANCH  46  70
ATOM     70  C   UNL     1       4.584  -7.235  10.101  1.00  0.00     0.023 A 
ATOM     71  C   UNL     1       4.055  -8.417  10.655  1.00  0.00     0.012 A 
ATOM     72  C   UNL     1       5.076  -7.254   8.782  1.00  0.00     0.148 A 
ATOM     73  C   UNL     1       4.043  -9.603   9.920  1.00  0.00     0.002 A 
ATOM     74  C   UNL     1       5.011  -8.426   8.036  1.00  0.00     0.091 A 
ATOM     75  F   UNL     1       5.586  -6.122   8.278  1.00  0.00    -0.205 F 
ATOM     76  C   UNL     1       4.510  -9.605   8.609  1.00  0.00     0.022 A 
BRANCH  74  77
ATOM     77  S   UNL     1       5.465  -8.481   6.299  1.00  0.00     0.127 S 
ATOM     78  O   UNL     1       6.729  -9.213   6.345  1.00  0.00    -0.237 OA
ATOM     79  O   UNL     1       4.345  -9.225   5.718  1.00  0.00    -0.237 OA
ATOM     80  O   UNL     1       5.548  -7.094   5.872  1.00  0.00    -0.744 OA
ENDBRANCH  74  77
ENDBRANCH  46  70
BRANCH  58  81
ATOM     81  C   UNL     1       7.872  -5.199  15.914  1.00  0.00     0.023 A 
ATOM     82  C   UNL     1       9.191  -5.437  15.478  1.00  0.00     0.012 A 
ATOM     83  C   UNL     1       7.502  -5.558  17.225  1.00  0.00     0.148 A 
ATOM     84  C   UNL     1      10.115  -6.055  16.319  1.00  0.00     0.002 A 
ATOM     85  C   UNL     1       8.443  -6.131  18.074  1.00  0.00     0.091 A 
ATOM     86  F   UNL     1       6.238  -5.343  17.616  1.00  0.00    -0.205 F 
ATOM     87  C   UNL     1       9.745  -6.392  17.619  1.00  0.00     0.022 A 
BRANCH  85  88
ATOM     88  S   UNL     1       8.078  -6.509  19.792  1.00  0.00     0.127 S 
ATOM     89  O   UNL     1       7.927  -7.963  19.751  1.00  0.00    -0.237 OA
ATOM     90  O   UNL     1       9.283  -6.041  20.477  1.00  0.00    -0.237 OA
ATOM     91  O   UNL     1       6.872  -5.761  20.117  1.00  0.00    -0.744 OA
ENDBRANCH  85  88
ENDBRANCH  58  81
ENDBRANCH  32  33
ENDBRANCH  24  27
ENDBRANCH   1  23
TORSDOF 14
