REMARK SMILES CSc1ccccc1NC(=O)[C@@H]1CC=CC[C@H]1C(=O)NCCCNC(=O)c1ccc(-c2c3nc(c(-c4cccc(S(=O)(=O)[O-])c4F)c4ccc([nH]4)c(-c4cccc(S(=O)(=O)[O-])c4F)c4nc(c(-c5cccc(S(=O)(=O)[O-])c5F)c5ccc2[nH]5)C=C4)C=C3)cc1
REMARK SMILES IDX 22 1 21 2 20 3 18 4 19 5 17 7 12 8 13 9 14 10 16 11 15 12
REMARK SMILES IDX 10 13 9 14 11 16 8 17 3 18 4 19 5 20 7 21 6 22 2 23 1 24
REMARK SMILES IDX 23 25 24 26 25 27 26 29 27 30 28 31 89 32 29 33 88 34 30 35
REMARK SMILES IDX 31 36 32 37 82 38 33 39 87 40 81 41 83 42 34 43 86 44 80 45
REMARK SMILES IDX 79 46 35 48 67 49 47 50 66 51 48 52 51 53 65 54 84 55 49 56
REMARK SMILES IDX 50 57 64 59 85 60 52 61 36 62 37 63 45 64 38 65 40 66 46 67
REMARK SMILES IDX 39 68 41 69 42 70 43 71 44 72 68 73 69 74 77 75 70 76 72 77
REMARK SMILES IDX 78 78 71 79 73 80 74 81 75 82 76 83 53 84 54 85 62 86 55 87
REMARK SMILES IDX 57 88 63 89 56 90 58 91 59 92 60 93 61 94
REMARK H PARENT 20 6 9 15 24 28 83 47 51 58
REMARK Flexibility Score: inf
ROOT
ATOM      1  C   UNL     1       0.328   2.650  -1.726  1.00  0.00     0.042 C 
ENDROOT
BRANCH   1   2
ATOM      2  C   UNL     1      -0.350   2.610  -3.096  1.00  0.00     0.117 C 
BRANCH   2   3
ATOM      3  N   UNL     1       0.172   3.542  -4.085  1.00  0.00    -0.356 N 
ATOM      4  C   UNL     1       0.856   3.355  -5.247  1.00  0.00     0.224 C 
ATOM      5  O   UNL     1       0.936   4.329  -6.004  1.00  0.00    -0.275 OA
ATOM      6  H   UNL     1      -0.003   4.487  -3.872  1.00  0.00     0.163 HD
BRANCH   4   7
ATOM      7  C   UNL     1       1.521   2.038  -5.641  1.00  0.00     0.095 C 
ATOM      8  C   UNL     1       2.583   1.565  -4.614  1.00  0.00     0.095 C 
ATOM      9  C   UNL     1       2.743   0.020  -4.577  1.00  0.00     0.041 C 
ATOM     10  C   UNL     1       1.508  -0.782  -4.824  1.00  0.00    -0.030 C 
ATOM     11  C   UNL     1       0.391   1.071  -6.048  1.00  0.00     0.041 C 
ATOM     12  C   UNL     1       0.456  -0.312  -5.497  1.00  0.00    -0.030 C 
BRANCH   8  13
ATOM     13  C   UNL     1       3.999   2.088  -4.952  1.00  0.00     0.228 C 
ATOM     14  N   UNL     1       4.748   2.761  -4.018  1.00  0.00    -0.325 N 
ATOM     15  H   UNL     1       5.658   2.405  -3.893  1.00  0.00     0.169 HD
ATOM     16  O   UNL     1       4.566   1.742  -5.994  1.00  0.00    -0.274 OA
BRANCH  14  17
ATOM     17  C   UNL     1       4.441   3.876  -3.203  1.00  0.00     0.054 A 
ATOM     18  C   UNL     1       5.280   4.337  -2.164  1.00  0.00     0.031 A 
ATOM     19  C   UNL     1       4.898   5.509  -1.461  1.00  0.00     0.017 A 
ATOM     20  C   UNL     1       3.752   6.233  -1.786  1.00  0.00     0.001 A 
ATOM     21  C   UNL     1       3.333   4.658  -3.543  1.00  0.00     0.027 A 
ATOM     22  C   UNL     1       2.975   5.812  -2.846  1.00  0.00     0.002 A 
BRANCH  18  23
ATOM     23  S   UNL     1       6.768   3.612  -1.463  1.00  0.00    -0.127 SA
ATOM     24  C   UNL     1       7.616   2.730  -2.787  1.00  0.00     0.091 C 
ENDBRANCH  18  23
ENDBRANCH  14  17
ENDBRANCH   8  13
ENDBRANCH   4   7
ENDBRANCH   2   3
ENDBRANCH   1   2
BRANCH   1  25
ATOM     25  C   UNL     1       0.388   4.000  -1.018  1.00  0.00     0.118 C 
BRANCH  25  26
ATOM     26  N   UNL     1      -0.891   4.516  -0.570  1.00  0.00    -0.352 N 
ATOM     27  C   UNL     1      -1.181   5.212   0.583  1.00  0.00     0.251 C 
ATOM     28  H   UNL     1      -1.654   4.348  -1.170  1.00  0.00     0.163 HD
ATOM     29  O   UNL     1      -2.334   5.586   0.787  1.00  0.00    -0.269 OA
BRANCH  27  30
ATOM     30  C   UNL     1      -0.135   5.466   1.607  1.00  0.00     0.039 A 
ATOM     31  C   UNL     1      -0.422   5.136   2.934  1.00  0.00     0.014 A 
ATOM     32  C   UNL     1       1.108   6.024   1.288  1.00  0.00     0.014 A 
ATOM     33  C   UNL     1       0.550   5.305   3.926  1.00  0.00     0.010 A 
ATOM     34  C   UNL     1       2.096   6.146   2.274  1.00  0.00     0.010 A 
ATOM     35  C   UNL     1       1.832   5.783   3.604  1.00  0.00    -0.014 A 
BRANCH  35  36
ATOM     36  C   UNL     1       2.890   5.851   4.653  1.00  0.00     0.031 A 
ATOM     37  C   UNL     1       3.454   7.168   5.120  1.00  0.00     0.074 A 
ATOM     38  C   UNL     1       3.379   4.708   5.178  1.00  0.00     0.049 A 
ATOM     39  N   UNL     1       4.326   7.399   6.069  1.00  0.00    -0.248 NA
ATOM     40  C   UNL     1       2.993   8.379   4.423  1.00  0.00     0.031 C 
ATOM     41  C   UNL     1       2.991   3.358   4.765  1.00  0.00     0.029 A 
ATOM     42  N   UNL     1       4.314   4.496   6.163  1.00  0.00    -0.354 N 
ATOM     43  C   UNL     1       4.536   8.773   6.073  1.00  0.00     0.074 A 
ATOM     44  C   UNL     1       3.721   9.321   5.008  1.00  0.00     0.031 C 
ATOM     45  C   UNL     1       3.671   2.461   5.498  1.00  0.00     0.029 A 
ATOM     46  C   UNL     1       4.556   3.166   6.421  1.00  0.00     0.049 A 
ATOM     47  H   UNL     1       4.768   5.228   6.640  1.00  0.00     0.167 HD
ATOM     48  C   UNL     1       5.310   9.516   6.902  1.00  0.00     0.034 A 
ATOM     49  C   UNL     1       5.387   2.575   7.303  1.00  0.00     0.034 A 
ATOM     50  C   UNL     1       6.092   8.983   7.987  1.00  0.00     0.049 A 
ATOM     51  C   UNL     1       6.200   3.425   8.243  1.00  0.00     0.074 A 
ATOM     52  C   UNL     1       6.827   9.674   8.936  1.00  0.00     0.029 A 
ATOM     53  N   UNL     1       6.253   7.635   8.264  1.00  0.00    -0.354 N 
ATOM     54  N   UNL     1       6.235   4.731   8.354  1.00  0.00    -0.248 NA
ATOM     55  C   UNL     1       7.057   2.720   9.209  1.00  0.00     0.031 C 
ATOM     56  C   UNL     1       7.450   8.742   9.774  1.00  0.00     0.029 A 
ATOM     57  C   UNL     1       7.085   7.472   9.361  1.00  0.00     0.049 A 
ATOM     58  H   UNL     1       5.838   6.901   7.757  1.00  0.00     0.167 HD
ATOM     59  C   UNL     1       7.088   5.001   9.420  1.00  0.00     0.074 A 
ATOM     60  C   UNL     1       7.530   3.723   9.937  1.00  0.00     0.031 C 
ATOM     61  C   UNL     1       7.481   6.201   9.912  1.00  0.00     0.034 A 
BRANCH  48  62
ATOM     62  C   UNL     1       5.303  11.012   6.713  1.00  0.00     0.023 A 
ATOM     63  C   UNL     1       4.165  11.751   7.099  1.00  0.00     0.012 A 
ATOM     64  C   UNL     1       6.440  11.693   6.236  1.00  0.00     0.148 A 
ATOM     65  C   UNL     1       4.146  13.140   6.982  1.00  0.00     0.002 A 
ATOM     66  C   UNL     1       6.428  13.082   6.161  1.00  0.00     0.091 A 
ATOM     67  F   UNL     1       7.506  10.974   5.859  1.00  0.00    -0.205 F 
ATOM     68  C   UNL     1       5.280  13.805   6.523  1.00  0.00     0.022 A 
BRANCH  66  69
ATOM     69  S   UNL     1       7.865  14.036   5.658  1.00  0.00     0.127 S 
ATOM     70  O   UNL     1       7.470  14.482   4.322  1.00  0.00    -0.237 OA
ATOM     71  O   UNL     1       7.902  15.096   6.667  1.00  0.00    -0.237 OA
ATOM     72  O   UNL     1       8.992  13.116   5.705  1.00  0.00    -0.744 OA
ENDBRANCH  66  69
ENDBRANCH  48  62
BRANCH  49  73
ATOM     73  C   UNL     1       5.435   1.088   7.395  1.00  0.00     0.023 A 
ATOM     74  C   UNL     1       4.900   0.446   8.529  1.00  0.00     0.012 A 
ATOM     75  C   UNL     1       5.983   0.307   6.359  1.00  0.00     0.148 A 
ATOM     76  C   UNL     1       4.937  -0.944   8.644  1.00  0.00     0.002 A 
ATOM     77  C   UNL     1       5.965  -1.080   6.454  1.00  0.00     0.091 A 
ATOM     78  F   UNL     1       6.502   0.936   5.295  1.00  0.00    -0.205 F 
ATOM     79  C   UNL     1       5.459  -1.706   7.603  1.00  0.00     0.022 A 
BRANCH  77  80
ATOM     80  S   UNL     1       6.492  -2.142   5.105  1.00  0.00     0.127 S 
ATOM     81  O   UNL     1       7.757  -2.667   5.612  1.00  0.00    -0.237 OA
ATOM     82  O   UNL     1       5.401  -3.116   5.042  1.00  0.00    -0.237 OA
ATOM     83  O   UNL     1       6.585  -1.275   3.938  1.00  0.00    -0.744 OA
ENDBRANCH  77  80
ENDBRANCH  49  73
BRANCH  61  84
ATOM     84  C   UNL     1       8.420   6.207  11.092  1.00  0.00     0.023 A 
ATOM     85  C   UNL     1       9.769   5.843  10.913  1.00  0.00     0.012 A 
ATOM     86  C   UNL     1       7.985   6.643  12.360  1.00  0.00     0.148 A 
ATOM     87  C   UNL     1      10.664   5.883  11.983  1.00  0.00     0.002 A 
ATOM     88  C   UNL     1       8.893   6.724  13.411  1.00  0.00     0.091 A 
ATOM     89  F   UNL     1       6.694   6.966  12.518  1.00  0.00    -0.205 F 
ATOM     90  C   UNL     1      10.229   6.334  13.227  1.00  0.00     0.022 A 
BRANCH  88  91
ATOM     91  S   UNL     1       8.444   7.380  15.023  1.00  0.00     0.127 S 
ATOM     92  O   UNL     1       8.389   6.165  15.834  1.00  0.00    -0.237 OA
ATOM     93  O   UNL     1       9.570   8.264  15.325  1.00  0.00    -0.237 OA
ATOM     94  O   UNL     1       7.173   8.066  14.835  1.00  0.00    -0.744 OA
ENDBRANCH  88  91
ENDBRANCH  61  84
ENDBRANCH  35  36
ENDBRANCH  27  30
ENDBRANCH  25  26
ENDBRANCH   1  25
TORSDOF 16
