REMARK SMILES Cc1cc(C(=O)N2C[C@@H](C(=O)NCCCNC(=O)c3ccc(-c4c5nc(c(-c6cccc(S(=O)(=O)[O-])c6F)c6ccc([nH]6)c(-c6cccc(S(=O)(=O)[O-])c6F)c6nc(c(-c7cccc(S(=O)(=O)[O-])c7F)c7ccc4[nH]7)C=C6)C=C5)cc3)[C@H](C3CC3)C2)sc1C
REMARK SMILES IDX 14 1 13 2 12 3 10 4 11 5 9 7 7 8 8 9 86 10 82 11 5 12 6 13
REMARK SMILES IDX 4 14 1 15 2 16 3 17 88 18 87 19 89 20 83 21 84 22 85 23
REMARK SMILES IDX 15 24 16 25 17 26 18 28 19 29 20 30 81 31 21 32 80 33 22 34
REMARK SMILES IDX 23 35 24 36 74 37 25 38 79 39 73 40 75 41 26 42 78 43 72 44
REMARK SMILES IDX 71 45 27 47 59 48 39 49 58 50 40 51 43 52 57 53 76 54 41 55
REMARK SMILES IDX 42 56 56 58 77 59 44 60 28 61 29 62 37 63 30 64 32 65 38 66
REMARK SMILES IDX 31 67 33 68 34 69 35 70 36 71 60 72 61 73 69 74 62 75 64 76
REMARK SMILES IDX 70 77 63 78 65 79 66 80 67 81 68 82 45 83 46 84 54 85 47 86
REMARK SMILES IDX 49 87 55 88 48 89 50 90 51 91 52 92 53 93
REMARK H PARENT 12 6 16 27 75 46 43 57
REMARK Flexibility Score: inf
ROOT
ATOM      1  C   UNL     1       6.395   3.537  -0.152  1.00  0.00     0.042 C 
ENDROOT
BRANCH   1   2
ATOM      2  C   UNL     1       6.661   2.096  -0.537  1.00  0.00     0.117 C 
BRANCH   2   3
ATOM      3  N   UNL     1       6.852   1.208   0.596  1.00  0.00    -0.356 N 
ATOM      4  C   UNL     1       6.327  -0.030   0.826  1.00  0.00     0.225 C 
ATOM      5  O   UNL     1       6.760  -0.668   1.788  1.00  0.00    -0.275 OA
ATOM      6  H   UNL     1       7.447   1.549   1.302  1.00  0.00     0.163 HD
BRANCH   4   7
ATOM      7  C   UNL     1       5.244  -0.586  -0.079  1.00  0.00     0.103 C 
ATOM      8  N   UNL     1       3.475  -2.087  -0.136  1.00  0.00    -0.337 N 
ATOM      9  C   UNL     1       4.136  -1.189   0.787  1.00  0.00     0.133 C 
ATOM     10  C   UNL     1       4.461  -2.715  -0.983  1.00  0.00     0.124 C 
ATOM     11  C   UNL     1       5.707  -1.797  -0.930  1.00  0.00     0.026 C 
BRANCH   8  12
ATOM     12  C   UNL     1       2.132  -2.373  -0.315  1.00  0.00     0.263 C 
ATOM     13  O   UNL     1       1.820  -3.478  -0.770  1.00  0.00    -0.268 OA
BRANCH  12  14
ATOM     14  C   UNL     1       1.112  -1.358  -0.066  1.00  0.00     0.093 A 
ATOM     15  C   UNL     1      -2.536  -0.427   0.153  1.00  0.00     0.045 C 
ATOM     16  C   UNL     1      -1.044  -0.409   0.093  1.00  0.00    -0.037 A 
ATOM     17  C   UNL     1      -0.242  -1.599   0.089  1.00  0.00     0.029 A 
ATOM     18  C   UNL     1      -0.248   0.719  -0.007  1.00  0.00     0.005 A 
ATOM     19  S   UNL     1       1.399   0.320  -0.209  1.00  0.00    -0.135 S 
ATOM     20  C   UNL     1      -0.662   2.156  -0.022  1.00  0.00     0.056 C 
ENDBRANCH  12  14
ENDBRANCH   8  12
BRANCH  11  21
ATOM     21  C   UNL     1       6.207  -1.551  -2.338  1.00  0.00    -0.005 C 
ATOM     22  C   UNL     1       5.932  -0.308  -3.147  1.00  0.00     0.004 C 
ATOM     23  C   UNL     1       7.321  -0.585  -2.633  1.00  0.00     0.004 C 
ENDBRANCH  11  21
ENDBRANCH   4   7
ENDBRANCH   2   3
ENDBRANCH   1   2
BRANCH   1  24
ATOM     24  C   UNL     1       7.579   4.230   0.502  1.00  0.00     0.118 C 
BRANCH  24  25
ATOM     25  N   UNL     1       8.765   4.283  -0.349  1.00  0.00    -0.352 N 
ATOM     26  C   UNL     1       9.394   5.346  -0.956  1.00  0.00     0.251 C 
ATOM     27  H   UNL     1       9.187   3.409  -0.516  1.00  0.00     0.163 HD
ATOM     28  O   UNL     1      10.294   5.136  -1.759  1.00  0.00    -0.269 OA
BRANCH  26  29
ATOM     29  C   UNL     1       8.968   6.733  -0.663  1.00  0.00     0.039 A 
ATOM     30  C   UNL     1       8.895   7.661  -1.706  1.00  0.00     0.014 A 
ATOM     31  C   UNL     1       8.634   7.119   0.634  1.00  0.00     0.014 A 
ATOM     32  C   UNL     1       8.393   8.943  -1.459  1.00  0.00     0.010 A 
ATOM     33  C   UNL     1       8.024   8.346   0.854  1.00  0.00     0.010 A 
ATOM     34  C   UNL     1       7.904   9.278  -0.186  1.00  0.00    -0.014 A 
BRANCH  34  35
ATOM     35  C   UNL     1       7.268  10.591   0.096  1.00  0.00     0.031 A 
ATOM     36  C   UNL     1       7.835  11.482   1.172  1.00  0.00     0.074 A 
ATOM     37  C   UNL     1       6.122  10.930  -0.529  1.00  0.00     0.049 A 
ATOM     38  N   UNL     1       7.355  12.595   1.660  1.00  0.00    -0.248 NA
ATOM     39  C   UNL     1       9.087  11.041   1.813  1.00  0.00     0.031 C 
ATOM     40  C   UNL     1       5.423  10.113  -1.525  1.00  0.00     0.029 A 
ATOM     41  N   UNL     1       5.323  12.038  -0.395  1.00  0.00    -0.354 N 
ATOM     42  C   UNL     1       8.219  12.964   2.686  1.00  0.00     0.074 A 
ATOM     43  C   UNL     1       9.224  11.930   2.785  1.00  0.00     0.031 C 
ATOM     44  C   UNL     1       4.307  10.750  -1.916  1.00  0.00     0.029 A 
ATOM     45  C   UNL     1       4.191  12.003  -1.177  1.00  0.00     0.049 A 
ATOM     46  H   UNL     1       5.540  12.788   0.205  1.00  0.00     0.167 HD
ATOM     47  C   UNL     1       8.206  14.083   3.447  1.00  0.00     0.034 A 
ATOM     48  C   UNL     1       3.172  12.878  -1.281  1.00  0.00     0.034 A 
ATOM     49  C   UNL     1       7.244  15.139   3.302  1.00  0.00     0.049 A 
ATOM     50  C   UNL     1       3.214  14.142  -0.463  1.00  0.00     0.074 A 
ATOM     51  C   UNL     1       7.182  16.347   3.974  1.00  0.00     0.029 A 
ATOM     52  N   UNL     1       6.180  15.120   2.414  1.00  0.00    -0.354 N 
ATOM     53  N   UNL     1       4.118  14.536   0.401  1.00  0.00    -0.248 NA
ATOM     54  C   UNL     1       2.116  15.099  -0.662  1.00  0.00     0.031 C 
ATOM     55  C   UNL     1       6.078  17.058   3.493  1.00  0.00     0.029 A 
ATOM     56  C   UNL     1       5.461  16.298   2.511  1.00  0.00     0.049 A 
ATOM     57  H   UNL     1       5.967  14.377   1.804  1.00  0.00     0.167 HD
ATOM     58  C   UNL     1       3.721  15.801   0.818  1.00  0.00     0.074 A 
ATOM     59  C   UNL     1       2.506  16.116   0.094  1.00  0.00     0.031 C 
ATOM     60  C   UNL     1       4.295  16.621   1.731  1.00  0.00     0.034 A 
BRANCH  47  61
ATOM     61  C   UNL     1       9.319  14.259   4.447  1.00  0.00     0.023 A 
ATOM     62  C   UNL     1      10.623  14.533   3.983  1.00  0.00     0.012 A 
ATOM     63  C   UNL     1       9.077  14.207   5.834  1.00  0.00     0.148 A 
ATOM     64  C   UNL     1      11.674  14.718   4.879  1.00  0.00     0.002 A 
ATOM     65  C   UNL     1      10.122  14.438   6.722  1.00  0.00     0.091 A 
ATOM     66  F   UNL     1       7.837  13.926   6.257  1.00  0.00    -0.205 F 
ATOM     67  C   UNL     1      11.422  14.681   6.247  1.00  0.00     0.022 A 
BRANCH  65  68
ATOM     68  S   UNL     1       9.891  14.488   8.503  1.00  0.00     0.127 S 
ATOM     69  O   UNL     1      10.584  13.271   8.925  1.00  0.00    -0.237 OA
ATOM     70  O   UNL     1      10.569  15.732   8.866  1.00  0.00    -0.237 OA
ATOM     71  O   UNL     1       8.451  14.494   8.722  1.00  0.00    -0.744 OA
ENDBRANCH  65  68
ENDBRANCH  47  61
BRANCH  48  72
ATOM     72  C   UNL     1       2.064  12.632  -2.248  1.00  0.00     0.023 A 
ATOM     73  C   UNL     1       1.952  13.450  -3.390  1.00  0.00     0.012 A 
ATOM     74  C   UNL     1       1.131  11.595  -2.056  1.00  0.00     0.148 A 
ATOM     75  C   UNL     1       0.909  13.268  -4.299  1.00  0.00     0.002 A 
ATOM     76  C   UNL     1       0.127  11.383  -2.995  1.00  0.00     0.091 A 
ATOM     77  F   UNL     1       1.242  10.833  -0.959  1.00  0.00    -0.205 F 
ATOM     78  C   UNL     1       0.002  12.230  -4.107  1.00  0.00     0.022 A 
BRANCH  76  79
ATOM     79  S   UNL     1      -0.998   9.986  -2.889  1.00  0.00     0.127 S 
ATOM     80  O   UNL     1      -2.212  10.615  -2.379  1.00  0.00    -0.237 OA
ATOM     81  O   UNL     1      -1.071   9.542  -4.282  1.00  0.00    -0.237 OA
ATOM     82  O   UNL     1      -0.347   9.034  -1.997  1.00  0.00    -0.744 OA
ENDBRANCH  76  79
ENDBRANCH  48  72
BRANCH  60  83
ATOM     83  C   UNL     1       3.649  17.958   1.972  1.00  0.00     0.023 A 
ATOM     84  C   UNL     1       2.443  18.032   2.695  1.00  0.00     0.012 A 
ATOM     85  C   UNL     1       4.279  19.145   1.550  1.00  0.00     0.148 A 
ATOM     86  C   UNL     1       1.856  19.266   2.968  1.00  0.00     0.002 A 
ATOM     87  C   UNL     1       3.712  20.374   1.866  1.00  0.00     0.091 A 
ATOM     88  F   UNL     1       5.417  19.052   0.846  1.00  0.00    -0.205 F 
ATOM     89  C   UNL     1       2.495  20.436   2.565  1.00  0.00     0.022 A 
BRANCH  87  90
ATOM     90  S   UNL     1       4.514  21.932   1.471  1.00  0.00     0.127 S 
ATOM     91  O   UNL     1       3.692  22.417   0.364  1.00  0.00    -0.237 OA
ATOM     92  O   UNL     1       4.365  22.684   2.717  1.00  0.00    -0.237 OA
ATOM     93  O   UNL     1       5.891  21.598   1.130  1.00  0.00    -0.744 OA
ENDBRANCH  87  90
ENDBRANCH  60  83
ENDBRANCH  34  35
ENDBRANCH  26  29
ENDBRANCH  24  25
ENDBRANCH   1  24
TORSDOF 16
