REMARK SMILES O=C(NCCCNC(=O)c1ccc2c(c1)[C@@H](C1CCOCC1)C(=O)N2)c1ccc(-c2c3nc(c(-c4cccc(S(=O)(=O)[O-])c4F)c4ccc([nH]4)c(-c4cccc(S(=O)(=O)[O-])c4F)c4nc(c(-c5cccc(S(=O)(=O)[O-])c5F)c5ccc2[nH]5)C=C4)C=C3)cc1
REMARK SMILES IDX 4 1 3 2 1 3 2 4 26 6 27 7 88 8 28 9 87 10 29 11 30 12 31 13
REMARK SMILES IDX 81 14 32 15 86 16 80 17 82 18 33 19 85 20 79 21 78 22 34 24
REMARK SMILES IDX 66 25 46 26 65 27 47 28 50 29 64 30 83 31 48 32 49 33 63 35
REMARK SMILES IDX 84 36 51 37 35 38 36 39 44 40 37 41 39 42 45 43 38 44 40 45
REMARK SMILES IDX 41 46 42 47 43 48 67 49 68 50 76 51 69 52 71 53 77 54 70 55
REMARK SMILES IDX 72 56 73 57 74 58 75 59 52 60 53 61 61 62 54 63 56 64 62 65
REMARK SMILES IDX 55 66 57 67 58 68 59 69 60 70 5 71 6 72 7 73 8 74 9 76 10 77
REMARK SMILES IDX 11 78 15 79 12 80 14 81 13 82 16 83 25 84 23 85 24 87 17 88
REMARK SMILES IDX 18 89 22 90 19 91 21 92 20 93
REMARK H PARENT 3 5 82 23 50 34 7 75 25 86
REMARK Flexibility Score: inf
ROOT
ATOM      1  C   UNL     1       4.441  -0.525  -1.310  1.00  0.00     0.118 C 
ENDROOT
BRANCH   1   2
ATOM      2  N   UNL     1       3.005  -0.323  -1.160  1.00  0.00    -0.352 N 
ATOM      3  O   UNL     1       1.046   0.040  -0.115  1.00  0.00    -0.269 OA
ATOM      4  C   UNL     1       2.272   0.109  -0.078  1.00  0.00     0.251 C 
ATOM      5  H   UNL     1       2.473  -0.528  -1.963  1.00  0.00     0.163 HD
BRANCH   4   6
ATOM      6  C   UNL     1       2.958   0.615   1.130  1.00  0.00     0.039 A 
ATOM      7  C   UNL     1       4.087   1.424   1.016  1.00  0.00     0.014 A 
ATOM      8  C   UNL     1       2.478   0.269   2.396  1.00  0.00     0.014 A 
ATOM      9  C   UNL     1       4.858   1.695   2.137  1.00  0.00     0.010 A 
ATOM     10  C   UNL     1       3.184   0.662   3.538  1.00  0.00     0.010 A 
ATOM     11  C   UNL     1       4.410   1.334   3.417  1.00  0.00    -0.014 A 
BRANCH  11  12
ATOM     12  C   UNL     1       5.218   1.735   4.598  1.00  0.00     0.031 A 
ATOM     13  C   UNL     1       5.784   0.715   5.550  1.00  0.00     0.074 A 
ATOM     14  C   UNL     1       5.464   3.047   4.792  1.00  0.00     0.049 A 
ATOM     15  N   UNL     1       6.557   0.904   6.589  1.00  0.00    -0.248 NA
ATOM     16  C   UNL     1       5.434  -0.695   5.317  1.00  0.00     0.031 C 
ATOM     17  C   UNL     1       4.941   4.133   3.957  1.00  0.00     0.029 A 
ATOM     18  N   UNL     1       6.222   3.692   5.734  1.00  0.00    -0.354 N 
ATOM     19  C   UNL     1       6.747  -0.349   7.162  1.00  0.00     0.074 A 
ATOM     20  C   UNL     1       6.001  -1.292   6.356  1.00  0.00     0.031 C 
ATOM     21  C   UNL     1       5.432   5.301   4.392  1.00  0.00     0.029 A 
ATOM     22  C   UNL     1       6.242   5.059   5.578  1.00  0.00     0.049 A 
ATOM     23  H   UNL     1       6.704   3.224   6.453  1.00  0.00     0.167 HD
ATOM     24  C   UNL     1       7.479  -0.682   8.252  1.00  0.00     0.034 A 
ATOM     25  C   UNL     1       6.831   6.018   6.316  1.00  0.00     0.034 A 
ATOM     26  C   UNL     1       8.239   0.260   9.033  1.00  0.00     0.049 A 
ATOM     27  C   UNL     1       7.639   5.615   7.514  1.00  0.00     0.074 A 
ATOM     28  C   UNL     1       9.070   0.010  10.112  1.00  0.00     0.029 A 
ATOM     29  N   UNL     1       8.246   1.633   8.836  1.00  0.00    -0.354 N 
ATOM     30  N   UNL     1       7.908   4.413   7.962  1.00  0.00    -0.248 NA
ATOM     31  C   UNL     1       8.247   6.700   8.294  1.00  0.00     0.031 C 
ATOM     32  C   UNL     1       9.543   1.235  10.594  1.00  0.00     0.029 A 
ATOM     33  C   UNL     1       9.048   2.245   9.786  1.00  0.00     0.049 A 
ATOM     34  H   UNL     1       7.753   2.103   8.126  1.00  0.00     0.167 HD
ATOM     35  C   UNL     1       8.746   4.595   9.054  1.00  0.00     0.074 A 
ATOM     36  C   UNL     1       8.958   6.022   9.184  1.00  0.00     0.031 C 
ATOM     37  C   UNL     1       9.284   3.664   9.880  1.00  0.00     0.034 A 
BRANCH  24  38
ATOM     38  C   UNL     1       7.504  -2.133   8.669  1.00  0.00     0.023 A 
ATOM     39  C   UNL     1       8.186  -3.084   7.883  1.00  0.00     0.012 A 
ATOM     40  C   UNL     1       6.898  -2.544   9.874  1.00  0.00     0.148 A 
ATOM     41  C   UNL     1       8.229  -4.425   8.267  1.00  0.00     0.002 A 
ATOM     42  C   UNL     1       6.987  -3.872  10.274  1.00  0.00     0.091 A 
ATOM     43  F   UNL     1       6.239  -1.631  10.601  1.00  0.00    -0.205 F 
ATOM     44  C   UNL     1       7.639  -4.816   9.465  1.00  0.00     0.022 A 
BRANCH  42  45
ATOM     45  S   UNL     1       6.331  -4.458  11.841  1.00  0.00     0.127 S 
ATOM     46  O   UNL     1       5.187  -5.255  11.402  1.00  0.00    -0.237 OA
ATOM     47  O   UNL     1       7.450  -5.239  12.370  1.00  0.00    -0.237 OA
ATOM     48  O   UNL     1       6.005  -3.266  12.611  1.00  0.00    -0.744 OA
ENDBRANCH  42  45
ENDBRANCH  24  38
BRANCH  25  49
ATOM     49  C   UNL     1       6.706   7.446   5.915  1.00  0.00     0.023 A 
ATOM     50  C   UNL     1       7.842   8.140   5.457  1.00  0.00     0.012 A 
ATOM     51  C   UNL     1       5.464   8.110   5.955  1.00  0.00     0.148 A 
ATOM     52  C   UNL     1       7.750   9.480   5.077  1.00  0.00     0.002 A 
ATOM     53  C   UNL     1       5.368   9.424   5.519  1.00  0.00     0.091 A 
ATOM     54  F   UNL     1       4.397   7.432   6.401  1.00  0.00    -0.205 F 
ATOM     55  C   UNL     1       6.513  10.118   5.098  1.00  0.00     0.022 A 
BRANCH  53  56
ATOM     56  S   UNL     1       3.796  10.281   5.383  1.00  0.00     0.127 S 
ATOM     57  O   UNL     1       3.918  11.296   6.426  1.00  0.00    -0.237 OA
ATOM     58  O   UNL     1       3.852  10.793   4.013  1.00  0.00    -0.237 OA
ATOM     59  O   UNL     1       2.773   9.268   5.604  1.00  0.00    -0.744 OA
ENDBRANCH  53  56
ENDBRANCH  25  49
BRANCH  37  60
ATOM     60  C   UNL     1      10.199   4.156  10.973  1.00  0.00     0.023 A 
ATOM     61  C   UNL     1       9.677   4.878  12.065  1.00  0.00     0.012 A 
ATOM     62  C   UNL     1      11.576   3.860  10.934  1.00  0.00     0.148 A 
ATOM     63  C   UNL     1      10.518   5.336  13.078  1.00  0.00     0.002 A 
ATOM     64  C   UNL     1      12.398   4.270  11.976  1.00  0.00     0.091 A 
ATOM     65  F   UNL     1      12.058   3.190   9.877  1.00  0.00    -0.205 F 
ATOM     66  C   UNL     1      11.875   5.022  13.040  1.00  0.00     0.022 A 
BRANCH  64  67
ATOM     67  S   UNL     1      14.136   3.825  12.061  1.00  0.00     0.127 S 
ATOM     68  O   UNL     1      14.785   5.106  11.785  1.00  0.00    -0.237 OA
ATOM     69  O   UNL     1      14.268   3.358  13.442  1.00  0.00    -0.237 OA
ATOM     70  O   UNL     1      14.337   2.793  11.053  1.00  0.00    -0.744 OA
ENDBRANCH  64  67
ENDBRANCH  37  60
ENDBRANCH  11  12
ENDBRANCH   4   6
ENDBRANCH   1   2
BRANCH   1  71
ATOM     71  C   UNL     1       4.824  -1.990  -1.442  1.00  0.00     0.042 C 
BRANCH  71  72
ATOM     72  C   UNL     1       4.287  -2.651  -2.699  1.00  0.00     0.118 C 
BRANCH  72  73
ATOM     73  N   UNL     1       4.814  -2.044  -3.915  1.00  0.00    -0.352 N 
ATOM     74  C   UNL     1       5.677  -2.554  -4.850  1.00  0.00     0.251 C 
ATOM     75  H   UNL     1       4.503  -1.127  -4.091  1.00  0.00     0.163 HD
ATOM     76  O   UNL     1       6.162  -1.824  -5.709  1.00  0.00    -0.269 OA
BRANCH  74  77
ATOM     77  C   UNL     1       6.035  -3.988  -4.824  1.00  0.00     0.040 A 
ATOM     78  C   UNL     1       5.029  -4.971  -4.699  1.00  0.00     0.016 A 
ATOM     79  C   UNL     1       7.385  -4.345  -4.962  1.00  0.00     0.020 A 
ATOM     80  C   UNL     1       5.362  -6.320  -4.609  1.00  0.00     0.027 A 
ATOM     81  C   UNL     1       7.702  -5.691  -4.896  1.00  0.00    -0.011 A 
ATOM     82  C   UNL     1       6.698  -6.642  -4.710  1.00  0.00     0.045 A 
ATOM     83  C   UNL     1       9.039  -6.390  -5.006  1.00  0.00     0.114 C 
ATOM     84  N   UNL     1       7.247  -7.909  -4.665  1.00  0.00    -0.325 N 
ATOM     85  C   UNL     1       8.620  -7.874  -4.851  1.00  0.00     0.232 C 
ATOM     86  H   UNL     1       6.728  -8.733  -4.519  1.00  0.00     0.169 HD
ATOM     87  O   UNL     1       9.335  -8.863  -4.919  1.00  0.00    -0.274 OA
BRANCH  83  88
ATOM     88  C   UNL     1      10.101  -5.907  -3.996  1.00  0.00     0.010 C 
ATOM     89  C   UNL     1      11.438  -6.649  -4.171  1.00  0.00     0.033 C 
ATOM     90  C   UNL     1       9.650  -5.986  -2.526  1.00  0.00     0.033 C 
ATOM     91  C   UNL     1      12.459  -6.212  -3.129  1.00  0.00     0.160 C 
ATOM     92  C   UNL     1      10.781  -5.578  -1.588  1.00  0.00     0.160 C 
ATOM     93  O   UNL     1      11.936  -6.381  -1.814  1.00  0.00    -0.381 OA
ENDBRANCH  83  88
ENDBRANCH  74  77
ENDBRANCH  72  73
ENDBRANCH  71  72
ENDBRANCH   1  71
TORSDOF 14
