REMARK SMILES Cc1ccccc1OCCC(=O)N[C@@](C)(C(=O)NCCCNC(=O)c1ccc(-c2c3nc(c(-c4cccc(S(=O)(=O)[O-])c4F)c4ccc([nH]4)c(-c4cccc(S(=O)(=O)[O-])c4F)c4nc(c(-c5cccc(S(=O)(=O)[O-])c5F)c5ccc2[nH]5)C=C4)C=C3)cc1)C1CC1
REMARK SMILES IDX 19 1 18 2 16 3 17 4 14 6 15 7 13 8 11 9 12 10 10 12 9 13
REMARK SMILES IDX 8 14 7 15 1 16 2 17 3 18 4 19 6 20 5 21 88 22 89 23 90 24
REMARK SMILES IDX 20 25 21 26 22 27 23 28 24 30 25 31 26 32 87 33 27 34 86 35
REMARK SMILES IDX 28 36 29 37 30 38 80 39 31 40 85 41 79 42 81 43 32 44 84 45
REMARK SMILES IDX 78 46 77 47 33 49 65 50 45 51 64 52 46 53 49 54 63 55 82 56
REMARK SMILES IDX 47 57 48 58 62 60 83 61 50 62 34 63 35 64 43 65 36 66 38 67
REMARK SMILES IDX 44 68 37 69 39 70 40 71 41 72 42 73 66 74 67 75 75 76 68 77
REMARK SMILES IDX 70 78 76 79 69 80 71 81 72 82 73 83 74 84 51 85 52 86 60 87
REMARK SMILES IDX 53 88 55 89 61 90 54 91 56 92 57 93 58 94 59 95
REMARK H PARENT 18 5 13 11 22 29 81 48 49 59
REMARK Flexibility Score: inf
ROOT
ATOM      1  C   UNL     1      -1.524  -0.934   2.002  1.00  0.00     0.117 C 
ENDROOT
BRANCH   1   2
ATOM      2  N   UNL     1      -1.331  -0.062   3.164  1.00  0.00    -0.354 N 
ATOM      3  C   UNL     1      -0.828   1.221   3.274  1.00  0.00     0.245 C 
ATOM      4  O   UNL     1      -1.025   1.818   4.336  1.00  0.00    -0.272 OA
ATOM      5  H   UNL     1      -1.610  -0.461   4.020  1.00  0.00     0.163 HD
BRANCH   3   6
ATOM      6  C   UNL     1      -0.031   1.889   2.078  1.00  0.00     0.119 C 
ATOM      7  C   UNL     1      -1.017   2.007   0.909  1.00  0.00     0.046 C 
BRANCH   6   8
ATOM      8  N   UNL     1       1.058   0.894   1.881  1.00  0.00    -0.342 N 
ATOM      9  C   UNL     1       2.263   0.812   1.284  1.00  0.00     0.224 C 
ATOM     10  O   UNL     1       2.862  -0.263   1.401  1.00  0.00    -0.275 OA
ATOM     11  H   UNL     1       0.829   0.041   2.316  1.00  0.00     0.164 HD
BRANCH   9  12
ATOM     12  C   UNL     1       2.930   1.962   0.589  1.00  0.00     0.141 C 
BRANCH  12  13
ATOM     13  C   UNL     1       2.934   1.941  -0.933  1.00  0.00     0.239 C 
BRANCH  13  14
ATOM     14  O   UNL     1       1.664   1.905  -1.554  1.00  0.00    -0.493 OA
BRANCH  14  15
ATOM     15  C   UNL     1       0.961   0.762  -1.796  1.00  0.00     0.122 A 
ATOM     16  C   UNL     1       2.642  -1.201  -1.388  1.00  0.00     0.048 C 
ATOM     17  C   UNL     1       1.290  -0.591  -1.630  1.00  0.00    -0.009 A 
ATOM     18  C   UNL     1       0.261  -1.552  -1.802  1.00  0.00     0.007 A 
ATOM     19  C   UNL     1      -1.038  -1.201  -2.163  1.00  0.00     0.001 A 
ATOM     20  C   UNL     1      -0.338   1.088  -2.245  1.00  0.00     0.047 A 
ATOM     21  C   UNL     1      -1.333   0.126  -2.414  1.00  0.00     0.004 A 
ENDBRANCH  14  15
ENDBRANCH  13  14
ENDBRANCH  12  13
ENDBRANCH   9  12
ENDBRANCH   6   8
BRANCH   6  22
ATOM     22  C   UNL     1       0.553   3.236   2.504  1.00  0.00     0.024 C 
ATOM     23  C   UNL     1       0.810   4.395   1.547  1.00  0.00     0.007 C 
ATOM     24  C   UNL     1      -0.290   4.497   2.558  1.00  0.00     0.007 C 
ENDBRANCH   6  22
ENDBRANCH   3   6
ENDBRANCH   1   2
BRANCH   1  25
ATOM     25  C   UNL     1      -0.763  -2.253   2.074  1.00  0.00     0.042 C 
BRANCH  25  26
ATOM     26  C   UNL     1      -1.452  -3.291   2.941  1.00  0.00     0.118 C 
BRANCH  26  27
ATOM     27  N   UNL     1      -2.377  -4.165   2.227  1.00  0.00    -0.352 N 
ATOM     28  C   UNL     1      -3.251  -5.118   2.729  1.00  0.00     0.251 C 
ATOM     29  H   UNL     1      -2.380  -4.065   1.247  1.00  0.00     0.163 HD
ATOM     30  O   UNL     1      -3.859  -5.834   1.938  1.00  0.00    -0.269 OA
BRANCH  28  31
ATOM     31  C   UNL     1      -3.529  -5.181   4.188  1.00  0.00     0.039 A 
ATOM     32  C   UNL     1      -4.856  -5.323   4.619  1.00  0.00     0.014 A 
ATOM     33  C   UNL     1      -2.533  -4.892   5.114  1.00  0.00     0.014 A 
ATOM     34  C   UNL     1      -5.213  -4.913   5.904  1.00  0.00     0.010 A 
ATOM     35  C   UNL     1      -2.894  -4.375   6.338  1.00  0.00     0.010 A 
ATOM     36  C   UNL     1      -4.242  -4.321   6.706  1.00  0.00    -0.014 A 
BRANCH  36  37
ATOM     37  C   UNL     1      -4.506  -3.491   7.875  1.00  0.00     0.031 A 
ATOM     38  C   UNL     1      -4.061  -3.917   9.219  1.00  0.00     0.074 A 
ATOM     39  C   UNL     1      -4.848  -2.200   7.651  1.00  0.00     0.049 A 
ATOM     40  N   UNL     1      -4.299  -3.249  10.296  1.00  0.00    -0.248 NA
ATOM     41  C   UNL     1      -3.343  -5.166   9.464  1.00  0.00     0.031 C 
ATOM     42  C   UNL     1      -4.622  -1.058   8.531  1.00  0.00     0.029 A 
ATOM     43  N   UNL     1      -5.698  -1.699   6.658  1.00  0.00    -0.354 N 
ATOM     44  C   UNL     1      -3.497  -3.776  11.281  1.00  0.00     0.074 A 
ATOM     45  C   UNL     1      -3.046  -5.040  10.761  1.00  0.00     0.031 C 
ATOM     46  C   UNL     1      -5.513  -0.102   8.230  1.00  0.00     0.029 A 
ATOM     47  C   UNL     1      -6.442  -0.679   7.277  1.00  0.00     0.049 A 
ATOM     48  H   UNL     1      -5.762  -1.998   5.722  1.00  0.00     0.167 HD
ATOM     49  C   UNL     1      -3.187  -2.998  12.354  1.00  0.00     0.034 A 
ATOM     50  C   UNL     1      -7.798  -0.713   7.424  1.00  0.00     0.034 A 
ATOM     51  C   UNL     1      -4.074  -1.829  12.430  1.00  0.00     0.049 A 
ATOM     52  C   UNL     1      -8.260  -0.598   8.867  1.00  0.00     0.074 A 
ATOM     53  C   UNL     1      -3.910  -0.474  12.207  1.00  0.00     0.029 A 
ATOM     54  N   UNL     1      -5.443  -2.040  12.568  1.00  0.00    -0.354 N 
ATOM     55  N   UNL     1      -7.464  -0.577   9.901  1.00  0.00    -0.248 NA
ATOM     56  C   UNL     1      -9.666  -0.530   9.260  1.00  0.00     0.031 C 
ATOM     57  C   UNL     1      -5.207   0.106  12.088  1.00  0.00     0.029 A 
ATOM     58  C   UNL     1      -6.153  -0.887  12.284  1.00  0.00     0.049 A 
ATOM     59  H   UNL     1      -5.852  -2.896  12.832  1.00  0.00     0.167 HD
ATOM     60  C   UNL     1      -8.197  -0.663  11.057  1.00  0.00     0.074 A 
ATOM     61  C   UNL     1      -9.571  -0.526  10.601  1.00  0.00     0.031 C 
ATOM     62  C   UNL     1      -7.615  -0.920  12.272  1.00  0.00     0.034 A 
BRANCH  49  63
ATOM     63  C   UNL     1      -1.982  -3.177  13.263  1.00  0.00     0.023 A 
ATOM     64  C   UNL     1      -1.852  -2.279  14.347  1.00  0.00     0.012 A 
ATOM     65  C   UNL     1      -0.899  -4.074  13.073  1.00  0.00     0.148 A 
ATOM     66  C   UNL     1      -0.725  -2.261  15.180  1.00  0.00     0.002 A 
ATOM     67  C   UNL     1       0.191  -4.106  13.948  1.00  0.00     0.091 A 
ATOM     68  F   UNL     1      -0.847  -4.847  11.985  1.00  0.00    -0.205 F 
ATOM     69  C   UNL     1       0.290  -3.188  14.993  1.00  0.00     0.022 A 
BRANCH  67  70
ATOM     70  S   UNL     1       1.514  -5.323  13.791  1.00  0.00     0.127 S 
ATOM     71  O   UNL     1       2.624  -4.510  13.295  1.00  0.00    -0.237 OA
ATOM     72  O   UNL     1       1.674  -5.795  15.167  1.00  0.00    -0.237 OA
ATOM     73  O   UNL     1       1.024  -6.337  12.865  1.00  0.00    -0.744 OA
ENDBRANCH  67  70
ENDBRANCH  49  63
BRANCH  50  74
ATOM     74  C   UNL     1      -8.502  -1.453   6.337  1.00  0.00     0.023 A 
ATOM     75  C   UNL     1      -8.450  -0.877   5.045  1.00  0.00     0.012 A 
ATOM     76  C   UNL     1      -8.841  -2.813   6.461  1.00  0.00     0.148 A 
ATOM     77  C   UNL     1      -8.619  -1.658   3.901  1.00  0.00     0.002 A 
ATOM     78  C   UNL     1      -9.003  -3.588   5.312  1.00  0.00     0.091 A 
ATOM     79  F   UNL     1      -8.903  -3.345   7.688  1.00  0.00    -0.205 F 
ATOM     80  C   UNL     1      -8.863  -3.019   4.035  1.00  0.00     0.022 A 
BRANCH  78  81
ATOM     81  S   UNL     1      -9.230  -5.372   5.382  1.00  0.00     0.127 S 
ATOM     82  O   UNL     1     -10.661  -5.494   5.112  1.00  0.00    -0.237 OA
ATOM     83  O   UNL     1      -8.356  -5.833   4.302  1.00  0.00    -0.237 OA
ATOM     84  O   UNL     1      -8.790  -5.758   6.711  1.00  0.00    -0.744 OA
ENDBRANCH  78  81
ENDBRANCH  50  74
BRANCH  62  85
ATOM     85  C   UNL     1      -8.357  -1.283  13.553  1.00  0.00     0.023 A 
ATOM     86  C   UNL     1      -9.674  -1.784  13.550  1.00  0.00     0.012 A 
ATOM     87  C   UNL     1      -7.691  -1.277  14.808  1.00  0.00     0.148 A 
ATOM     88  C   UNL     1     -10.319  -2.197  14.724  1.00  0.00     0.002 A 
ATOM     89  C   UNL     1      -8.300  -1.790  15.954  1.00  0.00     0.091 A 
ATOM     90  F   UNL     1      -6.459  -0.759  14.911  1.00  0.00    -0.205 F 
ATOM     91  C   UNL     1      -9.626  -2.222  15.924  1.00  0.00     0.022 A 
BRANCH  89  92
ATOM     92  S   UNL     1      -7.341  -2.058  17.454  1.00  0.00     0.127 S 
ATOM     93  O   UNL     1      -7.432  -0.759  18.116  1.00  0.00    -0.237 OA
ATOM     94  O   UNL     1      -8.080  -3.131  18.123  1.00  0.00    -0.237 OA
ATOM     95  O   UNL     1      -6.023  -2.455  16.976  1.00  0.00    -0.744 OA
ENDBRANCH  89  92
ENDBRANCH  62  85
ENDBRANCH  36  37
ENDBRANCH  28  31
ENDBRANCH  26  27
ENDBRANCH  25  26
ENDBRANCH   1  25
TORSDOF 19
