REMARK SMILES N#C[C@@H](c1ccccc1)[C@H](CC(=O)NCCCNC(=O)c1ccc(-c2c3nc(c(-c4cccc(S(=O)(=O)[O-])c4F)c4ccc([nH]4)c(-c4cccc(S(=O)(=O)[O-])c4F)c4nc(c(-c5cccc(S(=O)(=O)[O-])c5F)c5ccc2[nH]5)C=C4)C=C3)cc1)c1ccccc1
REMARK SMILES IDX 16 1 15 2 14 3 12 4 13 5 11 7 10 8 3 9 2 10 1 11 4 12 5 13
REMARK SMILES IDX 9 14 6 15 8 16 7 17 84 18 85 19 89 20 86 21 88 22 87 23
REMARK SMILES IDX 17 24 18 25 19 26 20 28 21 29 22 30 83 31 23 32 82 33 24 34
REMARK SMILES IDX 25 35 26 36 76 37 27 38 81 39 75 40 77 41 28 42 80 43 74 44
REMARK SMILES IDX 73 45 29 47 61 48 41 49 60 50 42 51 45 52 59 53 78 54 43 55
REMARK SMILES IDX 44 56 58 58 79 59 46 60 30 61 31 62 39 63 32 64 34 65 40 66
REMARK SMILES IDX 33 67 35 68 36 69 37 70 38 71 62 72 63 73 71 74 64 75 66 76
REMARK SMILES IDX 72 77 65 78 67 79 68 80 69 81 70 82 47 83 48 84 56 85 49 86
REMARK SMILES IDX 51 87 57 88 50 89 52 90 53 91 54 92 55 93
REMARK H PARENT 14 6 18 27 77 46 45 57
REMARK Flexibility Score: inf
ROOT
ATOM      1  C   UNL     1       8.008  -0.832   0.756  1.00  0.00     0.042 C 
ENDROOT
BRANCH   1   2
ATOM      2  C   UNL     1       6.657  -0.953   1.453  1.00  0.00     0.117 C 
BRANCH   2   3
ATOM      3  N   UNL     1       5.902   0.288   1.533  1.00  0.00    -0.356 N 
ATOM      4  C   UNL     1       4.767   0.707   0.912  1.00  0.00     0.220 C 
ATOM      5  O   UNL     1       4.242   1.739   1.335  1.00  0.00    -0.275 OA
ATOM      6  H   UNL     1       6.285   0.950   2.153  1.00  0.00     0.163 HD
BRANCH   4   7
ATOM      7  C   UNL     1       4.115  -0.069  -0.219  1.00  0.00     0.110 C 
BRANCH   7   8
ATOM      8  C   UNL     1       4.458   0.343  -1.676  1.00  0.00     0.050 C 
BRANCH   8   9
ATOM      9  C   UNL     1       3.692   1.595  -2.259  1.00  0.00     0.130 C 
BRANCH   9  10
ATOM     10  C   UNL     1       3.833   2.837  -1.474  1.00  0.00     0.071 C 
ATOM     11  N   UNL     1       3.902   3.847  -0.900  1.00  0.00    -0.198 NA
ENDBRANCH   9  10
BRANCH   9  12
ATOM     12  C   UNL     1       3.926   1.889  -3.754  1.00  0.00    -0.030 A 
ATOM     13  C   UNL     1       5.159   2.364  -4.240  1.00  0.00     0.005 A 
ATOM     14  C   UNL     1       2.879   1.780  -4.683  1.00  0.00     0.005 A 
ATOM     15  C   UNL     1       5.371   2.648  -5.589  1.00  0.00     0.000 A 
ATOM     16  C   UNL     1       3.076   2.109  -6.033  1.00  0.00     0.000 A 
ATOM     17  C   UNL     1       4.325   2.528  -6.488  1.00  0.00     0.000 A 
ENDBRANCH   9  12
ENDBRANCH   8   9
BRANCH   8  18
ATOM     18  C   UNL     1       5.946   0.248  -1.961  1.00  0.00    -0.043 A 
ATOM     19  C   UNL     1       6.463  -0.928  -2.537  1.00  0.00     0.004 A 
ATOM     20  C   UNL     1       6.825   1.312  -1.709  1.00  0.00     0.004 A 
ATOM     21  C   UNL     1       7.804  -1.006  -2.918  1.00  0.00     0.000 A 
ATOM     22  C   UNL     1       8.152   1.253  -2.146  1.00  0.00     0.000 A 
ATOM     23  C   UNL     1       8.641   0.095  -2.748  1.00  0.00     0.000 A 
ENDBRANCH   8  18
ENDBRANCH   7   8
ENDBRANCH   4   7
ENDBRANCH   2   3
ENDBRANCH   1   2
BRANCH   1  24
ATOM     24  C   UNL     1       8.955   0.260   1.254  1.00  0.00     0.118 C 
BRANCH  24  25
ATOM     25  N   UNL     1      10.082  -0.336   1.946  1.00  0.00    -0.352 N 
ATOM     26  C   UNL     1      11.293  -0.753   1.451  1.00  0.00     0.251 C 
ATOM     27  H   UNL     1       9.961  -0.460   2.915  1.00  0.00     0.163 HD
ATOM     28  O   UNL     1      11.838  -1.695   2.031  1.00  0.00    -0.269 OA
BRANCH  26  29
ATOM     29  C   UNL     1      11.992  -0.105   0.301  1.00  0.00     0.039 A 
ATOM     30  C   UNL     1      12.983  -0.857  -0.347  1.00  0.00     0.014 A 
ATOM     31  C   UNL     1      11.844   1.240  -0.051  1.00  0.00     0.014 A 
ATOM     32  C   UNL     1      13.830  -0.268  -1.293  1.00  0.00     0.010 A 
ATOM     33  C   UNL     1      12.646   1.811  -1.058  1.00  0.00     0.010 A 
ATOM     34  C   UNL     1      13.675   1.076  -1.666  1.00  0.00    -0.014 A 
BRANCH  34  35
ATOM     35  C   UNL     1      14.605   1.680  -2.671  1.00  0.00     0.031 A 
ATOM     36  C   UNL     1      15.520   2.829  -2.316  1.00  0.00     0.074 A 
ATOM     37  C   UNL     1      14.643   1.184  -3.925  1.00  0.00     0.049 A 
ATOM     38  N   UNL     1      16.432   3.416  -3.052  1.00  0.00    -0.248 NA
ATOM     39  C   UNL     1      15.388   3.402  -0.968  1.00  0.00     0.031 C 
ATOM     40  C   UNL     1      13.780   0.116  -4.432  1.00  0.00     0.029 A 
ATOM     41  N   UNL     1      15.430   1.512  -5.003  1.00  0.00    -0.354 N 
ATOM     42  C   UNL     1      16.957   4.445  -2.275  1.00  0.00     0.074 A 
ATOM     43  C   UNL     1      16.243   4.415  -1.016  1.00  0.00     0.031 C 
ATOM     44  C   UNL     1      14.093  -0.134  -5.712  1.00  0.00     0.029 A 
ATOM     45  C   UNL     1      15.148   0.782  -6.135  1.00  0.00     0.049 A 
ATOM     46  H   UNL     1      16.129   2.205  -4.969  1.00  0.00     0.167 HD
ATOM     47  C   UNL     1      17.947   5.324  -2.570  1.00  0.00     0.034 A 
ATOM     48  C   UNL     1      15.662   0.845  -7.379  1.00  0.00     0.034 A 
ATOM     49  C   UNL     1      18.673   5.349  -3.815  1.00  0.00     0.049 A 
ATOM     50  C   UNL     1      16.771   1.815  -7.676  1.00  0.00     0.074 A 
ATOM     51  C   UNL     1      19.749   6.147  -4.168  1.00  0.00     0.029 A 
ATOM     52  N   UNL     1      18.382   4.568  -4.923  1.00  0.00    -0.354 N 
ATOM     53  N   UNL     1      17.353   2.674  -6.875  1.00  0.00    -0.248 NA
ATOM     54  C   UNL     1      17.321   1.797  -9.039  1.00  0.00     0.031 C 
ATOM     55  C   UNL     1      20.068   5.891  -5.506  1.00  0.00     0.029 A 
ATOM     56  C   UNL     1      19.236   4.885  -5.968  1.00  0.00     0.049 A 
ATOM     57  H   UNL     1      17.672   3.887  -4.961  1.00  0.00     0.167 HD
ATOM     58  C   UNL     1      18.355   3.277  -7.627  1.00  0.00     0.074 A 
ATOM     59  C   UNL     1      18.321   2.661  -8.937  1.00  0.00     0.031 C 
ATOM     60  C   UNL     1      19.218   4.259  -7.266  1.00  0.00     0.034 A 
BRANCH  47  61
ATOM     61  C   UNL     1      18.322   6.345  -1.519  1.00  0.00     0.023 A 
ATOM     62  C   UNL     1      18.960   5.936  -0.329  1.00  0.00     0.012 A 
ATOM     63  C   UNL     1      18.096   7.719  -1.740  1.00  0.00     0.148 A 
ATOM     64  C   UNL     1      19.326   6.871   0.640  1.00  0.00     0.002 A 
ATOM     65  C   UNL     1      18.510   8.649  -0.792  1.00  0.00     0.091 A 
ATOM     66  F   UNL     1      17.479   8.092  -2.869  1.00  0.00    -0.205 F 
ATOM     67  C   UNL     1      19.110   8.226   0.405  1.00  0.00     0.022 A 
BRANCH  65  68
ATOM     68  S   UNL     1      18.358  10.422  -1.040  1.00  0.00     0.127 S 
ATOM     69  O   UNL     1      17.343  10.771  -0.047  1.00  0.00    -0.237 OA
ATOM     70  O   UNL     1      19.706  10.892  -0.724  1.00  0.00    -0.237 OA
ATOM     71  O   UNL     1      17.959  10.603  -2.429  1.00  0.00    -0.744 OA
ENDBRANCH  65  68
ENDBRANCH  47  61
BRANCH  48  72
ATOM     72  C   UNL     1      15.134  -0.057  -8.443  1.00  0.00     0.023 A 
ATOM     73  C   UNL     1      15.944  -1.082  -8.968  1.00  0.00     0.012 A 
ATOM     74  C   UNL     1      13.817   0.091  -8.919  1.00  0.00     0.148 A 
ATOM     75  C   UNL     1      15.461  -1.923  -9.972  1.00  0.00     0.002 A 
ATOM     76  C   UNL     1      13.322  -0.789  -9.871  1.00  0.00     0.091 A 
ATOM     77  F   UNL     1      13.068   1.081  -8.412  1.00  0.00    -0.205 F 
ATOM     78  C   UNL     1      14.148  -1.784 -10.415  1.00  0.00     0.022 A 
BRANCH  76  79
ATOM     79  S   UNL     1      11.605  -0.772 -10.395  1.00  0.00     0.127 S 
ATOM     80  O   UNL     1      11.724  -0.380 -11.797  1.00  0.00    -0.237 OA
ATOM     81  O   UNL     1      11.212  -2.164 -10.174  1.00  0.00    -0.237 OA
ATOM     82  O   UNL     1      10.934   0.187  -9.528  1.00  0.00    -0.744 OA
ENDBRANCH  76  79
ENDBRANCH  48  72
BRANCH  60  83
ATOM     83  C   UNL     1      20.231   4.708  -8.293  1.00  0.00     0.023 A 
ATOM     84  C   UNL     1      19.814   5.394  -9.452  1.00  0.00     0.012 A 
ATOM     85  C   UNL     1      21.605   4.468  -8.094  1.00  0.00     0.148 A 
ATOM     86  C   UNL     1      20.740   5.778 -10.423  1.00  0.00     0.002 A 
ATOM     87  C   UNL     1      22.528   4.906  -9.037  1.00  0.00     0.091 A 
ATOM     88  F   UNL     1      21.986   3.802  -6.995  1.00  0.00    -0.205 F 
ATOM     89  C   UNL     1      22.096   5.543 -10.211  1.00  0.00     0.022 A 
BRANCH  87  90
ATOM     90  S   UNL     1      24.300   4.734  -8.803  1.00  0.00     0.127 S 
ATOM     91  O   UNL     1      24.633   3.709  -9.791  1.00  0.00    -0.237 OA
ATOM     92  O   UNL     1      24.786   6.076  -9.129  1.00  0.00    -0.237 OA
ATOM     93  O   UNL     1      24.488   4.345  -7.412  1.00  0.00    -0.744 OA
ENDBRANCH  87  90
ENDBRANCH  60  83
ENDBRANCH  34  35
ENDBRANCH  26  29
ENDBRANCH  24  25
ENDBRANCH   1  24
TORSDOF 18
