REMARK SMILES O=C(NCCCNC(=O)c1cc2c(Cl)c(C(F)(F)F)cnc2n1S(=O)(=O)c1ccccc1)c1ccc(-c2c3nc(c(-c4cccc(S(=O)(=O)[O-])c4F)c4ccc([nH]4)c(-c4cccc(S(=O)(=O)[O-])c4F)c4nc(c(-c5cccc(S(=O)(=O)[O-])c5F)c5ccc2[nH]5)C=C4)C=C3)cc1
REMARK SMILES IDX 4 1 3 2 1 3 2 4 33 6 34 7 95 8 35 9 94 10 36 11 37 12 38 13
REMARK SMILES IDX 88 14 39 15 93 16 87 17 89 18 40 19 92 20 86 21 85 22 41 24
REMARK SMILES IDX 73 25 53 26 72 27 54 28 57 29 71 30 90 31 55 32 56 33 70 35
REMARK SMILES IDX 91 36 58 37 42 38 43 39 51 40 44 41 46 42 52 43 45 44 47 45
REMARK SMILES IDX 48 46 49 47 50 48 74 49 75 50 83 51 76 52 78 53 84 54 77 55
REMARK SMILES IDX 79 56 80 57 81 58 82 59 59 60 60 61 68 62 61 63 63 64 69 65
REMARK SMILES IDX 62 66 64 67 65 68 66 69 67 70 5 71 6 72 7 73 8 74 9 76 10 77
REMARK SMILES IDX 11 78 23 79 12 80 22 81 13 82 21 83 14 84 15 85 20 86 24 87
REMARK SMILES IDX 25 88 26 89 27 90 28 91 32 92 29 93 31 94 30 95 16 96 17 97
REMARK SMILES IDX 18 98 19 99
REMARK H PARENT 3 5 89 23 57 34 7 75
REMARK Flexibility Score: inf
ROOT
ATOM      1  C   UNL     1       4.912   0.855  -1.232  1.00  0.00     0.118 C 
ENDROOT
BRANCH   1   2
ATOM      2  N   UNL     1       3.473   1.049  -1.207  1.00  0.00    -0.352 N 
ATOM      3  O   UNL     1       1.390   1.260  -0.461  1.00  0.00    -0.269 OA
ATOM      4  C   UNL     1       2.476   0.692  -0.334  1.00  0.00     0.251 C 
ATOM      5  H   UNL     1       3.138   1.546  -1.988  1.00  0.00     0.163 HD
BRANCH   4   6
ATOM      6  C   UNL     1       2.607  -0.414   0.643  1.00  0.00     0.039 A 
ATOM      7  C   UNL     1       3.819  -0.873   1.155  1.00  0.00     0.014 A 
ATOM      8  C   UNL     1       1.419  -1.090   0.974  1.00  0.00     0.014 A 
ATOM      9  C   UNL     1       3.879  -2.099   1.798  1.00  0.00     0.010 A 
ATOM     10  C   UNL     1       1.466  -2.291   1.664  1.00  0.00     0.010 A 
ATOM     11  C   UNL     1       2.708  -2.827   1.998  1.00  0.00    -0.014 A 
BRANCH  11  12
ATOM     12  C   UNL     1       2.828  -4.136   2.623  1.00  0.00     0.031 A 
ATOM     13  C   UNL     1       3.256  -4.125   4.052  1.00  0.00     0.074 A 
ATOM     14  C   UNL     1       2.445  -5.258   1.984  1.00  0.00     0.049 A 
ATOM     15  N   UNL     1       4.270  -4.714   4.603  1.00  0.00    -0.248 NA
ATOM     16  C   UNL     1       2.495  -3.255   4.963  1.00  0.00     0.031 C 
ATOM     17  C   UNL     1       1.726  -5.369   0.711  1.00  0.00     0.029 A 
ATOM     18  N   UNL     1       2.467  -6.540   2.439  1.00  0.00    -0.354 N 
ATOM     19  C   UNL     1       4.173  -4.428   5.965  1.00  0.00     0.074 A 
ATOM     20  C   UNL     1       3.146  -3.427   6.111  1.00  0.00     0.031 C 
ATOM     21  C   UNL     1       1.137  -6.583   0.648  1.00  0.00     0.029 A 
ATOM     22  C   UNL     1       1.539  -7.360   1.807  1.00  0.00     0.049 A 
ATOM     23  H   UNL     1       3.077  -6.854   3.145  1.00  0.00     0.167 HD
ATOM     24  C   UNL     1       4.802  -5.144   6.937  1.00  0.00     0.034 A 
ATOM     25  C   UNL     1       1.046  -8.522   2.302  1.00  0.00     0.034 A 
ATOM     26  C   UNL     1       5.823  -6.011   6.437  1.00  0.00     0.049 A 
ATOM     27  C   UNL     1       1.992  -8.986   3.348  1.00  0.00     0.074 A 
ATOM     28  C   UNL     1       7.030  -5.830   5.794  1.00  0.00     0.029 A 
ATOM     29  N   UNL     1       5.494  -7.332   6.255  1.00  0.00    -0.354 N 
ATOM     30  N   UNL     1       3.222  -9.349   3.111  1.00  0.00    -0.248 NA
ATOM     31  C   UNL     1       1.692  -8.652   4.732  1.00  0.00     0.031 C 
ATOM     32  C   UNL     1       7.107  -6.902   4.857  1.00  0.00     0.029 A 
ATOM     33  C   UNL     1       5.959  -7.680   5.014  1.00  0.00     0.049 A 
ATOM     34  H   UNL     1       5.017  -7.913   6.890  1.00  0.00     0.167 HD
ATOM     35  C   UNL     1       3.941  -8.898   4.210  1.00  0.00     0.074 A 
ATOM     36  C   UNL     1       2.934  -8.565   5.215  1.00  0.00     0.031 C 
ATOM     37  C   UNL     1       5.261  -8.566   4.109  1.00  0.00     0.034 A 
BRANCH  24  38
ATOM     38  C   UNL     1       4.271  -5.257   8.333  1.00  0.00     0.023 A 
ATOM     39  C   UNL     1       5.155  -5.516   9.397  1.00  0.00     0.012 A 
ATOM     40  C   UNL     1       2.884  -5.324   8.597  1.00  0.00     0.148 A 
ATOM     41  C   UNL     1       4.674  -5.801  10.680  1.00  0.00     0.002 A 
ATOM     42  C   UNL     1       2.413  -5.535   9.884  1.00  0.00     0.091 A 
ATOM     43  F   UNL     1       2.023  -5.291   7.570  1.00  0.00    -0.205 F 
ATOM     44  C   UNL     1       3.304  -5.789  10.929  1.00  0.00     0.022 A 
BRANCH  42  45
ATOM     45  S   UNL     1       0.659  -5.474  10.260  1.00  0.00     0.127 S 
ATOM     46  O   UNL     1       0.343  -6.890  10.415  1.00  0.00    -0.237 OA
ATOM     47  O   UNL     1       0.644  -4.694  11.499  1.00  0.00    -0.237 OA
ATOM     48  O   UNL     1       0.050  -4.797   9.123  1.00  0.00    -0.744 OA
ENDBRANCH  42  45
ENDBRANCH  24  38
BRANCH  25  49
ATOM     49  C   UNL     1      -0.335  -9.060   2.202  1.00  0.00     0.023 A 
ATOM     50  C   UNL     1      -0.572 -10.405   2.555  1.00  0.00     0.012 A 
ATOM     51  C   UNL     1      -1.456  -8.213   2.039  1.00  0.00     0.148 A 
ATOM     52  C   UNL     1      -1.872 -10.876   2.779  1.00  0.00     0.002 A 
ATOM     53  C   UNL     1      -2.747  -8.692   2.242  1.00  0.00     0.091 A 
ATOM     54  F   UNL     1      -1.261  -6.913   1.787  1.00  0.00    -0.205 F 
ATOM     55  C   UNL     1      -2.959 -10.020   2.629  1.00  0.00     0.022 A 
BRANCH  53  56
ATOM     56  S   UNL     1      -4.192  -7.636   2.058  1.00  0.00     0.127 S 
ATOM     57  O   UNL     1      -5.120  -8.508   1.336  1.00  0.00    -0.237 OA
ATOM     58  O   UNL     1      -4.554  -7.372   3.447  1.00  0.00    -0.237 OA
ATOM     59  O   UNL     1      -3.739  -6.484   1.286  1.00  0.00    -0.744 OA
ENDBRANCH  53  56
ENDBRANCH  25  49
BRANCH  37  60
ATOM     60  C   UNL     1       5.972  -8.880   2.818  1.00  0.00     0.023 A 
ATOM     61  C   UNL     1       5.671  -8.188   1.625  1.00  0.00     0.012 A 
ATOM     62  C   UNL     1       7.095  -9.722   2.854  1.00  0.00     0.148 A 
ATOM     63  C   UNL     1       6.467  -8.341   0.488  1.00  0.00     0.002 A 
ATOM     64  C   UNL     1       7.906  -9.843   1.731  1.00  0.00     0.091 A 
ATOM     65  F   UNL     1       7.377 -10.352   4.004  1.00  0.00    -0.205 F 
ATOM     66  C   UNL     1       7.592  -9.158   0.545  1.00  0.00     0.022 A 
BRANCH  64  67
ATOM     67  S   UNL     1       9.434 -10.781   1.760  1.00  0.00     0.127 S 
ATOM     68  O   UNL     1       9.121 -11.901   0.874  1.00  0.00    -0.237 OA
ATOM     69  O   UNL     1      10.396  -9.822   1.215  1.00  0.00    -0.237 OA
ATOM     70  O   UNL     1       9.667 -11.136   3.154  1.00  0.00    -0.744 OA
ENDBRANCH  64  67
ENDBRANCH  37  60
ENDBRANCH  11  12
ENDBRANCH   4   6
ENDBRANCH   1   2
BRANCH   1  71
ATOM     71  C   UNL     1       5.424  -0.494  -1.736  1.00  0.00     0.042 C 
BRANCH  71  72
ATOM     72  C   UNL     1       4.956  -0.876  -3.129  1.00  0.00     0.118 C 
BRANCH  72  73
ATOM     73  N   UNL     1       5.292   0.065  -4.177  1.00  0.00    -0.351 N 
ATOM     74  C   UNL     1       5.675  -0.144  -5.472  1.00  0.00     0.269 C 
ATOM     75  H   UNL     1       5.233   1.012  -3.914  1.00  0.00     0.163 HD
ATOM     76  O   UNL     1       5.824   0.852  -6.179  1.00  0.00    -0.268 OA
BRANCH  74  77
ATOM     77  C   UNL     1       6.051  -1.455  -5.942  1.00  0.00     0.124 A 
ATOM     78  C   UNL     1       7.319  -1.775  -6.417  1.00  0.00     0.047 A 
ATOM     79  N   UNL     1       5.252  -2.558  -6.209  1.00  0.00    -0.211 N 
ATOM     80  C   UNL     1       7.290  -3.078  -6.973  1.00  0.00     0.040 A 
ATOM     81  C   UNL     1       5.981  -3.538  -6.842  1.00  0.00     0.156 A 
ATOM     82  C   UNL     1       8.201  -3.940  -7.612  1.00  0.00     0.065 A 
ATOM     83  N   UNL     1       5.536  -4.728  -7.282  1.00  0.00    -0.237 NA
ATOM     84  Cl  UNL     1       9.785  -3.322  -7.802  1.00  0.00    -0.083 Cl
ATOM     85  C   UNL     1       7.795  -5.192  -8.059  1.00  0.00     0.093 A 
ATOM     86  C   UNL     1       6.466  -5.518  -7.859  1.00  0.00     0.128 A 
BRANCH  79  87
ATOM     87  S   UNL     1       3.577  -2.611  -5.946  1.00  0.00     0.270 S 
ATOM     88  O   UNL     1       3.427  -2.640  -4.500  1.00  0.00    -0.201 OA
ATOM     89  O   UNL     1       3.056  -1.518  -6.736  1.00  0.00    -0.201 OA
BRANCH  87  90
ATOM     90  C   UNL     1       2.847  -4.126  -6.485  1.00  0.00     0.088 A 
ATOM     91  C   UNL     1       1.858  -4.103  -7.470  1.00  0.00     0.022 A 
ATOM     92  C   UNL     1       3.107  -5.303  -5.767  1.00  0.00     0.022 A 
ATOM     93  C   UNL     1       1.159  -5.275  -7.764  1.00  0.00     0.001 A 
ATOM     94  C   UNL     1       2.421  -6.473  -6.082  1.00  0.00     0.001 A 
ATOM     95  C   UNL     1       1.446  -6.457  -7.077  1.00  0.00     0.000 A 
ENDBRANCH  87  90
ENDBRANCH  79  87
BRANCH  85  96
ATOM     96  C   UNL     1       8.713  -6.147  -8.741  1.00  0.00     0.419 C 
ATOM     97  F   UNL     1       9.195  -5.663  -9.919  1.00  0.00    -0.166 F 
ATOM     98  F   UNL     1       9.798  -6.481  -7.993  1.00  0.00    -0.166 F 
ATOM     99  F   UNL     1       8.113  -7.330  -9.061  1.00  0.00    -0.166 F 
ENDBRANCH  85  96
ENDBRANCH  74  77
ENDBRANCH  72  73
ENDBRANCH  71  72
ENDBRANCH   1  71
TORSDOF 16
