REMARK SMILES O=C(NCCCNC(=O)c1ccc(S(=O)(=O)NCC[NH+]2CCCC2)c(F)c1)c1ccc(-c2c3nc(c(-c4cccc(S(=O)(=O)[O-])c4F)c4ccc([nH]4)c(-c4cccc(S(=O)(=O)[O-])c4F)c4nc(c(-c5cccc(S(=O)(=O)[O-])c5F)c5ccc2[nH]5)C=C4)C=C3)cc1
REMARK SMILES IDX 6 1 5 2 4 3 3 4 1 5 2 6 28 8 29 9 90 10 30 11 89 12 31 13
REMARK SMILES IDX 32 14 33 15 83 16 34 17 88 18 82 19 84 20 35 21 87 22 81 23
REMARK SMILES IDX 80 24 36 26 68 27 48 28 67 29 49 30 52 31 66 32 85 33 50 34
REMARK SMILES IDX 51 35 65 37 86 38 53 39 37 40 38 41 46 42 39 43 41 44 47 45
REMARK SMILES IDX 40 46 42 47 43 48 44 49 45 50 69 51 70 52 78 53 71 54 73 55
REMARK SMILES IDX 79 56 72 57 74 58 75 59 76 60 77 61 54 62 55 63 63 64 56 65
REMARK SMILES IDX 58 66 64 67 57 68 59 69 60 70 61 71 62 72 7 73 8 74 9 76
REMARK SMILES IDX 10 77 11 78 27 79 12 80 25 81 13 82 26 83 14 84 15 85 16 86
REMARK SMILES IDX 17 87 18 89 19 90 20 91 21 92 24 93 22 95 23 96
REMARK H PARENT 3 7 84 25 52 36 7 75 17 88 20 94
REMARK Flexibility Score: inf
ROOT
ATOM      1  C   UNL     1       4.224   1.110  -3.712  1.00  0.00     0.118 C 
ENDROOT
BRANCH   1   2
ATOM      2  C   UNL     1       4.875   0.343  -2.569  1.00  0.00     0.042 C 
BRANCH   2   3
ATOM      3  C   UNL     1       4.564   0.905  -1.189  1.00  0.00     0.118 C 
BRANCH   3   4
ATOM      4  N   UNL     1       3.151   0.811  -0.844  1.00  0.00    -0.352 N 
ATOM      5  O   UNL     1       1.269  -0.008   0.062  1.00  0.00    -0.269 OA
ATOM      6  C   UNL     1       2.497   0.034   0.084  1.00  0.00     0.251 C 
ATOM      7  H   UNL     1       2.564   1.406  -1.364  1.00  0.00     0.163 HD
BRANCH   6   8
ATOM      8  C   UNL     1       3.250  -0.763   1.081  1.00  0.00     0.039 A 
ATOM      9  C   UNL     1       4.403  -0.262   1.680  1.00  0.00     0.014 A 
ATOM     10  C   UNL     1       2.771  -2.024   1.455  1.00  0.00     0.014 A 
ATOM     11  C   UNL     1       5.172  -1.081   2.498  1.00  0.00     0.010 A 
ATOM     12  C   UNL     1       3.487  -2.805   2.371  1.00  0.00     0.010 A 
ATOM     13  C   UNL     1       4.718  -2.358   2.869  1.00  0.00    -0.014 A 
BRANCH  13  14
ATOM     14  C   UNL     1       5.526  -3.142   3.840  1.00  0.00     0.031 A 
ATOM     15  C   UNL     1       6.147  -4.461   3.474  1.00  0.00     0.074 A 
ATOM     16  C   UNL     1       5.749  -2.611   5.059  1.00  0.00     0.049 A 
ATOM     17  N   UNL     1       7.002  -5.177   4.159  1.00  0.00    -0.248 NA
ATOM     18  C   UNL     1       5.758  -5.064   2.190  1.00  0.00     0.031 C 
ATOM     19  C   UNL     1       5.145  -1.370   5.550  1.00  0.00     0.029 A 
ATOM     20  N   UNL     1       6.560  -3.015   6.089  1.00  0.00    -0.354 N 
ATOM     21  C   UNL     1       7.223  -6.329   3.414  1.00  0.00     0.074 A 
ATOM     22  C   UNL     1       6.406  -6.222   2.224  1.00  0.00     0.031 C 
ATOM     23  C   UNL     1       5.665  -1.071   6.747  1.00  0.00     0.029 A 
ATOM     24  C   UNL     1       6.599  -2.123   7.136  1.00  0.00     0.049 A 
ATOM     25  H   UNL     1       7.065  -3.860   6.080  1.00  0.00     0.167 HD
ATOM     26  C   UNL     1       8.047  -7.367   3.687  1.00  0.00     0.034 A 
ATOM     27  C   UNL     1       7.314  -2.135   8.278  1.00  0.00     0.034 A 
ATOM     28  C   UNL     1       8.898  -7.440   4.845  1.00  0.00     0.049 A 
ATOM     29  C   UNL     1       8.272  -3.263   8.524  1.00  0.00     0.074 A 
ATOM     30  C   UNL     1       9.829  -8.414   5.164  1.00  0.00     0.029 A 
ATOM     31  N   UNL     1       8.924  -6.510   5.872  1.00  0.00    -0.354 N 
ATOM     32  N   UNL     1       8.571  -4.270   7.740  1.00  0.00    -0.248 NA
ATOM     33  C   UNL     1       9.005  -3.252   9.798  1.00  0.00     0.031 C 
ATOM     34  C   UNL     1      10.409  -8.078   6.391  1.00  0.00     0.029 A 
ATOM     35  C   UNL     1       9.847  -6.891   6.832  1.00  0.00     0.049 A 
ATOM     36  H   UNL     1       8.368  -5.699   5.913  1.00  0.00     0.167 HD
ATOM     37  C   UNL     1       9.527  -5.012   8.420  1.00  0.00     0.074 A 
ATOM     38  C   UNL     1       9.783  -4.320   9.668  1.00  0.00     0.031 C 
ATOM     39  C   UNL     1      10.120  -6.173   8.051  1.00  0.00     0.034 A 
BRANCH  26  40
ATOM     40  C   UNL     1       8.121  -8.494   2.691  1.00  0.00     0.023 A 
ATOM     41  C   UNL     1       8.848  -8.313   1.498  1.00  0.00     0.012 A 
ATOM     42  C   UNL     1       7.560  -9.755   2.975  1.00  0.00     0.148 A 
ATOM     43  C   UNL     1       9.000  -9.364   0.593  1.00  0.00     0.002 A 
ATOM     44  C   UNL     1       7.745 -10.807   2.084  1.00  0.00     0.091 A 
ATOM     45  F   UNL     1       6.850  -9.902   4.103  1.00  0.00    -0.205 F 
ATOM     46  C   UNL     1       8.460 -10.612   0.891  1.00  0.00     0.022 A 
BRANCH  44  47
ATOM     47  S   UNL     1       7.148 -12.467   2.425  1.00  0.00     0.127 S 
ATOM     48  O   UNL     1       5.939 -12.520   1.606  1.00  0.00    -0.237 OA
ATOM     49  O   UNL     1       8.248 -13.303   1.941  1.00  0.00    -0.237 OA
ATOM     50  O   UNL     1       6.941 -12.523   3.866  1.00  0.00    -0.744 OA
ENDBRANCH  44  47
ENDBRANCH  26  40
BRANCH  27  51
ATOM     51  C   UNL     1       7.197  -0.979   9.211  1.00  0.00     0.023 A 
ATOM     52  C   UNL     1       8.260  -0.060   9.306  1.00  0.00     0.012 A 
ATOM     53  C   UNL     1       5.994  -0.712   9.893  1.00  0.00     0.148 A 
ATOM     54  C   UNL     1       8.122   1.107  10.057  1.00  0.00     0.002 A 
ATOM     55  C   UNL     1       5.841   0.483  10.585  1.00  0.00     0.091 A 
ATOM     56  F   UNL     1       5.002  -1.610   9.804  1.00  0.00    -0.205 F 
ATOM     57  C   UNL     1       6.908   1.389  10.679  1.00  0.00     0.022 A 
BRANCH  55  58
ATOM     58  S   UNL     1       4.258   1.004  11.257  1.00  0.00     0.127 S 
ATOM     59  O   UNL     1       4.479   0.856  12.693  1.00  0.00    -0.237 OA
ATOM     60  O   UNL     1       4.167   2.386  10.785  1.00  0.00    -0.237 OA
ATOM     61  O   UNL     1       3.271   0.107  10.670  1.00  0.00    -0.744 OA
ENDBRANCH  55  58
ENDBRANCH  27  51
BRANCH  39  62
ATOM     62  C   UNL     1      11.099  -6.797   9.008  1.00  0.00     0.023 A 
ATOM     63  C   UNL     1      10.611  -7.492  10.131  1.00  0.00     0.012 A 
ATOM     64  C   UNL     1      12.480  -6.804   8.732  1.00  0.00     0.148 A 
ATOM     65  C   UNL     1      11.485  -8.178  10.973  1.00  0.00     0.002 A 
ATOM     66  C   UNL     1      13.341  -7.522   9.553  1.00  0.00     0.091 A 
ATOM     67  F   UNL     1      12.922  -6.120   7.666  1.00  0.00    -0.205 F 
ATOM     68  C   UNL     1      12.846  -8.205  10.677  1.00  0.00     0.022 A 
BRANCH  66  69
ATOM     69  S   UNL     1      15.095  -7.688   9.200  1.00  0.00     0.127 S 
ATOM     70  O   UNL     1      15.688  -6.846  10.237  1.00  0.00    -0.237 OA
ATOM     71  O   UNL     1      15.314  -9.124   9.379  1.00  0.00    -0.237 OA
ATOM     72  O   UNL     1      15.274  -7.216   7.833  1.00  0.00    -0.744 OA
ENDBRANCH  66  69
ENDBRANCH  39  62
ENDBRANCH  13  14
ENDBRANCH   6   8
ENDBRANCH   3   4
ENDBRANCH   2   3
ENDBRANCH   1   2
BRANCH   1  73
ATOM     73  N   UNL     1       4.707   2.482  -3.818  1.00  0.00    -0.352 N 
ATOM     74  C   UNL     1       5.602   3.060  -4.683  1.00  0.00     0.251 C 
ATOM     75  H   UNL     1       4.324   3.100  -3.155  1.00  0.00     0.163 HD
ATOM     76  O   UNL     1       6.000   4.203  -4.476  1.00  0.00    -0.269 OA
BRANCH  74  77
ATOM     77  C   UNL     1       6.122   2.318  -5.850  1.00  0.00     0.042 A 
ATOM     78  C   UNL     1       5.277   1.580  -6.682  1.00  0.00     0.015 A 
ATOM     79  C   UNL     1       7.488   2.398  -6.139  1.00  0.00     0.054 A 
ATOM     80  C   UNL     1       5.820   0.791  -7.695  1.00  0.00     0.026 A 
ATOM     81  C   UNL     1       8.020   1.651  -7.189  1.00  0.00     0.144 A 
ATOM     82  C   UNL     1       7.203   0.805  -7.925  1.00  0.00     0.118 A 
ATOM     83  F   UNL     1       9.332   1.752  -7.428  1.00  0.00    -0.205 F 
BRANCH  82  84
ATOM     84  S   UNL     1       7.841  -0.356  -9.086  1.00  0.00     0.243 S 
ATOM     85  O   UNL     1       7.115  -1.588  -8.866  1.00  0.00    -0.207 OA
ATOM     86  O   UNL     1       7.811   0.289 -10.381  1.00  0.00    -0.207 OA
BRANCH  84  87
ATOM     87  N   UNL     1       9.455  -0.647  -8.715  1.00  0.00    -0.205 NA
ATOM     88  H   UNL     1       9.942   0.242  -8.819  1.00  0.00     0.141 HD
BRANCH  87  89
ATOM     89  C   UNL     1       9.844  -1.191  -7.389  1.00  0.00     0.160 C 
BRANCH  89  90
ATOM     90  C   UNL     1       9.517  -2.682  -7.240  1.00  0.00     0.278 C 
BRANCH  90  91
ATOM     91  N   UNL     1      10.002  -3.458  -8.406  1.00  0.00    -0.334 N 
ATOM     92  C   UNL     1       9.153  -4.646  -8.620  1.00  0.00     0.262 C 
ATOM     93  C   UNL     1      11.338  -4.027  -8.142  1.00  0.00     0.262 C 
ATOM     94  H   UNL     1       9.999  -2.814  -9.197  1.00  0.00     0.348 HD
ATOM     95  C   UNL     1       9.626  -5.652  -7.590  1.00  0.00     0.067 C 
ATOM     96  C   UNL     1      11.122  -5.397  -7.499  1.00  0.00     0.067 C 
ENDBRANCH  90  91
ENDBRANCH  89  90
ENDBRANCH  87  89
ENDBRANCH  84  87
ENDBRANCH  82  84
ENDBRANCH  74  77
ENDBRANCH   1  73
TORSDOF 18
