REMARK SMILES CC[C@H](C)[C@@H](C)NC(=O)c1ccncc1/C=C/C(=O)NCCCNC(=O)c1ccc(-c2c3nc(c(-c4cccc(S(=O)(=O)[O-])c4F)c4ccc([nH]4)c(-c4cccc(S(=O)(=O)[O-])c4F)c4nc(c(-c5cccc(S(=O)(=O)[O-])c5F)c5ccc2[nH]5)C=C4)C=C3)cc1
REMARK SMILES IDX 21 1 20 2 18 3 19 4 17 6 16 7 15 8 10 9 11 10 12 11 14 12
REMARK SMILES IDX 13 13 8 14 7 15 9 17 5 18 6 19 3 20 4 21 2 22 1 23 22 24
REMARK SMILES IDX 23 25 24 26 25 27 26 29 27 30 28 31 89 32 29 33 88 34 30 35
REMARK SMILES IDX 31 36 32 37 82 38 33 39 87 40 81 41 83 42 34 43 86 44 80 45
REMARK SMILES IDX 79 46 35 48 67 49 47 50 66 51 48 52 51 53 65 54 84 55 49 56
REMARK SMILES IDX 50 57 64 59 85 60 52 61 36 62 37 63 45 64 38 65 40 66 46 67
REMARK SMILES IDX 39 68 41 69 42 70 43 71 44 72 68 73 69 74 77 75 70 76 72 77
REMARK SMILES IDX 78 78 71 79 73 80 74 81 75 82 76 83 53 84 54 85 62 86 55 87
REMARK SMILES IDX 57 88 63 89 56 90 58 91 59 92 60 93 61 94
REMARK H PARENT 20 5 7 16 24 28 83 47 51 58
REMARK Flexibility Score: inf
ROOT
ATOM      1  C   UNL     1       0.134   7.779   3.589  1.00  0.00     0.118 C 
ENDROOT
BRANCH   1   2
ATOM      2  N   UNL     1      -0.971   8.396   2.872  1.00  0.00    -0.352 N 
ATOM      3  C   UNL     1      -2.253   7.979   2.712  1.00  0.00     0.244 C 
ATOM      4  O   UNL     1      -3.075   8.716   2.171  1.00  0.00    -0.270 OA
ATOM      5  H   UNL     1      -0.755   9.251   2.433  1.00  0.00     0.163 HD
BRANCH   3   6
ATOM      6  C   UNL     1      -2.709   6.693   3.286  1.00  0.00     0.072 C 
ATOM      7  C   UNL     1      -2.085   5.514   3.137  1.00  0.00     0.016 C 
BRANCH   7   8
ATOM      8  C   UNL     1      -2.567   4.272   3.767  1.00  0.00     0.006 A 
ATOM      9  C   UNL     1      -1.720   3.344   4.396  1.00  0.00     0.050 A 
ATOM     10  C   UNL     1      -2.254   2.216   5.027  1.00  0.00     0.034 A 
ATOM     11  C   UNL     1      -3.615   1.999   4.938  1.00  0.00     0.112 A 
ATOM     12  C   UNL     1      -3.920   3.938   3.736  1.00  0.00     0.119 A 
ATOM     13  N   UNL     1      -4.461   2.830   4.301  1.00  0.00    -0.264 NA
BRANCH   9  14
ATOM     14  C   UNL     1      -0.258   3.573   4.482  1.00  0.00     0.252 C 
ATOM     15  N   UNL     1       0.624   2.639   3.997  1.00  0.00    -0.349 N 
ATOM     16  H   UNL     1       1.574   2.884   4.084  1.00  0.00     0.164 HD
ATOM     17  O   UNL     1       0.162   4.610   4.989  1.00  0.00    -0.269 OA
BRANCH  15  18
ATOM     18  C   UNL     1       0.380   1.335   3.369  1.00  0.00     0.082 C 
ATOM     19  C   UNL     1       1.033   0.265   4.249  1.00  0.00     0.031 C 
BRANCH  18  20
ATOM     20  C   UNL     1       0.862   1.292   1.890  1.00  0.00     0.008 C 
ATOM     21  C   UNL     1       0.520  -0.069   1.265  1.00  0.00     0.010 C 
BRANCH  20  22
ATOM     22  C   UNL     1       0.261   2.479   1.097  1.00  0.00     0.002 C 
ATOM     23  C   UNL     1       0.330   2.360  -0.418  1.00  0.00     0.004 C 
ENDBRANCH  20  22
ENDBRANCH  18  20
ENDBRANCH  15  18
ENDBRANCH   9  14
ENDBRANCH   7   8
ENDBRANCH   3   6
ENDBRANCH   1   2
BRANCH   1  24
ATOM     24  C   UNL     1       1.195   7.248   2.630  1.00  0.00     0.042 C 
BRANCH  24  25
ATOM     25  C   UNL     1       2.038   8.352   1.995  1.00  0.00     0.118 C 
BRANCH  25  26
ATOM     26  N   UNL     1       2.878   9.035   2.973  1.00  0.00    -0.352 N 
ATOM     27  C   UNL     1       4.243   9.172   3.023  1.00  0.00     0.251 C 
ATOM     28  H   UNL     1       2.389   9.464   3.713  1.00  0.00     0.163 HD
ATOM     29  O   UNL     1       4.772   9.597   4.045  1.00  0.00    -0.269 OA
BRANCH  27  30
ATOM     30  C   UNL     1       5.075   8.806   1.857  1.00  0.00     0.039 A 
ATOM     31  C   UNL     1       6.272   8.115   2.073  1.00  0.00     0.014 A 
ATOM     32  C   UNL     1       4.699   9.168   0.562  1.00  0.00     0.014 A 
ATOM     33  C   UNL     1       7.059   7.734   0.984  1.00  0.00     0.010 A 
ATOM     34  C   UNL     1       5.448   8.726  -0.526  1.00  0.00     0.010 A 
ATOM     35  C   UNL     1       6.636   8.007  -0.327  1.00  0.00    -0.014 A 
BRANCH  35  36
ATOM     36  C   UNL     1       7.404   7.526  -1.504  1.00  0.00     0.031 A 
ATOM     37  C   UNL     1       7.994   8.509  -2.480  1.00  0.00     0.074 A 
ATOM     38  C   UNL     1       7.476   6.202  -1.750  1.00  0.00     0.049 A 
ATOM     39  N   UNL     1       8.618   8.277  -3.606  1.00  0.00    -0.248 NA
ATOM     40  C   UNL     1       7.840   9.939  -2.165  1.00  0.00     0.031 C 
ATOM     41  C   UNL     1       6.877   5.155  -0.919  1.00  0.00     0.029 A 
ATOM     42  N   UNL     1       8.050   5.511  -2.789  1.00  0.00    -0.354 N 
ATOM     43  C   UNL     1       8.888   9.525  -4.155  1.00  0.00     0.074 A 
ATOM     44  C   UNL     1       8.345  10.512  -3.248  1.00  0.00     0.031 C 
ATOM     45  C   UNL     1       7.108   3.959  -1.482  1.00  0.00     0.029 A 
ATOM     46  C   UNL     1       7.837   4.153  -2.731  1.00  0.00     0.049 A 
ATOM     47  H   UNL     1       8.564   5.947  -3.507  1.00  0.00     0.167 HD
ATOM     48  C   UNL     1       9.546   9.821  -5.301  1.00  0.00     0.034 A 
ATOM     49  C   UNL     1       8.171   3.175  -3.597  1.00  0.00     0.034 A 
ATOM     50  C   UNL     1      10.126   8.835  -6.173  1.00  0.00     0.049 A 
ATOM     51  C   UNL     1       8.935   3.534  -4.843  1.00  0.00     0.074 A 
ATOM     52  C   UNL     1      10.912   9.037  -7.294  1.00  0.00     0.029 A 
ATOM     53  N   UNL     1       9.969   7.465  -6.036  1.00  0.00    -0.354 N 
ATOM     54  N   UNL     1       9.341   4.712  -5.251  1.00  0.00    -0.248 NA
ATOM     55  C   UNL     1       9.315   2.427  -5.734  1.00  0.00     0.031 C 
ATOM     56  C   UNL     1      11.199   7.789  -7.856  1.00  0.00     0.029 A 
ATOM     57  C   UNL     1      10.621   6.809  -7.065  1.00  0.00     0.049 A 
ATOM     58  H   UNL     1       9.467   7.024  -5.313  1.00  0.00     0.167 HD
ATOM     59  C   UNL     1      10.053   4.485  -6.424  1.00  0.00     0.074 A 
ATOM     60  C   UNL     1      10.041   3.054  -6.649  1.00  0.00     0.031 C 
ATOM     61  C   UNL     1      10.648   5.381  -7.248  1.00  0.00     0.034 A 
BRANCH  48  62
ATOM     62  C   UNL     1       9.714  11.272  -5.669  1.00  0.00     0.023 A 
ATOM     63  C   UNL     1      10.603  12.083  -4.935  1.00  0.00     0.012 A 
ATOM     64  C   UNL     1       9.054  11.811  -6.792  1.00  0.00     0.148 A 
ATOM     65  C   UNL     1      10.812  13.414  -5.294  1.00  0.00     0.002 A 
ATOM     66  C   UNL     1       9.302  13.124  -7.171  1.00  0.00     0.091 A 
ATOM     67  F   UNL     1       8.198  11.029  -7.465  1.00  0.00    -0.205 F 
ATOM     68  C   UNL     1      10.171  13.930  -6.417  1.00  0.00     0.022 A 
BRANCH  66  69
ATOM     69  S   UNL     1       8.593  13.858  -8.649  1.00  0.00     0.127 S 
ATOM     70  O   UNL     1       7.671  14.840  -8.077  1.00  0.00    -0.237 OA
ATOM     71  O   UNL     1       9.770  14.434  -9.300  1.00  0.00    -0.237 OA
ATOM     72  O   UNL     1       7.965  12.767  -9.380  1.00  0.00    -0.744 OA
ENDBRANCH  66  69
ENDBRANCH  48  62
BRANCH  49  73
ATOM     73  C   UNL     1       7.824   1.757  -3.294  1.00  0.00     0.023 A 
ATOM     74  C   UNL     1       8.852   0.839  -3.002  1.00  0.00     0.012 A 
ATOM     75  C   UNL     1       6.486   1.315  -3.276  1.00  0.00     0.148 A 
ATOM     76  C   UNL     1       8.558  -0.500  -2.740  1.00  0.00     0.002 A 
ATOM     77  C   UNL     1       6.196  -0.006  -2.953  1.00  0.00     0.091 A 
ATOM     78  F   UNL     1       5.520   2.198  -3.568  1.00  0.00    -0.205 F 
ATOM     79  C   UNL     1       7.231  -0.920  -2.705  1.00  0.00     0.022 A 
BRANCH  77  80
ATOM     80  S   UNL     1       4.511  -0.596  -2.744  1.00  0.00     0.127 S 
ATOM     81  O   UNL     1       4.334  -1.426  -3.933  1.00  0.00    -0.237 OA
ATOM     82  O   UNL     1       4.601  -1.334  -1.484  1.00  0.00    -0.237 OA
ATOM     83  O   UNL     1       3.682   0.600  -2.674  1.00  0.00    -0.744 OA
ENDBRANCH  77  80
ENDBRANCH  49  73
BRANCH  61  84
ATOM     84  C   UNL     1      11.371   4.849  -8.458  1.00  0.00     0.023 A 
ATOM     85  C   UNL     1      10.637   4.341  -9.547  1.00  0.00     0.012 A 
ATOM     86  C   UNL     1      12.775   4.935  -8.548  1.00  0.00     0.148 A 
ATOM     87  C   UNL     1      11.291   3.899 -10.697  1.00  0.00     0.002 A 
ATOM     88  C   UNL     1      13.415   4.542  -9.716  1.00  0.00     0.091 A 
ATOM     89  F   UNL     1      13.455   5.407  -7.493  1.00  0.00    -0.205 F 
ATOM     90  C   UNL     1      12.677   4.011 -10.786  1.00  0.00     0.022 A 
BRANCH  88  91
ATOM     91  S   UNL     1      15.184   4.741  -9.962  1.00  0.00     0.127 S 
ATOM     92  O   UNL     1      15.643   3.353  -9.956  1.00  0.00    -0.237 OA
ATOM     93  O   UNL     1      15.242   5.397 -11.268  1.00  0.00    -0.237 OA
ATOM     94  O   UNL     1      15.656   5.556  -8.851  1.00  0.00    -0.744 OA
ENDBRANCH  88  91
ENDBRANCH  61  84
ENDBRANCH  35  36
ENDBRANCH  27  30
ENDBRANCH  25  26
ENDBRANCH  24  25
ENDBRANCH   1  24
TORSDOF 18
