REMARK SMILES O=C(CCCN1C(=O)/C(=C/c2cc(Br)ccc2O)SC1=S)NCCCNC(=O)c1ccc(-c2c3nc(c(-c4cccc(S(=O)(=O)[O-])c4F)c4ccc([nH]4)c(-c4cccc(S(=O)(=O)[O-])c4F)c4nc(c(-c5cccc(S(=O)(=O)[O-])c5F)c5ccc2[nH]5)C=C4)C=C3)cc1
REMARK SMILES IDX 23 1 22 2 1 3 2 4 3 6 4 7 5 8 6 9 7 10 20 11 8 12 9 13 19 14
REMARK SMILES IDX 21 15 10 16 11 17 12 18 17 19 13 20 16 21 14 22 15 23 18 24
REMARK SMILES IDX 24 26 25 27 26 28 27 29 28 31 29 32 30 33 91 34 31 35 90 36
REMARK SMILES IDX 32 37 33 38 34 39 84 40 35 41 89 42 83 43 85 44 36 45 88 46
REMARK SMILES IDX 82 47 81 48 37 50 69 51 49 52 68 53 50 54 53 55 67 56 86 57
REMARK SMILES IDX 51 58 52 59 66 61 87 62 54 63 38 64 39 65 47 66 40 67 42 68
REMARK SMILES IDX 48 69 41 70 43 71 44 72 45 73 46 74 70 75 71 76 79 77 72 78
REMARK SMILES IDX 74 79 80 80 73 81 75 82 76 83 77 84 78 85 55 86 56 87 64 88
REMARK SMILES IDX 57 89 59 90 65 91 58 92 60 93 61 94 62 95 63 96
REMARK H PARENT 22 5 18 25 26 30 85 49 53 60
REMARK Flexibility Score: inf
ROOT
ATOM      1  C   UNL     1       1.929   1.798  -1.827  1.00  0.00     0.117 C 
ENDROOT
BRANCH   1   2
ATOM      2  N   UNL     1       2.632   0.966  -0.873  1.00  0.00    -0.356 N 
ATOM      3  O   UNL     1       0.937  -0.548  -0.554  1.00  0.00    -0.275 OA
ATOM      4  C   UNL     1       2.074  -0.155  -0.311  1.00  0.00     0.220 C 
ATOM      5  H   UNL     1       3.550   1.215  -0.617  1.00  0.00     0.163 HD
BRANCH   4   6
ATOM      6  C   UNL     1       2.979  -0.909   0.644  1.00  0.00     0.102 C 
BRANCH   6   7
ATOM      7  C   UNL     1       3.884  -1.921  -0.064  1.00  0.00     0.032 C 
BRANCH   7   8
ATOM      8  C   UNL     1       5.176  -1.356  -0.675  1.00  0.00     0.128 C 
BRANCH   8   9
ATOM      9  N   UNL     1       6.016  -0.649   0.297  1.00  0.00    -0.293 N 
ATOM     10  C   UNL     1       5.944   0.728   0.351  1.00  0.00     0.266 C 
ATOM     11  C   UNL     1       6.887  -1.242   1.188  1.00  0.00     0.148 C 
ATOM     12  O   UNL     1       5.240   1.423  -0.372  1.00  0.00    -0.268 OA
ATOM     13  C   UNL     1       6.778   1.266   1.446  1.00  0.00     0.081 C 
ATOM     14  S   UNL     1       7.595  -0.018   2.238  1.00  0.00    -0.054 SA
ATOM     15  S   UNL     1       7.260  -2.862   1.335  1.00  0.00    -0.052 S 
ATOM     16  C   UNL     1       6.784   2.576   1.725  1.00  0.00     0.033 C 
BRANCH  16  17
ATOM     17  C   UNL     1       7.567   3.218   2.785  1.00  0.00     0.019 A 
ATOM     18  C   UNL     1       6.891   3.795   3.868  1.00  0.00     0.027 A 
ATOM     19  C   UNL     1       8.965   3.298   2.730  1.00  0.00     0.122 A 
ATOM     20  C   UNL     1       7.616   4.404   4.893  1.00  0.00     0.018 A 
ATOM     21  C   UNL     1       9.687   3.903   3.758  1.00  0.00     0.048 A 
ATOM     22  Br  UNL     1       6.700   5.165   6.362  1.00  0.00    -0.051 Br
ATOM     23  C   UNL     1       9.009   4.453   4.847  1.00  0.00     0.019 A 
BRANCH  19  24
ATOM     24  O   UNL     1       9.623   2.789   1.643  1.00  0.00    -0.507 OA
ATOM     25  H   UNL     1       9.140   2.382   0.951  1.00  0.00     0.293 HD
ENDBRANCH  19  24
ENDBRANCH  16  17
ENDBRANCH   8   9
ENDBRANCH   7   8
ENDBRANCH   6   7
ENDBRANCH   4   6
ENDBRANCH   1   2
BRANCH   1  26
ATOM     26  C   UNL     1       2.106   3.292  -1.571  1.00  0.00     0.042 C 
BRANCH  26  27
ATOM     27  C   UNL     1       3.521   3.848  -1.722  1.00  0.00     0.118 C 
BRANCH  27  28
ATOM     28  N   UNL     1       4.154   3.549  -2.996  1.00  0.00    -0.352 N 
ATOM     29  C   UNL     1       5.035   4.314  -3.722  1.00  0.00     0.251 C 
ATOM     30  H   UNL     1       3.918   2.680  -3.393  1.00  0.00     0.163 HD
ATOM     31  O   UNL     1       5.414   3.929  -4.825  1.00  0.00    -0.269 OA
BRANCH  29  32
ATOM     32  C   UNL     1       5.508   5.612  -3.190  1.00  0.00     0.039 A 
ATOM     33  C   UNL     1       5.495   6.726  -4.033  1.00  0.00     0.014 A 
ATOM     34  C   UNL     1       5.980   5.731  -1.880  1.00  0.00     0.014 A 
ATOM     35  C   UNL     1       5.915   7.968  -3.549  1.00  0.00     0.010 A 
ATOM     36  C   UNL     1       6.336   6.984  -1.380  1.00  0.00     0.010 A 
ATOM     37  C   UNL     1       6.320   8.115  -2.211  1.00  0.00    -0.014 A 
BRANCH  37  38
ATOM     38  C   UNL     1       6.739   9.443  -1.687  1.00  0.00     0.031 A 
ATOM     39  C   UNL     1       8.153   9.671  -1.221  1.00  0.00     0.074 A 
ATOM     40  C   UNL     1       5.835  10.440  -1.587  1.00  0.00     0.049 A 
ATOM     41  N   UNL     1       8.701  10.763  -0.751  1.00  0.00    -0.248 NA
ATOM     42  C   UNL     1       9.067   8.518  -1.268  1.00  0.00     0.031 C 
ATOM     43  C   UNL     1       4.416  10.332  -1.932  1.00  0.00     0.029 A 
ATOM     44  N   UNL     1       5.973  11.735  -1.153  1.00  0.00    -0.354 N 
ATOM     45  C   UNL     1      10.008  10.424  -0.422  1.00  0.00     0.074 A 
ATOM     46  C   UNL     1      10.161   9.015  -0.710  1.00  0.00     0.031 C 
ATOM     47  C   UNL     1       3.818  11.513  -1.706  1.00  0.00     0.029 A 
ATOM     48  C   UNL     1       4.801  12.455  -1.179  1.00  0.00     0.049 A 
ATOM     49  H   UNL     1       6.830  12.114  -0.850  1.00  0.00     0.167 HD
ATOM     50  C   UNL     1      11.002  11.217   0.046  1.00  0.00     0.034 A 
ATOM     51  C   UNL     1       4.545  13.729  -0.821  1.00  0.00     0.034 A 
ATOM     52  C   UNL     1      10.861  12.626   0.301  1.00  0.00     0.049 A 
ATOM     53  C   UNL     1       5.675  14.599  -0.339  1.00  0.00     0.074 A 
ATOM     54  C   UNL     1      11.830  13.528   0.703  1.00  0.00     0.029 A 
ATOM     55  N   UNL     1       9.676  13.336   0.189  1.00  0.00    -0.354 N 
ATOM     56  N   UNL     1       6.941  14.297  -0.184  1.00  0.00    -0.248 NA
ATOM     57  C   UNL     1       5.350  15.998  -0.023  1.00  0.00     0.031 C 
ATOM     58  C   UNL     1      11.224  14.779   0.863  1.00  0.00     0.029 A 
ATOM     59  C   UNL     1       9.887  14.664   0.520  1.00  0.00     0.049 A 
ATOM     60  H   UNL     1       8.812  12.953  -0.086  1.00  0.00     0.167 HD
ATOM     61  C   UNL     1       7.570  15.477   0.200  1.00  0.00     0.074 A 
ATOM     62  C   UNL     1       6.548  16.502   0.239  1.00  0.00     0.031 C 
ATOM     63  C   UNL     1       8.875  15.690   0.501  1.00  0.00     0.034 A 
BRANCH  50  64
ATOM     64  C   UNL     1      12.352  10.585   0.273  1.00  0.00     0.023 A 
ATOM     65  C   UNL     1      13.129  10.184  -0.834  1.00  0.00     0.012 A 
ATOM     66  C   UNL     1      12.875  10.437   1.572  1.00  0.00     0.148 A 
ATOM     67  C   UNL     1      14.387   9.612  -0.651  1.00  0.00     0.002 A 
ATOM     68  C   UNL     1      14.149   9.907   1.745  1.00  0.00     0.091 A 
ATOM     69  F   UNL     1      12.116  10.805   2.613  1.00  0.00    -0.205 F 
ATOM     70  C   UNL     1      14.900   9.483   0.636  1.00  0.00     0.022 A 
BRANCH  68  71
ATOM     71  S   UNL     1      14.928   9.764   3.356  1.00  0.00     0.127 S 
ATOM     72  O   UNL     1      14.918   8.315   3.558  1.00  0.00    -0.237 OA
ATOM     73  O   UNL     1      16.252  10.336   3.110  1.00  0.00    -0.237 OA
ATOM     74  O   UNL     1      14.096  10.527   4.275  1.00  0.00    -0.744 OA
ENDBRANCH  68  71
ENDBRANCH  50  64
BRANCH  51  75
ATOM     75  C   UNL     1       3.169  14.285  -0.970  1.00  0.00     0.023 A 
ATOM     76  C   UNL     1       2.918  15.266  -1.950  1.00  0.00     0.012 A 
ATOM     77  C   UNL     1       2.110  13.842  -0.155  1.00  0.00     0.148 A 
ATOM     78  C   UNL     1       1.646  15.824  -2.089  1.00  0.00     0.002 A 
ATOM     79  C   UNL     1       0.833  14.361  -0.337  1.00  0.00     0.091 A 
ATOM     80  F   UNL     1       2.372  12.915   0.778  1.00  0.00    -0.205 F 
ATOM     81  C   UNL     1       0.603  15.365  -1.289  1.00  0.00     0.022 A 
BRANCH  79  82
ATOM     82  S   UNL     1      -0.595  13.742   0.559  1.00  0.00     0.127 S 
ATOM     83  O   UNL     1      -0.921  14.875   1.421  1.00  0.00    -0.237 OA
ATOM     84  O   UNL     1      -1.546  13.497  -0.526  1.00  0.00    -0.237 OA
ATOM     85  O   UNL     1      -0.140  12.538   1.242  1.00  0.00    -0.744 OA
ENDBRANCH  79  82
ENDBRANCH  51  75
BRANCH  63  86
ATOM     86  C   UNL     1       9.297  17.096   0.844  1.00  0.00     0.023 A 
ATOM     87  C   UNL     1       8.902  17.679   2.064  1.00  0.00     0.012 A 
ATOM     88  C   UNL     1      10.144  17.816  -0.022  1.00  0.00     0.148 A 
ATOM     89  C   UNL     1       9.309  18.971   2.397  1.00  0.00     0.002 A 
ATOM     90  C   UNL     1      10.590  19.081   0.341  1.00  0.00     0.091 A 
ATOM     91  F   UNL     1      10.496  17.253  -1.188  1.00  0.00    -0.205 F 
ATOM     92  C   UNL     1      10.162  19.666   1.543  1.00  0.00     0.022 A 
BRANCH  90  93
ATOM     93  S   UNL     1      11.771  20.004  -0.649  1.00  0.00     0.127 S 
ATOM     94  O   UNL     1      10.925  21.047  -1.227  1.00  0.00    -0.237 OA
ATOM     95  O   UNL     1      12.719  20.478   0.360  1.00  0.00    -0.237 OA
ATOM     96  O   UNL     1      12.329  19.052  -1.600  1.00  0.00    -0.744 OA
ENDBRANCH  90  93
ENDBRANCH  63  86
ENDBRANCH  37  38
ENDBRANCH  29  32
ENDBRANCH  27  28
ENDBRANCH  26  27
ENDBRANCH   1  26
TORSDOF 18
