REMARK SMILES O=C(NCCCNC(=O)[C@H]1[C@@H](C(=O)NN2CCOCC2)[C@H]2C=C[C@@H]1CC2)c1ccc(-c2c3nc(c(-c4cccc(S(=O)(=O)[O-])c4F)c4ccc([nH]4)c(-c4cccc(S(=O)(=O)[O-])c4F)c4nc(c(-c5cccc(S(=O)(=O)[O-])c5F)c5ccc2[nH]5)C=C4)C=C3)cc1
REMARK SMILES IDX 4 1 3 2 1 3 2 4 27 6 28 7 89 8 29 9 88 10 30 11 31 12 32 13
REMARK SMILES IDX 82 14 33 15 87 16 81 17 83 18 34 19 86 20 80 21 79 22 35 24
REMARK SMILES IDX 67 25 47 26 66 27 48 28 51 29 65 30 84 31 49 32 50 33 64 35
REMARK SMILES IDX 85 36 52 37 36 38 37 39 45 40 38 41 40 42 46 43 39 44 41 45
REMARK SMILES IDX 42 46 43 47 44 48 68 49 69 50 77 51 70 52 72 53 78 54 71 55
REMARK SMILES IDX 73 56 74 57 75 58 76 59 53 60 54 61 62 62 55 63 57 64 63 65
REMARK SMILES IDX 56 66 58 67 59 68 60 69 61 70 5 71 6 72 7 73 8 74 9 76 10 77
REMARK SMILES IDX 11 78 24 79 21 80 23 81 25 82 22 83 26 84 12 85 13 86 14 87
REMARK SMILES IDX 15 89 16 90 20 91 17 92 19 93 18 94
REMARK H PARENT 3 5 83 23 51 34 7 75 14 88
REMARK Flexibility Score: inf
ROOT
ATOM      1  C   UNL     1       2.452   6.049   7.677  1.00  0.00     0.118 C 
ENDROOT
BRANCH   1   2
ATOM      2  N   UNL     1       2.616   7.500   7.633  1.00  0.00    -0.352 N 
ATOM      3  O   UNL     1       2.005   9.648   7.360  1.00  0.00    -0.269 OA
ATOM      4  C   UNL     1       1.675   8.505   7.670  1.00  0.00     0.251 C 
ATOM      5  H   UNL     1       3.548   7.809   7.568  1.00  0.00     0.163 HD
BRANCH   4   6
ATOM      6  C   UNL     1       0.277   8.198   8.046  1.00  0.00     0.039 A 
ATOM      7  C   UNL     1       0.013   7.267   9.047  1.00  0.00     0.014 A 
ATOM      8  C   UNL     1      -0.785   8.846   7.407  1.00  0.00     0.014 A 
ATOM      9  C   UNL     1      -1.280   6.815   9.253  1.00  0.00     0.010 A 
ATOM     10  C   UNL     1      -2.103   8.499   7.729  1.00  0.00     0.010 A 
ATOM     11  C   UNL     1      -2.360   7.454   8.629  1.00  0.00    -0.014 A 
BRANCH  11  12
ATOM     12  C   UNL     1      -3.736   7.083   9.045  1.00  0.00     0.031 A 
ATOM     13  C   UNL     1      -4.743   6.555   8.063  1.00  0.00     0.074 A 
ATOM     14  C   UNL     1      -4.063   7.229  10.346  1.00  0.00     0.049 A 
ATOM     15  N   UNL     1      -5.982   6.196   8.279  1.00  0.00    -0.248 NA
ATOM     16  C   UNL     1      -4.319   6.421   6.659  1.00  0.00     0.031 C 
ATOM     17  C   UNL     1      -3.175   7.774  11.379  1.00  0.00     0.029 A 
ATOM     18  N   UNL     1      -5.217   6.940  11.027  1.00  0.00    -0.354 N 
ATOM     19  C   UNL     1      -6.504   5.850   7.038  1.00  0.00     0.074 A 
ATOM     20  C   UNL     1      -5.443   6.027   6.071  1.00  0.00     0.031 C 
ATOM     21  C   UNL     1      -3.802   7.753  12.561  1.00  0.00     0.029 A 
ATOM     22  C   UNL     1      -5.162   7.276  12.360  1.00  0.00     0.049 A 
ATOM     23  H   UNL     1      -6.007   6.533  10.604  1.00  0.00     0.167 HD
ATOM     24  C   UNL     1      -7.753   5.419   6.742  1.00  0.00     0.034 A 
ATOM     25  C   UNL     1      -6.112   7.249  13.313  1.00  0.00     0.034 A 
ATOM     26  C   UNL     1      -8.782   5.196   7.723  1.00  0.00     0.049 A 
ATOM     27  C   UNL     1      -7.477   6.750  12.951  1.00  0.00     0.074 A 
ATOM     28  C   UNL     1     -10.044   4.658   7.536  1.00  0.00     0.029 A 
ATOM     29  N   UNL     1      -8.679   5.513   9.069  1.00  0.00    -0.354 N 
ATOM     30  N   UNL     1      -7.902   6.285  11.802  1.00  0.00    -0.248 NA
ATOM     31  C   UNL     1      -8.490   6.758  14.014  1.00  0.00     0.031 C 
ATOM     32  C   UNL     1     -10.716   4.683   8.762  1.00  0.00     0.029 A 
ATOM     33  C   UNL     1      -9.865   5.213   9.718  1.00  0.00     0.049 A 
ATOM     34  H   UNL     1      -7.880   5.896   9.499  1.00  0.00     0.167 HD
ATOM     35  C   UNL     1      -9.230   5.935  12.005  1.00  0.00     0.074 A 
ATOM     36  C   UNL     1      -9.526   6.207  13.397  1.00  0.00     0.031 C 
ATOM     37  C   UNL     1     -10.130   5.455  11.113  1.00  0.00     0.034 A 
BRANCH  24  38
ATOM     38  C   UNL     1      -8.090   5.133   5.302  1.00  0.00     0.023 A 
ATOM     39  C   UNL     1      -7.616   3.955   4.691  1.00  0.00     0.012 A 
ATOM     40  C   UNL     1      -8.966   5.978   4.591  1.00  0.00     0.148 A 
ATOM     41  C   UNL     1      -7.997   3.630   3.389  1.00  0.00     0.002 A 
ATOM     42  C   UNL     1      -9.371   5.628   3.308  1.00  0.00     0.091 A 
ATOM     43  F   UNL     1      -9.390   7.102   5.185  1.00  0.00    -0.205 F 
ATOM     44  C   UNL     1      -8.883   4.459   2.703  1.00  0.00     0.022 A 
BRANCH  42  45
ATOM     45  S   UNL     1     -10.566   6.589   2.371  1.00  0.00     0.127 S 
ATOM     46  O   UNL     1      -9.725   7.155   1.317  1.00  0.00    -0.237 OA
ATOM     47  O   UNL     1     -11.502   5.560   1.918  1.00  0.00    -0.237 OA
ATOM     48  O   UNL     1     -11.128   7.554   3.306  1.00  0.00    -0.744 OA
ENDBRANCH  42  45
ENDBRANCH  24  38
BRANCH  25  49
ATOM     49  C   UNL     1      -5.789   7.718  14.690  1.00  0.00     0.023 A 
ATOM     50  C   UNL     1      -5.747   6.795  15.751  1.00  0.00     0.012 A 
ATOM     51  C   UNL     1      -5.467   9.067  14.939  1.00  0.00     0.148 A 
ATOM     52  C   UNL     1      -5.413   7.213  17.040  1.00  0.00     0.002 A 
ATOM     53  C   UNL     1      -5.071   9.463  16.210  1.00  0.00     0.091 A 
ATOM     54  F   UNL     1      -5.531   9.937  13.920  1.00  0.00    -0.205 F 
ATOM     55  C   UNL     1      -5.061   8.542  17.267  1.00  0.00     0.022 A 
BRANCH  53  56
ATOM     56  S   UNL     1      -4.451  11.117  16.535  1.00  0.00     0.127 S 
ATOM     57  O   UNL     1      -5.607  11.754  17.159  1.00  0.00    -0.237 OA
ATOM     58  O   UNL     1      -3.329  10.854  17.439  1.00  0.00    -0.237 OA
ATOM     59  O   UNL     1      -4.054  11.641  15.235  1.00  0.00    -0.744 OA
ENDBRANCH  53  56
ENDBRANCH  25  49
BRANCH  37  60
ATOM     60  C   UNL     1     -11.521   5.188  11.615  1.00  0.00     0.023 A 
ATOM     61  C   UNL     1     -12.382   6.271  11.878  1.00  0.00     0.012 A 
ATOM     62  C   UNL     1     -11.996   3.871  11.758  1.00  0.00     0.148 A 
ATOM     63  C   UNL     1     -13.691   6.047  12.302  1.00  0.00     0.002 A 
ATOM     64  C   UNL     1     -13.316   3.655  12.135  1.00  0.00     0.091 A 
ATOM     65  F   UNL     1     -11.152   2.857  11.520  1.00  0.00    -0.205 F 
ATOM     66  C   UNL     1     -14.160   4.741  12.418  1.00  0.00     0.022 A 
BRANCH  64  67
ATOM     67  S   UNL     1     -14.037   2.013  12.224  1.00  0.00     0.127 S 
ATOM     68  O   UNL     1     -14.224   1.847  13.664  1.00  0.00    -0.237 OA
ATOM     69  O   UNL     1     -15.274   2.177  11.461  1.00  0.00    -0.237 OA
ATOM     70  O   UNL     1     -13.066   1.113  11.616  1.00  0.00    -0.744 OA
ENDBRANCH  64  67
ENDBRANCH  37  60
ENDBRANCH  11  12
ENDBRANCH   4   6
ENDBRANCH   1   2
BRANCH   1  71
ATOM     71  C   UNL     1       2.418   5.440   6.287  1.00  0.00     0.042 C 
BRANCH  71  72
ATOM     72  C   UNL     1       3.805   5.364   5.688  1.00  0.00     0.117 C 
BRANCH  72  73
ATOM     73  N   UNL     1       4.599   4.272   6.231  1.00  0.00    -0.356 N 
ATOM     74  C   UNL     1       5.628   3.602   5.611  1.00  0.00     0.224 C 
ATOM     75  H   UNL     1       4.375   3.981   7.144  1.00  0.00     0.163 HD
ATOM     76  O   UNL     1       6.160   2.648   6.172  1.00  0.00    -0.275 OA
BRANCH  74  77
ATOM     77  C   UNL     1       5.957   4.040   4.195  1.00  0.00     0.098 C 
ATOM     78  C   UNL     1       6.491   5.500   3.988  1.00  0.00     0.100 C 
ATOM     79  C   UNL     1       6.816   3.043   3.366  1.00  0.00     0.025 C 
ATOM     80  C   UNL     1       7.296   5.504   2.658  1.00  0.00     0.025 C 
ATOM     81  C   UNL     1       8.284   3.435   3.351  1.00  0.00    -0.027 C 
ATOM     82  C   UNL     1       6.341   3.258   1.903  1.00  0.00     0.009 C 
ATOM     83  C   UNL     1       8.535   4.681   2.916  1.00  0.00    -0.027 C 
ATOM     84  C   UNL     1       6.449   4.772   1.572  1.00  0.00     0.009 C 
BRANCH  78  85
ATOM     85  C   UNL     1       7.260   6.064   5.201  1.00  0.00     0.238 C 
ATOM     86  O   UNL     1       7.513   5.403   6.210  1.00  0.00    -0.273 OA
ATOM     87  N   UNL     1       7.627   7.386   5.244  1.00  0.00    -0.288 N 
ATOM     88  H   UNL     1       7.851   7.759   6.128  1.00  0.00     0.185 HD
BRANCH  87  89
ATOM     89  N   UNL     1       7.712   8.256   4.148  1.00  0.00    -0.217 NA
ATOM     90  C   UNL     1       8.798   9.249   4.347  1.00  0.00     0.136 C 
ATOM     91  C   UNL     1       6.451   8.979   3.877  1.00  0.00     0.136 C 
ATOM     92  C   UNL     1       8.433  10.369   5.338  1.00  0.00     0.177 C 
ATOM     93  C   UNL     1       6.144  10.098   4.878  1.00  0.00     0.177 C 
ATOM     94  O   UNL     1       7.228  11.033   4.945  1.00  0.00    -0.379 OA
ENDBRANCH  87  89
ENDBRANCH  78  85
ENDBRANCH  74  77
ENDBRANCH  72  73
ENDBRANCH  71  72
ENDBRANCH   1  71
TORSDOF 15
