REMARK SMILES CCCCCCNC(=O)Oc1cccc(-c2ccc([C@@H](C)C(=O)NCCCNC(=O)c3ccc(-c4c5nc(c(-c6cccc(S(=O)(=O)[O-])c6F)c6ccc([nH]6)c(-c6cccc(S(=O)(=O)[O-])c6F)c6nc(c(-c7cccc(S(=O)(=O)[O-])c7F)c7ccc4[nH]7)C=C6)C=C5)cc3)cc2F)c1
REMARK SMILES IDX 20 1 21 2 19 3 16 4 17 5 95 6 18 7 94 8 96 9 15 10 11 11
REMARK SMILES IDX 12 12 97 13 13 14 14 15 10 16 8 17 7 18 9 20 6 21 5 22 4 23
REMARK SMILES IDX 3 24 2 25 1 26 22 27 23 28 24 29 25 31 26 32 27 33 28 34
REMARK SMILES IDX 29 35 30 37 31 38 32 39 93 40 33 41 92 42 34 43 35 44 36 45
REMARK SMILES IDX 86 46 37 47 91 48 85 49 87 50 38 51 90 52 84 53 83 54 39 56
REMARK SMILES IDX 71 57 51 58 70 59 52 60 55 61 69 62 88 63 53 64 54 65 68 67
REMARK SMILES IDX 89 68 56 69 40 70 41 71 49 72 42 73 44 74 50 75 43 76 45 77
REMARK SMILES IDX 46 78 47 79 48 80 72 81 73 82 81 83 74 84 76 85 82 86 75 87
REMARK SMILES IDX 77 88 78 89 79 90 80 91 57 92 58 93 66 94 59 95 61 96 67 97
REMARK SMILES IDX 60 98 62 99 63 100 64 101 65 102
REMARK H PARENT 7 19 24 30 28 36 87 55 55 66
REMARK Flexibility Score: inf
ROOT
ATOM      1  C   UNL     1      -5.059 -13.594   0.049  1.00  0.00     0.105 C 
ATOM      2  C   UNL     1      -6.343 -14.420   0.104  1.00  0.00     0.023 C 
ENDROOT
BRANCH   1   3
ATOM      3  C   UNL     1      -5.199 -12.227  -0.598  1.00  0.00    -0.033 A 
ATOM      4  C   UNL     1      -5.329  -9.631  -1.800  1.00  0.00     0.018 A 
ATOM      5  C   UNL     1      -5.864 -10.765  -2.430  1.00  0.00     0.012 A 
ATOM      6  C   UNL     1      -4.746  -9.835  -0.540  1.00  0.00     0.131 A 
ATOM      7  C   UNL     1      -5.838 -12.027  -1.823  1.00  0.00     0.005 A 
ATOM      8  C   UNL     1      -4.658 -11.103   0.040  1.00  0.00     0.044 A 
ATOM      9  F   UNL     1      -4.263  -8.803   0.170  1.00  0.00    -0.206 F 
BRANCH   4  10
ATOM     10  C   UNL     1      -5.386  -8.306  -2.454  1.00  0.00    -0.012 A 
ATOM     11  C   UNL     1      -4.410  -6.133  -2.938  1.00  0.00     0.133 A 
ATOM     12  C   UNL     1      -5.494  -5.786  -3.734  1.00  0.00     0.047 A 
ATOM     13  C   UNL     1      -4.350  -7.370  -2.298  1.00  0.00     0.056 A 
ATOM     14  C   UNL     1      -6.522  -6.699  -3.919  1.00  0.00     0.004 A 
ATOM     15  C   UNL     1      -6.473  -7.939  -3.277  1.00  0.00     0.009 A 
BRANCH  11  16
ATOM     16  O   UNL     1      -3.444  -5.144  -2.719  1.00  0.00    -0.410 OA
BRANCH  16  17
ATOM     17  C   UNL     1      -2.118  -5.448  -2.985  1.00  0.00     0.412 C 
ATOM     18  N   UNL     1      -1.282  -4.386  -2.765  1.00  0.00    -0.321 N 
ATOM     19  H   UNL     1      -0.327  -4.522  -2.964  1.00  0.00     0.167 HD
ATOM     20  O   UNL     1      -1.669  -6.538  -3.319  1.00  0.00    -0.224 OA
BRANCH  18  21
ATOM     21  C   UNL     1      -1.666  -3.083  -2.267  1.00  0.00     0.119 C 
BRANCH  21  22
ATOM     22  C   UNL     1      -1.102  -2.839  -0.866  1.00  0.00     0.021 C 
BRANCH  22  23
ATOM     23  C   UNL     1       0.428  -2.756  -0.803  1.00  0.00     0.002 C 
BRANCH  23  24
ATOM     24  C   UNL     1       1.060  -1.652  -1.659  1.00  0.00    -0.000 C 
BRANCH  24  25
ATOM     25  C   UNL     1       0.583  -0.231  -1.350  1.00  0.00    -0.003 C 
ATOM     26  C   UNL     1       0.934   0.226   0.058  1.00  0.00     0.004 C 
ENDBRANCH  24  25
ENDBRANCH  23  24
ENDBRANCH  22  23
ENDBRANCH  21  22
ENDBRANCH  18  21
ENDBRANCH  16  17
ENDBRANCH  11  16
ENDBRANCH   4  10
ENDBRANCH   1   3
BRANCH   1  27
ATOM     27  C   UNL     1      -3.815 -14.374  -0.399  1.00  0.00     0.227 C 
ATOM     28  O   UNL     1      -2.848 -14.478   0.366  1.00  0.00    -0.274 OA
ATOM     29  N   UNL     1      -3.699 -15.002  -1.600  1.00  0.00    -0.356 N 
ATOM     30  H   UNL     1      -2.854 -15.495  -1.714  1.00  0.00     0.163 HD
BRANCH  29  31
ATOM     31  C   UNL     1      -4.585 -15.080  -2.744  1.00  0.00     0.117 C 
BRANCH  31  32
ATOM     32  C   UNL     1      -4.205 -14.094  -3.843  1.00  0.00     0.042 C 
BRANCH  32  33
ATOM     33  C   UNL     1      -3.095 -14.597  -4.754  1.00  0.00     0.118 C 
BRANCH  33  34
ATOM     34  N   UNL     1      -3.547 -15.680  -5.623  1.00  0.00    -0.352 N 
ATOM     35  C   UNL     1      -3.629 -15.731  -6.994  1.00  0.00     0.251 C 
ATOM     36  H   UNL     1      -3.838 -16.496  -5.156  1.00  0.00     0.163 HD
ATOM     37  O   UNL     1      -4.236 -16.655  -7.529  1.00  0.00    -0.269 OA
BRANCH  35  38
ATOM     38  C   UNL     1      -3.001 -14.678  -7.822  1.00  0.00     0.039 A 
ATOM     39  C   UNL     1      -3.674 -14.199  -8.951  1.00  0.00     0.014 A 
ATOM     40  C   UNL     1      -1.738 -14.177  -7.498  1.00  0.00     0.014 A 
ATOM     41  C   UNL     1      -3.107 -13.174  -9.717  1.00  0.00     0.010 A 
ATOM     42  C   UNL     1      -1.219 -13.099  -8.206  1.00  0.00     0.010 A 
ATOM     43  C   UNL     1      -1.889 -12.596  -9.332  1.00  0.00    -0.014 A 
BRANCH  43  44
ATOM     44  C   UNL     1      -1.254 -11.491 -10.095  1.00  0.00     0.031 A 
ATOM     45  C   UNL     1       0.114 -11.700 -10.692  1.00  0.00     0.074 A 
ATOM     46  C   UNL     1      -1.838 -10.277 -10.144  1.00  0.00     0.049 A 
ATOM     47  N   UNL     1       0.929 -10.827 -11.222  1.00  0.00    -0.248 NA
ATOM     48  C   UNL     1       0.651 -13.072 -10.650  1.00  0.00     0.031 C 
ATOM     49  C   UNL     1      -3.135  -9.933  -9.558  1.00  0.00     0.029 A 
ATOM     50  N   UNL     1      -1.393  -9.094 -10.680  1.00  0.00    -0.354 N 
ATOM     51  C   UNL     1       2.092 -11.528 -11.520  1.00  0.00     0.074 A 
ATOM     52  C   UNL     1       1.888 -12.893 -11.088  1.00  0.00     0.031 C 
ATOM     53  C   UNL     1      -3.377  -8.627  -9.760  1.00  0.00     0.029 A 
ATOM     54  C   UNL     1      -2.238  -8.033 -10.450  1.00  0.00     0.049 A 
ATOM     55  H   UNL     1      -0.549  -9.013 -11.181  1.00  0.00     0.167 HD
ATOM     56  C   UNL     1       3.221 -11.083 -12.121  1.00  0.00     0.034 A 
ATOM     57  C   UNL     1      -2.097  -6.725 -10.742  1.00  0.00     0.034 A 
ATOM     58  C   UNL     1       3.393  -9.740 -12.604  1.00  0.00     0.049 A 
ATOM     59  C   UNL     1      -0.845  -6.263 -11.441  1.00  0.00     0.074 A 
ATOM     60  C   UNL     1       4.461  -9.207 -13.302  1.00  0.00     0.029 A 
ATOM     61  N   UNL     1       2.469  -8.719 -12.441  1.00  0.00    -0.354 N 
ATOM     62  N   UNL     1       0.194  -6.964 -11.824  1.00  0.00    -0.248 NA
ATOM     63  C   UNL     1      -0.759  -4.833 -11.774  1.00  0.00     0.031 C 
ATOM     64  C   UNL     1       4.190  -7.859 -13.550  1.00  0.00     0.029 A 
ATOM     65  C   UNL     1       2.940  -7.560 -13.030  1.00  0.00     0.049 A 
ATOM     66  H   UNL     1       1.606  -8.807 -11.976  1.00  0.00     0.167 HD
ATOM     67  C   UNL     1       1.032  -6.074 -12.486  1.00  0.00     0.074 A 
ATOM     68  C   UNL     1       0.378  -4.782 -12.457  1.00  0.00     0.031 C 
ATOM     69  C   UNL     1       2.238  -6.303 -13.060  1.00  0.00     0.034 A 
BRANCH  56  70
ATOM     70  C   UNL     1       4.336 -12.071 -12.343  1.00  0.00     0.023 A 
ATOM     71  C   UNL     1       4.178 -13.095 -13.299  1.00  0.00     0.012 A 
ATOM     72  C   UNL     1       5.556 -11.957 -11.649  1.00  0.00     0.148 A 
ATOM     73  C   UNL     1       5.200 -14.014 -13.532  1.00  0.00     0.002 A 
ATOM     74  C   UNL     1       6.588 -12.848 -11.921  1.00  0.00     0.091 A 
ATOM     75  F   UNL     1       5.683 -10.990 -10.729  1.00  0.00    -0.205 F 
ATOM     76  C   UNL     1       6.407 -13.885 -12.852  1.00  0.00     0.022 A 
BRANCH  74  77
ATOM     77  S   UNL     1       8.211 -12.715 -11.161  1.00  0.00     0.127 S 
ATOM     78  O   UNL     1       8.210 -13.867 -10.260  1.00  0.00    -0.237 OA
ATOM     79  O   UNL     1       9.103 -12.845 -12.314  1.00  0.00    -0.237 OA
ATOM     80  O   UNL     1       8.244 -11.413 -10.511  1.00  0.00    -0.744 OA
ENDBRANCH  74  77
ENDBRANCH  56  70
BRANCH  57  81
ATOM     81  C   UNL     1      -3.189  -5.760 -10.430  1.00  0.00     0.023 A 
ATOM     82  C   UNL     1      -3.938  -5.208 -11.487  1.00  0.00     0.012 A 
ATOM     83  C   UNL     1      -3.487  -5.381  -9.107  1.00  0.00     0.148 A 
ATOM     84  C   UNL     1      -4.939  -4.267 -11.238  1.00  0.00     0.002 A 
ATOM     85  C   UNL     1      -4.509  -4.470  -8.863  1.00  0.00     0.091 A 
ATOM     86  F   UNL     1      -2.783  -5.939  -8.113  1.00  0.00    -0.205 F 
ATOM     87  C   UNL     1      -5.224  -3.899  -9.927  1.00  0.00     0.022 A 
BRANCH  85  88
ATOM     88  S   UNL     1      -4.979  -3.967  -7.206  1.00  0.00     0.127 S 
ATOM     89  O   UNL     1      -5.073  -2.514  -7.334  1.00  0.00    -0.237 OA
ATOM     90  O   UNL     1      -6.262  -4.649  -7.040  1.00  0.00    -0.237 OA
ATOM     91  O   UNL     1      -3.906  -4.424  -6.335  1.00  0.00    -0.744 OA
ENDBRANCH  85  88
ENDBRANCH  57  81
BRANCH  69  92
ATOM     92  C   UNL     1       2.907  -5.163 -13.779  1.00  0.00     0.023 A 
ATOM     93  C   UNL     1       3.518  -4.127 -13.048  1.00  0.00     0.012 A 
ATOM     94  C   UNL     1       3.018  -5.182 -15.184  1.00  0.00     0.148 A 
ATOM     95  C   UNL     1       4.215  -3.115 -13.707  1.00  0.00     0.002 A 
ATOM     96  C   UNL     1       3.756  -4.198 -15.829  1.00  0.00     0.091 A 
ATOM     97  F   UNL     1       2.411  -6.169 -15.859  1.00  0.00    -0.205 F 
ATOM     98  C   UNL     1       4.346  -3.158 -15.094  1.00  0.00     0.022 A 
BRANCH  96  99
ATOM     99  S   UNL     1       4.063  -4.231 -17.599  1.00  0.00     0.127 S 
ATOM    100  O   UNL     1       3.251  -3.107 -18.062  1.00  0.00    -0.237 OA
ATOM    101  O   UNL     1       5.508  -4.009 -17.666  1.00  0.00    -0.237 OA
ATOM    102  O   UNL     1       3.630  -5.543 -18.060  1.00  0.00    -0.744 OA
ENDBRANCH  96  99
ENDBRANCH  69  92
ENDBRANCH  43  44
ENDBRANCH  35  38
ENDBRANCH  33  34
ENDBRANCH  32  33
ENDBRANCH  31  32
ENDBRANCH  29  31
ENDBRANCH   1  27
TORSDOF 22
