REMARK SMILES CCC(CC)(NC(=O)c1ccc(NC(C)=O)cc1)C(=O)NCCCNC(=O)c1ccc(-c2c3nc(c(-c4cccc(S(=O)(=O)[O-])c4F)c4ccc([nH]4)c(-c4cccc(S(=O)(=O)[O-])c4F)c4nc(c(-c5cccc(S(=O)(=O)[O-])c5F)c5ccc2[nH]5)C=C4)C=C3)cc1
REMARK SMILES IDX 23 1 22 2 21 3 19 4 20 5 3 7 2 8 1 9 4 10 5 11 6 12 7 13
REMARK SMILES IDX 8 15 9 16 10 17 18 18 11 19 17 20 12 21 13 22 14 23 15 25
REMARK SMILES IDX 16 26 24 27 25 28 26 29 27 31 28 32 29 33 90 34 30 35 89 36
REMARK SMILES IDX 31 37 32 38 33 39 83 40 34 41 88 42 82 43 84 44 35 45 87 46
REMARK SMILES IDX 81 47 80 48 36 50 68 51 48 52 67 53 49 54 52 55 66 56 85 57
REMARK SMILES IDX 50 58 51 59 65 61 86 62 53 63 37 64 38 65 46 66 39 67 41 68
REMARK SMILES IDX 47 69 40 70 42 71 43 72 44 73 45 74 69 75 70 76 78 77 71 78
REMARK SMILES IDX 73 79 79 80 72 81 74 82 75 83 76 84 77 85 54 86 55 87 63 88
REMARK SMILES IDX 56 89 58 90 64 91 57 92 59 93 60 94 61 95 62 96
REMARK H PARENT 21 6 6 14 13 24 25 30 84 49 52 60
REMARK Flexibility Score: inf
ROOT
ATOM      1  C   UNL     1       2.540   1.121   6.104  1.00  0.00     0.042 C 
ENDROOT
BRANCH   1   2
ATOM      2  C   UNL     1       2.159   2.135   5.019  1.00  0.00     0.117 C 
BRANCH   2   3
ATOM      3  N   UNL     1       2.677   1.973   3.662  1.00  0.00    -0.354 N 
ATOM      4  C   UNL     1       2.284   1.257   2.551  1.00  0.00     0.245 C 
ATOM      5  O   UNL     1       2.925   1.499   1.522  1.00  0.00    -0.272 OA
ATOM      6  H   UNL     1       3.496   2.496   3.504  1.00  0.00     0.163 HD
BRANCH   4   7
ATOM      7  C   UNL     1       1.066   0.265   2.550  1.00  0.00     0.118 C 
BRANCH   7   8
ATOM      8  C   UNL     1       0.983  -0.633   1.273  1.00  0.00     0.035 C 
ATOM      9  C   UNL     1       0.979   0.036  -0.097  1.00  0.00     0.007 C 
ENDBRANCH   7   8
BRANCH   7  10
ATOM     10  C   UNL     1      -0.135   1.277   2.576  1.00  0.00     0.035 C 
ATOM     11  C   UNL     1      -1.550   0.737   2.481  1.00  0.00     0.007 C 
ENDBRANCH   7  10
BRANCH   7  12
ATOM     12  N   UNL     1       1.011  -0.688   3.723  1.00  0.00    -0.338 N 
ATOM     13  C   UNL     1       1.731  -1.851   4.039  1.00  0.00     0.252 C 
ATOM     14  H   UNL     1       0.338  -0.445   4.399  1.00  0.00     0.164 HD
ATOM     15  O   UNL     1       1.100  -2.759   4.582  1.00  0.00    -0.269 OA
BRANCH  13  16
ATOM     16  C   UNL     1       3.215  -2.033   3.860  1.00  0.00     0.039 A 
ATOM     17  C   UNL     1       3.901  -3.229   4.121  1.00  0.00     0.016 A 
ATOM     18  C   UNL     1       4.015  -0.945   3.609  1.00  0.00     0.016 A 
ATOM     19  C   UNL     1       5.329  -3.280   4.103  1.00  0.00     0.027 A 
ATOM     20  C   UNL     1       5.394  -0.972   3.530  1.00  0.00     0.027 A 
ATOM     21  C   UNL     1       6.075  -2.137   3.804  1.00  0.00     0.041 A 
BRANCH  21  22
ATOM     22  N   UNL     1       7.466  -1.976   3.795  1.00  0.00    -0.326 N 
ATOM     23  C   UNL     1       8.458  -2.877   4.074  1.00  0.00     0.221 C 
ATOM     24  H   UNL     1       7.779  -1.075   3.551  1.00  0.00     0.169 HD
ATOM     25  C   UNL     1       9.831  -2.247   3.956  1.00  0.00     0.114 C 
ATOM     26  O   UNL     1       8.303  -4.060   4.368  1.00  0.00    -0.275 OA
ENDBRANCH  21  22
ENDBRANCH  13  16
ENDBRANCH   7  12
ENDBRANCH   4   7
ENDBRANCH   2   3
ENDBRANCH   1   2
BRANCH   1  27
ATOM     27  C   UNL     1       4.005   0.943   6.500  1.00  0.00     0.118 C 
BRANCH  27  28
ATOM     28  N   UNL     1       4.715   2.170   6.785  1.00  0.00    -0.352 N 
ATOM     29  C   UNL     1       5.611   2.452   7.787  1.00  0.00     0.251 C 
ATOM     30  H   UNL     1       4.529   2.914   6.168  1.00  0.00     0.163 HD
ATOM     31  O   UNL     1       6.088   3.585   7.842  1.00  0.00    -0.269 OA
BRANCH  29  32
ATOM     32  C   UNL     1       5.989   1.448   8.813  1.00  0.00     0.039 A 
ATOM     33  C   UNL     1       6.037   1.875  10.143  1.00  0.00     0.014 A 
ATOM     34  C   UNL     1       6.354   0.134   8.500  1.00  0.00     0.014 A 
ATOM     35  C   UNL     1       6.419   0.989  11.155  1.00  0.00     0.010 A 
ATOM     36  C   UNL     1       6.686  -0.768   9.522  1.00  0.00     0.010 A 
ATOM     37  C   UNL     1       6.732  -0.348  10.861  1.00  0.00    -0.014 A 
BRANCH  37  38
ATOM     38  C   UNL     1       7.075  -1.284  11.971  1.00  0.00     0.031 A 
ATOM     39  C   UNL     1       8.456  -1.870  12.110  1.00  0.00     0.074 A 
ATOM     40  C   UNL     1       6.128  -1.607  12.876  1.00  0.00     0.049 A 
ATOM     41  N   UNL     1       8.950  -2.590  13.086  1.00  0.00    -0.248 NA
ATOM     42  C   UNL     1       9.400  -1.633  11.007  1.00  0.00     0.031 C 
ATOM     43  C   UNL     1       4.728  -1.182  12.816  1.00  0.00     0.029 A 
ATOM     44  N   UNL     1       6.196  -2.364  14.020  1.00  0.00    -0.354 N 
ATOM     45  C   UNL     1      10.252  -2.906  12.713  1.00  0.00     0.074 A 
ATOM     46  C   UNL     1      10.460  -2.327  11.402  1.00  0.00     0.031 C 
ATOM     47  C   UNL     1       4.076  -1.665  13.886  1.00  0.00     0.029 A 
ATOM     48  C   UNL     1       5.003  -2.445  14.700  1.00  0.00     0.049 A 
ATOM     49  H   UNL     1       7.021  -2.807  14.324  1.00  0.00     0.167 HD
ATOM     50  C   UNL     1      11.198  -3.589  13.405  1.00  0.00     0.034 A 
ATOM     51  C   UNL     1       4.689  -3.065  15.855  1.00  0.00     0.034 A 
ATOM     52  C   UNL     1      10.997  -4.151  14.716  1.00  0.00     0.049 A 
ATOM     53  C   UNL     1       5.769  -3.772  16.628  1.00  0.00     0.074 A 
ATOM     54  C   UNL     1      11.918  -4.791  15.529  1.00  0.00     0.029 A 
ATOM     55  N   UNL     1       9.793  -4.157  15.402  1.00  0.00    -0.354 N 
ATOM     56  N   UNL     1       7.042  -3.900  16.341  1.00  0.00    -0.248 NA
ATOM     57  C   UNL     1       5.379  -4.376  17.910  1.00  0.00     0.031 C 
ATOM     58  C   UNL     1      11.262  -5.209  16.693  1.00  0.00     0.029 A 
ATOM     59  C   UNL     1       9.942  -4.796  16.623  1.00  0.00     0.049 A 
ATOM     60  H   UNL     1       8.953  -3.764  15.071  1.00  0.00     0.167 HD
ATOM     61  C   UNL     1       7.610  -4.569  17.420  1.00  0.00     0.074 A 
ATOM     62  C   UNL     1       6.548  -4.788  18.380  1.00  0.00     0.031 C 
ATOM     63  C   UNL     1       8.892  -4.976  17.593  1.00  0.00     0.034 A 
BRANCH  50  64
ATOM     64  C   UNL     1      12.564  -3.728  12.777  1.00  0.00     0.023 A 
ATOM     65  C   UNL     1      13.396  -2.594  12.670  1.00  0.00     0.012 A 
ATOM     66  C   UNL     1      13.053  -4.982  12.360  1.00  0.00     0.148 A 
ATOM     67  C   UNL     1      14.676  -2.697  12.126  1.00  0.00     0.002 A 
ATOM     68  C   UNL     1      14.348  -5.085  11.861  1.00  0.00     0.091 A 
ATOM     69  F   UNL     1      12.246  -6.048  12.456  1.00  0.00    -0.205 F 
ATOM     70  C   UNL     1      15.154  -3.943  11.731  1.00  0.00     0.022 A 
BRANCH  68  71
ATOM     71  S   UNL     1      15.092  -6.656  11.403  1.00  0.00     0.127 S 
ATOM     72  O   UNL     1      15.169  -6.532   9.948  1.00  0.00    -0.237 OA
ATOM     73  O   UNL     1      16.383  -6.595  12.089  1.00  0.00    -0.237 OA
ATOM     74  O   UNL     1      14.190  -7.687  11.896  1.00  0.00    -0.744 OA
ENDBRANCH  68  71
ENDBRANCH  50  64
BRANCH  51  75
ATOM     75  C   UNL     1       3.301  -2.977  16.393  1.00  0.00     0.023 A 
ATOM     76  C   UNL     1       3.052  -2.228  17.560  1.00  0.00     0.012 A 
ATOM     77  C   UNL     1       2.226  -3.615  15.745  1.00  0.00     0.148 A 
ATOM     78  C   UNL     1       1.765  -2.145  18.092  1.00  0.00     0.002 A 
ATOM     79  C   UNL     1       0.937  -3.480  16.247  1.00  0.00     0.091 A 
ATOM     80  F   UNL     1       2.485  -4.334  14.644  1.00  0.00    -0.205 F 
ATOM     81  C   UNL     1       0.707  -2.762  17.431  1.00  0.00     0.022 A 
BRANCH  79  82
ATOM     82  S   UNL     1      -0.503  -4.123  15.388  1.00  0.00     0.127 S 
ATOM     83  O   UNL     1      -0.911  -5.218  16.265  1.00  0.00    -0.237 OA
ATOM     84  O   UNL     1      -1.397  -2.965  15.390  1.00  0.00    -0.237 OA
ATOM     85  O   UNL     1      -0.030  -4.512  14.066  1.00  0.00    -0.744 OA
ENDBRANCH  79  82
ENDBRANCH  51  75
BRANCH  63  86
ATOM     86  C   UNL     1       9.230  -5.674  18.888  1.00  0.00     0.023 A 
ATOM     87  C   UNL     1       8.726  -6.965  19.146  1.00  0.00     0.012 A 
ATOM     88  C   UNL     1      10.072  -5.062  19.838  1.00  0.00     0.148 A 
ATOM     89  C   UNL     1       9.011  -7.612  20.349  1.00  0.00     0.002 A 
ATOM     90  C   UNL     1      10.394  -5.735  21.011  1.00  0.00     0.091 A 
ATOM     91  F   UNL     1      10.528  -3.826  19.589  1.00  0.00    -0.205 F 
ATOM     92  C   UNL     1       9.851  -7.002  21.276  1.00  0.00     0.022 A 
BRANCH  90  93
ATOM     93  S   UNL     1      11.547  -5.063  22.214  1.00  0.00     0.127 S 
ATOM     94  O   UNL     1      10.644  -4.597  23.265  1.00  0.00    -0.237 OA
ATOM     95  O   UNL     1      12.345  -6.237  22.573  1.00  0.00    -0.237 OA
ATOM     96  O   UNL     1      12.290  -4.023  21.515  1.00  0.00    -0.744 OA
ENDBRANCH  90  93
ENDBRANCH  63  86
ENDBRANCH  37  38
ENDBRANCH  29  32
ENDBRANCH  27  28
ENDBRANCH   1  27
TORSDOF 18
