REMARK SMILES O=C(NCCCNC(=O)[C@H]1CCCN(c2cc(-c3ccccn3)nc(-c3ccccc3F)n2)C1)c1ccc(-c2c3nc(c(-c4cccc(S(=O)(=O)[O-])c4F)c4ccc([nH]4)c(-c4cccc(S(=O)(=O)[O-])c4F)c4nc(c(-c5cccc(S(=O)(=O)[O-])c5F)c5ccc2[nH]5)C=C4)C=C3)cc1
REMARK SMILES IDX 4 1 3 2 1 3 2 4 35 6 36 7 97 8 37 9 96 10 38 11 39 12 40 13
REMARK SMILES IDX 90 14 41 15 95 16 89 17 91 18 42 19 94 20 88 21 87 22 43 24
REMARK SMILES IDX 75 25 55 26 74 27 56 28 59 29 73 30 92 31 57 32 58 33 72 35
REMARK SMILES IDX 93 36 60 37 44 38 45 39 53 40 46 41 48 42 54 43 47 44 49 45
REMARK SMILES IDX 50 46 51 47 52 48 76 49 77 50 85 51 78 52 80 53 86 54 79 55
REMARK SMILES IDX 81 56 82 57 83 58 84 59 61 60 62 61 70 62 63 63 65 64 71 65
REMARK SMILES IDX 64 66 66 67 67 68 68 69 69 70 5 71 6 72 7 73 8 74 9 76 10 77
REMARK SMILES IDX 11 78 34 79 12 80 14 81 13 82 15 83 16 84 33 85 17 86 25 87
REMARK SMILES IDX 24 88 18 89 19 90 23 91 20 92 22 93 21 94 26 95 27 96 31 97
REMARK SMILES IDX 28 98 30 99 32 100 29 101
REMARK H PARENT 3 5 91 23 59 34 7 75
REMARK Flexibility Score: inf
ROOT
ATOM      1  C   UNL     1       4.349   1.024  -1.562  1.00  0.00     0.118 C 
ENDROOT
BRANCH   1   2
ATOM      2  N   UNL     1       4.956  -0.259  -1.891  1.00  0.00    -0.352 N 
ATOM      3  O   UNL     1       5.553  -2.408  -1.625  1.00  0.00    -0.269 OA
ATOM      4  C   UNL     1       4.797  -1.493  -1.307  1.00  0.00     0.251 C 
ATOM      5  H   UNL     1       5.580  -0.239  -2.652  1.00  0.00     0.163 HD
BRANCH   4   6
ATOM      6  C   UNL     1       3.744  -1.712  -0.291  1.00  0.00     0.039 A 
ATOM      7  C   UNL     1       2.473  -1.158  -0.448  1.00  0.00     0.014 A 
ATOM      8  C   UNL     1       4.024  -2.505   0.826  1.00  0.00     0.014 A 
ATOM      9  C   UNL     1       1.542  -1.256   0.579  1.00  0.00     0.010 A 
ATOM     10  C   UNL     1       3.050  -2.689   1.812  1.00  0.00     0.010 A 
ATOM     11  C   UNL     1       1.811  -2.039   1.713  1.00  0.00    -0.014 A 
BRANCH  11  12
ATOM     12  C   UNL     1       0.741  -2.232   2.724  1.00  0.00     0.031 A 
ATOM     13  C   UNL     1       0.897  -1.751   4.139  1.00  0.00     0.074 A 
ATOM     14  C   UNL     1      -0.399  -2.839   2.338  1.00  0.00     0.049 A 
ATOM     15  N   UNL     1       0.029  -1.794   5.117  1.00  0.00    -0.248 NA
ATOM     16  C   UNL     1       2.189  -1.154   4.514  1.00  0.00     0.031 C 
ATOM     17  C   UNL     1      -0.641  -3.388   1.002  1.00  0.00     0.029 A 
ATOM     18  N   UNL     1      -1.565  -3.087   3.015  1.00  0.00    -0.354 N 
ATOM     19  C   UNL     1       0.674  -1.266   6.228  1.00  0.00     0.074 A 
ATOM     20  C   UNL     1       2.014  -0.916   5.808  1.00  0.00     0.031 C 
ATOM     21  C   UNL     1      -1.891  -3.867   0.942  1.00  0.00     0.029 A 
ATOM     22  C   UNL     1      -2.520  -3.713   2.249  1.00  0.00     0.049 A 
ATOM     23  H   UNL     1      -1.704  -2.841   3.958  1.00  0.00     0.167 HD
ATOM     24  C   UNL     1       0.185  -1.075   7.476  1.00  0.00     0.034 A 
ATOM     25  C   UNL     1      -3.763  -4.128   2.558  1.00  0.00     0.034 A 
ATOM     26  C   UNL     1      -1.163  -1.391   7.872  1.00  0.00     0.049 A 
ATOM     27  C   UNL     1      -4.290  -3.875   3.940  1.00  0.00     0.074 A 
ATOM     28  C   UNL     1      -1.769  -1.171   9.097  1.00  0.00     0.029 A 
ATOM     29  N   UNL     1      -2.111  -1.995   7.060  1.00  0.00    -0.354 N 
ATOM     30  N   UNL     1      -3.704  -3.264   4.941  1.00  0.00    -0.248 NA
ATOM     31  C   UNL     1      -5.651  -4.343   4.233  1.00  0.00     0.031 C 
ATOM     32  C   UNL     1      -3.075  -1.663   9.033  1.00  0.00     0.029 A 
ATOM     33  C   UNL     1      -3.293  -2.166   7.760  1.00  0.00     0.049 A 
ATOM     34  H   UNL     1      -1.964  -2.262   6.124  1.00  0.00     0.167 HD
ATOM     35  C   UNL     1      -4.629  -3.257   5.977  1.00  0.00     0.074 A 
ATOM     36  C   UNL     1      -5.823  -3.905   5.474  1.00  0.00     0.031 C 
ATOM     37  C   UNL     1      -4.491  -2.772   7.235  1.00  0.00     0.034 A 
BRANCH  24  38
ATOM     38  C   UNL     1       1.090  -0.452   8.508  1.00  0.00     0.023 A 
ATOM     39  C   UNL     1       1.370   0.928   8.441  1.00  0.00     0.012 A 
ATOM     40  C   UNL     1       1.572  -1.203   9.599  1.00  0.00     0.148 A 
ATOM     41  C   UNL     1       2.131   1.547   9.432  1.00  0.00     0.002 A 
ATOM     42  C   UNL     1       2.297  -0.571  10.604  1.00  0.00     0.091 A 
ATOM     43  F   UNL     1       1.313  -2.518   9.635  1.00  0.00    -0.205 F 
ATOM     44  C   UNL     1       2.583   0.802  10.518  1.00  0.00     0.022 A 
BRANCH  42  45
ATOM     45  S   UNL     1       2.851  -1.427  12.083  1.00  0.00     0.127 S 
ATOM     46  O   UNL     1       4.291  -1.521  11.846  1.00  0.00    -0.237 OA
ATOM     47  O   UNL     1       2.469  -0.493  13.143  1.00  0.00    -0.237 OA
ATOM     48  O   UNL     1       2.135  -2.694  12.104  1.00  0.00    -0.744 OA
ENDBRANCH  42  45
ENDBRANCH  24  38
BRANCH  25  49
ATOM     49  C   UNL     1      -4.597  -4.761   1.500  1.00  0.00     0.023 A 
ATOM     50  C   UNL     1      -5.680  -4.047   0.954  1.00  0.00     0.012 A 
ATOM     51  C   UNL     1      -4.251  -6.013   0.953  1.00  0.00     0.148 A 
ATOM     52  C   UNL     1      -6.406  -4.570  -0.117  1.00  0.00     0.002 A 
ATOM     53  C   UNL     1      -4.938  -6.498  -0.153  1.00  0.00     0.091 A 
ATOM     54  F   UNL     1      -3.224  -6.680   1.498  1.00  0.00    -0.205 F 
ATOM     55  C   UNL     1      -6.024  -5.785  -0.681  1.00  0.00     0.022 A 
BRANCH  53  56
ATOM     56  S   UNL     1      -4.412  -7.968  -1.043  1.00  0.00     0.127 S 
ATOM     57  O   UNL     1      -5.491  -8.903  -0.739  1.00  0.00    -0.237 OA
ATOM     58  O   UNL     1      -4.382  -7.488  -2.425  1.00  0.00    -0.237 OA
ATOM     59  O   UNL     1      -3.105  -8.312  -0.499  1.00  0.00    -0.744 OA
ENDBRANCH  53  56
ENDBRANCH  25  49
BRANCH  37  60
ATOM     60  C   UNL     1      -5.660  -2.906   8.173  1.00  0.00     0.023 A 
ATOM     61  C   UNL     1      -5.955  -4.162   8.738  1.00  0.00     0.012 A 
ATOM     62  C   UNL     1      -6.387  -1.772   8.583  1.00  0.00     0.148 A 
ATOM     63  C   UNL     1      -6.967  -4.289   9.688  1.00  0.00     0.002 A 
ATOM     64  C   UNL     1      -7.363  -1.898   9.565  1.00  0.00     0.091 A 
ATOM     65  F   UNL     1      -6.100  -0.590   8.018  1.00  0.00    -0.205 F 
ATOM     66  C   UNL     1      -7.660  -3.157  10.112  1.00  0.00     0.022 A 
BRANCH  64  67
ATOM     67  S   UNL     1      -8.236  -0.483  10.244  1.00  0.00     0.127 S 
ATOM     68  O   UNL     1      -9.579  -0.671   9.697  1.00  0.00    -0.237 OA
ATOM     69  O   UNL     1      -8.127  -0.713  11.685  1.00  0.00    -0.237 OA
ATOM     70  O   UNL     1      -7.528   0.696   9.764  1.00  0.00    -0.744 OA
ENDBRANCH  64  67
ENDBRANCH  37  60
ENDBRANCH  11  12
ENDBRANCH   4   6
ENDBRANCH   1   2
BRANCH   1  71
ATOM     71  C   UNL     1       5.364   2.050  -1.075  1.00  0.00     0.042 C 
BRANCH  71  72
ATOM     72  C   UNL     1       6.410   2.418  -2.115  1.00  0.00     0.117 C 
BRANCH  72  73
ATOM     73  N   UNL     1       5.817   2.988  -3.311  1.00  0.00    -0.356 N 
ATOM     74  C   UNL     1       5.690   4.294  -3.678  1.00  0.00     0.224 C 
ATOM     75  H   UNL     1       5.452   2.334  -3.951  1.00  0.00     0.163 HD
ATOM     76  O   UNL     1       5.067   4.550  -4.708  1.00  0.00    -0.275 OA
BRANCH  74  77
ATOM     77  C   UNL     1       6.370   5.365  -2.843  1.00  0.00     0.098 C 
ATOM     78  C   UNL     1       7.881   5.365  -3.129  1.00  0.00     0.017 C 
ATOM     79  C   UNL     1       5.771   6.734  -3.180  1.00  0.00     0.131 C 
ATOM     80  C   UNL     1       8.579   6.501  -2.384  1.00  0.00     0.022 C 
ATOM     81  N   UNL     1       6.536   7.796  -2.530  1.00  0.00    -0.356 N 
ATOM     82  C   UNL     1       7.971   7.854  -2.747  1.00  0.00     0.118 C 
BRANCH  81  83
ATOM     83  C   UNL     1       5.877   8.705  -1.737  1.00  0.00     0.133 A 
ATOM     84  C   UNL     1       6.096  10.057  -1.888  1.00  0.00     0.077 A 
ATOM     85  N   UNL     1       4.994   8.242  -0.841  1.00  0.00    -0.211 NA
ATOM     86  C   UNL     1       5.344  10.920  -1.114  1.00  0.00     0.095 A 
ATOM     87  C   UNL     1       4.329   9.147  -0.098  1.00  0.00     0.165 A 
ATOM     88  N   UNL     1       4.458  10.478  -0.201  1.00  0.00    -0.226 NA
BRANCH  86  89
ATOM     89  C   UNL     1       5.428  12.373  -1.311  1.00  0.00     0.089 A 
ATOM     90  C   UNL     1       5.056  12.957  -2.524  1.00  0.00     0.030 A 
ATOM     91  N   UNL     1       5.916  13.106  -0.278  1.00  0.00    -0.255 NA
ATOM     92  C   UNL     1       5.177  14.335  -2.679  1.00  0.00     0.004 A 
ATOM     93  C   UNL     1       6.006  14.442  -0.451  1.00  0.00     0.112 A 
ATOM     94  C   UNL     1       5.659  15.095  -1.622  1.00  0.00     0.020 A 
ENDBRANCH  86  89
BRANCH  87  95
ATOM     95  C   UNL     1       3.450   8.633   0.944  1.00  0.00     0.055 A 
ATOM     96  C   UNL     1       3.961   7.864   2.006  1.00  0.00     0.015 A 
ATOM     97  C   UNL     1       2.076   8.888   0.923  1.00  0.00     0.134 A 
ATOM     98  C   UNL     1       3.121   7.385   3.017  1.00  0.00     0.001 A 
ATOM     99  C   UNL     1       1.230   8.404   1.922  1.00  0.00     0.040 A 
ATOM    100  F   UNL     1       1.530   9.590  -0.083  1.00  0.00    -0.206 F 
ATOM    101  C   UNL     1       1.755   7.655   2.974  1.00  0.00     0.003 A 
ENDBRANCH  87  95
ENDBRANCH  81  83
ENDBRANCH  74  77
ENDBRANCH  72  73
ENDBRANCH  71  72
ENDBRANCH   1  71
TORSDOF 16
