REMARK SMILES O=C(NCCCNC(=O)c1ccc(-c2c3nc(c(-c4cccc(S(=O)(=O)[O-])c4F)c4ccc([nH]4)c(-c4cccc(S(=O)(=O)[O-])c4F)c4nc(c(-c5cccc(S(=O)(=O)[O-])c5F)c5ccc2[nH]5)C=C4)C=C3)cc1)C1=Cc2c(ccc(Cl)c2Cl)O[C@H]1C(F)(F)F
REMARK SMILES IDX 6 1 5 2 4 3 3 4 1 5 2 6 73 8 74 9 84 10 75 11 83 12 76 13
REMARK SMILES IDX 81 14 77 15 79 16 82 17 78 18 80 19 85 20 86 21 87 22 88 23
REMARK SMILES IDX 7 24 8 25 9 27 10 28 11 29 72 30 12 31 71 32 13 33 14 34
REMARK SMILES IDX 15 35 65 36 16 37 70 38 64 39 66 40 17 41 69 42 63 43 62 44
REMARK SMILES IDX 18 46 50 47 30 48 49 49 31 50 34 51 48 52 67 53 32 54 33 55
REMARK SMILES IDX 47 57 68 58 35 59 19 60 20 61 28 62 21 63 23 64 29 65 22 66
REMARK SMILES IDX 24 67 25 68 26 69 27 70 51 71 52 72 60 73 53 74 55 75 61 76
REMARK SMILES IDX 54 77 56 78 57 79 58 80 59 81 36 82 37 83 45 84 38 85 40 86
REMARK SMILES IDX 46 87 39 88 41 89 42 90 43 91 44 92
REMARK H PARENT 3 7 7 26 66 45 34 56
REMARK Flexibility Score: inf
ROOT
ATOM      1  C   UNL     1       3.918  -1.799   3.559  1.00  0.00     0.118 C 
ENDROOT
BRANCH   1   2
ATOM      2  C   UNL     1       4.180  -0.531   2.774  1.00  0.00     0.042 C 
BRANCH   2   3
ATOM      3  C   UNL     1       3.862  -0.609   1.300  1.00  0.00     0.118 C 
BRANCH   3   4
ATOM      4  N   UNL     1       2.508  -0.337   0.877  1.00  0.00    -0.352 N 
ATOM      5  O   UNL     1       0.926   0.320  -0.599  1.00  0.00    -0.270 OA
ATOM      6  C   UNL     1       2.111   0.103  -0.361  1.00  0.00     0.251 C 
ATOM      7  H   UNL     1       1.798  -0.482   1.544  1.00  0.00     0.163 HD
BRANCH   6   8
ATOM      8  C   UNL     1       3.126   0.374  -1.421  1.00  0.00     0.067 C 
ATOM      9  C   UNL     1       3.717  -0.665  -2.040  1.00  0.00     0.027 C 
ATOM     10  C   UNL     1       3.829   1.704  -1.327  1.00  0.00     0.314 C 
ATOM     11  C   UNL     1       5.121  -0.829  -1.572  1.00  0.00     0.037 A 
ATOM     12  O   UNL     1       5.282   1.580  -1.195  1.00  0.00    -0.475 OA
ATOM     13  C   UNL     1       5.803   0.312  -1.110  1.00  0.00     0.129 A 
ATOM     14  C   UNL     1       5.675  -2.108  -1.369  1.00  0.00     0.070 A 
ATOM     15  C   UNL     1       6.988   0.178  -0.388  1.00  0.00     0.049 A 
ATOM     16  C   UNL     1       6.847  -2.235  -0.611  1.00  0.00     0.060 A 
ATOM     17  Cl  UNL     1       4.836  -3.510  -1.961  1.00  0.00    -0.082 Cl
ATOM     18  C   UNL     1       7.485  -1.096  -0.105  1.00  0.00     0.026 A 
ATOM     19  Cl  UNL     1       7.517  -3.773  -0.197  1.00  0.00    -0.083 Cl
BRANCH  10  20
ATOM     20  C   UNL     1       3.478   2.625  -2.512  1.00  0.00     0.429 C 
ATOM     21  F   UNL     1       2.549   2.089  -3.341  1.00  0.00    -0.167 F 
ATOM     22  F   UNL     1       2.987   3.812  -2.082  1.00  0.00    -0.167 F 
ATOM     23  F   UNL     1       4.561   2.898  -3.281  1.00  0.00    -0.167 F 
ENDBRANCH  10  20
ENDBRANCH   6   8
ENDBRANCH   3   4
ENDBRANCH   2   3
ENDBRANCH   1   2
BRANCH   1  24
ATOM     24  N   UNL     1       4.649  -2.976   3.091  1.00  0.00    -0.352 N 
ATOM     25  C   UNL     1       5.552  -3.805   3.720  1.00  0.00     0.251 C 
ATOM     26  H   UNL     1       4.463  -3.220   2.155  1.00  0.00     0.163 HD
ATOM     27  O   UNL     1       6.060  -4.726   3.081  1.00  0.00    -0.269 OA
BRANCH  25  28
ATOM     28  C   UNL     1       5.947  -3.591   5.131  1.00  0.00     0.039 A 
ATOM     29  C   UNL     1       7.261  -3.868   5.526  1.00  0.00     0.014 A 
ATOM     30  C   UNL     1       5.038  -3.120   6.073  1.00  0.00     0.014 A 
ATOM     31  C   UNL     1       7.669  -3.590   6.835  1.00  0.00     0.010 A 
ATOM     32  C   UNL     1       5.483  -2.691   7.315  1.00  0.00     0.010 A 
ATOM     33  C   UNL     1       6.793  -2.955   7.730  1.00  0.00    -0.014 A 
BRANCH  33  34
ATOM     34  C   UNL     1       7.194  -2.598   9.115  1.00  0.00     0.031 A 
ATOM     35  C   UNL     1       6.394  -3.118  10.286  1.00  0.00     0.074 A 
ATOM     36  C   UNL     1       8.204  -1.729   9.320  1.00  0.00     0.049 A 
ATOM     37  N   UNL     1       6.523  -2.850  11.559  1.00  0.00    -0.248 NA
ATOM     38  C   UNL     1       5.266  -4.018   9.982  1.00  0.00     0.031 C 
ATOM     39  C   UNL     1       8.986  -1.073   8.269  1.00  0.00     0.029 A 
ATOM     40  N   UNL     1       8.730  -1.226  10.484  1.00  0.00    -0.354 N 
ATOM     41  C   UNL     1       5.467  -3.496  12.192  1.00  0.00     0.074 A 
ATOM     42  C   UNL     1       4.673  -4.122  11.161  1.00  0.00     0.031 C 
ATOM     43  C   UNL     1       9.903  -0.272   8.835  1.00  0.00     0.029 A 
ATOM     44  C   UNL     1       9.753  -0.328  10.285  1.00  0.00     0.049 A 
ATOM     45  H   UNL     1       8.405  -1.484  11.377  1.00  0.00     0.167 HD
ATOM     46  C   UNL     1       5.201  -3.598  13.515  1.00  0.00     0.034 A 
ATOM     47  C   UNL     1      10.486   0.373  11.173  1.00  0.00     0.034 A 
ATOM     48  C   UNL     1       6.036  -3.035  14.539  1.00  0.00     0.049 A 
ATOM     49  C   UNL     1      10.228   0.174  12.641  1.00  0.00     0.074 A 
ATOM     50  C   UNL     1       5.929  -3.173  15.910  1.00  0.00     0.029 A 
ATOM     51  N   UNL     1       7.136  -2.225  14.300  1.00  0.00    -0.354 N 
ATOM     52  N   UNL     1       9.324  -0.575  13.226  1.00  0.00    -0.248 NA
ATOM     53  C   UNL     1      11.116   0.883  13.573  1.00  0.00     0.031 C 
ATOM     54  C   UNL     1       6.948  -2.420  16.503  1.00  0.00     0.029 A 
ATOM     55  C   UNL     1       7.712  -1.846  15.499  1.00  0.00     0.049 A 
ATOM     56  H   UNL     1       7.458  -1.959  13.409  1.00  0.00     0.167 HD
ATOM     57  C   UNL     1       9.557  -0.457  14.591  1.00  0.00     0.074 A 
ATOM     58  C   UNL     1      10.701   0.418  14.744  1.00  0.00     0.031 C 
ATOM     59  C   UNL     1       8.879  -1.012  15.627  1.00  0.00     0.034 A 
BRANCH  46  60
ATOM     60  C   UNL     1       3.986  -4.390  13.928  1.00  0.00     0.023 A 
ATOM     61  C   UNL     1       3.958  -5.788  13.736  1.00  0.00     0.012 A 
ATOM     62  C   UNL     1       2.886  -3.759  14.542  1.00  0.00     0.148 A 
ATOM     63  C   UNL     1       2.839  -6.536  14.102  1.00  0.00     0.002 A 
ATOM     64  C   UNL     1       1.797  -4.518  14.954  1.00  0.00     0.091 A 
ATOM     65  F   UNL     1       2.918  -2.428  14.698  1.00  0.00    -0.205 F 
ATOM     66  C   UNL     1       1.765  -5.903  14.720  1.00  0.00     0.022 A 
BRANCH  64  67
ATOM     67  S   UNL     1       0.402  -3.812  15.836  1.00  0.00     0.127 S 
ATOM     68  O   UNL     1      -0.661  -3.914  14.836  1.00  0.00    -0.237 OA
ATOM     69  O   UNL     1       0.262  -4.728  16.969  1.00  0.00    -0.237 OA
ATOM     70  O   UNL     1       0.795  -2.457  16.194  1.00  0.00    -0.744 OA
ENDBRANCH  64  67
ENDBRANCH  46  60
BRANCH  47  71
ATOM     71  C   UNL     1      11.579   1.266  10.694  1.00  0.00     0.023 A 
ATOM     72  C   UNL     1      12.921   0.904  10.921  1.00  0.00     0.012 A 
ATOM     73  C   UNL     1      11.299   2.450   9.985  1.00  0.00     0.148 A 
ATOM     74  C   UNL     1      13.964   1.720  10.481  1.00  0.00     0.002 A 
ATOM     75  C   UNL     1      12.342   3.229   9.499  1.00  0.00     0.091 A 
ATOM     76  F   UNL     1      10.016   2.781   9.785  1.00  0.00    -0.205 F 
ATOM     77  C   UNL     1      13.675   2.877   9.761  1.00  0.00     0.022 A 
BRANCH  75  78
ATOM     78  S   UNL     1      12.068   4.658   8.445  1.00  0.00     0.127 S 
ATOM     79  O   UNL     1      12.471   5.756   9.319  1.00  0.00    -0.237 OA
ATOM     80  O   UNL     1      12.979   4.389   7.331  1.00  0.00    -0.237 OA
ATOM     81  O   UNL     1      10.656   4.619   8.088  1.00  0.00    -0.744 OA
ENDBRANCH  75  78
ENDBRANCH  47  71
BRANCH  59  82
ATOM     82  C   UNL     1       9.379  -0.728  17.018  1.00  0.00     0.023 A 
ATOM     83  C   UNL     1       9.219   0.554  17.578  1.00  0.00     0.012 A 
ATOM     84  C   UNL     1       9.948  -1.757  17.794  1.00  0.00     0.148 A 
ATOM     85  C   UNL     1       9.654   0.819  18.876  1.00  0.00     0.002 A 
ATOM     86  C   UNL     1      10.329  -1.500  19.105  1.00  0.00     0.091 A 
ATOM     87  F   UNL     1      10.108  -2.966  17.236  1.00  0.00    -0.205 F 
ATOM     88  C   UNL     1      10.197  -0.210  19.642  1.00  0.00     0.022 A 
BRANCH  86  89
ATOM     89  S   UNL     1      10.939  -2.789  20.196  1.00  0.00     0.127 S 
ATOM     90  O   UNL     1      12.362  -2.462  20.276  1.00  0.00    -0.237 OA
ATOM     91  O   UNL     1      10.185  -2.539  21.424  1.00  0.00    -0.237 OA
ATOM     92  O   UNL     1      10.623  -4.052  19.541  1.00  0.00    -0.744 OA
ENDBRANCH  86  89
ENDBRANCH  59  82
ENDBRANCH  33  34
ENDBRANCH  25  28
ENDBRANCH   1  24
TORSDOF 14
