REMARK SMILES O=C(NCCc1ccsc1)N[C@H]1CCCCC[C@@H]1C(=O)NCCCNC(=O)c1ccc(-c2c3nc(c(-c4cccc(S(=O)(=O)[O-])c4F)c4ccc([nH]4)c(-c4cccc(S(=O)(=O)[O-])c4F)c4nc(c(-c5cccc(S(=O)(=O)[O-])c5F)c5ccc2[nH]5)C=C4)C=C3)cc1
REMARK SMILES IDX 22 1 21 2 19 3 20 4 18 6 12 7 11 8 1 9 2 10 3 11 4 14 5 15
REMARK SMILES IDX 6 16 7 17 10 18 8 19 9 20 13 21 14 22 17 24 16 25 15 26
REMARK SMILES IDX 23 28 24 29 25 30 26 31 27 33 28 34 29 35 90 36 30 37 89 38
REMARK SMILES IDX 31 39 32 40 33 41 83 42 34 43 88 44 82 45 84 46 35 47 87 48
REMARK SMILES IDX 81 49 80 50 36 52 68 53 48 54 67 55 49 56 52 57 66 58 85 59
REMARK SMILES IDX 50 60 51 61 65 63 86 64 53 65 37 66 38 67 46 68 39 69 41 70
REMARK SMILES IDX 47 71 40 72 42 73 43 74 44 75 45 76 69 77 70 78 78 79 71 80
REMARK SMILES IDX 73 81 79 82 72 83 74 84 75 85 76 86 77 87 54 88 55 89 63 90
REMARK SMILES IDX 56 91 58 92 64 93 57 94 59 95 60 96 61 97 62 98
REMARK H PARENT 21 5 3 12 11 13 25 32 84 51 52 62
REMARK Flexibility Score: 100.00
ROOT
ATOM      1  C   UNL     1      -1.471  -0.235  -0.398  1.00  0.00     0.117 C 
ENDROOT
BRANCH   1   2
ATOM      2  N   UNL     1      -0.098  -0.611  -0.691  1.00  0.00    -0.356 N 
ATOM      3  C   UNL     1       1.030   0.170  -0.650  1.00  0.00     0.225 C 
ATOM      4  O   UNL     1       2.105  -0.397  -0.455  1.00  0.00    -0.275 OA
ATOM      5  H   UNL     1       0.042  -1.550  -0.953  1.00  0.00     0.163 HD
BRANCH   3   6
ATOM      6  C   UNL     1       0.891   1.695  -0.753  1.00  0.00     0.101 C 
BRANCH   6   7
ATOM      7  C   UNL     1       2.231   2.374  -1.177  1.00  0.00     0.096 C 
BRANCH   7   8
ATOM      8  N   UNL     1       2.318   2.617  -2.630  1.00  0.00    -0.335 N 
ATOM      9  O   UNL     1       2.906   0.513  -3.296  1.00  0.00    -0.249 OA
ATOM     10  C   UNL     1       2.744   1.705  -3.538  1.00  0.00     0.315 C 
ATOM     11  N   UNL     1       3.026   2.173  -4.780  1.00  0.00    -0.338 N 
ATOM     12  H   UNL     1       3.170   1.473  -5.457  1.00  0.00     0.165 HD
ATOM     13  H   UNL     1       2.047   3.503  -2.963  1.00  0.00     0.165 HD
BRANCH  11  14
ATOM     14  C   UNL     1       3.154   3.534  -5.282  1.00  0.00     0.122 C 
BRANCH  14  15
ATOM     15  C   UNL     1       4.558   3.823  -5.832  1.00  0.00     0.057 C 
BRANCH  15  16
ATOM     16  C   UNL     1       4.893   3.059  -7.085  1.00  0.00    -0.036 A 
ATOM     17  C   UNL     1       5.899   2.039  -7.171  1.00  0.00     0.015 A 
ATOM     18  C   UNL     1       4.291   3.252  -8.316  1.00  0.00     0.068 A 
ATOM     19  C   UNL     1       6.009   1.505  -8.435  1.00  0.00     0.065 A 
ATOM     20  S   UNL     1       4.915   2.224  -9.531  1.00  0.00    -0.152 S 
ENDBRANCH  15  16
ENDBRANCH  14  15
ENDBRANCH  11  14
ENDBRANCH   7   8
BRANCH   7  21
ATOM     21  C   UNL     1       2.543   3.716  -0.476  1.00  0.00     0.026 C 
BRANCH  21  22
ATOM     22  C   UNL     1       1.463   4.795  -0.619  1.00  0.00     0.002 CG0
ATOM     23  G   UNL     1       0.383   4.745   0.457  1.00  0.00     0.000 G0
ENDBRANCH  21  22
ENDBRANCH   7  21
ENDBRANCH   6   7
BRANCH   6  24
ATOM     24  C   UNL     1       0.349   2.203   0.603  1.00  0.00     0.015 C 
BRANCH  24  25
ATOM     25  C   UNL     1      -0.466   3.484   0.452  1.00  0.00     0.001 C 
BRANCH  25  26
ATOM     26  C   UNL     1       0.383   4.745   0.457  1.00  0.00     0.000 CG0
ATOM     27  G   UNL     1       1.463   4.795  -0.619  1.00  0.00     0.000 G0
ENDBRANCH  25  26
ENDBRANCH  24  25
ENDBRANCH   6  24
ENDBRANCH   3   6
ENDBRANCH   1   2
BRANCH   1  28
ATOM     28  C   UNL     1      -2.528  -0.993  -1.179  1.00  0.00     0.042 C 
BRANCH  28  29
ATOM     29  C   UNL     1      -2.417  -2.508  -1.142  1.00  0.00     0.118 C 
BRANCH  29  30
ATOM     30  N   UNL     1      -2.575  -3.088   0.187  1.00  0.00    -0.352 N 
ATOM     31  C   UNL     1      -3.479  -4.027   0.635  1.00  0.00     0.251 C 
ATOM     32  H   UNL     1      -1.941  -2.760   0.865  1.00  0.00     0.163 HD
ATOM     33  O   UNL     1      -3.509  -4.327   1.826  1.00  0.00    -0.269 OA
BRANCH  31  34
ATOM     34  C   UNL     1      -4.442  -4.642  -0.307  1.00  0.00     0.039 A 
ATOM     35  C   UNL     1      -5.785  -4.747   0.066  1.00  0.00     0.014 A 
ATOM     36  C   UNL     1      -4.034  -5.079  -1.568  1.00  0.00     0.014 A 
ATOM     37  C   UNL     1      -6.730  -5.198  -0.862  1.00  0.00     0.010 A 
ATOM     38  C   UNL     1      -4.987  -5.425  -2.521  1.00  0.00     0.010 A 
ATOM     39  C   UNL     1      -6.346  -5.492  -2.181  1.00  0.00    -0.014 A 
BRANCH  39  40
ATOM     40  C   UNL     1      -7.338  -5.868  -3.225  1.00  0.00     0.031 A 
ATOM     41  C   UNL     1      -7.218  -7.193  -3.931  1.00  0.00     0.074 A 
ATOM     42  C   UNL     1      -8.277  -4.981  -3.614  1.00  0.00     0.049 A 
ATOM     43  N   UNL     1      -7.906  -7.654  -4.943  1.00  0.00    -0.248 NA
ATOM     44  C   UNL     1      -6.166  -8.109  -3.458  1.00  0.00     0.031 C 
ATOM     45  C   UNL     1      -8.457  -3.636  -3.061  1.00  0.00     0.029 A 
ATOM     46  N   UNL     1      -9.239  -5.065  -4.591  1.00  0.00    -0.354 N 
ATOM     47  C   UNL     1      -7.345  -8.888  -5.253  1.00  0.00     0.074 A 
ATOM     48  C   UNL     1      -6.236  -9.088  -4.347  1.00  0.00     0.031 C 
ATOM     49  C   UNL     1      -9.466  -3.025  -3.703  1.00  0.00     0.029 A 
ATOM     50  C   UNL     1      -9.979  -3.913  -4.741  1.00  0.00     0.049 A 
ATOM     51  H   UNL     1      -9.386  -5.873  -5.134  1.00  0.00     0.167 HD
ATOM     52  C   UNL     1      -7.734  -9.789  -6.186  1.00  0.00     0.034 A 
ATOM     53  C   UNL     1     -10.948  -3.600  -5.625  1.00  0.00     0.034 A 
ATOM     54  C   UNL     1      -8.863  -9.609  -7.056  1.00  0.00     0.049 A 
ATOM     55  C   UNL     1     -11.376  -4.630  -6.637  1.00  0.00     0.074 A 
ATOM     56  C   UNL     1      -9.387 -10.497  -7.979  1.00  0.00     0.029 A 
ATOM     57  N   UNL     1      -9.641  -8.463  -7.116  1.00  0.00    -0.354 N 
ATOM     58  N   UNL     1     -10.924  -5.847  -6.818  1.00  0.00    -0.248 NA
ATOM     59  C   UNL     1     -12.470  -4.256  -7.547  1.00  0.00     0.031 C 
ATOM     60  C   UNL     1     -10.463  -9.877  -8.619  1.00  0.00     0.029 A 
ATOM     61  C   UNL     1     -10.636  -8.618  -8.066  1.00  0.00     0.049 A 
ATOM     62  H   UNL     1      -9.506  -7.659  -6.565  1.00  0.00     0.167 HD
ATOM     63  C   UNL     1     -11.708  -6.399  -7.826  1.00  0.00     0.074 A 
ATOM     64  C   UNL     1     -12.671  -5.388  -8.207  1.00  0.00     0.031 C 
ATOM     65  C   UNL     1     -11.630  -7.628  -8.390  1.00  0.00     0.034 A 
BRANCH  52  66
ATOM     66  C   UNL     1      -6.960 -11.079  -6.284  1.00  0.00     0.023 A 
ATOM     67  C   UNL     1      -7.066 -12.034  -5.252  1.00  0.00     0.012 A 
ATOM     68  C   UNL     1      -6.187 -11.375  -7.423  1.00  0.00     0.148 A 
ATOM     69  C   UNL     1      -6.385 -13.248  -5.335  1.00  0.00     0.002 A 
ATOM     70  C   UNL     1      -5.551 -12.607  -7.521  1.00  0.00     0.091 A 
ATOM     71  F   UNL     1      -6.085 -10.448  -8.386  1.00  0.00    -0.205 F 
ATOM     72  C   UNL     1      -5.638 -13.538  -6.473  1.00  0.00     0.022 A 
BRANCH  70  73
ATOM     73  S   UNL     1      -4.636 -13.115  -8.980  1.00  0.00     0.127 S 
ATOM     74  O   UNL     1      -3.266 -13.153  -8.471  1.00  0.00    -0.237 OA
ATOM     75  O   UNL     1      -5.218 -14.427  -9.265  1.00  0.00    -0.237 OA
ATOM     76  O   UNL     1      -4.896 -12.101  -9.993  1.00  0.00    -0.744 OA
ENDBRANCH  70  73
ENDBRANCH  52  66
BRANCH  53  77
ATOM     77  C   UNL     1     -11.622  -2.270  -5.564  1.00  0.00     0.023 A 
ATOM     78  C   UNL     1     -12.973  -2.196  -5.172  1.00  0.00     0.012 A 
ATOM     79  C   UNL     1     -10.937  -1.083  -5.889  1.00  0.00     0.148 A 
ATOM     80  C   UNL     1     -13.642  -0.972  -5.146  1.00  0.00     0.002 A 
ATOM     81  C   UNL     1     -11.593   0.140  -5.806  1.00  0.00     0.091 A 
ATOM     82  F   UNL     1      -9.655  -1.173  -6.269  1.00  0.00    -0.205 F 
ATOM     83  C   UNL     1     -12.951   0.196  -5.455  1.00  0.00     0.022 A 
BRANCH  81  84
ATOM     84  S   UNL     1     -10.749   1.705  -6.060  1.00  0.00     0.127 S 
ATOM     85  O   UNL     1     -11.324   2.154  -7.326  1.00  0.00    -0.237 OA
ATOM     86  O   UNL     1     -11.172   2.470  -4.886  1.00  0.00    -0.237 OA
ATOM     87  O   UNL     1      -9.328   1.387  -6.087  1.00  0.00    -0.744 OA
ENDBRANCH  81  84
ENDBRANCH  53  77
BRANCH  65  88
ATOM     88  C   UNL     1     -12.648  -7.990  -9.440  1.00  0.00     0.023 A 
ATOM     89  C   UNL     1     -12.579  -7.413 -10.723  1.00  0.00     0.012 A 
ATOM     90  C   UNL     1     -13.619  -8.977  -9.175  1.00  0.00     0.148 A 
ATOM     91  C   UNL     1     -13.479  -7.793 -11.718  1.00  0.00     0.002 A 
ATOM     92  C   UNL     1     -14.478  -9.388 -10.186  1.00  0.00     0.091 A 
ATOM     93  F   UNL     1     -13.678  -9.501  -7.942  1.00  0.00    -0.205 F 
ATOM     94  C   UNL     1     -14.418  -8.788 -11.454  1.00  0.00     0.022 A 
BRANCH  92  95
ATOM     95  S   UNL     1     -15.649 -10.732  -9.970  1.00  0.00     0.127 S 
ATOM     96  O   UNL     1     -16.927 -10.022 -10.005  1.00  0.00    -0.237 OA
ATOM     97  O   UNL     1     -15.382 -11.566 -11.143  1.00  0.00    -0.237 OA
ATOM     98  O   UNL     1     -15.319 -11.356  -8.696  1.00  0.00    -0.744 OA
ENDBRANCH  92  95
ENDBRANCH  65  88
ENDBRANCH  39  40
ENDBRANCH  31  34
ENDBRANCH  29  30
ENDBRANCH  28  29
ENDBRANCH   1  28
TORSDOF 17
