REMARK SMILES O=C(CC1(NC(=O)C2(c3ccccc3)CC2)CCC1)NCCCNC(=O)c1ccc(-c2c3nc(c(-c4cccc(S(=O)(=O)[O-])c4F)c4ccc([nH]4)c(-c4cccc(S(=O)(=O)[O-])c4F)c4nc(c(-c5cccc(S(=O)(=O)[O-])c5F)c5ccc2[nH]5)C=C4)C=C3)cc1
REMARK SMILES IDX 21 1 20 2 1 3 2 4 3 6 4 7 17 8 19 9 18 10 5 11 6 12 7 14
REMARK SMILES IDX 8 15 15 16 16 17 9 18 10 19 14 20 11 21 13 22 12 23 22 24
REMARK SMILES IDX 23 25 24 26 25 27 26 29 27 30 28 31 89 32 29 33 88 34 30 35
REMARK SMILES IDX 31 36 32 37 82 38 33 39 87 40 81 41 83 42 34 43 86 44 80 45
REMARK SMILES IDX 79 46 35 48 67 49 47 50 66 51 48 52 51 53 65 54 84 55 49 56
REMARK SMILES IDX 50 57 64 59 85 60 52 61 36 62 37 63 45 64 38 65 40 66 46 67
REMARK SMILES IDX 39 68 41 69 42 70 43 71 44 72 68 73 69 74 77 75 70 76 72 77
REMARK SMILES IDX 78 78 71 79 73 80 74 81 75 82 76 83 53 84 54 85 62 86 55 87
REMARK SMILES IDX 57 88 63 89 56 90 58 91 59 92 60 93 61 94
REMARK H PARENT 20 5 5 13 24 28 83 47 51 58
REMARK Flexibility Score: inf
ROOT
ATOM      1  C   UNL     1       1.765   1.100   2.663  1.00  0.00     0.117 C 
ENDROOT
BRANCH   1   2
ATOM      2  N   UNL     1       2.628   0.049   2.133  1.00  0.00    -0.356 N 
ATOM      3  O   UNL     1       1.230  -0.636   0.744  1.00  0.00    -0.275 OA
ATOM      4  C   UNL     1       2.488  -0.403   0.741  1.00  0.00     0.222 C 
ATOM      5  H   UNL     1       3.310  -0.361   2.712  1.00  0.00     0.163 HD
BRANCH   4   6
ATOM      6  C   UNL     1       3.961  -0.570  -0.871  1.00  0.00     0.128 C 
BRANCH   6   7
ATOM      7  C   UNL     1       3.957  -0.001  -2.550  1.00  0.00     0.049 C 
ATOM      8  C   UNL     1       4.073   1.526  -2.983  1.00  0.00     0.029 C 
ATOM      9  C   UNL     1       5.464  -0.133  -3.053  1.00  0.00     0.029 C 
ATOM     10  C   UNL     1       5.567   1.376  -3.239  1.00  0.00     0.005 C 
BRANCH   7  11
ATOM     11  N   UNL     1       3.135  -0.776  -3.572  1.00  0.00    -0.349 N 
ATOM     12  C   UNL     1       2.133  -1.718  -3.537  1.00  0.00     0.231 C 
ATOM     13  H   UNL     1       3.386  -0.543  -4.495  1.00  0.00     0.164 HD
ATOM     14  O   UNL     1       1.719  -2.162  -4.608  1.00  0.00    -0.274 OA
BRANCH  12  15
ATOM     15  C   UNL     1       1.550  -2.182  -2.235  1.00  0.00     0.074 C 
ATOM     16  C   UNL     1       0.094  -2.612  -2.200  1.00  0.00     0.023 C 
ATOM     17  C   UNL     1       1.170  -3.651  -2.110  1.00  0.00     0.023 C 
BRANCH  15  18
ATOM     18  C   UNL     1       2.103  -1.457  -1.051  1.00  0.00    -0.032 A 
ATOM     19  C   UNL     1       2.093   0.370  -1.120  1.00  0.00     0.005 A 
ATOM     20  C   UNL     1       3.186  -2.291   0.137  1.00  0.00     0.005 A 
ATOM     21  C   UNL     1       3.285   1.307  -0.147  1.00  0.00     0.000 A 
ATOM     22  C   UNL     1       4.393  -1.335   1.057  1.00  0.00     0.000 A 
ATOM     23  C   UNL     1       4.464   0.468   0.911  1.00  0.00     0.000 A 
ENDBRANCH  15  18
ENDBRANCH  12  15
ENDBRANCH   7  11
ENDBRANCH   6   7
ENDBRANCH   4   6
ENDBRANCH   1   2
BRANCH   1  24
ATOM     24  C   UNL     1       2.115   1.541   4.077  1.00  0.00     0.042 C 
BRANCH  24  25
ATOM     25  C   UNL     1       3.582   1.855   4.339  1.00  0.00     0.118 C 
BRANCH  25  26
ATOM     26  N   UNL     1       4.095   3.072   3.725  1.00  0.00    -0.352 N 
ATOM     27  C   UNL     1       5.080   3.895   4.238  1.00  0.00     0.251 C 
ATOM     28  H   UNL     1       3.702   3.333   2.861  1.00  0.00     0.163 HD
ATOM     29  O   UNL     1       5.414   4.924   3.662  1.00  0.00    -0.269 OA
BRANCH  27  30
ATOM     30  C   UNL     1       5.696   3.521   5.534  1.00  0.00     0.039 A 
ATOM     31  C   UNL     1       5.600   4.400   6.613  1.00  0.00     0.014 A 
ATOM     32  C   UNL     1       6.236   2.243   5.707  1.00  0.00     0.014 A 
ATOM     33  C   UNL     1       5.979   3.966   7.886  1.00  0.00     0.010 A 
ATOM     34  C   UNL     1       6.521   1.785   6.990  1.00  0.00     0.010 A 
ATOM     35  C   UNL     1       6.402   2.640   8.096  1.00  0.00    -0.014 A 
BRANCH  35  36
ATOM     36  C   UNL     1       6.711   2.146   9.466  1.00  0.00     0.031 A 
ATOM     37  C   UNL     1       8.092   1.649   9.805  1.00  0.00     0.074 A 
ATOM     38  C   UNL     1       5.737   2.098  10.398  1.00  0.00     0.049 A 
ATOM     39  N   UNL     1       8.556   1.227  10.954  1.00  0.00    -0.248 NA
ATOM     40  C   UNL     1       9.074   1.589   8.710  1.00  0.00     0.031 C 
ATOM     41  C   UNL     1       4.332   2.450  10.175  1.00  0.00     0.029 A 
ATOM     42  N   UNL     1       5.775   1.724  11.719  1.00  0.00    -0.354 N 
ATOM     43  C   UNL     1       9.867   0.833  10.714  1.00  0.00     0.074 A 
ATOM     44  C   UNL     1      10.110   1.014   9.301  1.00  0.00     0.031 C 
ATOM     45  C   UNL     1       3.652   2.304  11.324  1.00  0.00     0.029 A 
ATOM     46  C   UNL     1       4.561   1.824  12.360  1.00  0.00     0.049 A 
ATOM     47  H   UNL     1       6.595   1.413  12.166  1.00  0.00     0.167 HD
ATOM     48  C   UNL     1      10.800   0.396  11.593  1.00  0.00     0.034 A 
ATOM     49  C   UNL     1       4.219   1.568  13.639  1.00  0.00     0.034 A 
ATOM     50  C   UNL     1      10.569   0.247  13.004  1.00  0.00     0.049 A 
ATOM     51  C   UNL     1       5.286   1.129  14.606  1.00  0.00     0.074 A 
ATOM     52  C   UNL     1      11.473  -0.104  13.991  1.00  0.00     0.029 A 
ATOM     53  N   UNL     1       9.345   0.429  13.629  1.00  0.00    -0.354 N 
ATOM     54  N   UNL     1       6.564   0.930  14.393  1.00  0.00    -0.248 NA
ATOM     55  C   UNL     1       4.871   0.921  16.002  1.00  0.00     0.031 C 
ATOM     56  C   UNL     1      10.787  -0.169  15.208  1.00  0.00     0.029 A 
ATOM     57  C   UNL     1       9.466   0.185  14.986  1.00  0.00     0.049 A 
ATOM     58  H   UNL     1       8.513   0.693  13.174  1.00  0.00     0.167 HD
ATOM     59  C   UNL     1       7.112   0.612  15.630  1.00  0.00     0.074 A 
ATOM     60  C   UNL     1       6.031   0.670  16.592  1.00  0.00     0.031 C 
ATOM     61  C   UNL     1       8.392   0.288  15.941  1.00  0.00     0.034 A 
BRANCH  48  62
ATOM     62  C   UNL     1      12.176   0.093  11.057  1.00  0.00     0.023 A 
ATOM     63  C   UNL     1      12.999   1.148  10.609  1.00  0.00     0.012 A 
ATOM     64  C   UNL     1      12.676  -1.224  11.044  1.00  0.00     0.148 A 
ATOM     65  C   UNL     1      14.280   0.894  10.120  1.00  0.00     0.002 A 
ATOM     66  C   UNL     1      13.972  -1.463  10.602  1.00  0.00     0.091 A 
ATOM     67  F   UNL     1      11.873  -2.216  11.454  1.00  0.00    -0.205 F 
ATOM     68  C   UNL     1      14.769  -0.409  10.127  1.00  0.00     0.022 A 
BRANCH  66  69
ATOM     69  S   UNL     1      14.727  -3.092  10.647  1.00  0.00     0.127 S 
ATOM     70  O   UNL     1      14.833  -3.406   9.223  1.00  0.00    -0.237 OA
ATOM     71  O   UNL     1      16.003  -2.820  11.309  1.00  0.00    -0.237 OA
ATOM     72  O   UNL     1      13.816  -3.938  11.405  1.00  0.00    -0.744 OA
ENDBRANCH  66  69
ENDBRANCH  48  62
BRANCH  49  73
ATOM     73  C   UNL     1       2.817   1.786  14.099  1.00  0.00     0.023 A 
ATOM     74  C   UNL     1       2.533   2.834  14.997  1.00  0.00     0.012 A 
ATOM     75  C   UNL     1       1.765   0.968  13.646  1.00  0.00     0.148 A 
ATOM     76  C   UNL     1       1.234   3.039  15.464  1.00  0.00     0.002 A 
ATOM     77  C   UNL     1       0.464   1.214  14.069  1.00  0.00     0.091 A 
ATOM     78  F   UNL     1       2.057  -0.030  12.800  1.00  0.00    -0.205 F 
ATOM     79  C   UNL     1       0.199   2.236  14.994  1.00  0.00     0.022 A 
BRANCH  77  80
ATOM     80  S   UNL     1      -0.947   0.316  13.416  1.00  0.00     0.127 S 
ATOM     81  O   UNL     1      -1.370  -0.462  14.578  1.00  0.00    -0.237 OA
ATOM     82  O   UNL     1      -1.849   1.407  13.042  1.00  0.00    -0.237 OA
ATOM     83  O   UNL     1      -0.437  -0.454  12.290  1.00  0.00    -0.744 OA
ENDBRANCH  77  80
ENDBRANCH  49  73
BRANCH  61  84
ATOM     84  C   UNL     1       8.710   0.013  17.388  1.00  0.00     0.023 A 
ATOM     85  C   UNL     1       8.225  -1.155  18.010  1.00  0.00     0.012 A 
ATOM     86  C   UNL     1       9.539   0.889  18.117  1.00  0.00     0.148 A 
ATOM     87  C   UNL     1       8.519  -1.422  19.347  1.00  0.00     0.002 A 
ATOM     88  C   UNL     1       9.874   0.588  19.432  1.00  0.00     0.091 A 
ATOM     89  F   UNL     1       9.979   2.003  17.515  1.00  0.00    -0.205 F 
ATOM     90  C   UNL     1       9.352  -0.558  20.053  1.00  0.00     0.022 A 
BRANCH  88  91
ATOM     91  S   UNL     1      11.021   1.589  20.384  1.00  0.00     0.127 S 
ATOM     92  O   UNL     1      10.123   2.256  21.326  1.00  0.00    -0.237 OA
ATOM     93  O   UNL     1      11.892   0.578  20.984  1.00  0.00    -0.237 OA
ATOM     94  O   UNL     1      11.683   2.463  19.425  1.00  0.00    -0.744 OA
ENDBRANCH  88  91
ENDBRANCH  61  84
ENDBRANCH  35  36
ENDBRANCH  27  30
ENDBRANCH  25  26
ENDBRANCH  24  25
ENDBRANCH   1  24
TORSDOF 17
