REMARK SMILES C[C@H]1C[C@H](C)CN(S(=O)(=O)N[C@@H](CCC(N)=O)C(=O)NCCCNC(=O)c2ccc(-c3c4nc(c(-c5cccc(S(=O)(=O)[O-])c5F)c5ccc([nH]5)c(-c5cccc(S(=O)(=O)[O-])c5F)c5nc(c(-c6cccc(S(=O)(=O)[O-])c6F)c6ccc3[nH]6)C=C5)C=C4)cc2)C1
REMARK SMILES IDX 22 1 21 2 20 3 18 4 19 5 12 7 11 8 8 10 9 11 10 12 7 13 1 14
REMARK SMILES IDX 2 15 3 16 90 17 4 18 5 19 6 20 13 21 14 22 15 23 16 24 17 25
REMARK SMILES IDX 23 28 24 29 25 30 26 32 27 33 28 34 89 35 29 36 88 37 30 38
REMARK SMILES IDX 31 39 32 40 82 41 33 42 87 43 81 44 83 45 34 46 86 47 80 48
REMARK SMILES IDX 79 49 35 51 67 52 47 53 66 54 48 55 51 56 65 57 84 58 49 59
REMARK SMILES IDX 50 60 64 62 85 63 52 64 36 65 37 66 45 67 38 68 40 69 46 70
REMARK SMILES IDX 39 71 41 72 42 73 43 74 44 75 68 76 69 77 77 78 70 79 72 80
REMARK SMILES IDX 78 81 71 82 73 83 74 84 75 85 76 86 53 87 54 88 62 89 55 90
REMARK SMILES IDX 57 91 63 92 56 93 58 94 59 95 60 96 61 97
REMARK H PARENT 20 6 11 9 16 26 16 27 24 31 83 50 51 61
REMARK Flexibility Score: inf
ROOT
ATOM      1  C   UNL     1      -0.972   8.858  -0.762  1.00  0.00     0.042 C 
ENDROOT
BRANCH   1   2
ATOM      2  C   UNL     1      -1.788   7.812  -0.037  1.00  0.00     0.117 C 
BRANCH   2   3
ATOM      3  N   UNL     1      -2.638   7.049  -0.929  1.00  0.00    -0.355 N 
ATOM      4  C   UNL     1      -3.070   5.766  -0.847  1.00  0.00     0.238 C 
ATOM      5  O   UNL     1      -3.836   5.364  -1.729  1.00  0.00    -0.273 OA
ATOM      6  H   UNL     1      -2.951   7.541  -1.722  1.00  0.00     0.163 HD
BRANCH   4   7
ATOM      7  C   UNL     1      -2.583   4.820   0.250  1.00  0.00     0.160 C 
BRANCH   7   8
ATOM      8  N   UNL     1      -1.107   4.798   0.271  1.00  0.00    -0.190 NA
ATOM      9  H   UNL     1      -0.843   4.426  -0.641  1.00  0.00     0.143 HD
BRANCH   8  10
ATOM     10  S   UNL     1      -0.112   4.031   1.335  1.00  0.00     0.280 S 
ATOM     11  O   UNL     1      -0.612   4.211   2.679  1.00  0.00    -0.195 OA
ATOM     12  O   UNL     1       1.220   4.452   0.986  1.00  0.00    -0.195 OA
BRANCH  10  13
ATOM     13  N   UNL     1      -0.216   2.371   0.938  1.00  0.00    -0.188 NA
ATOM     14  C   UNL     1       1.643  -0.678   2.429  1.00  0.00     0.009 C 
ATOM     15  C   UNL     1       0.771   0.101   1.444  1.00  0.00     0.001 C 
ATOM     16  C   UNL     1      -0.636  -0.500   1.425  1.00  0.00     0.009 C 
ATOM     17  C   UNL     1       0.731   1.590   1.812  1.00  0.00     0.106 C 
ATOM     18  C   UNL     1      -1.573   0.300   0.532  1.00  0.00     0.001 C 
ATOM     19  C   UNL     1      -1.256   0.128  -0.958  1.00  0.00     0.009 C 
ATOM     20  C   UNL     1      -1.569   1.770   0.951  1.00  0.00     0.106 C 
ENDBRANCH  10  13
ENDBRANCH   8  10
ENDBRANCH   7   8
BRANCH   7  21
ATOM     21  C   UNL     1      -3.321   4.900   1.594  1.00  0.00     0.040 C 
BRANCH  21  22
ATOM     22  C   UNL     1      -3.451   6.246   2.305  1.00  0.00     0.102 C 
BRANCH  22  23
ATOM     23  C   UNL     1      -4.591   7.088   1.759  1.00  0.00     0.217 C 
ATOM     24  N   UNL     1      -4.689   8.342   2.280  1.00  0.00    -0.370 N 
ATOM     25  O   UNL     1      -5.397   6.699   0.924  1.00  0.00    -0.275 OA
ATOM     26  H   UNL     1      -4.038   8.649   2.951  1.00  0.00     0.159 HD
ATOM     27  H   UNL     1      -5.411   8.943   1.984  1.00  0.00     0.159 HD
ENDBRANCH  22  23
ENDBRANCH  21  22
ENDBRANCH   7  21
ENDBRANCH   4   7
ENDBRANCH   2   3
ENDBRANCH   1   2
BRANCH   1  28
ATOM     28  C   UNL     1      -1.827   9.864  -1.514  1.00  0.00     0.118 C 
BRANCH  28  29
ATOM     29  N   UNL     1      -2.743  10.612  -0.652  1.00  0.00    -0.352 N 
ATOM     30  C   UNL     1      -2.794  11.968  -0.417  1.00  0.00     0.251 C 
ATOM     31  H   UNL     1      -3.415  10.073  -0.176  1.00  0.00     0.163 HD
ATOM     32  O   UNL     1      -3.523  12.426   0.456  1.00  0.00    -0.269 OA
BRANCH  30  33
ATOM     33  C   UNL     1      -1.919  12.847  -1.217  1.00  0.00     0.039 A 
ATOM     34  C   UNL     1      -1.085  13.764  -0.577  1.00  0.00     0.014 A 
ATOM     35  C   UNL     1      -1.837  12.653  -2.597  1.00  0.00     0.014 A 
ATOM     36  C   UNL     1      -0.089  14.409  -1.314  1.00  0.00     0.010 A 
ATOM     37  C   UNL     1      -0.762  13.184  -3.291  1.00  0.00     0.010 A 
ATOM     38  C   UNL     1       0.121  14.076  -2.663  1.00  0.00    -0.014 A 
BRANCH  38  39
ATOM     39  C   UNL     1       1.241  14.646  -3.457  1.00  0.00     0.031 A 
ATOM     40  C   UNL     1       0.940  15.377  -4.740  1.00  0.00     0.074 A 
ATOM     41  C   UNL     1       2.519  14.413  -3.094  1.00  0.00     0.049 A 
ATOM     42  N   UNL     1       1.767  15.831  -5.645  1.00  0.00    -0.248 NA
ATOM     43  C   UNL     1      -0.481  15.586  -5.074  1.00  0.00     0.031 C 
ATOM     44  C   UNL     1       2.947  13.648  -1.919  1.00  0.00     0.029 A 
ATOM     45  N   UNL     1       3.700  14.773  -3.696  1.00  0.00    -0.354 N 
ATOM     46  C   UNL     1       0.969  16.331  -6.668  1.00  0.00     0.074 A 
ATOM     47  C   UNL     1      -0.405  16.078  -6.300  1.00  0.00     0.031 C 
ATOM     48  C   UNL     1       4.290  13.611  -1.879  1.00  0.00     0.029 A 
ATOM     49  C   UNL     1       4.821  14.308  -3.045  1.00  0.00     0.049 A 
ATOM     50  H   UNL     1       3.741  15.314  -4.518  1.00  0.00     0.167 HD
ATOM     51  C   UNL     1       1.340  16.982  -7.794  1.00  0.00     0.034 A 
ATOM     52  C   UNL     1       6.127  14.419  -3.361  1.00  0.00     0.034 A 
ATOM     53  C   UNL     1       2.703  17.285  -8.128  1.00  0.00     0.049 A 
ATOM     54  C   UNL     1       6.513  15.177  -4.604  1.00  0.00     0.074 A 
ATOM     55  C   UNL     1       3.182  18.015  -9.201  1.00  0.00     0.029 A 
ATOM     56  N   UNL     1       3.805  16.877  -7.394  1.00  0.00    -0.354 N 
ATOM     57  N   UNL     1       5.741  15.768  -5.484  1.00  0.00    -0.248 NA
ATOM     58  C   UNL     1       7.951  15.312  -4.882  1.00  0.00     0.031 C 
ATOM     59  C   UNL     1       4.577  18.024  -9.130  1.00  0.00     0.029 A 
ATOM     60  C   UNL     1       4.964  17.335  -7.992  1.00  0.00     0.049 A 
ATOM     61  H   UNL     1       3.768  16.341  -6.569  1.00  0.00     0.167 HD
ATOM     62  C   UNL     1       6.598  16.384  -6.390  1.00  0.00     0.074 A 
ATOM     63  C   UNL     1       7.947  16.106  -5.944  1.00  0.00     0.031 C 
ATOM     64  C   UNL     1       6.296  17.105  -7.497  1.00  0.00     0.034 A 
BRANCH  51  65
ATOM     65  C   UNL     1       0.252  17.462  -8.718  1.00  0.00     0.023 A 
ATOM     66  C   UNL     1      -0.592  18.517  -8.313  1.00  0.00     0.012 A 
ATOM     67  C   UNL     1       0.100  16.911 -10.005  1.00  0.00     0.148 A 
ATOM     68  C   UNL     1      -1.594  18.991  -9.157  1.00  0.00     0.002 A 
ATOM     69  C   UNL     1      -0.868  17.423 -10.861  1.00  0.00     0.091 A 
ATOM     70  F   UNL     1       0.897  15.895 -10.364  1.00  0.00    -0.205 F 
ATOM     71  C   UNL     1      -1.724  18.452 -10.434  1.00  0.00     0.022 A 
BRANCH  69  72
ATOM     72  S   UNL     1      -1.062  16.860 -12.555  1.00  0.00     0.127 S 
ATOM     73  O   UNL     1      -2.371  16.209 -12.500  1.00  0.00    -0.237 OA
ATOM     74  O   UNL     1      -1.037  18.119 -13.299  1.00  0.00    -0.237 OA
ATOM     75  O   UNL     1       0.062  15.972 -12.817  1.00  0.00    -0.744 OA
ENDBRANCH  69  72
ENDBRANCH  51  65
BRANCH  52  76
ATOM     76  C   UNL     1       7.174  13.851  -2.463  1.00  0.00     0.023 A 
ATOM     77  C   UNL     1       8.029  14.723  -1.760  1.00  0.00     0.012 A 
ATOM     78  C   UNL     1       7.335  12.461  -2.306  1.00  0.00     0.148 A 
ATOM     79  C   UNL     1       9.052  14.223  -0.953  1.00  0.00     0.002 A 
ATOM     80  C   UNL     1       8.320  11.970  -1.456  1.00  0.00     0.091 A 
ATOM     81  F   UNL     1       6.519  11.647  -2.989  1.00  0.00    -0.205 F 
ATOM     82  C   UNL     1       9.193  12.848  -0.795  1.00  0.00     0.022 A 
BRANCH  80  83
ATOM     83  S   UNL     1       8.496  10.219  -1.095  1.00  0.00     0.127 S 
ATOM     84  O   UNL     1       9.750   9.899  -1.772  1.00  0.00    -0.237 OA
ATOM     85  O   UNL     1       8.566  10.220   0.366  1.00  0.00    -0.237 OA
ATOM     86  O   UNL     1       7.303   9.585  -1.640  1.00  0.00    -0.744 OA
ENDBRANCH  80  83
ENDBRANCH  52  76
BRANCH  64  87
ATOM     87  C   UNL     1       7.433  17.710  -8.276  1.00  0.00     0.023 A 
ATOM     88  C   UNL     1       8.269  16.891  -9.059  1.00  0.00     0.012 A 
ATOM     89  C   UNL     1       7.606  19.108  -8.305  1.00  0.00     0.148 A 
ATOM     90  C   UNL     1       9.279  17.453  -9.838  1.00  0.00     0.002 A 
ATOM     91  C   UNL     1       8.579  19.664  -9.124  1.00  0.00     0.091 A 
ATOM     92  F   UNL     1       6.809  19.866  -7.539  1.00  0.00    -0.205 F 
ATOM     93  C   UNL     1       9.425  18.838  -9.882  1.00  0.00     0.022 A 
BRANCH  91  94
ATOM     94  S   UNL     1       8.771  21.439  -9.325  1.00  0.00     0.127 S 
ATOM     95  O   UNL     1      10.058  21.674  -8.672  1.00  0.00    -0.237 OA
ATOM     96  O   UNL     1       8.789  21.584 -10.780  1.00  0.00    -0.237 OA
ATOM     97  O   UNL     1       7.622  22.047  -8.669  1.00  0.00    -0.744 OA
ENDBRANCH  91  94
ENDBRANCH  64  87
ENDBRANCH  38  39
ENDBRANCH  30  33
ENDBRANCH  28  29
ENDBRANCH   1  28
TORSDOF 19
