REMARK SMILES C[NH+](C)CC(C)(C)CNc1cccc(F)c1C(=O)NCCCNC(=O)c1ccc(-c2c3nc(c(-c4cccc(S(=O)(=O)[O-])c4F)c4ccc([nH]4)c(-c4cccc(S(=O)(=O)[O-])c4F)c4nc(c(-c5cccc(S(=O)(=O)[O-])c5F)c5ccc2[nH]5)C=C4)C=C3)cc1
REMARK SMILES IDX 20 1 19 2 17 3 18 4 16 6 10 7 11 8 12 9 14 10 13 11 15 12
REMARK SMILES IDX 9 13 8 15 5 16 6 17 7 18 4 19 2 20 1 21 3 22 21 24 22 25
REMARK SMILES IDX 23 26 24 27 25 29 26 30 27 31 88 32 28 33 87 34 29 35 30 36
REMARK SMILES IDX 31 37 81 38 32 39 86 40 80 41 82 42 33 43 85 44 79 45 78 46
REMARK SMILES IDX 34 48 66 49 46 50 65 51 47 52 50 53 64 54 83 55 48 56 49 57
REMARK SMILES IDX 63 59 84 60 51 61 35 62 36 63 44 64 37 65 39 66 45 67 38 68
REMARK SMILES IDX 40 69 41 70 42 71 43 72 67 73 68 74 76 75 69 76 71 77 77 78
REMARK SMILES IDX 70 79 72 80 73 81 74 82 75 83 52 84 53 85 61 86 54 87 56 88
REMARK SMILES IDX 62 89 55 90 57 91 58 92 59 93 60 94
REMARK H PARENT 19 5 9 14 2 23 23 28 82 47 50 58
REMARK Flexibility Score: inf
ROOT
ATOM      1  C   UNL     1      -0.861   6.618   1.294  1.00  0.00     0.118 C 
ENDROOT
BRANCH   1   2
ATOM      2  N   UNL     1      -0.720   5.753   2.450  1.00  0.00    -0.352 N 
ATOM      3  C   UNL     1      -1.406   4.657   2.907  1.00  0.00     0.256 C 
ATOM      4  O   UNL     1      -1.026   4.218   3.999  1.00  0.00    -0.269 OA
ATOM      5  H   UNL     1       0.032   6.007   3.033  1.00  0.00     0.163 HD
BRANCH   3   6
ATOM      6  C   UNL     1      -2.483   3.929   2.166  1.00  0.00     0.098 A 
ATOM      7  C   UNL     1      -2.594   2.519   2.351  1.00  0.00     0.050 A 
ATOM      8  C   UNL     1      -3.594   1.818   1.651  1.00  0.00     0.027 A 
ATOM      9  C   UNL     1      -4.465   2.465   0.779  1.00  0.00     0.005 A 
ATOM     10  C   UNL     1      -3.407   4.560   1.328  1.00  0.00     0.138 A 
ATOM     11  C   UNL     1      -4.369   3.839   0.619  1.00  0.00     0.040 A 
ATOM     12  F   UNL     1      -3.450   5.888   1.189  1.00  0.00    -0.206 F 
BRANCH   7  13
ATOM     13  N   UNL     1      -1.697   1.833   3.159  1.00  0.00    -0.384 N 
ATOM     14  H   UNL     1      -1.369   2.307   3.957  1.00  0.00     0.160 HD
BRANCH  13  15
ATOM     15  C   UNL     1      -1.195   0.491   2.947  1.00  0.00     0.125 C 
BRANCH  15  16
ATOM     16  C   UNL     1       0.347   0.457   2.776  1.00  0.00     0.031 C 
ATOM     17  C   UNL     1       0.770  -1.018   2.636  1.00  0.00     0.019 C 
ATOM     18  C   UNL     1       1.018   0.980   4.075  1.00  0.00     0.019 C 
BRANCH  16  19
ATOM     19  C   UNL     1       0.884   1.342   1.597  1.00  0.00     0.269 C 
BRANCH  19  20
ATOM     20  N   UNL     1       0.650   1.080   0.172  1.00  0.00    -0.339 N 
ATOM     21  C   UNL     1       1.225  -0.136  -0.368  1.00  0.00     0.332 C 
ATOM     22  C   UNL     1      -0.698   1.320  -0.305  1.00  0.00     0.332 C 
ATOM     23  H   UNL     1       1.214   1.826  -0.235  1.00  0.00     0.347 HD
ENDBRANCH  19  20
ENDBRANCH  16  19
ENDBRANCH  15  16
ENDBRANCH  13  15
ENDBRANCH   7  13
ENDBRANCH   3   6
ENDBRANCH   1   2
BRANCH   1  24
ATOM     24  C   UNL     1      -1.600   7.907   1.667  1.00  0.00     0.042 C 
BRANCH  24  25
ATOM     25  C   UNL     1      -0.789   8.863   2.543  1.00  0.00     0.118 C 
BRANCH  25  26
ATOM     26  N   UNL     1       0.319   9.467   1.819  1.00  0.00    -0.352 N 
ATOM     27  C   UNL     1       0.626  10.786   1.603  1.00  0.00     0.251 C 
ATOM     28  H   UNL     1       0.950   8.825   1.420  1.00  0.00     0.163 HD
ATOM     29  O   UNL     1       1.493  11.063   0.776  1.00  0.00    -0.269 OA
BRANCH  27  30
ATOM     30  C   UNL     1      -0.062  11.876   2.337  1.00  0.00     0.039 A 
ATOM     31  C   UNL     1      -0.338  13.064   1.651  1.00  0.00     0.014 A 
ATOM     32  C   UNL     1      -0.370  11.778   3.697  1.00  0.00     0.014 A 
ATOM     33  C   UNL     1      -0.951  14.130   2.314  1.00  0.00     0.010 A 
ATOM     34  C   UNL     1      -1.042  12.820   4.342  1.00  0.00     0.010 A 
ATOM     35  C   UNL     1      -1.330  14.011   3.661  1.00  0.00    -0.014 A 
BRANCH  35  36
ATOM     36  C   UNL     1      -2.051  15.120   4.342  1.00  0.00     0.031 A 
ATOM     37  C   UNL     1      -1.425  15.863   5.492  1.00  0.00     0.074 A 
ATOM     38  C   UNL     1      -3.300  15.434   3.941  1.00  0.00     0.049 A 
ATOM     39  N   UNL     1      -1.899  16.880   6.166  1.00  0.00    -0.248 NA
ATOM     40  C   UNL     1      -0.110  15.397   5.962  1.00  0.00     0.031 C 
ATOM     41  C   UNL     1      -4.046  14.732   2.895  1.00  0.00     0.029 A 
ATOM     42  N   UNL     1      -4.165  16.411   4.366  1.00  0.00    -0.354 N 
ATOM     43  C   UNL     1      -0.958  17.159   7.150  1.00  0.00     0.074 A 
ATOM     44  C   UNL     1       0.102  16.185   7.008  1.00  0.00     0.031 C 
ATOM     45  C   UNL     1      -5.245  15.315   2.743  1.00  0.00     0.029 A 
ATOM     46  C   UNL     1      -5.365  16.418   3.693  1.00  0.00     0.049 A 
ATOM     47  H   UNL     1      -3.948  17.048   5.085  1.00  0.00     0.167 HD
ATOM     48  C   UNL     1      -0.961  18.156   8.066  1.00  0.00     0.034 A 
ATOM     49  C   UNL     1      -6.438  17.225   3.813  1.00  0.00     0.034 A 
ATOM     50  C   UNL     1      -1.993  19.153   8.168  1.00  0.00     0.049 A 
ATOM     51  C   UNL     1      -6.389  18.365   4.794  1.00  0.00     0.074 A 
ATOM     52  C   UNL     1      -2.041  20.254   9.004  1.00  0.00     0.029 A 
ATOM     53  N   UNL     1      -3.155  19.172   7.412  1.00  0.00    -0.354 N 
ATOM     54  N   UNL     1      -5.418  18.707   5.606  1.00  0.00    -0.248 NA
ATOM     55  C   UNL     1      -7.559  19.253   4.852  1.00  0.00     0.031 C 
ATOM     56  C   UNL     1      -3.241  20.929   8.768  1.00  0.00     0.029 A 
ATOM     57  C   UNL     1      -3.928  20.263   7.766  1.00  0.00     0.049 A 
ATOM     58  H   UNL     1      -3.394  18.508   6.726  1.00  0.00     0.167 HD
ATOM     59  C   UNL     1      -5.843  19.867   6.243  1.00  0.00     0.074 A 
ATOM     60  C   UNL     1      -7.155  20.178   5.715  1.00  0.00     0.031 C 
ATOM     61  C   UNL     1      -5.205  20.599   7.188  1.00  0.00     0.034 A 
BRANCH  48  62
ATOM     62  C   UNL     1       0.222  18.281   8.992  1.00  0.00     0.023 A 
ATOM     63  C   UNL     1       1.448  18.756   8.483  1.00  0.00     0.012 A 
ATOM     64  C   UNL     1       0.094  18.045  10.376  1.00  0.00     0.148 A 
ATOM     65  C   UNL     1       2.532  18.976   9.330  1.00  0.00     0.002 A 
ATOM     66  C   UNL     1       1.167  18.308  11.221  1.00  0.00     0.091 A 
ATOM     67  F   UNL     1      -1.075  17.580  10.839  1.00  0.00    -0.205 F 
ATOM     68  C   UNL     1       2.388  18.765  10.699  1.00  0.00     0.022 A 
BRANCH  66  69
ATOM     69  S   UNL     1       1.058  18.152  13.008  1.00  0.00     0.127 S 
ATOM     70  O   UNL     1       1.920  16.997  13.256  1.00  0.00    -0.237 OA
ATOM     71  O   UNL     1       1.607  19.430  13.463  1.00  0.00    -0.237 OA
ATOM     72  O   UNL     1      -0.352  17.953  13.310  1.00  0.00    -0.744 OA
ENDBRANCH  66  69
ENDBRANCH  48  62
BRANCH  49  73
ATOM     73  C   UNL     1      -7.600  17.037   2.898  1.00  0.00     0.023 A 
ATOM     74  C   UNL     1      -7.824  17.971   1.869  1.00  0.00     0.012 A 
ATOM     75  C   UNL     1      -8.427  15.899   2.985  1.00  0.00     0.148 A 
ATOM     76  C   UNL     1      -8.859  17.785   0.951  1.00  0.00     0.002 A 
ATOM     77  C   UNL     1      -9.420  15.691   2.033  1.00  0.00     0.091 A 
ATOM     78  F   UNL     1      -8.206  15.028   3.979  1.00  0.00    -0.205 F 
ATOM     79  C   UNL     1      -9.646  16.640   1.024  1.00  0.00     0.022 A 
BRANCH  77  80
ATOM     80  S   UNL     1     -10.380  14.174   1.962  1.00  0.00     0.127 S 
ATOM     81  O   UNL     1     -11.700  14.635   2.389  1.00  0.00    -0.237 OA
ATOM     82  O   UNL     1     -10.282  13.820   0.544  1.00  0.00    -0.237 OA
ATOM     83  O   UNL     1      -9.714  13.243   2.858  1.00  0.00    -0.744 OA
ENDBRANCH  77  80
ENDBRANCH  49  73
BRANCH  61  84
ATOM     84  C   UNL     1      -5.880  21.837   7.714  1.00  0.00     0.023 A 
ATOM     85  C   UNL     1      -6.939  21.713   8.634  1.00  0.00     0.012 A 
ATOM     86  C   UNL     1      -5.362  23.113   7.418  1.00  0.00     0.148 A 
ATOM     87  C   UNL     1      -7.476  22.844   9.248  1.00  0.00     0.002 A 
ATOM     88  C   UNL     1      -5.871  24.231   8.068  1.00  0.00     0.091 A 
ATOM     89  F   UNL     1      -4.363  23.206   6.528  1.00  0.00    -0.205 F 
ATOM     90  C   UNL     1      -6.933  24.098   8.978  1.00  0.00     0.022 A 
BRANCH  88  91
ATOM     91  S   UNL     1      -5.169  25.872   7.867  1.00  0.00     0.127 S 
ATOM     92  O   UNL     1      -6.245  26.572   7.166  1.00  0.00    -0.237 OA
ATOM     93  O   UNL     1      -4.968  26.294   9.253  1.00  0.00    -0.237 OA
ATOM     94  O   UNL     1      -3.942  25.696   7.101  1.00  0.00    -0.744 OA
ENDBRANCH  88  91
ENDBRANCH  61  84
ENDBRANCH  35  36
ENDBRANCH  27  30
ENDBRANCH  25  26
ENDBRANCH  24  25
ENDBRANCH   1  24
TORSDOF 18
