REMARK SMILES Cc1nn(Cc2nc(C(C)(C)C)cs2)c(C)c1C(=O)NCCCNC(=O)c1ccc(-c2c3nc(c(-c4cccc(S(=O)(=O)[O-])c4F)c4ccc([nH]4)c(-c4cccc(S(=O)(=O)[O-])c4F)c4nc(c(-c5cccc(S(=O)(=O)[O-])c5F)c5ccc2[nH]5)C=C4)C=C3)cc1
REMARK SMILES IDX 22 1 21 2 20 3 18 4 19 5 17 7 1 8 2 9 3 10 4 11 15 12 16 13
REMARK SMILES IDX 5 14 6 15 7 16 14 17 8 18 13 19 9 20 10 21 11 22 12 23 23 24
REMARK SMILES IDX 24 25 25 26 26 28 27 29 28 30 89 31 29 32 88 33 30 34 31 35
REMARK SMILES IDX 32 36 82 37 33 38 87 39 81 40 83 41 34 42 86 43 80 44 79 45
REMARK SMILES IDX 35 47 67 48 47 49 66 50 48 51 51 52 65 53 84 54 49 55 50 56
REMARK SMILES IDX 64 58 85 59 52 60 36 61 37 62 45 63 38 64 40 65 46 66 39 67
REMARK SMILES IDX 41 68 42 69 43 70 44 71 68 72 69 73 77 74 70 75 72 76 78 77
REMARK SMILES IDX 71 78 73 79 74 80 75 81 76 82 53 83 54 84 62 85 55 86 57 87
REMARK SMILES IDX 63 88 56 89 58 90 59 91 60 92 61 93
REMARK H PARENT 20 6 24 27 83 46 51 57
REMARK Flexibility Score: inf
ROOT
ATOM      1  C   UNL     1       1.019   2.005  -0.336  1.00  0.00     0.042 C 
ENDROOT
BRANCH   1   2
ATOM      2  C   UNL     1      -0.365   1.360  -0.472  1.00  0.00     0.118 C 
BRANCH   2   3
ATOM      3  N   UNL     1      -0.625   0.966  -1.837  1.00  0.00    -0.352 N 
ATOM      4  C   UNL     1      -0.506  -0.209  -2.531  1.00  0.00     0.255 C 
ATOM      5  O   UNL     1      -0.846  -0.127  -3.712  1.00  0.00    -0.269 OA
ATOM      6  H   UNL     1      -0.962   1.706  -2.392  1.00  0.00     0.163 HD
BRANCH   4   7
ATOM      7  C   UNL     1      -0.089  -1.492  -1.950  1.00  0.00     0.083 A 
ATOM      8  C   UNL     1       1.593  -1.123   0.095  1.00  0.00     0.069 C 
ATOM      9  C   UNL     1       0.725  -1.879  -0.836  1.00  0.00     0.072 A 
ATOM     10  N   UNL     1       0.729  -3.202  -0.654  1.00  0.00    -0.177 NA
ATOM     11  N   UNL     1       0.179  -3.697  -1.768  1.00  0.00    -0.262 N 
ATOM     12  C   UNL     1      -0.394  -2.727  -2.550  1.00  0.00     0.049 A 
ATOM     13  C   UNL     1      -1.126  -3.071  -3.807  1.00  0.00     0.067 C 
BRANCH  11  14
ATOM     14  C   UNL     1       0.196  -5.142  -1.963  1.00  0.00     0.212 C 
BRANCH  14  15
ATOM     15  C   UNL     1       1.567  -5.618  -2.333  1.00  0.00     0.114 A 
ATOM     16  N   UNL     1       2.544  -5.846  -1.477  1.00  0.00    -0.244 NA
ATOM     17  S   UNL     1       1.950  -5.983  -3.970  1.00  0.00    -0.125 S 
ATOM     18  C   UNL     1       3.710  -6.215  -2.135  1.00  0.00     0.057 A 
ATOM     19  C   UNL     1       3.550  -6.377  -3.499  1.00  0.00     0.091 A 
BRANCH  18  20
ATOM     20  C   UNL     1       4.978  -6.364  -1.305  1.00  0.00     0.005 C 
ATOM     21  C   UNL     1       5.417  -4.979  -0.787  1.00  0.00     0.017 C 
ATOM     22  C   UNL     1       4.715  -7.285  -0.096  1.00  0.00     0.017 C 
ATOM     23  C   UNL     1       6.142  -6.965  -2.117  1.00  0.00     0.017 C 
ENDBRANCH  18  20
ENDBRANCH  14  15
ENDBRANCH  11  14
ENDBRANCH   4   7
ENDBRANCH   2   3
ENDBRANCH   1   2
BRANCH   1  24
ATOM     24  C   UNL     1       1.026   3.487  -0.663  1.00  0.00     0.118 C 
BRANCH  24  25
ATOM     25  N   UNL     1       0.377   4.290   0.373  1.00  0.00    -0.352 N 
ATOM     26  C   UNL     1       0.116   5.650   0.359  1.00  0.00     0.251 C 
ATOM     27  H   UNL     1       0.090   3.804   1.180  1.00  0.00     0.163 HD
ATOM     28  O   UNL     1      -0.113   6.254   1.390  1.00  0.00    -0.269 OA
BRANCH  26  29
ATOM     29  C   UNL     1       0.139   6.348  -0.940  1.00  0.00     0.039 A 
ATOM     30  C   UNL     1       0.774   7.585  -1.086  1.00  0.00     0.014 A 
ATOM     31  C   UNL     1      -0.426   5.701  -2.033  1.00  0.00     0.014 A 
ATOM     32  C   UNL     1       0.916   8.121  -2.364  1.00  0.00     0.010 A 
ATOM     33  C   UNL     1      -0.126   6.138  -3.296  1.00  0.00     0.010 A 
ATOM     34  C   UNL     1       0.484   7.378  -3.471  1.00  0.00    -0.014 A 
BRANCH  34  35
ATOM     35  C   UNL     1       0.729   7.834  -4.836  1.00  0.00     0.031 A 
ATOM     36  C   UNL     1       2.149   8.110  -5.191  1.00  0.00     0.074 A 
ATOM     37  C   UNL     1      -0.227   7.761  -5.789  1.00  0.00     0.049 A 
ATOM     38  N   UNL     1       2.663   9.241  -5.549  1.00  0.00    -0.248 NA
ATOM     39  C   UNL     1       3.136   7.032  -5.039  1.00  0.00     0.031 C 
ATOM     40  C   UNL     1      -1.585   7.213  -5.666  1.00  0.00     0.029 A 
ATOM     41  N   UNL     1      -0.117   7.989  -7.125  1.00  0.00    -0.354 N 
ATOM     42  C   UNL     1       3.990   8.971  -5.884  1.00  0.00     0.074 A 
ATOM     43  C   UNL     1       4.269   7.654  -5.374  1.00  0.00     0.031 C 
ATOM     44  C   UNL     1      -2.043   6.877  -6.890  1.00  0.00     0.029 A 
ATOM     45  C   UNL     1      -1.102   7.359  -7.880  1.00  0.00     0.049 A 
ATOM     46  H   UNL     1       0.592   8.546  -7.521  1.00  0.00     0.167 HD
ATOM     47  C   UNL     1       4.680   9.759  -6.756  1.00  0.00     0.034 A 
ATOM     48  C   UNL     1      -1.121   7.204  -9.224  1.00  0.00     0.034 A 
ATOM     49  C   UNL     1       3.982  10.991  -7.021  1.00  0.00     0.049 A 
ATOM     50  C   UNL     1      -0.212   8.226  -9.790  1.00  0.00     0.074 A 
ATOM     51  C   UNL     1       3.513  12.037  -6.252  1.00  0.00     0.029 A 
ATOM     52  N   UNL     1       3.333  11.092  -8.229  1.00  0.00    -0.354 N 
ATOM     53  N   UNL     1      -0.450   9.508  -9.732  1.00  0.00    -0.248 NA
ATOM     54  C   UNL     1       1.172   7.859 -10.040  1.00  0.00     0.031 C 
ATOM     55  C   UNL     1       2.267  12.394  -6.846  1.00  0.00     0.029 A 
ATOM     56  C   UNL     1       2.084  11.592  -7.975  1.00  0.00     0.049 A 
ATOM     57  H   UNL     1       3.697  10.850  -9.111  1.00  0.00     0.167 HD
ATOM     58  C   UNL     1       0.789  10.076  -9.465  1.00  0.00     0.074 A 
ATOM     59  C   UNL     1       1.760   9.035  -9.799  1.00  0.00     0.031 C 
ATOM     60  C   UNL     1       0.899  11.215  -8.716  1.00  0.00     0.034 A 
BRANCH  47  61
ATOM     61  C   UNL     1       5.810   9.310  -7.657  1.00  0.00     0.023 A 
ATOM     62  C   UNL     1       6.517  10.316  -8.359  1.00  0.00     0.012 A 
ATOM     63  C   UNL     1       6.030   7.976  -8.064  1.00  0.00     0.148 A 
ATOM     64  C   UNL     1       7.346  10.016  -9.445  1.00  0.00     0.002 A 
ATOM     65  C   UNL     1       6.921   7.676  -9.091  1.00  0.00     0.091 A 
ATOM     66  F   UNL     1       5.281   6.990  -7.562  1.00  0.00    -0.205 F 
ATOM     67  C   UNL     1       7.555   8.693  -9.807  1.00  0.00     0.022 A 
BRANCH  65  68
ATOM     68  S   UNL     1       7.271   5.976  -9.556  1.00  0.00     0.127 S 
ATOM     69  O   UNL     1       6.471   5.833 -10.768  1.00  0.00    -0.237 OA
ATOM     70  O   UNL     1       8.718   6.011  -9.767  1.00  0.00    -0.237 OA
ATOM     71  O   UNL     1       6.857   5.173  -8.411  1.00  0.00    -0.744 OA
ENDBRANCH  65  68
ENDBRANCH  47  61
BRANCH  48  72
ATOM     72  C   UNL     1      -1.743   6.141 -10.043  1.00  0.00     0.023 A 
ATOM     73  C   UNL     1      -2.040   6.388 -11.396  1.00  0.00     0.012 A 
ATOM     74  C   UNL     1      -1.821   4.809  -9.575  1.00  0.00     0.148 A 
ATOM     75  C   UNL     1      -2.375   5.341 -12.263  1.00  0.00     0.002 A 
ATOM     76  C   UNL     1      -2.166   3.773 -10.438  1.00  0.00     0.091 A 
ATOM     77  F   UNL     1      -1.469   4.546  -8.309  1.00  0.00    -0.205 F 
ATOM     78  C   UNL     1      -2.433   4.034 -11.787  1.00  0.00     0.022 A 
BRANCH  76  79
ATOM     79  S   UNL     1      -2.246   2.061  -9.893  1.00  0.00     0.127 S 
ATOM     80  O   UNL     1      -3.481   1.594 -10.524  1.00  0.00    -0.237 OA
ATOM     81  O   UNL     1      -1.021   1.506 -10.461  1.00  0.00    -0.237 OA
ATOM     82  O   UNL     1      -2.306   2.119  -8.438  1.00  0.00    -0.744 OA
ENDBRANCH  76  79
ENDBRANCH  48  72
BRANCH  60  83
ATOM     83  C   UNL     1      -0.360  11.979  -8.376  1.00  0.00     0.023 A 
ATOM     84  C   UNL     1      -1.403  11.403  -7.621  1.00  0.00     0.012 A 
ATOM     85  C   UNL     1      -0.404  13.359  -8.642  1.00  0.00     0.148 A 
ATOM     86  C   UNL     1      -2.474  12.175  -7.163  1.00  0.00     0.002 A 
ATOM     87  C   UNL     1      -1.444  14.134  -8.142  1.00  0.00     0.091 A 
ATOM     88  F   UNL     1       0.596  13.901  -9.354  1.00  0.00    -0.205 F 
ATOM     89  C   UNL     1      -2.487  13.544  -7.410  1.00  0.00     0.022 A 
BRANCH  87  90
ATOM     90  S   UNL     1      -1.442  15.921  -8.305  1.00  0.00     0.127 S 
ATOM     91  O   UNL     1      -2.393  16.131  -9.394  1.00  0.00    -0.237 OA
ATOM     92  O   UNL     1      -1.911  16.361  -6.989  1.00  0.00    -0.237 OA
ATOM     93  O   UNL     1      -0.061  16.291  -8.593  1.00  0.00    -0.744 OA
ENDBRANCH  87  90
ENDBRANCH  60  83
ENDBRANCH  34  35
ENDBRANCH  26  29
ENDBRANCH  24  25
ENDBRANCH   1  24
TORSDOF 16
