REMARK SMILES Nc1ccc2c(c1)C(=O)N(CCC(=O)NCCCNC(=O)c1ccc(-c3c4nc(c(-c5cccc(S(=O)(=O)[O-])c5F)c5ccc([nH]5)c(-c5cccc(S(=O)(=O)[O-])c5F)c5nc(c(-c6cccc(S(=O)(=O)[O-])c6F)c6ccc3[nH]6)C=C5)C=C4)cc1)C2
REMARK SMILES IDX 17 1 16 2 15 3 13 4 14 5 12 7 11 8 10 9 2 10 3 11 7 12 4 13
REMARK SMILES IDX 6 14 5 15 8 16 85 17 9 18 1 19 18 22 19 23 20 24 21 26 22 27
REMARK SMILES IDX 23 28 84 29 24 30 83 31 25 32 26 33 27 34 77 35 28 36 82 37
REMARK SMILES IDX 76 38 78 39 29 40 81 41 75 42 74 43 30 45 62 46 42 47 61 48
REMARK SMILES IDX 43 49 46 50 60 51 79 52 44 53 45 54 59 56 80 57 47 58 31 59
REMARK SMILES IDX 32 60 40 61 33 62 35 63 41 64 34 65 36 66 37 67 38 68 39 69
REMARK SMILES IDX 63 70 64 71 72 72 65 73 67 74 73 75 66 76 68 77 69 78 70 79
REMARK SMILES IDX 71 80 48 81 49 82 57 83 50 84 52 85 58 86 51 87 53 88 54 89
REMARK SMILES IDX 55 90 56 91
REMARK H PARENT 15 6 1 20 1 21 19 25 78 44 46 55
REMARK Flexibility Score: inf
ROOT
ATOM      1  C   UNL     1      -0.560   5.847  -0.258  1.00  0.00     0.042 C 
ENDROOT
BRANCH   1   2
ATOM      2  C   UNL     1      -1.002   6.441   1.081  1.00  0.00     0.117 C 
BRANCH   2   3
ATOM      3  N   UNL     1      -2.244   7.193   0.967  1.00  0.00    -0.356 N 
ATOM      4  C   UNL     1      -3.466   6.993   1.535  1.00  0.00     0.221 C 
ATOM      5  O   UNL     1      -4.372   7.773   1.230  1.00  0.00    -0.275 OA
ATOM      6  H   UNL     1      -2.191   7.981   0.378  1.00  0.00     0.163 HD
BRANCH   4   7
ATOM      7  C   UNL     1      -3.716   5.873   2.522  1.00  0.00     0.121 C 
BRANCH   7   8
ATOM      8  C   UNL     1      -4.568   4.749   1.927  1.00  0.00     0.130 C 
BRANCH   8   9
ATOM      9  N   UNL     1      -3.767   3.711   1.304  1.00  0.00    -0.334 N 
ATOM     10  C   UNL     1      -0.188   0.998   0.270  1.00  0.00     0.032 A 
ATOM     11  C   UNL     1      -0.251   1.782  -0.896  1.00  0.00     0.026 A 
ATOM     12  C   UNL     1      -1.121   1.215   1.284  1.00  0.00     0.039 A 
ATOM     13  C   UNL     1      -1.325   2.645  -1.151  1.00  0.00     0.008 A 
ATOM     14  C   UNL     1      -2.129   2.135   1.050  1.00  0.00     0.047 A 
ATOM     15  C   UNL     1      -2.274   2.807  -0.163  1.00  0.00    -0.016 A 
ATOM     16  C   UNL     1      -3.080   2.727   1.999  1.00  0.00     0.254 C 
ATOM     17  C   UNL     1      -3.473   3.694  -0.115  1.00  0.00     0.156 C 
ATOM     18  O   UNL     1      -3.142   2.470   3.189  1.00  0.00    -0.269 OA
BRANCH  10  19
ATOM     19  N   UNL     1       0.882   0.133   0.461  1.00  0.00    -0.399 N 
ATOM     20  H   UNL     1       1.534  -0.011  -0.263  1.00  0.00     0.156 HD
ATOM     21  H   UNL     1       0.989  -0.335   1.321  1.00  0.00     0.156 HD
ENDBRANCH  10  19
ENDBRANCH   8   9
ENDBRANCH   7   8
ENDBRANCH   4   7
ENDBRANCH   2   3
ENDBRANCH   1   2
BRANCH   1  22
ATOM     22  C   UNL     1      -0.111   6.851  -1.314  1.00  0.00     0.118 C 
BRANCH  22  23
ATOM     23  N   UNL     1       1.293   6.690  -1.648  1.00  0.00    -0.352 N 
ATOM     24  C   UNL     1       1.957   5.781  -2.438  1.00  0.00     0.251 C 
ATOM     25  H   UNL     1       1.881   7.359  -1.230  1.00  0.00     0.163 HD
ATOM     26  O   UNL     1       3.181   5.719  -2.321  1.00  0.00    -0.269 OA
BRANCH  24  27
ATOM     27  C   UNL     1       1.273   4.859  -3.388  1.00  0.00     0.039 A 
ATOM     28  C   UNL     1       0.160   5.222  -4.148  1.00  0.00     0.014 A 
ATOM     29  C   UNL     1       1.849   3.599  -3.612  1.00  0.00     0.014 A 
ATOM     30  C   UNL     1      -0.439   4.301  -5.023  1.00  0.00     0.010 A 
ATOM     31  C   UNL     1       1.288   2.701  -4.534  1.00  0.00     0.010 A 
ATOM     32  C   UNL     1       0.112   3.025  -5.227  1.00  0.00    -0.014 A 
BRANCH  32  33
ATOM     33  C   UNL     1      -0.518   2.045  -6.165  1.00  0.00     0.031 A 
ATOM     34  C   UNL     1      -1.056   0.723  -5.664  1.00  0.00     0.074 A 
ATOM     35  C   UNL     1      -0.607   2.319  -7.483  1.00  0.00     0.049 A 
ATOM     36  N   UNL     1      -1.585  -0.274  -6.327  1.00  0.00    -0.248 NA
ATOM     37  C   UNL     1      -0.997   0.493  -4.217  1.00  0.00     0.031 C 
ATOM     38  C   UNL     1      -0.137   3.544  -8.130  1.00  0.00     0.029 A 
ATOM     39  N   UNL     1      -1.119   1.573  -8.518  1.00  0.00    -0.354 N 
ATOM     40  C   UNL     1      -1.883  -1.253  -5.381  1.00  0.00     0.074 A 
ATOM     41  C   UNL     1      -1.483  -0.733  -4.094  1.00  0.00     0.031 C 
ATOM     42  C   UNL     1      -0.396   3.473  -9.446  1.00  0.00     0.029 A 
ATOM     43  C   UNL     1      -1.002   2.179  -9.747  1.00  0.00     0.049 A 
ATOM     44  H   UNL     1      -1.530   0.688  -8.392  1.00  0.00     0.167 HD
ATOM     45  C   UNL     1      -2.450  -2.468  -5.559  1.00  0.00     0.034 A 
ATOM     46  C   UNL     1      -1.323   1.740 -10.980  1.00  0.00     0.034 A 
ATOM     47  C   UNL     1      -2.892  -2.982  -6.826  1.00  0.00     0.049 A 
ATOM     48  C   UNL     1      -1.916   0.370 -11.155  1.00  0.00     0.074 A 
ATOM     49  C   UNL     1      -3.521  -4.188  -7.087  1.00  0.00     0.029 A 
ATOM     50  N   UNL     1      -2.748  -2.333  -8.037  1.00  0.00    -0.354 N 
ATOM     51  N   UNL     1      -2.260  -0.503 -10.241  1.00  0.00    -0.248 NA
ATOM     52  C   UNL     1      -2.175  -0.071 -12.535  1.00  0.00     0.031 C 
ATOM     53  C   UNL     1      -3.739  -4.277  -8.463  1.00  0.00     0.029 A 
ATOM     54  C   UNL     1      -3.263  -3.118  -9.053  1.00  0.00     0.049 A 
ATOM     55  H   UNL     1      -2.341  -1.445  -8.159  1.00  0.00     0.167 HD
ATOM     56  C   UNL     1      -2.792  -1.586 -10.933  1.00  0.00     0.074 A 
ATOM     57  C   UNL     1      -2.749  -1.251 -12.340  1.00  0.00     0.031 C 
ATOM     58  C   UNL     1      -3.256  -2.762 -10.445  1.00  0.00     0.034 A 
BRANCH  45  59
ATOM     59  C   UNL     1      -2.676  -3.346  -4.358  1.00  0.00     0.023 A 
ATOM     60  C   UNL     1      -3.812  -3.135  -3.554  1.00  0.00     0.012 A 
ATOM     61  C   UNL     1      -1.862  -4.475  -4.134  1.00  0.00     0.148 A 
ATOM     62  C   UNL     1      -4.144  -4.043  -2.549  1.00  0.00     0.002 A 
ATOM     63  C   UNL     1      -2.215  -5.389  -3.149  1.00  0.00     0.091 A 
ATOM     64  F   UNL     1      -0.783  -4.646  -4.911  1.00  0.00    -0.205 F 
ATOM     65  C   UNL     1      -3.355  -5.175  -2.357  1.00  0.00     0.022 A 
BRANCH  63  66
ATOM     66  S   UNL     1      -1.298  -6.905  -2.853  1.00  0.00     0.127 S 
ATOM     67  O   UNL     1      -0.882  -6.730  -1.462  1.00  0.00    -0.237 OA
ATOM     68  O   UNL     1      -2.323  -7.927  -3.061  1.00  0.00    -0.237 OA
ATOM     69  O   UNL     1      -0.209  -6.915  -3.820  1.00  0.00    -0.744 OA
ENDBRANCH  63  66
ENDBRANCH  45  59
BRANCH  46  70
ATOM     70  C   UNL     1      -1.117   2.624 -12.160  1.00  0.00     0.023 A 
ATOM     71  C   UNL     1      -2.239   3.178 -12.804  1.00  0.00     0.012 A 
ATOM     72  C   UNL     1       0.173   2.925 -12.637  1.00  0.00     0.148 A 
ATOM     73  C   UNL     1      -2.082   4.006 -13.916  1.00  0.00     0.002 A 
ATOM     74  C   UNL     1       0.325   3.781 -13.720  1.00  0.00     0.091 A 
ATOM     75  F   UNL     1       1.224   2.376 -12.012  1.00  0.00    -0.205 F 
ATOM     76  C   UNL     1      -0.801   4.314 -14.368  1.00  0.00     0.022 A 
BRANCH  74  77
ATOM     77  S   UNL     1       1.933   4.305 -14.325  1.00  0.00     0.127 S 
ATOM     78  O   UNL     1       1.952   3.719 -15.663  1.00  0.00    -0.237 OA
ATOM     79  O   UNL     1       1.803   5.762 -14.291  1.00  0.00    -0.237 OA
ATOM     80  O   UNL     1       2.905   3.760 -13.388  1.00  0.00    -0.744 OA
ENDBRANCH  74  77
ENDBRANCH  46  70
BRANCH  58  81
ATOM     81  C   UNL     1      -3.766  -3.781 -11.425  1.00  0.00     0.023 A 
ATOM     82  C   UNL     1      -2.848  -4.526 -12.190  1.00  0.00     0.012 A 
ATOM     83  C   UNL     1      -5.143  -4.066 -11.521  1.00  0.00     0.148 A 
ATOM     84  C   UNL     1      -3.293  -5.525 -13.053  1.00  0.00     0.002 A 
ATOM     85  C   UNL     1      -5.577  -5.087 -12.357  1.00  0.00     0.091 A 
ATOM     86  F   UNL     1      -5.997  -3.341 -10.785  1.00  0.00    -0.205 F 
ATOM     87  C   UNL     1      -4.654  -5.813 -13.129  1.00  0.00     0.022 A 
BRANCH  85  88
ATOM     88  S   UNL     1      -7.301  -5.574 -12.476  1.00  0.00     0.127 S 
ATOM     89  O   UNL     1      -7.637  -5.146 -13.834  1.00  0.00    -0.237 OA
ATOM     90  O   UNL     1      -7.227  -7.024 -12.294  1.00  0.00    -0.237 OA
ATOM     91  O   UNL     1      -7.997  -4.863 -11.412  1.00  0.00    -0.744 OA
ENDBRANCH  85  88
ENDBRANCH  58  81
ENDBRANCH  32  33
ENDBRANCH  24  27
ENDBRANCH  22  23
ENDBRANCH   1  22
TORSDOF 16
