REMARK SMILES O=C(NCCCNC(=O)c1cccc2c1cc(Br)c1ccccc12)c1ccc(-c2c3nc(c(-c4cccc(S(=O)(=O)[O-])c4F)c4ccc([nH]4)c(-c4cccc(S(=O)(=O)[O-])c4F)c4nc(c(-c5cccc(S(=O)(=O)[O-])c5F)c5ccc2[nH]5)C=C4)C=C3)cc1
REMARK SMILES IDX 1 1 2 2 3 3 25 5 26 6 87 7 27 8 86 9 28 10 29 11 30 12 80 13
REMARK SMILES IDX 31 14 85 15 79 16 81 17 32 18 84 19 78 20 77 21 33 23 65 24
REMARK SMILES IDX 45 25 64 26 46 27 49 28 63 29 82 30 47 31 48 32 62 34 83 35
REMARK SMILES IDX 50 36 34 37 35 38 43 39 36 40 38 41 44 42 37 43 39 44 40 45
REMARK SMILES IDX 41 46 42 47 66 48 67 49 75 50 68 51 70 52 76 53 69 54 71 55
REMARK SMILES IDX 72 56 73 57 74 58 51 59 52 60 60 61 53 62 55 63 61 64 54 65
REMARK SMILES IDX 56 66 57 67 58 68 59 69 4 70 5 71 6 72 7 73 8 74 9 76 10 77
REMARK SMILES IDX 11 78 15 79 12 80 14 81 16 82 13 83 24 84 17 85 19 86 23 87
REMARK SMILES IDX 18 88 20 89 22 90 21 91
REMARK H PARENT 3 4 81 22 49 33 7 75
REMARK Flexibility Score: inf
ROOT
ATOM      1  O   UNL     1       1.290   0.086   0.019  1.00  0.00    -0.269 OA
ATOM      2  C   UNL     1       2.512  -0.041   0.088  1.00  0.00     0.251 C 
ATOM      3  N   UNL     1       3.277   1.076   0.314  1.00  0.00    -0.352 N 
ATOM      4  H   UNL     1       2.764   1.876   0.570  1.00  0.00     0.163 HD
ENDROOT
BRANCH   2   5
ATOM      5  C   UNL     1       3.121  -1.382  -0.072  1.00  0.00     0.039 A 
ATOM      6  C   UNL     1       2.519  -2.291  -0.951  1.00  0.00     0.014 A 
ATOM      7  C   UNL     1       4.220  -1.786   0.689  1.00  0.00     0.014 A 
ATOM      8  C   UNL     1       3.034  -3.584  -1.085  1.00  0.00     0.010 A 
ATOM      9  C   UNL     1       4.785  -3.045   0.491  1.00  0.00     0.010 A 
ATOM     10  C   UNL     1       4.179  -3.969  -0.372  1.00  0.00    -0.014 A 
BRANCH  10  11
ATOM     11  C   UNL     1       4.716  -5.351  -0.450  1.00  0.00     0.031 A 
ATOM     12  C   UNL     1       4.729  -6.218   0.784  1.00  0.00     0.074 A 
ATOM     13  C   UNL     1       5.240  -5.814  -1.602  1.00  0.00     0.049 A 
ATOM     14  N   UNL     1       5.235  -7.412   0.947  1.00  0.00    -0.248 NA
ATOM     15  C   UNL     1       4.115  -5.659   2.002  1.00  0.00     0.031 C 
ATOM     16  C   UNL     1       5.334  -5.061  -2.854  1.00  0.00     0.029 A 
ATOM     17  N   UNL     1       5.808  -7.028  -1.900  1.00  0.00    -0.354 N 
ATOM     18  C   UNL     1       5.047  -7.724   2.287  1.00  0.00     0.074 A 
ATOM     19  C   UNL     1       4.400  -6.588   2.903  1.00  0.00     0.031 C 
ATOM     20  C   UNL     1       5.908  -5.836  -3.790  1.00  0.00     0.029 A 
ATOM     21  C   UNL     1       6.248  -7.127  -3.199  1.00  0.00     0.049 A 
ATOM     22  H   UNL     1       5.892  -7.758  -1.246  1.00  0.00     0.167 HD
ATOM     23  C   UNL     1       5.349  -8.868   2.942  1.00  0.00     0.034 A 
ATOM     24  C   UNL     1       6.856  -8.143  -3.842  1.00  0.00     0.034 A 
ATOM     25  C   UNL     1       5.907 -10.033   2.316  1.00  0.00     0.049 A 
ATOM     26  C   UNL     1       7.133  -9.425  -3.106  1.00  0.00     0.074 A 
ATOM     27  C   UNL     1       6.165 -11.269   2.881  1.00  0.00     0.029 A 
ATOM     28  N   UNL     1       6.275 -10.113   0.984  1.00  0.00    -0.354 N 
ATOM     29  N   UNL     1       6.853  -9.735  -1.864  1.00  0.00    -0.248 NA
ATOM     30  C   UNL     1       7.787 -10.504  -3.862  1.00  0.00     0.031 C 
ATOM     31  C   UNL     1       6.686 -12.101   1.887  1.00  0.00     0.029 A 
ATOM     32  C   UNL     1       6.753 -11.380   0.705  1.00  0.00     0.049 A 
ATOM     33  H   UNL     1       6.206  -9.378   0.332  1.00  0.00     0.167 HD
ATOM     34  C   UNL     1       7.278 -11.047  -1.694  1.00  0.00     0.074 A 
ATOM     35  C   UNL     1       7.819 -11.482  -2.964  1.00  0.00     0.031 C 
ATOM     36  C   UNL     1       7.238 -11.815  -0.578  1.00  0.00     0.034 A 
BRANCH  23  37
ATOM     37  C   UNL     1       5.006  -8.956   4.403  1.00  0.00     0.023 A 
ATOM     38  C   UNL     1       3.670  -9.198   4.777  1.00  0.00     0.012 A 
ATOM     39  C   UNL     1       6.006  -8.891   5.391  1.00  0.00     0.148 A 
ATOM     40  C   UNL     1       3.329  -9.362   6.118  1.00  0.00     0.002 A 
ATOM     41  C   UNL     1       5.664  -9.086   6.724  1.00  0.00     0.091 A 
ATOM     42  F   UNL     1       7.267  -8.646   5.008  1.00  0.00    -0.205 F 
ATOM     43  C   UNL     1       4.327  -9.317   7.089  1.00  0.00     0.022 A 
BRANCH  41  44
ATOM     44  S   UNL     1       6.875  -9.101   8.050  1.00  0.00     0.127 S 
ATOM     45  O   UNL     1       6.464  -7.940   8.838  1.00  0.00    -0.237 OA
ATOM     46  O   UNL     1       6.616 -10.393   8.686  1.00  0.00    -0.237 OA
ATOM     47  O   UNL     1       8.178  -8.983   7.410  1.00  0.00    -0.744 OA
ENDBRANCH  41  44
ENDBRANCH  23  37
BRANCH  24  48
ATOM     48  C   UNL     1       7.168  -8.010  -5.292  1.00  0.00     0.023 A 
ATOM     49  C   UNL     1       6.351  -8.674  -6.227  1.00  0.00     0.012 A 
ATOM     50  C   UNL     1       8.216  -7.189  -5.749  1.00  0.00     0.148 A 
ATOM     51  C   UNL     1       6.578  -8.531  -7.596  1.00  0.00     0.002 A 
ATOM     52  C   UNL     1       8.413  -7.020  -7.114  1.00  0.00     0.091 A 
ATOM     53  F   UNL     1       8.981  -6.573  -4.837  1.00  0.00    -0.205 F 
ATOM     54  C   UNL     1       7.602  -7.698  -8.039  1.00  0.00     0.022 A 
BRANCH  52  55
ATOM     55  S   UNL     1       9.637  -5.891  -7.787  1.00  0.00     0.127 S 
ATOM     56  O   UNL     1      10.548  -6.808  -8.468  1.00  0.00    -0.237 OA
ATOM     57  O   UNL     1       8.822  -5.060  -8.674  1.00  0.00    -0.237 OA
ATOM     58  O   UNL     1      10.197  -5.185  -6.643  1.00  0.00    -0.744 OA
ENDBRANCH  52  55
ENDBRANCH  24  48
BRANCH  36  59
ATOM     59  C   UNL     1       7.785 -13.212  -0.657  1.00  0.00     0.023 A 
ATOM     60  C   UNL     1       9.175 -13.409  -0.571  1.00  0.00     0.012 A 
ATOM     61  C   UNL     1       6.921 -14.324  -0.672  1.00  0.00     0.148 A 
ATOM     62  C   UNL     1       9.702 -14.697  -0.501  1.00  0.00     0.002 A 
ATOM     63  C   UNL     1       7.451 -15.605  -0.570  1.00  0.00     0.091 A 
ATOM     64  F   UNL     1       5.601 -14.106  -0.762  1.00  0.00    -0.205 F 
ATOM     65  C   UNL     1       8.841 -15.793  -0.487  1.00  0.00     0.022 A 
BRANCH  63  66
ATOM     66  S   UNL     1       6.422 -17.074  -0.466  1.00  0.00     0.127 S 
ATOM     67  O   UNL     1       6.721 -17.737  -1.734  1.00  0.00    -0.237 OA
ATOM     68  O   UNL     1       6.962 -17.746   0.717  1.00  0.00    -0.237 OA
ATOM     69  O   UNL     1       5.053 -16.599  -0.322  1.00  0.00    -0.744 OA
ENDBRANCH  63  66
ENDBRANCH  36  59
ENDBRANCH  10  11
ENDBRANCH   2   5
BRANCH   3  70
ATOM     70  C   UNL     1       4.717   1.279   0.241  1.00  0.00     0.118 C 
BRANCH  70  71
ATOM     71  C   UNL     1       5.118   2.250  -0.862  1.00  0.00     0.042 C 
BRANCH  71  72
ATOM     72  C   UNL     1       4.526   3.645  -0.725  1.00  0.00     0.118 C 
BRANCH  72  73
ATOM     73  N   UNL     1       4.967   4.342   0.476  1.00  0.00    -0.352 N 
ATOM     74  C   UNL     1       5.732   5.478   0.600  1.00  0.00     0.251 C 
ATOM     75  H   UNL     1       4.674   3.940   1.325  1.00  0.00     0.163 HD
ATOM     76  O   UNL     1       6.019   5.909   1.712  1.00  0.00    -0.269 OA
BRANCH  74  77
ATOM     77  C   UNL     1       6.188   6.188  -0.619  1.00  0.00     0.047 A 
ATOM     78  C   UNL     1       5.188   6.664  -1.475  1.00  0.00     0.014 A 
ATOM     79  C   UNL     1       7.568   6.393  -0.899  1.00  0.00    -0.004 A 
ATOM     80  C   UNL     1       5.540   7.247  -2.676  1.00  0.00     0.002 A 
ATOM     81  C   UNL     1       7.943   7.002  -2.126  1.00  0.00    -0.010 A 
ATOM     82  C   UNL     1       8.587   6.018  -0.005  1.00  0.00     0.026 A 
ATOM     83  C   UNL     1       6.890   7.394  -2.996  1.00  0.00     0.009 A 
ATOM     84  C   UNL     1       9.340   7.206  -2.437  1.00  0.00    -0.009 A 
ATOM     85  C   UNL     1       9.935   6.255  -0.281  1.00  0.00     0.026 A 
ATOM     86  C   UNL     1      10.342   6.848  -1.494  1.00  0.00    -0.004 A 
ATOM     87  C   UNL     1       9.784   7.768  -3.664  1.00  0.00     0.009 A 
ATOM     88  Br  UNL     1      11.169   5.739   1.083  1.00  0.00    -0.050 Br
ATOM     89  C   UNL     1      11.703   7.098  -1.810  1.00  0.00     0.010 A 
ATOM     90  C   UNL     1      11.131   7.991  -3.955  1.00  0.00     0.001 A 
ATOM     91  C   UNL     1      12.093   7.663  -3.021  1.00  0.00     0.001 A 
ENDBRANCH  74  77
ENDBRANCH  72  73
ENDBRANCH  71  72
ENDBRANCH  70  71
ENDBRANCH   3  70
TORSDOF 13
