REMARK SMILES CC(C)Cc1ccc([C@H](CF)C(=O)NCCCNC(=O)c2ccc(-c3c4nc(c(-c5cccc(S(=O)(=O)[O-])c5F)c5ccc([nH]5)c(-c5cccc(S(=O)(=O)[O-])c5F)c5nc(c(-c6cccc(S(=O)(=O)[O-])c6F)c6ccc3[nH]6)C=C5)C=C4)cc2)cc1
REMARK SMILES IDX 16 1 15 2 14 3 12 4 13 5 9 7 8 8 5 9 6 10 85 11 7 12 84 13
REMARK SMILES IDX 4 14 2 15 1 16 3 17 10 18 11 19 17 20 18 21 19 22 20 24
REMARK SMILES IDX 21 25 22 26 83 27 23 28 82 29 24 30 25 31 26 32 76 33 27 34
REMARK SMILES IDX 81 35 75 36 77 37 28 38 80 39 74 40 73 41 29 43 61 44 41 45
REMARK SMILES IDX 60 46 42 47 45 48 59 49 78 50 43 51 44 52 58 54 79 55 46 56
REMARK SMILES IDX 30 57 31 58 39 59 32 60 34 61 40 62 33 63 35 64 36 65 37 66
REMARK SMILES IDX 38 67 62 68 63 69 71 70 64 71 66 72 72 73 65 74 67 75 68 76
REMARK SMILES IDX 69 77 70 78 47 79 48 80 56 81 49 82 51 83 57 84 50 85 52 86
REMARK SMILES IDX 53 87 54 88 55 89
REMARK H PARENT 14 6 18 23 77 42 45 53
REMARK Flexibility Score: inf
ROOT
ATOM      1  C   UNL     1      -3.438   2.521   4.488  1.00  0.00     0.042 C 
ENDROOT
BRANCH   1   2
ATOM      2  C   UNL     1      -2.967   1.388   5.382  1.00  0.00     0.117 C 
BRANCH   2   3
ATOM      3  N   UNL     1      -3.847   0.230   5.317  1.00  0.00    -0.355 N 
ATOM      4  C   UNL     1      -3.541  -1.088   5.178  1.00  0.00     0.230 C 
ATOM      5  O   UNL     1      -4.469  -1.898   5.281  1.00  0.00    -0.274 OA
ATOM      6  H   UNL     1      -4.808   0.432   5.385  1.00  0.00     0.163 HD
BRANCH   4   7
ATOM      7  C   UNL     1      -2.126  -1.571   4.888  1.00  0.00     0.139 C 
BRANCH   7   8
ATOM      8  C   UNL     1      -1.085  -1.286   5.967  1.00  0.00    -0.033 A 
ATOM      9  C   UNL     1       0.876  -0.747   7.936  1.00  0.00    -0.048 A 
ATOM     10  C   UNL     1      -0.471  -0.477   8.183  1.00  0.00     0.004 A 
ATOM     11  C   UNL     1       1.239  -1.296   6.703  1.00  0.00     0.004 A 
ATOM     12  C   UNL     1      -1.439  -0.780   7.228  1.00  0.00     0.005 A 
ATOM     13  C   UNL     1       0.270  -1.560   5.730  1.00  0.00     0.005 A 
BRANCH   9  14
ATOM     14  C   UNL     1       1.902  -0.503   9.013  1.00  0.00     0.038 C 
BRANCH  14  15
ATOM     15  C   UNL     1       1.711  -1.440  10.224  1.00  0.00    -0.013 C 
ATOM     16  C   UNL     1       1.918  -2.909   9.844  1.00  0.00     0.008 C 
ATOM     17  C   UNL     1       2.664  -1.047  11.351  1.00  0.00     0.008 C 
ENDBRANCH  14  15
ENDBRANCH   9  14
ENDBRANCH   7   8
BRANCH   7  18
ATOM     18  C   UNL     1      -1.752  -1.172   3.455  1.00  0.00     0.232 C 
ATOM     19  F   UNL     1      -1.092   0.015   3.426  1.00  0.00    -0.250 F 
ENDBRANCH   7  18
ENDBRANCH   4   7
ENDBRANCH   2   3
ENDBRANCH   1   2
BRANCH   1  20
ATOM     20  C   UNL     1      -4.794   3.088   4.887  1.00  0.00     0.118 C 
BRANCH  20  21
ATOM     21  N   UNL     1      -4.792   3.704   6.212  1.00  0.00    -0.352 N 
ATOM     22  C   UNL     1      -4.976   5.019   6.567  1.00  0.00     0.251 C 
ATOM     23  H   UNL     1      -4.635   3.085   6.961  1.00  0.00     0.163 HD
ATOM     24  O   UNL     1      -4.780   5.381   7.724  1.00  0.00    -0.269 OA
BRANCH  22  25
ATOM     25  C   UNL     1      -5.383   5.997   5.539  1.00  0.00     0.039 A 
ATOM     26  C   UNL     1      -4.674   7.195   5.416  1.00  0.00     0.014 A 
ATOM     27  C   UNL     1      -6.425   5.699   4.661  1.00  0.00     0.014 A 
ATOM     28  C   UNL     1      -4.941   8.044   4.340  1.00  0.00     0.010 A 
ATOM     29  C   UNL     1      -6.627   6.497   3.543  1.00  0.00     0.010 A 
ATOM     30  C   UNL     1      -5.879   7.671   3.363  1.00  0.00    -0.014 A 
BRANCH  30  31
ATOM     31  C   UNL     1      -6.072   8.455   2.116  1.00  0.00     0.031 A 
ATOM     32  C   UNL     1      -7.423   9.030   1.791  1.00  0.00     0.074 A 
ATOM     33  C   UNL     1      -5.071   8.524   1.215  1.00  0.00     0.049 A 
ATOM     34  N   UNL     1      -7.828   9.611   0.693  1.00  0.00    -0.248 NA
ATOM     35  C   UNL     1      -8.466   8.902   2.823  1.00  0.00     0.031 C 
ATOM     36  C   UNL     1      -3.741   7.931   1.377  1.00  0.00     0.029 A 
ATOM     37  N   UNL     1      -5.031   9.087  -0.037  1.00  0.00    -0.354 N 
ATOM     38  C   UNL     1      -9.179   9.874   0.880  1.00  0.00     0.074 A 
ATOM     39  C   UNL     1      -9.533   9.364   2.187  1.00  0.00     0.031 C 
ATOM     40  C   UNL     1      -3.018   8.159   0.269  1.00  0.00     0.029 A 
ATOM     41  C   UNL     1      -3.841   8.878  -0.697  1.00  0.00     0.049 A 
ATOM     42  H   UNL     1      -5.781   9.592  -0.426  1.00  0.00     0.167 HD
ATOM     43  C   UNL     1     -10.041  10.511   0.053  1.00  0.00     0.034 A 
ATOM     44  C   UNL     1      -3.461   9.213  -1.946  1.00  0.00     0.034 A 
ATOM     45  C   UNL     1      -9.669  11.072  -1.216  1.00  0.00     0.049 A 
ATOM     46  C   UNL     1      -4.426   9.956  -2.829  1.00  0.00     0.074 A 
ATOM     47  C   UNL     1     -10.437  11.838  -2.075  1.00  0.00     0.029 A 
ATOM     48  N   UNL     1      -8.427  10.924  -1.813  1.00  0.00    -0.354 N 
ATOM     49  N   UNL     1      -5.649  10.348  -2.566  1.00  0.00    -0.248 NA
ATOM     50  C   UNL     1      -3.952  10.325  -4.171  1.00  0.00     0.031 C 
ATOM     51  C   UNL     1      -9.662  12.142  -3.199  1.00  0.00     0.029 A 
ATOM     52  C   UNL     1      -8.409  11.573  -3.035  1.00  0.00     0.049 A 
ATOM     53  H   UNL     1      -7.669  10.431  -1.424  1.00  0.00     0.167 HD
ATOM     54  C   UNL     1      -6.082  11.030  -3.696  1.00  0.00     0.074 A 
ATOM     55  C   UNL     1      -4.982  11.020  -4.638  1.00  0.00     0.031 C 
ATOM     56  C   UNL     1      -7.289  11.597  -3.940  1.00  0.00     0.034 A 
BRANCH  43  57
ATOM     57  C   UNL     1     -11.457  10.696   0.528  1.00  0.00     0.023 A 
ATOM     58  C   UNL     1     -11.727  11.632   1.547  1.00  0.00     0.012 A 
ATOM     59  C   UNL     1     -12.523   9.992  -0.065  1.00  0.00     0.148 A 
ATOM     60  C   UNL     1     -13.031  11.842   1.992  1.00  0.00     0.002 A 
ATOM     61  C   UNL     1     -13.826  10.237   0.356  1.00  0.00     0.091 A 
ATOM     62  F   UNL     1     -12.245   9.089  -1.016  1.00  0.00    -0.205 F 
ATOM     63  C   UNL     1     -14.080  11.153   1.390  1.00  0.00     0.022 A 
BRANCH  61  64
ATOM     64  S   UNL     1     -15.251   9.454  -0.407  1.00  0.00     0.127 S 
ATOM     65  O   UNL     1     -15.643   8.491   0.621  1.00  0.00    -0.237 OA
ATOM     66  O   UNL     1     -16.172  10.579  -0.571  1.00  0.00    -0.237 OA
ATOM     67  O   UNL     1     -14.770   8.879  -1.655  1.00  0.00    -0.744 OA
ENDBRANCH  61  64
ENDBRANCH  43  57
BRANCH  44  68
ATOM     68  C   UNL     1      -2.080   8.901  -2.411  1.00  0.00     0.023 A 
ATOM     69  C   UNL     1      -1.157   9.953  -2.572  1.00  0.00     0.012 A 
ATOM     70  C   UNL     1      -1.663   7.578  -2.656  1.00  0.00     0.148 A 
ATOM     71  C   UNL     1       0.149   9.696  -2.991  1.00  0.00     0.002 A 
ATOM     72  C   UNL     1      -0.345   7.325  -3.024  1.00  0.00     0.091 A 
ATOM     73  F   UNL     1      -2.559   6.592  -2.514  1.00  0.00    -0.205 F 
ATOM     74  C   UNL     1       0.558   8.383  -3.206  1.00  0.00     0.022 A 
BRANCH  72  75
ATOM     75  S   UNL     1       0.299   5.656  -3.195  1.00  0.00     0.127 S 
ATOM     76  O   UNL     1       0.411   5.525  -4.644  1.00  0.00    -0.237 OA
ATOM     77  O   UNL     1       1.575   5.748  -2.483  1.00  0.00    -0.237 OA
ATOM     78  O   UNL     1      -0.682   4.792  -2.551  1.00  0.00    -0.744 OA
ENDBRANCH  72  75
ENDBRANCH  44  68
BRANCH  56  79
ATOM     79  C   UNL     1      -7.491  12.267  -5.273  1.00  0.00     0.023 A 
ATOM     80  C   UNL     1      -7.680  11.475  -6.423  1.00  0.00     0.012 A 
ATOM     81  C   UNL     1      -7.591  13.668  -5.370  1.00  0.00     0.148 A 
ATOM     82  C   UNL     1      -7.944  12.070  -7.655  1.00  0.00     0.002 A 
ATOM     83  C   UNL     1      -7.898  14.252  -6.593  1.00  0.00     0.091 A 
ATOM     84  F   UNL     1      -7.392  14.402  -4.265  1.00  0.00    -0.205 F 
ATOM     85  C   UNL     1      -8.066  13.455  -7.738  1.00  0.00     0.022 A 
BRANCH  83  86
ATOM     86  S   UNL     1      -8.165  16.019  -6.780  1.00  0.00     0.127 S 
ATOM     87  O   UNL     1      -6.981  16.420  -7.537  1.00  0.00    -0.237 OA
ATOM     88  O   UNL     1      -9.417  16.065  -7.536  1.00  0.00    -0.237 OA
ATOM     89  O   UNL     1      -8.254  16.557  -5.429  1.00  0.00    -0.744 OA
ENDBRANCH  83  86
ENDBRANCH  56  79
ENDBRANCH  30  31
ENDBRANCH  22  25
ENDBRANCH  20  21
ENDBRANCH   1  20
TORSDOF 17
