REMARK SMILES Cc1c(Cc2nc(C(C)(C)C)cs2)cccc1C(=O)NCCCNC(=O)c1ccc(-c2c3nc(c(-c4cccc(S(=O)(=O)[O-])c4F)c4ccc([nH]4)c(-c4cccc(S(=O)(=O)[O-])c4F)c4nc(c(-c5cccc(S(=O)(=O)[O-])c5F)c5ccc2[nH]5)C=C4)C=C3)cc1
REMARK SMILES IDX 22 1 21 2 20 3 18 4 19 5 17 7 1 8 2 9 3 10 14 11 16 12 15 13
REMARK SMILES IDX 4 14 5 15 6 16 13 17 7 18 12 19 8 20 9 21 10 22 11 23 23 24
REMARK SMILES IDX 24 25 25 26 26 28 27 29 28 30 89 31 29 32 88 33 30 34 31 35
REMARK SMILES IDX 32 36 82 37 33 38 87 39 81 40 83 41 34 42 86 43 80 44 79 45
REMARK SMILES IDX 35 47 67 48 47 49 66 50 48 51 51 52 65 53 84 54 49 55 50 56
REMARK SMILES IDX 64 58 85 59 52 60 36 61 37 62 45 63 38 64 40 65 46 66 39 67
REMARK SMILES IDX 41 68 42 69 43 70 44 71 68 72 69 73 77 74 70 75 72 76 78 77
REMARK SMILES IDX 71 78 73 79 74 80 75 81 76 82 53 83 54 84 62 85 55 86 57 87
REMARK SMILES IDX 63 88 56 89 58 90 59 91 60 92 61 93
REMARK H PARENT 20 6 24 27 83 46 51 57
REMARK Flexibility Score: inf
ROOT
ATOM      1  C   UNL     1       4.214   0.840  -0.448  1.00  0.00     0.042 C 
ENDROOT
BRANCH   1   2
ATOM      2  C   UNL     1       3.218   1.479   0.520  1.00  0.00     0.118 C 
BRANCH   2   3
ATOM      3  N   UNL     1       2.240   2.323  -0.145  1.00  0.00    -0.352 N 
ATOM      4  C   UNL     1       0.914   2.136  -0.468  1.00  0.00     0.251 C 
ATOM      5  O   UNL     1       0.293   3.101  -0.916  1.00  0.00    -0.269 OA
ATOM      6  H   UNL     1       2.594   3.200  -0.418  1.00  0.00     0.163 HD
BRANCH   4   7
ATOM      7  C   UNL     1       0.152   0.870  -0.223  1.00  0.00     0.043 A 
ATOM      8  C   UNL     1       1.716  -0.716  -1.459  1.00  0.00     0.045 C 
ATOM      9  C   UNL     1       0.560  -0.440  -0.550  1.00  0.00    -0.035 A 
ATOM     10  C   UNL     1      -0.221  -1.543  -0.124  1.00  0.00    -0.037 A 
ATOM     11  C   UNL     1      -1.528  -1.312   0.335  1.00  0.00     0.004 A 
ATOM     12  C   UNL     1      -1.153   1.058   0.273  1.00  0.00     0.014 A 
ATOM     13  C   UNL     1      -2.005  -0.020   0.501  1.00  0.00     0.001 A 
BRANCH  10  14
ATOM     14  C   UNL     1       0.312  -2.972  -0.154  1.00  0.00     0.103 C 
BRANCH  14  15
ATOM     15  C   UNL     1       0.161  -3.645   1.182  1.00  0.00     0.097 A 
ATOM     16  N   UNL     1      -0.955  -4.219   1.575  1.00  0.00    -0.245 NA
ATOM     17  S   UNL     1       1.417  -3.619   2.352  1.00  0.00    -0.127 S 
ATOM     18  C   UNL     1      -0.896  -4.537   2.919  1.00  0.00     0.057 A 
ATOM     19  C   UNL     1       0.347  -4.327   3.492  1.00  0.00     0.091 A 
BRANCH  18  20
ATOM     20  C   UNL     1      -2.159  -5.048   3.587  1.00  0.00     0.005 C 
ATOM     21  C   UNL     1      -2.006  -6.539   3.929  1.00  0.00     0.017 C 
ATOM     22  C   UNL     1      -2.454  -4.250   4.871  1.00  0.00     0.017 C 
ATOM     23  C   UNL     1      -3.378  -4.885   2.648  1.00  0.00     0.017 C 
ENDBRANCH  18  20
ENDBRANCH  14  15
ENDBRANCH  10  14
ENDBRANCH   4   7
ENDBRANCH   2   3
ENDBRANCH   1   2
BRANCH   1  24
ATOM     24  C   UNL     1       5.536   1.554  -0.680  1.00  0.00     0.118 C 
BRANCH  24  25
ATOM     25  N   UNL     1       6.557   0.542  -1.011  1.00  0.00    -0.352 N 
ATOM     26  C   UNL     1       7.596   0.560  -1.921  1.00  0.00     0.251 C 
ATOM     27  H   UNL     1       6.485  -0.292  -0.492  1.00  0.00     0.163 HD
ATOM     28  O   UNL     1       8.317  -0.407  -2.087  1.00  0.00    -0.269 OA
BRANCH  26  29
ATOM     29  C   UNL     1       7.822   1.829  -2.626  1.00  0.00     0.039 A 
ATOM     30  C   UNL     1       8.771   2.680  -2.056  1.00  0.00     0.014 A 
ATOM     31  C   UNL     1       6.799   2.293  -3.450  1.00  0.00     0.014 A 
ATOM     32  C   UNL     1       8.532   4.044  -2.079  1.00  0.00     0.010 A 
ATOM     33  C   UNL     1       6.543   3.649  -3.437  1.00  0.00     0.010 A 
ATOM     34  C   UNL     1       7.353   4.498  -2.666  1.00  0.00    -0.014 A 
BRANCH  34  35
ATOM     35  C   UNL     1       6.881   5.862  -2.515  1.00  0.00     0.031 A 
ATOM     36  C   UNL     1       7.357   6.872  -3.468  1.00  0.00     0.074 A 
ATOM     37  C   UNL     1       6.031   6.212  -1.524  1.00  0.00     0.049 A 
ATOM     38  N   UNL     1       7.376   8.137  -3.235  1.00  0.00    -0.248 NA
ATOM     39  C   UNL     1       7.932   6.494  -4.749  1.00  0.00     0.031 C 
ATOM     40  C   UNL     1       5.274   7.453  -1.416  1.00  0.00     0.029 A 
ATOM     41  N   UNL     1       5.877   5.605  -0.275  1.00  0.00    -0.354 N 
ATOM     42  C   UNL     1       7.687   8.760  -4.422  1.00  0.00     0.074 A 
ATOM     43  C   UNL     1       8.136   7.697  -5.289  1.00  0.00     0.031 C 
ATOM     44  C   UNL     1       4.976   7.665  -0.126  1.00  0.00     0.029 A 
ATOM     45  C   UNL     1       5.667   6.651   0.648  1.00  0.00     0.049 A 
ATOM     46  H   UNL     1       5.909   4.641  -0.078  1.00  0.00     0.167 HD
ATOM     47  C   UNL     1       7.367  10.075  -4.570  1.00  0.00     0.034 A 
ATOM     48  C   UNL     1       6.450   6.877   1.744  1.00  0.00     0.034 A 
ATOM     49  C   UNL     1       6.899  10.656  -3.296  1.00  0.00     0.049 A 
ATOM     50  C   UNL     1       7.049   8.277   1.789  1.00  0.00     0.074 A 
ATOM     51  C   UNL     1       5.652  10.956  -2.770  1.00  0.00     0.029 A 
ATOM     52  N   UNL     1       7.790  10.753  -2.235  1.00  0.00    -0.354 N 
ATOM     53  N   UNL     1       6.838   9.215   0.907  1.00  0.00    -0.248 NA
ATOM     54  C   UNL     1       8.056   8.662   2.775  1.00  0.00     0.031 C 
ATOM     55  C   UNL     1       5.804  11.221  -1.376  1.00  0.00     0.029 A 
ATOM     56  C   UNL     1       7.144  11.105  -1.057  1.00  0.00     0.049 A 
ATOM     57  H   UNL     1       8.758  10.592  -2.309  1.00  0.00     0.167 HD
ATOM     58  C   UNL     1       7.773  10.214   1.069  1.00  0.00     0.074 A 
ATOM     59  C   UNL     1       8.501   9.820   2.264  1.00  0.00     0.031 C 
ATOM     60  C   UNL     1       7.934  11.236   0.165  1.00  0.00     0.034 A 
BRANCH  47  61
ATOM     61  C   UNL     1       7.170  10.756  -5.920  1.00  0.00     0.023 A 
ATOM     62  C   UNL     1       6.372  11.921  -5.947  1.00  0.00     0.012 A 
ATOM     63  C   UNL     1       7.620  10.299  -7.182  1.00  0.00     0.148 A 
ATOM     64  C   UNL     1       5.949  12.519  -7.140  1.00  0.00     0.002 A 
ATOM     65  C   UNL     1       7.140  10.844  -8.376  1.00  0.00     0.091 A 
ATOM     66  F   UNL     1       8.598   9.397  -7.256  1.00  0.00    -0.205 F 
ATOM     67  C   UNL     1       6.297  11.955  -8.358  1.00  0.00     0.022 A 
BRANCH  65  68
ATOM     68  S   UNL     1       7.499  10.112  -9.985  1.00  0.00     0.127 S 
ATOM     69  O   UNL     1       6.158   9.937 -10.548  1.00  0.00    -0.237 OA
ATOM     70  O   UNL     1       8.297  11.151 -10.632  1.00  0.00    -0.237 OA
ATOM     71  O   UNL     1       8.197   8.861  -9.718  1.00  0.00    -0.744 OA
ENDBRANCH  65  68
ENDBRANCH  47  61
BRANCH  48  72
ATOM     72  C   UNL     1       7.148   5.647   2.232  1.00  0.00     0.023 A 
ATOM     73  C   UNL     1       6.341   4.547   2.609  1.00  0.00     0.012 A 
ATOM     74  C   UNL     1       8.503   5.424   1.944  1.00  0.00     0.148 A 
ATOM     75  C   UNL     1       6.830   3.243   2.514  1.00  0.00     0.002 A 
ATOM     76  C   UNL     1       8.984   4.122   1.863  1.00  0.00     0.091 A 
ATOM     77  F   UNL     1       9.296   6.467   1.672  1.00  0.00    -0.205 F 
ATOM     78  C   UNL     1       8.138   3.029   2.088  1.00  0.00     0.022 A 
BRANCH  76  79
ATOM     79  S   UNL     1      10.677   3.829   1.347  1.00  0.00     0.127 S 
ATOM     80  O   UNL     1      11.394   3.968   2.609  1.00  0.00    -0.237 OA
ATOM     81  O   UNL     1      10.618   2.467   0.817  1.00  0.00    -0.237 OA
ATOM     82  O   UNL     1      10.921   4.850   0.338  1.00  0.00    -0.744 OA
ENDBRANCH  76  79
ENDBRANCH  48  72
BRANCH  60  83
ATOM     83  C   UNL     1       8.909  12.407   0.311  1.00  0.00     0.023 A 
ATOM     84  C   UNL     1       9.495  12.750   1.546  1.00  0.00     0.012 A 
ATOM     85  C   UNL     1       9.220  13.272  -0.775  1.00  0.00     0.148 A 
ATOM     86  C   UNL     1      10.448  13.770   1.671  1.00  0.00     0.002 A 
ATOM     87  C   UNL     1      10.143  14.309  -0.645  1.00  0.00     0.091 A 
ATOM     88  F   UNL     1       8.576  13.138  -1.940  1.00  0.00    -0.205 F 
ATOM     89  C   UNL     1      10.789  14.536   0.570  1.00  0.00     0.022 A 
BRANCH  87  90
ATOM     90  S   UNL     1      10.532  15.433  -1.995  1.00  0.00     0.127 S 
ATOM     91  O   UNL     1       9.908  16.672  -1.531  1.00  0.00    -0.237 OA
ATOM     92  O   UNL     1      11.995  15.442  -1.970  1.00  0.00    -0.237 OA
ATOM     93  O   UNL     1       9.948  14.850  -3.194  1.00  0.00    -0.744 OA
ENDBRANCH  87  90
ENDBRANCH  60  83
ENDBRANCH  34  35
ENDBRANCH  26  29
ENDBRANCH  24  25
ENDBRANCH   1  24
TORSDOF 16
