REMARK SMILES CC(C)c1noc(C[N@H+]2CCCC[C@H]2C(=O)NCCCNC(=O)c2ccc(-c3c4nc(c(-c5cccc(S(=O)(=O)[O-])c5F)c5ccc([nH]5)c(-c5cccc(S(=O)(=O)[O-])c5F)c5nc(c(-c6cccc(S(=O)(=O)[O-])c6F)c6ccc3[nH]6)C=C5)C=C4)cc2)n1
REMARK SMILES IDX 19 1 18 2 17 3 15 4 16 5 14 7 9 8 10 9 11 11 13 12 12 13
REMARK SMILES IDX 8 14 7 15 4 16 5 17 87 18 6 19 2 20 1 21 3 22 20 23 21 24
REMARK SMILES IDX 22 25 23 27 24 28 25 29 86 30 26 31 85 32 27 33 28 34 29 35
REMARK SMILES IDX 79 36 30 37 84 38 78 39 80 40 31 41 83 42 77 43 76 44 32 46
REMARK SMILES IDX 64 47 44 48 63 49 45 50 48 51 62 52 81 53 46 54 47 55 61 57
REMARK SMILES IDX 82 58 49 59 33 60 34 61 42 62 35 63 37 64 43 65 36 66 38 67
REMARK SMILES IDX 39 68 40 69 41 70 65 71 66 72 74 73 67 74 69 75 75 76 68 77
REMARK SMILES IDX 70 78 71 79 72 80 73 81 50 82 51 83 59 84 52 85 54 86 60 87
REMARK SMILES IDX 53 88 55 89 56 90 57 91 58 92
REMARK H PARENT 17 6 9 10 21 26 80 45 48 56
REMARK Flexibility Score: inf
ROOT
ATOM      1  C   UNL     1      -5.349   5.564   1.359  1.00  0.00     0.042 C 
ENDROOT
BRANCH   1   2
ATOM      2  C   UNL     1      -5.217   4.496   0.273  1.00  0.00     0.118 C 
BRANCH   2   3
ATOM      3  N   UNL     1      -4.093   3.628   0.553  1.00  0.00    -0.351 N 
ATOM      4  C   UNL     1      -4.085   2.407   1.156  1.00  0.00     0.278 C 
ATOM      5  O   UNL     1      -3.062   2.103   1.771  1.00  0.00    -0.268 OA
ATOM      6  H   UNL     1      -3.213   3.967   0.268  1.00  0.00     0.163 HD
BRANCH   4   7
ATOM      7  C   UNL     1      -5.308   1.471   0.984  1.00  0.00     0.274 C 
ATOM      8  N   UNL     1      -4.951   0.037   0.817  1.00  0.00    -0.317 N 
ATOM      9  C   UNL     1      -4.325  -0.559   2.000  1.00  0.00     0.263 C 
ATOM     10  H   UNL     1      -5.856  -0.425   0.728  1.00  0.00     0.349 HD
ATOM     11  C   UNL     1      -5.201  -0.383   3.246  1.00  0.00     0.062 C 
ATOM     12  C   UNL     1      -6.268   1.624   2.168  1.00  0.00     0.076 C 
ATOM     13  C   UNL     1      -5.677   1.052   3.453  1.00  0.00     0.012 C 
BRANCH   8  14
ATOM     14  C   UNL     1      -4.264  -0.296  -0.448  1.00  0.00     0.364 C 
BRANCH  14  15
ATOM     15  C   UNL     1      -2.945   0.342  -0.721  1.00  0.00     0.281 A 
ATOM     16  C   UNL     1      -0.975   1.034  -0.844  1.00  0.00     0.174 A 
ATOM     17  N   UNL     1      -1.667   1.952  -1.538  1.00  0.00    -0.062 NA
ATOM     18  N   UNL     1      -1.730  -0.008  -0.360  1.00  0.00    -0.191 NA
ATOM     19  O   UNL     1      -2.975   1.481  -1.474  1.00  0.00    -0.333 OA
BRANCH  16  20
ATOM     20  C   UNL     1       0.501   1.156  -0.621  1.00  0.00     0.055 C 
ATOM     21  C   UNL     1       1.105  -0.107  -0.004  1.00  0.00     0.016 C 
ATOM     22  C   UNL     1       1.241   1.497  -1.919  1.00  0.00     0.016 C 
ENDBRANCH  16  20
ENDBRANCH  14  15
ENDBRANCH   8  14
ENDBRANCH   4   7
ENDBRANCH   2   3
ENDBRANCH   1   2
BRANCH   1  23
ATOM     23  C   UNL     1      -4.092   6.407   1.577  1.00  0.00     0.118 C 
BRANCH  23  24
ATOM     24  N   UNL     1      -3.685   7.143   0.389  1.00  0.00    -0.352 N 
ATOM     25  C   UNL     1      -3.389   8.475   0.244  1.00  0.00     0.251 C 
ATOM     26  H   UNL     1      -3.610   6.605  -0.433  1.00  0.00     0.163 HD
ATOM     27  O   UNL     1      -3.210   8.937  -0.882  1.00  0.00    -0.269 OA
BRANCH  25  28
ATOM     28  C   UNL     1      -3.313   9.362   1.427  1.00  0.00     0.039 A 
ATOM     29  C   UNL     1      -3.918  10.619   1.361  1.00  0.00     0.014 A 
ATOM     30  C   UNL     1      -2.644   8.969   2.590  1.00  0.00     0.014 A 
ATOM     31  C   UNL     1      -3.909  11.454   2.481  1.00  0.00     0.010 A 
ATOM     32  C   UNL     1      -2.699   9.773   3.728  1.00  0.00     0.010 A 
ATOM     33  C   UNL     1      -3.333  11.024   3.688  1.00  0.00    -0.014 A 
BRANCH  33  34
ATOM     34  C   UNL     1      -3.420  11.859   4.917  1.00  0.00     0.031 A 
ATOM     35  C   UNL     1      -2.174  12.382   5.582  1.00  0.00     0.074 A 
ATOM     36  C   UNL     1      -4.625  12.093   5.474  1.00  0.00     0.049 A 
ATOM     37  N   UNL     1      -2.061  13.095   6.673  1.00  0.00    -0.248 NA
ATOM     38  C   UNL     1      -0.886  12.047   4.952  1.00  0.00     0.031 C 
ATOM     39  C   UNL     1      -5.904  11.583   4.971  1.00  0.00     0.029 A 
ATOM     40  N   UNL     1      -4.974  12.800   6.599  1.00  0.00    -0.354 N 
ATOM     41  C   UNL     1      -0.697  13.272   6.876  1.00  0.00     0.074 A 
ATOM     42  C   UNL     1      -0.019  12.563   5.813  1.00  0.00     0.031 C 
ATOM     43  C   UNL     1      -6.893  11.997   5.779  1.00  0.00     0.029 A 
ATOM     44  C   UNL     1      -6.322  12.771   6.876  1.00  0.00     0.049 A 
ATOM     45  H   UNL     1      -4.320  13.282   7.156  1.00  0.00     0.167 HD
ATOM     46  C   UNL     1      -0.066  13.983   7.841  1.00  0.00     0.034 A 
ATOM     47  C   UNL     1      -7.019  13.296   7.902  1.00  0.00     0.034 A 
ATOM     48  C   UNL     1      -0.741  14.713   8.882  1.00  0.00     0.049 A 
ATOM     49  C   UNL     1      -6.291  14.093   8.951  1.00  0.00     0.074 A 
ATOM     50  C   UNL     1      -0.189  15.521   9.861  1.00  0.00     0.029 A 
ATOM     51  N   UNL     1      -2.111  14.718   9.087  1.00  0.00    -0.354 N 
ATOM     52  N   UNL     1      -5.014  14.375   9.036  1.00  0.00    -0.248 NA
ATOM     53  C   UNL     1      -7.106  14.675  10.028  1.00  0.00     0.031 C 
ATOM     54  C   UNL     1      -1.224  15.989  10.677  1.00  0.00     0.029 A 
ATOM     55  C   UNL     1      -2.423  15.506  10.182  1.00  0.00     0.049 A 
ATOM     56  H   UNL     1      -2.767  14.233   8.535  1.00  0.00     0.167 HD
ATOM     57  C   UNL     1      -4.879  15.200  10.147  1.00  0.00     0.074 A 
ATOM     58  C   UNL     1      -6.207  15.392  10.689  1.00  0.00     0.031 C 
ATOM     59  C   UNL     1      -3.754  15.737  10.681  1.00  0.00     0.034 A 
BRANCH  46  60
ATOM     60  C   UNL     1       1.439  14.057   7.794  1.00  0.00     0.023 A 
ATOM     61  C   UNL     1       2.065  14.819   6.786  1.00  0.00     0.012 A 
ATOM     62  C   UNL     1       2.228  13.451   8.791  1.00  0.00     0.148 A 
ATOM     63  C   UNL     1       3.452  14.954   6.754  1.00  0.00     0.002 A 
ATOM     64  C   UNL     1       3.607  13.628   8.780  1.00  0.00     0.091 A 
ATOM     65  F   UNL     1       1.616  12.718   9.732  1.00  0.00    -0.205 F 
ATOM     66  C   UNL     1       4.221  14.369   7.756  1.00  0.00     0.022 A 
BRANCH  64  67
ATOM     67  S   UNL     1       4.682  12.987  10.069  1.00  0.00     0.127 S 
ATOM     68  O   UNL     1       5.459  11.988   9.335  1.00  0.00    -0.237 OA
ATOM     69  O   UNL     1       5.435  14.178  10.459  1.00  0.00    -0.237 OA
ATOM     70  O   UNL     1       3.803  12.454  11.100  1.00  0.00    -0.744 OA
ENDBRANCH  64  67
ENDBRANCH  46  60
BRANCH  47  71
ATOM     71  C   UNL     1      -8.499  13.125   7.974  1.00  0.00     0.023 A 
ATOM     72  C   UNL     1      -9.337  14.248   7.823  1.00  0.00     0.012 A 
ATOM     73  C   UNL     1      -9.081  11.863   8.202  1.00  0.00     0.148 A 
ATOM     74  C   UNL     1     -10.722  14.126   7.946  1.00  0.00     0.002 A 
ATOM     75  C   UNL     1     -10.463  11.738   8.262  1.00  0.00     0.091 A 
ATOM     76  F   UNL     1      -8.268  10.808   8.355  1.00  0.00    -0.205 F 
ATOM     77  C   UNL     1     -11.285  12.870   8.157  1.00  0.00     0.022 A 
BRANCH  75  78
ATOM     78  S   UNL     1     -11.277  10.143   8.398  1.00  0.00     0.127 S 
ATOM     79  O   UNL     1     -11.772  10.175   9.772  1.00  0.00    -0.237 OA
ATOM     80  O   UNL     1     -12.311  10.241   7.367  1.00  0.00    -0.237 OA
ATOM     81  O   UNL     1     -10.246   9.152   8.117  1.00  0.00    -0.744 OA
ENDBRANCH  75  78
ENDBRANCH  47  71
BRANCH  59  82
ATOM     82  C   UNL     1      -3.909  16.628  11.886  1.00  0.00     0.023 A 
ATOM     83  C   UNL     1      -4.266  16.076  13.132  1.00  0.00     0.012 A 
ATOM     84  C   UNL     1      -3.641  18.009  11.794  1.00  0.00     0.148 A 
ATOM     85  C   UNL     1      -4.395  16.890  14.258  1.00  0.00     0.002 A 
ATOM     86  C   UNL     1      -3.718  18.804  12.931  1.00  0.00     0.091 A 
ATOM     87  F   UNL     1      -3.318  18.519  10.597  1.00  0.00    -0.205 F 
ATOM     88  C   UNL     1      -4.109  18.250  14.160  1.00  0.00     0.022 A 
BRANCH  86  89
ATOM     89  S   UNL     1      -3.274  20.545  12.922  1.00  0.00     0.127 S 
ATOM     90  O   UNL     1      -4.578  21.185  13.083  1.00  0.00    -0.237 OA
ATOM     91  O   UNL     1      -2.397  20.645  14.089  1.00  0.00    -0.237 OA
ATOM     92  O   UNL     1      -2.614  20.786  11.646  1.00  0.00    -0.744 OA
ENDBRANCH  86  89
ENDBRANCH  59  82
ENDBRANCH  33  34
ENDBRANCH  25  28
ENDBRANCH  23  24
ENDBRANCH   1  23
TORSDOF 16
