REMARK SMILES C[C@@H](C(=O)NCCCNC(=O)c1ccc(-c2c3nc(c(-c4cccc(S(=O)(=O)[O-])c4F)c4ccc([nH]4)c(-c4cccc(S(=O)(=O)[O-])c4F)c4nc(c(-c5cccc(S(=O)(=O)[O-])c5F)c5ccc2[nH]5)C=C4)C=C3)cc1)[C@H]1CCOC2(CCCCC2)C1
REMARK SMILES IDX 8 1 7 2 6 3 5 4 3 5 4 6 2 8 1 9 75 10 76 11 85 12 77 13
REMARK SMILES IDX 79 14 78 15 80 16 84 17 81 18 83 19 82 20 9 21 10 22 11 24
REMARK SMILES IDX 12 25 13 26 74 27 14 28 73 29 15 30 16 31 17 32 67 33 18 34
REMARK SMILES IDX 72 35 66 36 68 37 19 38 71 39 65 40 64 41 20 43 52 44 32 45
REMARK SMILES IDX 51 46 33 47 36 48 50 49 69 50 34 51 35 52 49 54 70 55 37 56
REMARK SMILES IDX 21 57 22 58 30 59 23 60 25 61 31 62 24 63 26 64 27 65 28 66
REMARK SMILES IDX 29 67 53 68 54 69 62 70 55 71 57 72 63 73 56 74 58 75 59 76
REMARK SMILES IDX 60 77 61 78 38 79 39 80 47 81 40 82 42 83 48 84 41 85 43 86
REMARK SMILES IDX 44 87 45 88 46 89
REMARK H PARENT 5 7 9 23 68 42 36 53
REMARK Flexibility Score: inf
ROOT
ATOM      1  C   UNL     1      -1.097   3.476  -5.264  1.00  0.00     0.118 C 
ENDROOT
BRANCH   1   2
ATOM      2  C   UNL     1      -1.311   4.044  -3.862  1.00  0.00     0.042 C 
BRANCH   2   3
ATOM      3  C   UNL     1      -2.352   3.287  -3.035  1.00  0.00     0.117 C 
BRANCH   3   4
ATOM      4  N   UNL     1      -1.941   1.911  -2.830  1.00  0.00    -0.356 N 
ATOM      5  C   UNL     1      -1.256   1.356  -1.791  1.00  0.00     0.223 C 
ATOM      6  O   UNL     1      -0.656   0.307  -2.020  1.00  0.00    -0.275 OA
ATOM      7  H   UNL     1      -2.195   1.286  -3.547  1.00  0.00     0.163 HD
BRANCH   5   8
ATOM      8  C   UNL     1      -1.272   2.039  -0.420  1.00  0.00     0.078 C 
ATOM      9  C   UNL     1      -0.259   3.197  -0.427  1.00  0.00     0.018 C 
BRANCH   8  10
ATOM     10  C   UNL     1      -0.926   1.096   0.773  1.00  0.00     0.006 C 
ATOM     11  C   UNL     1      -1.435   1.688   2.105  1.00  0.00     0.033 C 
ATOM     12  C   UNL     1      -1.462  -0.348   0.707  1.00  0.00     0.040 C 
ATOM     13  C   UNL     1      -1.064   0.811   3.296  1.00  0.00     0.161 C 
ATOM     14  C   UNL     1      -0.983  -1.173   1.925  1.00  0.00     0.069 C 
ATOM     15  O   UNL     1      -1.465  -0.546   3.125  1.00  0.00    -0.375 OA
ATOM     16  C   UNL     1       0.559  -1.335   1.939  1.00  0.00     0.035 C 
ATOM     17  C   UNL     1      -1.624  -2.579   1.864  1.00  0.00     0.035 C 
ATOM     18  C   UNL     1       1.044  -2.237   3.070  1.00  0.00     0.003 C 
ATOM     19  C   UNL     1      -1.123  -3.509   2.972  1.00  0.00     0.003 C 
ATOM     20  C   UNL     1       0.398  -3.612   2.988  1.00  0.00     0.000 C 
ENDBRANCH   8  10
ENDBRANCH   5   8
ENDBRANCH   3   4
ENDBRANCH   2   3
ENDBRANCH   1   2
BRANCH   1  21
ATOM     21  N   UNL     1      -2.292   3.572  -6.092  1.00  0.00    -0.352 N 
ATOM     22  C   UNL     1      -2.484   4.241  -7.274  1.00  0.00     0.251 C 
ATOM     23  H   UNL     1      -3.078   3.085  -5.753  1.00  0.00     0.163 HD
ATOM     24  O   UNL     1      -3.622   4.373  -7.721  1.00  0.00    -0.269 OA
BRANCH  22  25
ATOM     25  C   UNL     1      -1.332   4.820  -7.997  1.00  0.00     0.039 A 
ATOM     26  C   UNL     1      -1.429   6.123  -8.492  1.00  0.00     0.014 A 
ATOM     27  C   UNL     1      -0.159   4.083  -8.186  1.00  0.00     0.014 A 
ATOM     28  C   UNL     1      -0.324   6.715  -9.107  1.00  0.00     0.010 A 
ATOM     29  C   UNL     1       0.962   4.698  -8.737  1.00  0.00     0.010 A 
ATOM     30  C   UNL     1       0.895   6.023  -9.195  1.00  0.00    -0.014 A 
BRANCH  30  31
ATOM     31  C   UNL     1       2.125   6.682  -9.709  1.00  0.00     0.031 A 
ATOM     32  C   UNL     1       2.817   6.156 -10.937  1.00  0.00     0.074 A 
ATOM     33  C   UNL     1       2.682   7.684  -8.998  1.00  0.00     0.049 A 
ATOM     34  N   UNL     1       3.946   6.542 -11.472  1.00  0.00    -0.248 NA
ATOM     35  C   UNL     1       2.169   5.039 -11.645  1.00  0.00     0.031 C 
ATOM     36  C   UNL     1       2.146   8.234  -7.750  1.00  0.00     0.029 A 
ATOM     37  N   UNL     1       3.842   8.392  -9.198  1.00  0.00    -0.354 N 
ATOM     38  C   UNL     1       4.170   5.688 -12.546  1.00  0.00     0.074 A 
ATOM     39  C   UNL     1       3.063   4.757 -12.583  1.00  0.00     0.031 C 
ATOM     40  C   UNL     1       2.979   9.181  -7.290  1.00  0.00     0.029 A 
ATOM     41  C   UNL     1       4.129   9.278  -8.184  1.00  0.00     0.049 A 
ATOM     42  H   UNL     1       4.414   8.277  -9.991  1.00  0.00     0.167 HD
ATOM     43  C   UNL     1       5.198   5.689 -13.427  1.00  0.00     0.034 A 
ATOM     44  C   UNL     1       5.208  10.059  -7.978  1.00  0.00     0.034 A 
ATOM     45  C   UNL     1       6.272   6.645 -13.412  1.00  0.00     0.049 A 
ATOM     46  C   UNL     1       6.324  10.049  -8.988  1.00  0.00     0.074 A 
ATOM     47  C   UNL     1       7.289   6.804 -14.338  1.00  0.00     0.029 A 
ATOM     48  N   UNL     1       6.488   7.582 -12.415  1.00  0.00    -0.354 N 
ATOM     49  N   UNL     1       6.418   9.370 -10.105  1.00  0.00    -0.248 NA
ATOM     50  C   UNL     1       7.470  10.932  -8.726  1.00  0.00     0.031 C 
ATOM     51  C   UNL     1       8.147   7.806 -13.876  1.00  0.00     0.029 A 
ATOM     52  C   UNL     1       7.642   8.298 -12.683  1.00  0.00     0.049 A 
ATOM     53  H   UNL     1       5.907   7.718 -11.632  1.00  0.00     0.167 HD
ATOM     54  C   UNL     1       7.615   9.765 -10.691  1.00  0.00     0.074 A 
ATOM     55  C   UNL     1       8.199  10.763  -9.820  1.00  0.00     0.031 C 
ATOM     56  C   UNL     1       8.189   9.326 -11.838  1.00  0.00     0.034 A 
BRANCH  43  57
ATOM     57  C   UNL     1       5.211   4.645 -14.511  1.00  0.00     0.023 A 
ATOM     58  C   UNL     1       4.310   4.742 -15.590  1.00  0.00     0.012 A 
ATOM     59  C   UNL     1       6.190   3.631 -14.514  1.00  0.00     0.148 A 
ATOM     60  C   UNL     1       4.370   3.833 -16.646  1.00  0.00     0.002 A 
ATOM     61  C   UNL     1       6.272   2.758 -15.591  1.00  0.00     0.091 A 
ATOM     62  F   UNL     1       7.025   3.548 -13.469  1.00  0.00    -0.205 F 
ATOM     63  C   UNL     1       5.358   2.851 -16.652  1.00  0.00     0.022 A 
BRANCH  61  64
ATOM     64  S   UNL     1       7.560   1.513 -15.735  1.00  0.00     0.127 S 
ATOM     65  O   UNL     1       6.788   0.277 -15.619  1.00  0.00    -0.237 OA
ATOM     66  O   UNL     1       8.090   1.777 -17.073  1.00  0.00    -0.237 OA
ATOM     67  O   UNL     1       8.492   1.768 -14.647  1.00  0.00    -0.744 OA
ENDBRANCH  61  64
ENDBRANCH  43  57
BRANCH  44  68
ATOM     68  C   UNL     1       5.286  10.933  -6.772  1.00  0.00     0.023 A 
ATOM     69  C   UNL     1       5.253  12.333  -6.924  1.00  0.00     0.012 A 
ATOM     70  C   UNL     1       5.399  10.388  -5.478  1.00  0.00     0.148 A 
ATOM     71  C   UNL     1       5.376  13.173  -5.816  1.00  0.00     0.002 A 
ATOM     72  C   UNL     1       5.459  11.229  -4.373  1.00  0.00     0.091 A 
ATOM     73  F   UNL     1       5.443   9.054  -5.352  1.00  0.00    -0.205 F 
ATOM     74  C   UNL     1       5.470  12.622  -4.541  1.00  0.00     0.022 A 
BRANCH  72  75
ATOM     75  S   UNL     1       5.443  10.603  -2.690  1.00  0.00     0.127 S 
ATOM     76  O   UNL     1       6.822  10.834  -2.271  1.00  0.00    -0.237 OA
ATOM     77  O   UNL     1       4.451  11.470  -2.053  1.00  0.00    -0.237 OA
ATOM     78  O   UNL     1       5.034   9.208  -2.795  1.00  0.00    -0.744 OA
ENDBRANCH  72  75
ENDBRANCH  44  68
BRANCH  56  79
ATOM     79  C   UNL     1       9.503   9.938 -12.248  1.00  0.00     0.023 A 
ATOM     80  C   UNL     1      10.678   9.610 -11.544  1.00  0.00     0.012 A 
ATOM     81  C   UNL     1       9.585  10.762 -13.388  1.00  0.00     0.148 A 
ATOM     82  C   UNL     1      11.912  10.113 -11.954  1.00  0.00     0.002 A 
ATOM     83  C   UNL     1      10.824  11.217 -13.821  1.00  0.00     0.091 A 
ATOM     84  F   UNL     1       8.452  11.072 -14.035  1.00  0.00    -0.205 F 
ATOM     85  C   UNL     1      11.987  10.904 -13.098  1.00  0.00     0.022 A 
BRANCH  83  86
ATOM     86  S   UNL     1      11.034  12.159 -15.336  1.00  0.00     0.127 S 
ATOM     87  O   UNL     1      11.466  13.458 -14.822  1.00  0.00    -0.237 OA
ATOM     88  O   UNL     1      12.076  11.400 -16.028  1.00  0.00    -0.237 OA
ATOM     89  O   UNL     1       9.737  12.155 -15.998  1.00  0.00    -0.744 OA
ENDBRANCH  83  86
ENDBRANCH  56  79
ENDBRANCH  30  31
ENDBRANCH  22  25
ENDBRANCH   1  21
TORSDOF 14
