REMARK SMILES COc1ccc(Br)cc1S(=O)(=O)N(C)CC(=O)NCCCNC(=O)c1ccc(-c2c3nc(c(-c4cccc(S(=O)(=O)[O-])c4F)c4ccc([nH]4)c(-c4cccc(S(=O)(=O)[O-])c4F)c4nc(c(-c5cccc(S(=O)(=O)[O-])c5F)c5ccc2[nH]5)C=C4)C=C3)cc1
REMARK SMILES IDX 19 1 18 2 16 3 17 4 15 6 13 7 14 8 10 9 11 10 12 11 9 12
REMARK SMILES IDX 3 13 4 14 5 15 8 16 6 17 7 18 2 19 1 20 20 21 21 22 22 23
REMARK SMILES IDX 23 24 24 26 25 27 26 28 87 29 27 30 86 31 28 32 29 33 30 34
REMARK SMILES IDX 80 35 31 36 85 37 79 38 81 39 32 40 84 41 78 42 77 43 33 45
REMARK SMILES IDX 65 46 45 47 64 48 46 49 49 50 63 51 82 52 47 53 48 54 62 56
REMARK SMILES IDX 83 57 50 58 34 59 35 60 43 61 36 62 38 63 44 64 37 65 39 66
REMARK SMILES IDX 40 67 41 68 42 69 66 70 67 71 75 72 68 73 70 74 76 75 69 76
REMARK SMILES IDX 71 77 72 78 73 79 74 80 51 81 52 82 60 83 53 84 55 85 61 86
REMARK SMILES IDX 54 87 56 88 57 89 58 90 59 91
REMARK H PARENT 18 5 22 25 81 44 49 55
REMARK Flexibility Score: inf
ROOT
ATOM      1  C   UNL     1      -4.127  -1.145   0.796  1.00  0.00     0.117 C 
ENDROOT
BRANCH   1   2
ATOM      2  N   UNL     1      -4.555   0.133   1.337  1.00  0.00    -0.355 N 
ATOM      3  C   UNL     1      -4.218   1.416   1.003  1.00  0.00     0.235 C 
ATOM      4  O   UNL     1      -4.844   2.319   1.567  1.00  0.00    -0.274 OA
ATOM      5  H   UNL     1      -5.203   0.063   2.075  1.00  0.00     0.163 HD
BRANCH   3   6
ATOM      6  C   UNL     1      -3.163   1.734  -0.061  1.00  0.00     0.202 C 
BRANCH   6   7
ATOM      7  N   UNL     1      -1.716   1.740   0.336  1.00  0.00    -0.191 NA
ATOM      8  C   UNL     1      -1.077   0.436   0.156  1.00  0.00     0.125 C 
BRANCH   7   9
ATOM      9  S   UNL     1      -1.421   2.614   1.765  1.00  0.00     0.247 S 
ATOM     10  O   UNL     1      -2.030   1.830   2.826  1.00  0.00    -0.207 OA
ATOM     11  O   UNL     1      -1.847   3.974   1.513  1.00  0.00    -0.207 OA
BRANCH   9  12
ATOM     12  C   UNL     1       0.302   2.711   2.210  1.00  0.00     0.125 A 
ATOM     13  C   UNL     1       1.403   2.301   1.452  1.00  0.00     0.138 A 
ATOM     14  C   UNL     1       2.677   2.320   2.054  1.00  0.00     0.049 A 
ATOM     15  C   UNL     1       2.858   2.741   3.374  1.00  0.00     0.019 A 
ATOM     16  C   UNL     1       0.501   3.175   3.531  1.00  0.00     0.041 A 
ATOM     17  C   UNL     1       1.768   3.188   4.102  1.00  0.00     0.019 A 
ATOM     18  Br  UNL     1       2.001   3.804   5.872  1.00  0.00    -0.051 Br
BRANCH  13  19
ATOM     19  O   UNL     1       1.256   1.953   0.140  1.00  0.00    -0.495 OA
ATOM     20  C   UNL     1       2.164   0.950  -0.332  1.00  0.00     0.278 C 
ENDBRANCH  13  19
ENDBRANCH   9  12
ENDBRANCH   7   9
ENDBRANCH   6   7
ENDBRANCH   3   6
ENDBRANCH   1   2
BRANCH   1  21
ATOM     21  C   UNL     1      -3.021  -1.792   1.630  1.00  0.00     0.042 C 
BRANCH  21  22
ATOM     22  C   UNL     1      -3.510  -2.549   2.858  1.00  0.00     0.118 C 
BRANCH  22  23
ATOM     23  N   UNL     1      -3.991  -3.881   2.526  1.00  0.00    -0.352 N 
ATOM     24  C   UNL     1      -3.507  -5.124   2.864  1.00  0.00     0.251 C 
ATOM     25  H   UNL     1      -4.800  -3.896   1.965  1.00  0.00     0.163 HD
ATOM     26  O   UNL     1      -3.971  -6.106   2.284  1.00  0.00    -0.269 OA
BRANCH  24  27
ATOM     27  C   UNL     1      -2.447  -5.314   3.889  1.00  0.00     0.039 A 
ATOM     28  C   UNL     1      -1.542  -6.372   3.725  1.00  0.00     0.014 A 
ATOM     29  C   UNL     1      -2.374  -4.534   5.045  1.00  0.00     0.014 A 
ATOM     30  C   UNL     1      -0.555  -6.618   4.689  1.00  0.00     0.010 A 
ATOM     31  C   UNL     1      -1.341  -4.729   5.965  1.00  0.00     0.010 A 
ATOM     32  C   UNL     1      -0.433  -5.787   5.812  1.00  0.00    -0.014 A 
BRANCH  32  33
ATOM     33  C   UNL     1       0.608  -6.027   6.849  1.00  0.00     0.031 A 
ATOM     34  C   UNL     1       0.212  -6.378   8.261  1.00  0.00     0.074 A 
ATOM     35  C   UNL     1       1.911  -5.857   6.548  1.00  0.00     0.049 A 
ATOM     36  N   UNL     1       0.973  -6.570   9.308  1.00  0.00    -0.248 NA
ATOM     37  C   UNL     1      -1.228  -6.503   8.539  1.00  0.00     0.031 C 
ATOM     38  C   UNL     1       2.430  -5.442   5.244  1.00  0.00     0.029 A 
ATOM     39  N   UNL     1       3.036  -5.985   7.327  1.00  0.00    -0.354 N 
ATOM     40  C   UNL     1       0.107  -6.793  10.373  1.00  0.00     0.074 A 
ATOM     41  C   UNL     1      -1.238  -6.687   9.851  1.00  0.00     0.031 C 
ATOM     42  C   UNL     1       3.769  -5.350   5.313  1.00  0.00     0.029 A 
ATOM     43  C   UNL     1       4.204  -5.680   6.668  1.00  0.00     0.049 A 
ATOM     44  H   UNL     1       3.008  -6.268   8.270  1.00  0.00     0.167 HD
ATOM     45  C   UNL     1       0.399  -7.095  11.661  1.00  0.00     0.034 A 
ATOM     46  C   UNL     1       5.481  -5.669   7.100  1.00  0.00     0.034 A 
ATOM     47  C   UNL     1       1.732  -7.277  12.168  1.00  0.00     0.049 A 
ATOM     48  C   UNL     1       5.784  -6.085   8.515  1.00  0.00     0.074 A 
ATOM     49  C   UNL     1       2.124  -7.686  13.431  1.00  0.00     0.029 A 
ATOM     50  N   UNL     1       2.891  -7.069  11.437  1.00  0.00    -0.354 N 
ATOM     51  N   UNL     1       4.955  -6.460   9.459  1.00  0.00    -0.248 NA
ATOM     52  C   UNL     1       7.199  -6.117   8.914  1.00  0.00     0.031 C 
ATOM     53  C   UNL     1       3.523  -7.726  13.463  1.00  0.00     0.029 A 
ATOM     54  C   UNL     1       4.000  -7.342  12.220  1.00  0.00     0.049 A 
ATOM     55  H   UNL     1       2.921  -6.772  10.499  1.00  0.00     0.167 HD
ATOM     56  C   UNL     1       5.747  -6.799  10.551  1.00  0.00     0.074 A 
ATOM     57  C   UNL     1       7.123  -6.608  10.144  1.00  0.00     0.031 C 
ATOM     58  C   UNL     1       5.366  -7.211  11.785  1.00  0.00     0.034 A 
BRANCH  45  59
ATOM     59  C   UNL     1      -0.754  -7.328  12.600  1.00  0.00     0.023 A 
ATOM     60  C   UNL     1      -1.485  -8.530  12.505  1.00  0.00     0.012 A 
ATOM     61  C   UNL     1      -1.083  -6.397  13.604  1.00  0.00     0.148 A 
ATOM     62  C   UNL     1      -2.544  -8.789  13.373  1.00  0.00     0.002 A 
ATOM     63  C   UNL     1      -2.119  -6.678  14.489  1.00  0.00     0.091 A 
ATOM     64  F   UNL     1      -0.396  -5.247  13.664  1.00  0.00    -0.205 F 
ATOM     65  C   UNL     1      -2.855  -7.869  14.370  1.00  0.00     0.022 A 
BRANCH  63  66
ATOM     66  S   UNL     1      -2.542  -5.582  15.848  1.00  0.00     0.127 S 
ATOM     67  O   UNL     1      -3.715  -4.890  15.316  1.00  0.00    -0.237 OA
ATOM     68  O   UNL     1      -2.830  -6.521  16.933  1.00  0.00    -0.237 OA
ATOM     69  O   UNL     1      -1.363  -4.755  16.067  1.00  0.00    -0.744 OA
ENDBRANCH  63  66
ENDBRANCH  45  59
BRANCH  46  70
ATOM     70  C   UNL     1       6.578  -5.343   6.145  1.00  0.00     0.023 A 
ATOM     71  C   UNL     1       7.422  -6.375   5.693  1.00  0.00     0.012 A 
ATOM     72  C   UNL     1       6.755  -4.041   5.638  1.00  0.00     0.148 A 
ATOM     73  C   UNL     1       8.437  -6.114   4.772  1.00  0.00     0.002 A 
ATOM     74  C   UNL     1       7.733  -3.798   4.679  1.00  0.00     0.091 A 
ATOM     75  F   UNL     1       5.957  -3.064   6.093  1.00  0.00    -0.205 F 
ATOM     76  C   UNL     1       8.584  -4.829   4.255  1.00  0.00     0.022 A 
BRANCH  74  77
ATOM     77  S   UNL     1       7.882  -2.205   3.858  1.00  0.00     0.127 S 
ATOM     78  O   UNL     1       9.001  -1.600   4.573  1.00  0.00    -0.237 OA
ATOM     79  O   UNL     1       8.169  -2.592   2.476  1.00  0.00    -0.237 OA
ATOM     80  O   UNL     1       6.586  -1.560   4.030  1.00  0.00    -0.744 OA
ENDBRANCH  74  77
ENDBRANCH  46  70
BRANCH  58  81
ATOM     81  C   UNL     1       6.447  -7.504  12.790  1.00  0.00     0.023 A 
ATOM     82  C   UNL     1       7.114  -6.434  13.418  1.00  0.00     0.012 A 
ATOM     83  C   UNL     1       6.744  -8.826  13.175  1.00  0.00     0.148 A 
ATOM     84  C   UNL     1       8.076  -6.676  14.398  1.00  0.00     0.002 A 
ATOM     85  C   UNL     1       7.677  -9.058  14.180  1.00  0.00     0.091 A 
ATOM     86  F   UNL     1       6.116  -9.833  12.551  1.00  0.00    -0.205 F 
ATOM     87  C   UNL     1       8.349  -7.985  14.787  1.00  0.00     0.022 A 
BRANCH  85  88
ATOM     88  S   UNL     1       8.019 -10.712  14.794  1.00  0.00     0.127 S 
ATOM     89  O   UNL     1       9.238 -11.056  14.065  1.00  0.00    -0.237 OA
ATOM     90  O   UNL     1       8.210 -10.487  16.227  1.00  0.00    -0.237 OA
ATOM     91  O   UNL     1       6.840 -11.502  14.466  1.00  0.00    -0.744 OA
ENDBRANCH  85  88
ENDBRANCH  58  81
ENDBRANCH  32  33
ENDBRANCH  24  27
ENDBRANCH  22  23
ENDBRANCH  21  22
ENDBRANCH   1  21
TORSDOF 17
