REMARK SMILES O=C(NCCCNC(=O)c1ccc(-n2nc(Cl)ccc2=O)cc1)c1ccc(-c2c3nc(c(-c4cccc(S(=O)(=O)[O-])c4F)c4ccc([nH]4)c(-c4cccc(S(=O)(=O)[O-])c4F)c4nc(c(-c5cccc(S(=O)(=O)[O-])c5F)c5ccc2[nH]5)C=C4)C=C3)cc1
REMARK SMILES IDX 4 1 3 2 1 3 2 4 24 6 25 7 86 8 26 9 85 10 27 11 28 12 29 13
REMARK SMILES IDX 79 14 30 15 84 16 78 17 80 18 31 19 83 20 77 21 76 22 32 24
REMARK SMILES IDX 64 25 44 26 63 27 45 28 48 29 62 30 81 31 46 32 47 33 61 35
REMARK SMILES IDX 82 36 49 37 33 38 34 39 42 40 35 41 37 42 43 43 36 44 38 45
REMARK SMILES IDX 39 46 40 47 41 48 65 49 66 50 74 51 67 52 69 53 75 54 68 55
REMARK SMILES IDX 70 56 71 57 72 58 73 59 50 60 51 61 59 62 52 63 54 64 60 65
REMARK SMILES IDX 53 66 55 67 56 68 57 69 58 70 5 71 6 72 7 73 8 74 9 76 10 77
REMARK SMILES IDX 11 78 23 79 12 80 22 81 13 82 14 83 15 84 20 85 16 86 19 87
REMARK SMILES IDX 21 88 17 89 18 90
REMARK H PARENT 3 5 80 23 48 34 7 75
REMARK Flexibility Score: inf
ROOT
ATOM      1  C   UNL     1       4.466  -1.271   0.381  1.00  0.00     0.118 C 
ENDROOT
BRANCH   1   2
ATOM      2  N   UNL     1       3.030  -1.114   0.193  1.00  0.00    -0.352 N 
ATOM      3  O   UNL     1       1.060  -0.055  -0.021  1.00  0.00    -0.269 OA
ATOM      4  C   UNL     1       2.286   0.008  -0.086  1.00  0.00     0.251 C 
ATOM      5  H   UNL     1       2.508  -1.944   0.279  1.00  0.00     0.163 HD
BRANCH   4   6
ATOM      6  C   UNL     1       2.950   1.284  -0.433  1.00  0.00     0.039 A 
ATOM      7  C   UNL     1       4.057   1.311  -1.282  1.00  0.00     0.014 A 
ATOM      8  C   UNL     1       2.441   2.479   0.084  1.00  0.00     0.014 A 
ATOM      9  C   UNL     1       4.755   2.498  -1.476  1.00  0.00     0.010 A 
ATOM     10  C   UNL     1       3.086   3.688  -0.194  1.00  0.00     0.010 A 
ATOM     11  C   UNL     1       4.272   3.704  -0.944  1.00  0.00    -0.014 A 
BRANCH  11  12
ATOM     12  C   UNL     1       4.987   4.973  -1.236  1.00  0.00     0.031 A 
ATOM     13  C   UNL     1       5.589   5.801  -0.134  1.00  0.00     0.074 A 
ATOM     14  C   UNL     1       5.083   5.383  -2.517  1.00  0.00     0.049 A 
ATOM     15  N   UNL     1       6.237   6.935  -0.218  1.00  0.00    -0.248 NA
ATOM     16  C   UNL     1       5.437   5.301   1.242  1.00  0.00     0.031 C 
ATOM     17  C   UNL     1       4.505   4.686  -3.669  1.00  0.00     0.029 A 
ATOM     18  N   UNL     1       5.688   6.485  -3.066  1.00  0.00    -0.354 N 
ATOM     19  C   UNL     1       6.533   7.306   1.088  1.00  0.00     0.074 A 
ATOM     20  C   UNL     1       5.986   6.279   1.949  1.00  0.00     0.031 C 
ATOM     21  C   UNL     1       4.798   5.364  -4.787  1.00  0.00     0.029 A 
ATOM     22  C   UNL     1       5.532   6.572  -4.429  1.00  0.00     0.049 A 
ATOM     23  H   UNL     1       6.186   7.148  -2.536  1.00  0.00     0.167 HD
ATOM     24  C   UNL     1       7.211   8.395   1.528  1.00  0.00     0.034 A 
ATOM     25  C   UNL     1       5.913   7.528  -5.297  1.00  0.00     0.034 A 
ATOM     26  C   UNL     1       7.779   9.396   0.664  1.00  0.00     0.049 A 
ATOM     27  C   UNL     1       6.673   8.716  -4.783  1.00  0.00     0.074 A 
ATOM     28  C   UNL     1       8.540  10.499   1.010  1.00  0.00     0.029 A 
ATOM     29  N   UNL     1       7.642   9.424  -0.716  1.00  0.00    -0.354 N 
ATOM     30  N   UNL     1       7.051   8.984  -3.557  1.00  0.00    -0.248 NA
ATOM     31  C   UNL     1       7.085   9.719  -5.774  1.00  0.00     0.031 C 
ATOM     32  C   UNL     1       8.838  11.210  -0.158  1.00  0.00     0.029 A 
ATOM     33  C   UNL     1       8.292  10.532  -1.235  1.00  0.00     0.049 A 
ATOM     34  H   UNL     1       7.155   8.755  -1.248  1.00  0.00     0.167 HD
ATOM     35  C   UNL     1       7.771  10.169  -3.632  1.00  0.00     0.074 A 
ATOM     36  C   UNL     1       7.794  10.556  -5.029  1.00  0.00     0.031 C 
ATOM     37  C   UNL     1       8.349  10.880  -2.633  1.00  0.00     0.034 A 
BRANCH  24  38
ATOM     38  C   UNL     1       7.403   8.550   3.016  1.00  0.00     0.023 A 
ATOM     39  C   UNL     1       8.302   7.703   3.697  1.00  0.00     0.012 A 
ATOM     40  C   UNL     1       6.744   9.571   3.729  1.00  0.00     0.148 A 
ATOM     41  C   UNL     1       8.515   7.847   5.068  1.00  0.00     0.002 A 
ATOM     42  C   UNL     1       6.995   9.736   5.088  1.00  0.00     0.091 A 
ATOM     43  F   UNL     1       5.879  10.355   3.071  1.00  0.00    -0.205 F 
ATOM     44  C   UNL     1       7.870   8.868   5.760  1.00  0.00     0.022 A 
BRANCH  42  45
ATOM     45  S   UNL     1       6.273  11.071   6.050  1.00  0.00     0.127 S 
ATOM     46  O   UNL     1       5.286  10.353   6.856  1.00  0.00    -0.237 OA
ATOM     47  O   UNL     1       7.426  11.569   6.801  1.00  0.00    -0.237 OA
ATOM     48  O   UNL     1       5.728  12.012   5.082  1.00  0.00    -0.744 OA
ENDBRANCH  42  45
ENDBRANCH  24  38
BRANCH  25  49
ATOM     49  C   UNL     1       5.608   7.369  -6.746  1.00  0.00     0.023 A 
ATOM     50  C   UNL     1       6.655   7.114  -7.652  1.00  0.00     0.012 A 
ATOM     51  C   UNL     1       4.282   7.412  -7.220  1.00  0.00     0.148 A 
ATOM     52  C   UNL     1       6.389   6.927  -9.009  1.00  0.00     0.002 A 
ATOM     53  C   UNL     1       4.019   7.167  -8.562  1.00  0.00     0.091 A 
ATOM     54  F   UNL     1       3.302   7.667  -6.341  1.00  0.00    -0.205 F 
ATOM     55  C   UNL     1       5.072   6.941  -9.461  1.00  0.00     0.022 A 
BRANCH  53  56
ATOM     56  S   UNL     1       2.347   7.025  -9.204  1.00  0.00     0.127 S 
ATOM     57  O   UNL     1       2.239   8.231 -10.021  1.00  0.00    -0.237 OA
ATOM     58  O   UNL     1       2.420   5.774  -9.959  1.00  0.00    -0.237 OA
ATOM     59  O   UNL     1       1.479   6.972  -8.036  1.00  0.00    -0.744 OA
ENDBRANCH  53  56
ENDBRANCH  25  49
BRANCH  37  60
ATOM     60  C   UNL     1       9.091  12.135  -3.011  1.00  0.00     0.023 A 
ATOM     61  C   UNL     1       8.376  13.282  -3.408  1.00  0.00     0.012 A 
ATOM     62  C   UNL     1      10.495  12.196  -2.906  1.00  0.00     0.148 A 
ATOM     63  C   UNL     1       9.049  14.461  -3.726  1.00  0.00     0.002 A 
ATOM     64  C   UNL     1      11.154  13.388  -3.176  1.00  0.00     0.091 A 
ATOM     65  F   UNL     1      11.158  11.087  -2.547  1.00  0.00    -0.205 F 
ATOM     66  C   UNL     1      10.435  14.518  -3.598  1.00  0.00     0.022 A 
BRANCH  64  67
ATOM     67  S   UNL     1      12.925  13.582  -2.945  1.00  0.00     0.127 S 
ATOM     68  O   UNL     1      13.401  13.640  -4.327  1.00  0.00    -0.237 OA
ATOM     69  O   UNL     1      13.007  14.848  -2.218  1.00  0.00    -0.237 OA
ATOM     70  O   UNL     1      13.360  12.419  -2.183  1.00  0.00    -0.744 OA
ENDBRANCH  64  67
ENDBRANCH  37  60
ENDBRANCH  11  12
ENDBRANCH   4   6
ENDBRANCH   1   2
BRANCH   1  71
ATOM     71  C   UNL     1       4.837  -1.674   1.802  1.00  0.00     0.042 C 
BRANCH  71  72
ATOM     72  C   UNL     1       4.287  -3.028   2.232  1.00  0.00     0.118 C 
BRANCH  72  73
ATOM     73  N   UNL     1       4.784  -4.119   1.404  1.00  0.00    -0.352 N 
ATOM     74  C   UNL     1       5.621  -5.153   1.737  1.00  0.00     0.251 C 
ATOM     75  H   UNL     1       4.474  -4.112   0.469  1.00  0.00     0.163 HD
ATOM     76  O   UNL     1       6.078  -5.893   0.871  1.00  0.00    -0.269 OA
BRANCH  74  77
ATOM     77  C   UNL     1       5.984  -5.369   3.149  1.00  0.00     0.039 A 
ATOM     78  C   UNL     1       7.331  -5.403   3.502  1.00  0.00     0.016 A 
ATOM     79  C   UNL     1       4.997  -5.548   4.118  1.00  0.00     0.016 A 
ATOM     80  C   UNL     1       7.689  -5.517   4.849  1.00  0.00     0.029 A 
ATOM     81  C   UNL     1       5.363  -5.678   5.460  1.00  0.00     0.029 A 
ATOM     82  C   UNL     1       6.713  -5.623   5.853  1.00  0.00     0.069 A 
BRANCH  82  83
ATOM     83  N   UNL     1       7.050  -5.657   7.244  1.00  0.00    -0.196 N 
ATOM     84  N   UNL     1       6.088  -6.263   8.038  1.00  0.00    -0.153 NA
ATOM     85  C   UNL     1       8.230  -5.102   7.756  1.00  0.00     0.271 A 
ATOM     86  C   UNL     1       6.298  -6.325   9.311  1.00  0.00     0.150 A 
ATOM     87  C   UNL     1       8.380  -5.165   9.229  1.00  0.00     0.077 A 
ATOM     88  O   UNL     1       9.126  -4.537   7.134  1.00  0.00    -0.267 OA
ATOM     89  Cl  UNL     1       5.093  -7.145  10.234  1.00  0.00    -0.060 Cl
ATOM     90  C   UNL     1       7.464  -5.754   9.996  1.00  0.00     0.049 A 
ENDBRANCH  82  83
ENDBRANCH  74  77
ENDBRANCH  72  73
ENDBRANCH  71  72
ENDBRANCH   1  71
TORSDOF 14
