REMARK SMILES C[C@@H]1[C@@H](C(=O)NCCCNC(=O)c2ccc(-c3c4nc(c(-c5cccc(S(=O)(=O)[O-])c5F)c5ccc([nH]5)c(-c5cccc(S(=O)(=O)[O-])c5F)c5nc(c(-c6cccc(S(=O)(=O)[O-])c6F)c6ccc3[nH]6)C=C5)C=C4)cc2)CCN1C(=O)c1cccc(Cl)n1
REMARK SMILES IDX 8 1 7 2 6 3 4 4 5 5 3 7 1 8 2 9 78 10 76 11 77 12 79 13
REMARK SMILES IDX 80 14 81 15 82 16 87 17 83 18 85 19 84 20 86 21 9 22 10 23
REMARK SMILES IDX 11 24 12 26 13 27 14 28 75 29 15 30 74 31 16 32 17 33 18 34
REMARK SMILES IDX 68 35 19 36 73 37 67 38 69 39 20 40 72 41 66 42 65 43 21 45
REMARK SMILES IDX 53 46 33 47 52 48 34 49 37 50 51 51 70 52 35 53 36 54 50 56
REMARK SMILES IDX 71 57 38 58 22 59 23 60 31 61 24 62 26 63 32 64 25 65 27 66
REMARK SMILES IDX 28 67 29 68 30 69 54 70 55 71 63 72 56 73 58 74 64 75 57 76
REMARK SMILES IDX 59 77 60 78 61 79 62 80 39 81 40 82 48 83 41 84 43 85 49 86
REMARK SMILES IDX 42 87 44 88 45 89 46 90 47 91
REMARK H PARENT 6 6 10 25 69 44 37 55
REMARK Flexibility Score: inf
ROOT
ATOM      1  C   UNL     1      -2.943   4.174  -1.189  1.00  0.00     0.042 C 
ENDROOT
BRANCH   1   2
ATOM      2  C   UNL     1      -2.612   2.743  -0.812  1.00  0.00     0.117 C 
BRANCH   2   3
ATOM      3  N   UNL     1      -1.856   2.032  -1.827  1.00  0.00    -0.356 N 
ATOM      4  C   UNL     1      -0.824   1.155  -1.684  1.00  0.00     0.225 C 
ATOM      5  O   UNL     1      -0.355   0.659  -2.708  1.00  0.00    -0.275 OA
ATOM      6  H   UNL     1      -2.129   2.211  -2.755  1.00  0.00     0.163 HD
BRANCH   4   7
ATOM      7  C   UNL     1      -0.233   0.906  -0.303  1.00  0.00     0.102 C 
ATOM      8  C   UNL     1       1.937   0.122   0.682  1.00  0.00     0.032 C 
ATOM      9  C   UNL     1       0.847  -0.205  -0.345  1.00  0.00     0.094 C 
ATOM     10  N   UNL     1       0.101  -1.435  -0.009  1.00  0.00    -0.334 N 
ATOM     11  C   UNL     1      -1.222   0.358   0.733  1.00  0.00     0.037 C 
ATOM     12  C   UNL     1      -1.231  -1.129   0.463  1.00  0.00     0.121 C 
BRANCH  10  13
ATOM     13  C   UNL     1       0.364  -2.755  -0.354  1.00  0.00     0.272 C 
ATOM     14  O   UNL     1      -0.433  -3.667  -0.135  1.00  0.00    -0.267 OA
BRANCH  13  15
ATOM     15  C   UNL     1       1.663  -3.106  -0.971  1.00  0.00     0.130 A 
ATOM     16  C   UNL     1       2.802  -3.114  -0.175  1.00  0.00     0.034 A 
ATOM     17  N   UNL     1       1.631  -3.538  -2.255  1.00  0.00    -0.231 NA
ATOM     18  C   UNL     1       4.000  -3.529  -0.743  1.00  0.00     0.006 A 
ATOM     19  C   UNL     1       2.803  -3.962  -2.758  1.00  0.00     0.129 A 
ATOM     20  C   UNL     1       4.003  -3.967  -2.063  1.00  0.00     0.041 A 
ATOM     21  Cl  UNL     1       2.724  -4.558  -4.365  1.00  0.00    -0.062 Cl
ENDBRANCH  13  15
ENDBRANCH  10  13
ENDBRANCH   4   7
ENDBRANCH   2   3
ENDBRANCH   1   2
BRANCH   1  22
ATOM     22  C   UNL     1      -3.707   4.329  -2.494  1.00  0.00     0.118 C 
BRANCH  22  23
ATOM     23  N   UNL     1      -5.026   3.709  -2.476  1.00  0.00    -0.352 N 
ATOM     24  C   UNL     1      -6.281   4.277  -2.511  1.00  0.00     0.251 C 
ATOM     25  H   UNL     1      -5.019   2.725  -2.432  1.00  0.00     0.163 HD
ATOM     26  O   UNL     1      -7.269   3.574  -2.351  1.00  0.00    -0.269 OA
BRANCH  24  27
ATOM     27  C   UNL     1      -6.432   5.739  -2.703  1.00  0.00     0.039 A 
ATOM     28  C   UNL     1      -7.365   6.431  -1.925  1.00  0.00     0.014 A 
ATOM     29  C   UNL     1      -5.650   6.431  -3.627  1.00  0.00     0.014 A 
ATOM     30  C   UNL     1      -7.440   7.825  -2.010  1.00  0.00     0.010 A 
ATOM     31  C   UNL     1      -5.640   7.820  -3.622  1.00  0.00     0.010 A 
ATOM     32  C   UNL     1      -6.540   8.536  -2.821  1.00  0.00    -0.014 A 
BRANCH  32  33
ATOM     33  C   UNL     1      -6.519  10.023  -2.851  1.00  0.00     0.031 A 
ATOM     34  C   UNL     1      -6.733  10.757  -4.150  1.00  0.00     0.074 A 
ATOM     35  C   UNL     1      -6.209  10.712  -1.733  1.00  0.00     0.049 A 
ATOM     36  N   UNL     1      -6.666  12.040  -4.393  1.00  0.00    -0.248 NA
ATOM     37  C   UNL     1      -7.024   9.940  -5.341  1.00  0.00     0.031 C 
ATOM     38  C   UNL     1      -5.895  10.119  -0.431  1.00  0.00     0.029 A 
ATOM     39  N   UNL     1      -6.080  12.062  -1.519  1.00  0.00    -0.354 N 
ATOM     40  C   UNL     1      -6.863  12.179  -5.762  1.00  0.00     0.074 A 
ATOM     41  C   UNL     1      -7.007  10.847  -6.305  1.00  0.00     0.031 C 
ATOM     42  C   UNL     1      -5.624  11.098   0.447  1.00  0.00     0.029 A 
ATOM     43  C   UNL     1      -5.708  12.386  -0.234  1.00  0.00     0.049 A 
ATOM     44  H   UNL     1      -6.239  12.736  -2.219  1.00  0.00     0.167 HD
ATOM     45  C   UNL     1      -6.952  13.311  -6.499  1.00  0.00     0.034 A 
ATOM     46  C   UNL     1      -5.455  13.583   0.330  1.00  0.00     0.034 A 
ATOM     47  C   UNL     1      -6.863  14.636  -5.949  1.00  0.00     0.049 A 
ATOM     48  C   UNL     1      -5.606  14.829  -0.500  1.00  0.00     0.074 A 
ATOM     49  C   UNL     1      -7.033  15.848  -6.594  1.00  0.00     0.029 A 
ATOM     50  N   UNL     1      -6.577  14.925  -4.624  1.00  0.00    -0.354 N 
ATOM     51  N   UNL     1      -5.947  14.944  -1.760  1.00  0.00    -0.248 NA
ATOM     52  C   UNL     1      -5.372  16.113   0.178  1.00  0.00     0.031 C 
ATOM     53  C   UNL     1      -6.825  16.871  -5.664  1.00  0.00     0.029 A 
ATOM     54  C   UNL     1      -6.557  16.295  -4.432  1.00  0.00     0.049 A 
ATOM     55  H   UNL     1      -6.412  14.254  -3.923  1.00  0.00     0.167 HD
ATOM     56  C   UNL     1      -6.008  16.310  -2.016  1.00  0.00     0.074 A 
ATOM     57  C   UNL     1      -5.687  16.981  -0.773  1.00  0.00     0.031 C 
ATOM     58  C   UNL     1      -6.291  16.950  -3.177  1.00  0.00     0.034 A 
BRANCH  45  59
ATOM     59  C   UNL     1      -7.216  13.167  -7.976  1.00  0.00     0.023 A 
ATOM     60  C   UNL     1      -8.478  12.718  -8.417  1.00  0.00     0.012 A 
ATOM     61  C   UNL     1      -6.240  13.524  -8.927  1.00  0.00     0.148 A 
ATOM     62  C   UNL     1      -8.753  12.590  -9.778  1.00  0.00     0.002 A 
ATOM     63  C   UNL     1      -6.538  13.441 -10.282  1.00  0.00     0.091 A 
ATOM     64  F   UNL     1      -5.039  13.929  -8.490  1.00  0.00    -0.205 F 
ATOM     65  C   UNL     1      -7.787  12.961 -10.709  1.00  0.00     0.022 A 
BRANCH  63  66
ATOM     66  S   UNL     1      -5.394  13.973 -11.561  1.00  0.00     0.127 S 
ATOM     67  O   UNL     1      -5.010  12.697 -12.163  1.00  0.00    -0.237 OA
ATOM     68  O   UNL     1      -6.245  14.813 -12.403  1.00  0.00    -0.237 OA
ATOM     69  O   UNL     1      -4.326  14.685 -10.874  1.00  0.00    -0.744 OA
ENDBRANCH  63  66
ENDBRANCH  45  59
BRANCH  46  70
ATOM     70  C   UNL     1      -5.101  13.667   1.777  1.00  0.00     0.023 A 
ATOM     71  C   UNL     1      -6.025  14.225   2.682  1.00  0.00     0.012 A 
ATOM     72  C   UNL     1      -3.872  13.181   2.264  1.00  0.00     0.148 A 
ATOM     73  C   UNL     1      -5.719  14.330   4.039  1.00  0.00     0.002 A 
ATOM     74  C   UNL     1      -3.596  13.237   3.625  1.00  0.00     0.091 A 
ATOM     75  F   UNL     1      -3.002  12.662   1.386  1.00  0.00    -0.205 F 
ATOM     76  C   UNL     1      -4.510  13.828   4.512  1.00  0.00     0.022 A 
BRANCH  74  77
ATOM     77  S   UNL     1      -2.125  12.496   4.341  1.00  0.00     0.127 S 
ATOM     78  O   UNL     1      -1.360  13.674   4.740  1.00  0.00    -0.237 OA
ATOM     79  O   UNL     1      -2.686  11.720   5.448  1.00  0.00    -0.237 OA
ATOM     80  O   UNL     1      -1.536  11.687   3.282  1.00  0.00    -0.744 OA
ENDBRANCH  74  77
ENDBRANCH  46  70
BRANCH  58  81
ATOM     81  C   UNL     1      -6.311  18.456  -3.160  1.00  0.00     0.023 A 
ATOM     82  C   UNL     1      -5.104  19.175  -3.059  1.00  0.00     0.012 A 
ATOM     83  C   UNL     1      -7.523  19.156  -3.323  1.00  0.00     0.148 A 
ATOM     84  C   UNL     1      -5.106  20.569  -3.087  1.00  0.00     0.002 A 
ATOM     85  C   UNL     1      -7.512  20.543  -3.403  1.00  0.00     0.091 A 
ATOM     86  F   UNL     1      -8.663  18.453  -3.400  1.00  0.00    -0.205 F 
ATOM     87  C   UNL     1      -6.307  21.252  -3.272  1.00  0.00     0.022 A 
BRANCH  85  88
ATOM     88  S   UNL     1      -8.994  21.501  -3.737  1.00  0.00     0.127 S 
ATOM     89  O   UNL     1      -9.241  22.131  -2.441  1.00  0.00    -0.237 OA
ATOM     90  O   UNL     1      -8.542  22.416  -4.785  1.00  0.00    -0.237 OA
ATOM     91  O   UNL     1     -10.003  20.542  -4.168  1.00  0.00    -0.744 OA
ENDBRANCH  85  88
ENDBRANCH  58  81
ENDBRANCH  32  33
ENDBRANCH  24  27
ENDBRANCH  22  23
ENDBRANCH   1  22
TORSDOF 15
