REMARK SMILES COc1cc(C[N@@H+]2CCO[C@@H](CC(=O)NCCCNC(=O)c3ccc(-c4c5nc(c(-c6cccc(S(=O)(=O)[O-])c6F)c6ccc([nH]6)c(-c6cccc(S(=O)(=O)[O-])c6F)c6nc(c(-c7cccc(S(=O)(=O)[O-])c7F)c7ccc4[nH]7)C=C6)C=C5)cc3)C2)ccc1O
REMARK SMILES IDX 16 1 15 2 13 3 14 4 12 6 11 7 7 8 8 9 85 10 9 12 10 13 6 14
REMARK SMILES IDX 5 15 3 16 4 17 88 18 87 19 86 20 2 21 1 22 89 23 17 25 18 26
REMARK SMILES IDX 19 27 20 28 21 30 22 31 23 32 84 33 24 34 83 35 25 36 26 37
REMARK SMILES IDX 27 38 77 39 28 40 82 41 76 42 78 43 29 44 81 45 75 46 74 47
REMARK SMILES IDX 30 49 62 50 42 51 61 52 43 53 46 54 60 55 79 56 44 57 45 58
REMARK SMILES IDX 59 60 80 61 47 62 31 63 32 64 40 65 33 66 35 67 41 68 34 69
REMARK SMILES IDX 36 70 37 71 38 72 39 73 63 74 64 75 72 76 65 77 67 78 73 79
REMARK SMILES IDX 66 80 68 81 69 82 70 83 71 84 48 85 49 86 57 87 50 88 52 89
REMARK SMILES IDX 58 90 51 91 53 92 54 93 55 94 56 95
REMARK H PARENT 15 5 7 11 89 24 19 29 78 48 46 59
REMARK Flexibility Score: inf
ROOT
ATOM      1  C   UNL     1      -3.854   4.827   5.809  1.00  0.00     0.117 C 
ENDROOT
BRANCH   1   2
ATOM      2  N   UNL     1      -4.140   3.460   5.389  1.00  0.00    -0.356 N 
ATOM      3  C   UNL     1      -3.302   2.462   4.978  1.00  0.00     0.222 C 
ATOM      4  O   UNL     1      -3.799   1.375   4.679  1.00  0.00    -0.275 OA
ATOM      5  H   UNL     1      -5.093   3.216   5.405  1.00  0.00     0.163 HD
BRANCH   3   6
ATOM      6  C   UNL     1      -1.810   2.698   4.871  1.00  0.00     0.138 C 
BRANCH   6   7
ATOM      7  C   UNL     1      -1.369   3.085   3.456  1.00  0.00     0.182 C 
ATOM      8  N   UNL     1      -1.742   4.837   1.634  1.00  0.00    -0.327 N 
ATOM      9  C   UNL     1      -0.286   4.960   1.572  1.00  0.00     0.291 C 
ATOM     10  C   UNL     1      -2.176   4.277   2.908  1.00  0.00     0.295 C 
ATOM     11  H   UNL     1      -2.089   5.796   1.607  1.00  0.00     0.348 HD
ATOM     12  C   UNL     1       0.501   3.793   2.199  1.00  0.00     0.222 C 
ATOM     13  O   UNL     1       0.028   3.443   3.511  1.00  0.00    -0.366 OA
BRANCH   8  14
ATOM     14  C   UNL     1      -2.421   4.323   0.440  1.00  0.00     0.299 C 
BRANCH  14  15
ATOM     15  C   UNL     1      -2.330   2.827   0.242  1.00  0.00     0.010 A 
ATOM     16  C   UNL     1      -1.049   0.889  -0.423  1.00  0.00     0.160 A 
ATOM     17  C   UNL     1      -1.225   2.269  -0.416  1.00  0.00     0.060 A 
ATOM     18  C   UNL     1      -2.012   0.055   0.148  1.00  0.00     0.157 A 
ATOM     19  C   UNL     1      -3.138   0.588   0.759  1.00  0.00     0.051 A 
ATOM     20  C   UNL     1      -3.303   1.973   0.795  1.00  0.00     0.013 A 
BRANCH  16  21
ATOM     21  O   UNL     1       0.072   0.378  -1.021  1.00  0.00    -0.493 OA
ATOM     22  C   UNL     1       0.997  -0.128  -0.054  1.00  0.00     0.278 C 
ENDBRANCH  16  21
BRANCH  18  23
ATOM     23  O   UNL     1      -1.878  -1.304   0.107  1.00  0.00    -0.504 OA
ATOM     24  H   UNL     1      -1.126  -1.688  -0.299  1.00  0.00     0.293 HD
ENDBRANCH  18  23
ENDBRANCH  14  15
ENDBRANCH   8  14
ENDBRANCH   6   7
ENDBRANCH   3   6
ENDBRANCH   1   2
BRANCH   1  25
ATOM     25  C   UNL     1      -4.412   5.878   4.845  1.00  0.00     0.042 C 
BRANCH  25  26
ATOM     26  C   UNL     1      -5.926   6.015   4.877  1.00  0.00     0.118 C 
BRANCH  26  27
ATOM     27  N   UNL     1      -6.357   6.894   5.950  1.00  0.00    -0.352 N 
ATOM     28  C   UNL     1      -6.759   8.208   5.894  1.00  0.00     0.251 C 
ATOM     29  H   UNL     1      -6.363   6.490   6.848  1.00  0.00     0.163 HD
ATOM     30  O   UNL     1      -6.803   8.862   6.934  1.00  0.00    -0.269 OA
BRANCH  28  31
ATOM     31  C   UNL     1      -7.128   8.844   4.605  1.00  0.00     0.039 A 
ATOM     32  C   UNL     1      -6.745  10.170   4.370  1.00  0.00     0.014 A 
ATOM     33  C   UNL     1      -7.897   8.171   3.653  1.00  0.00     0.014 A 
ATOM     34  C   UNL     1      -7.086  10.796   3.165  1.00  0.00     0.010 A 
ATOM     35  C   UNL     1      -8.173   8.770   2.424  1.00  0.00     0.010 A 
ATOM     36  C   UNL     1      -7.780  10.092   2.168  1.00  0.00    -0.014 A 
BRANCH  36  37
ATOM     37  C   UNL     1      -8.098  10.707   0.852  1.00  0.00     0.031 A 
ATOM     38  C   UNL     1      -9.531  10.894   0.425  1.00  0.00     0.074 A 
ATOM     39  C   UNL     1      -7.101  11.004  -0.005  1.00  0.00     0.049 A 
ATOM     40  N   UNL     1     -10.003  11.311  -0.722  1.00  0.00    -0.248 NA
ATOM     41  C   UNL     1     -10.570  10.542   1.407  1.00  0.00     0.031 C 
ATOM     42  C   UNL     1      -5.674  10.810   0.260  1.00  0.00     0.029 A 
ATOM     43  N   UNL     1      -7.136  11.496  -1.288  1.00  0.00    -0.354 N 
ATOM     44  C   UNL     1     -11.387  11.234  -0.616  1.00  0.00     0.074 A 
ATOM     45  C   UNL     1     -11.680  10.708   0.700  1.00  0.00     0.031 C 
ATOM     46  C   UNL     1      -4.972  11.168  -0.827  1.00  0.00     0.029 A 
ATOM     47  C   UNL     1      -5.896  11.583  -1.878  1.00  0.00     0.049 A 
ATOM     48  H   UNL     1      -7.968  11.760  -1.741  1.00  0.00     0.167 HD
ATOM     49  C   UNL     1     -12.330  11.593  -1.520  1.00  0.00     0.034 A 
ATOM     50  C   UNL     1      -5.541  11.938  -3.130  1.00  0.00     0.034 A 
ATOM     51  C   UNL     1     -12.040  12.163  -2.808  1.00  0.00     0.049 A 
ATOM     52  C   UNL     1      -6.607  12.352  -4.107  1.00  0.00     0.074 A 
ATOM     53  C   UNL     1     -12.927  12.653  -3.751  1.00  0.00     0.029 A 
ATOM     54  N   UNL     1     -10.769  12.312  -3.340  1.00  0.00    -0.354 N 
ATOM     55  N   UNL     1      -7.904  12.427  -3.930  1.00  0.00    -0.248 NA
ATOM     56  C   UNL     1      -6.162  12.757  -5.449  1.00  0.00     0.031 C 
ATOM     57  C   UNL     1     -12.192  13.077  -4.863  1.00  0.00     0.029 A 
ATOM     58  C   UNL     1     -10.847  12.869  -4.605  1.00  0.00     0.049 A 
ATOM     59  H   UNL     1      -9.933  12.059  -2.885  1.00  0.00     0.167 HD
ATOM     60  C   UNL     1      -8.425  12.912  -5.124  1.00  0.00     0.074 A 
ATOM     61  C   UNL     1      -7.302  13.136  -6.010  1.00  0.00     0.031 C 
ATOM     62  C   UNL     1      -9.720  13.135  -5.461  1.00  0.00     0.034 A 
BRANCH  49  63
ATOM     63  C   UNL     1     -13.777  11.433  -1.128  1.00  0.00     0.023 A 
ATOM     64  C   UNL     1     -14.339  12.314  -0.182  1.00  0.00     0.012 A 
ATOM     65  C   UNL     1     -14.594  10.464  -1.742  1.00  0.00     0.148 A 
ATOM     66  C   UNL     1     -15.684  12.213   0.171  1.00  0.00     0.002 A 
ATOM     67  C   UNL     1     -15.944  10.396  -1.415  1.00  0.00     0.091 A 
ATOM     68  F   UNL     1     -14.037   9.622  -2.624  1.00  0.00    -0.205 F 
ATOM     69  C   UNL     1     -16.488  11.262  -0.453  1.00  0.00     0.022 A 
BRANCH  67  70
ATOM     70  S   UNL     1     -17.079   9.256  -2.217  1.00  0.00     0.127 S 
ATOM     71  O   UNL     1     -17.323   8.285  -1.151  1.00  0.00    -0.237 OA
ATOM     72  O   UNL     1     -18.219  10.121  -2.525  1.00  0.00    -0.237 OA
ATOM     73  O   UNL     1     -16.374   8.743  -3.383  1.00  0.00    -0.744 OA
ENDBRANCH  67  70
ENDBRANCH  49  63
BRANCH  50  74
ATOM     74  C   UNL     1      -4.100  11.965  -3.511  1.00  0.00     0.023 A 
ATOM     75  C   UNL     1      -3.467  13.204  -3.724  1.00  0.00     0.012 A 
ATOM     76  C   UNL     1      -3.346  10.780  -3.627  1.00  0.00     0.148 A 
ATOM     77  C   UNL     1      -2.116  13.264  -4.069  1.00  0.00     0.002 A 
ATOM     78  C   UNL     1      -1.988  10.849  -3.917  1.00  0.00     0.091 A 
ATOM     79  F   UNL     1      -3.970   9.609  -3.437  1.00  0.00    -0.205 F 
ATOM     80  C   UNL     1      -1.375  12.088  -4.154  1.00  0.00     0.022 A 
BRANCH  78  81
ATOM     81  S   UNL     1      -0.931   9.395  -3.912  1.00  0.00     0.127 S 
ATOM     82  O   UNL     1      -0.668   9.212  -5.338  1.00  0.00    -0.237 OA
ATOM     83  O   UNL     1       0.218   9.858  -3.130  1.00  0.00    -0.237 OA
ATOM     84  O   UNL     1      -1.706   8.347  -3.269  1.00  0.00    -0.744 OA
ENDBRANCH  78  81
ENDBRANCH  50  74
BRANCH  62  85
ATOM     85  C   UNL     1     -10.005  13.664  -6.842  1.00  0.00     0.023 A 
ATOM     86  C   UNL     1      -9.896  12.804  -7.952  1.00  0.00     0.012 A 
ATOM     87  C   UNL     1     -10.470  14.981  -7.029  1.00  0.00     0.148 A 
ATOM     88  C   UNL     1     -10.224  13.253  -9.231  1.00  0.00     0.002 A 
ATOM     89  C   UNL     1     -10.838  15.407  -8.300  1.00  0.00     0.091 A 
ATOM     90  F   UNL     1     -10.551  15.788  -5.961  1.00  0.00    -0.205 F 
ATOM     91  C   UNL     1     -10.706  14.548  -9.403  1.00  0.00     0.022 A 
BRANCH  89  92
ATOM     92  S   UNL     1     -11.555  17.026  -8.607  1.00  0.00     0.127 S 
ATOM     93  O   UNL     1     -10.482  17.692  -9.343  1.00  0.00    -0.237 OA
ATOM     94  O   UNL     1     -12.732  16.695  -9.412  1.00  0.00    -0.237 OA
ATOM     95  O   UNL     1     -11.855  17.589  -7.298  1.00  0.00    -0.744 OA
ENDBRANCH  89  92
ENDBRANCH  62  85
ENDBRANCH  36  37
ENDBRANCH  28  31
ENDBRANCH  26  27
ENDBRANCH  25  26
ENDBRANCH   1  25
TORSDOF 18
