REMARK SMILES CC(C)[C@@H]1CN(C(=O)Cc2ccsc2)C[C@H]1C(=O)NCCCNC(=O)c1ccc(-c2c3nc(c(-c4cccc(S(=O)(=O)[O-])c4F)c4ccc([nH]4)c(-c4cccc(S(=O)(=O)[O-])c4F)c4nc(c(-c5cccc(S(=O)(=O)[O-])c5F)c5ccc2[nH]5)C=C4)C=C3)cc1
REMARK SMILES IDX 21 1 20 2 19 3 17 4 18 5 16 7 4 8 5 9 6 10 15 11 2 12 1 13
REMARK SMILES IDX 3 14 7 15 8 16 9 17 10 18 11 19 14 20 12 21 13 22 22 23
REMARK SMILES IDX 23 24 24 25 25 27 26 28 27 29 88 30 28 31 87 32 29 33 30 34
REMARK SMILES IDX 31 35 81 36 32 37 86 38 80 39 82 40 33 41 85 42 79 43 78 44
REMARK SMILES IDX 34 46 66 47 46 48 65 49 47 50 50 51 64 52 83 53 48 54 49 55
REMARK SMILES IDX 63 57 84 58 51 59 35 60 36 61 44 62 37 63 39 64 45 65 38 66
REMARK SMILES IDX 40 67 41 68 42 69 43 70 67 71 68 72 76 73 69 74 71 75 77 76
REMARK SMILES IDX 70 77 72 78 73 79 74 80 75 81 52 82 53 83 61 84 54 85 56 86
REMARK SMILES IDX 62 87 55 88 57 89 58 90 59 91 60 92
REMARK H PARENT 19 6 23 26 82 45 50 56
REMARK Flexibility Score: inf
ROOT
ATOM      1  C   UNL     1      -2.866   1.921   3.657  1.00  0.00     0.042 C 
ENDROOT
BRANCH   1   2
ATOM      2  C   UNL     1      -3.378   2.504   2.348  1.00  0.00     0.117 C 
BRANCH   2   3
ATOM      3  N   UNL     1      -2.575   3.624   1.883  1.00  0.00    -0.356 N 
ATOM      4  C   UNL     1      -1.796   3.777   0.781  1.00  0.00     0.225 C 
ATOM      5  O   UNL     1      -1.253   4.873   0.617  1.00  0.00    -0.275 OA
ATOM      6  H   UNL     1      -2.601   4.413   2.472  1.00  0.00     0.163 HD
BRANCH   4   7
ATOM      7  C   UNL     1      -1.578   2.667  -0.230  1.00  0.00     0.103 C 
ATOM      8  C   UNL     1      -0.860   1.417   0.332  1.00  0.00     0.025 C 
ATOM      9  C   UNL     1      -1.487   0.273  -0.467  1.00  0.00     0.124 C 
ATOM     10  N   UNL     1      -2.840   0.728  -0.741  1.00  0.00    -0.341 N 
ATOM     11  C   UNL     1      -2.886   2.174  -0.846  1.00  0.00     0.133 C 
BRANCH   8  12
ATOM     12  C   UNL     1       0.696   1.449   0.392  1.00  0.00    -0.012 C 
ATOM     13  C   UNL     1       1.338   0.077   0.146  1.00  0.00     0.008 C 
ATOM     14  C   UNL     1       1.373   2.486  -0.506  1.00  0.00     0.008 C 
ENDBRANCH   8  12
BRANCH  10  15
ATOM     15  C   UNL     1      -3.968  -0.034  -0.963  1.00  0.00     0.227 C 
ATOM     16  O   UNL     1      -5.050   0.491  -1.240  1.00  0.00    -0.275 OA
BRANCH  15  17
ATOM     17  C   UNL     1      -3.853  -1.544  -0.833  1.00  0.00     0.136 C 
BRANCH  17  18
ATOM     18  C   UNL     1      -3.126  -2.219  -1.966  1.00  0.00    -0.028 A 
ATOM     19  C   UNL     1      -2.857  -3.630  -1.988  1.00  0.00     0.016 A 
ATOM     20  C   UNL     1      -2.635  -1.620  -3.114  1.00  0.00     0.069 A 
ATOM     21  C   UNL     1      -2.161  -4.025  -3.109  1.00  0.00     0.065 A 
ATOM     22  S   UNL     1      -1.828  -2.714  -4.150  1.00  0.00    -0.152 S 
ENDBRANCH  17  18
ENDBRANCH  15  17
ENDBRANCH  10  15
ENDBRANCH   4   7
ENDBRANCH   2   3
ENDBRANCH   1   2
BRANCH   1  23
ATOM     23  C   UNL     1      -2.930   2.883   4.835  1.00  0.00     0.118 C 
BRANCH  23  24
ATOM     24  N   UNL     1      -4.289   3.309   5.136  1.00  0.00    -0.352 N 
ATOM     25  C   UNL     1      -5.047   3.133   6.266  1.00  0.00     0.251 C 
ATOM     26  H   UNL     1      -4.737   3.804   4.412  1.00  0.00     0.163 HD
ATOM     27  O   UNL     1      -6.245   3.407   6.230  1.00  0.00    -0.269 OA
BRANCH  25  28
ATOM     28  C   UNL     1      -4.445   2.611   7.513  1.00  0.00     0.039 A 
ATOM     29  C   UNL     1      -5.194   1.732   8.302  1.00  0.00     0.014 A 
ATOM     30  C   UNL     1      -3.172   3.006   7.931  1.00  0.00     0.014 A 
ATOM     31  C   UNL     1      -4.646   1.216   9.479  1.00  0.00     0.010 A 
ATOM     32  C   UNL     1      -2.592   2.419   9.053  1.00  0.00     0.010 A 
ATOM     33  C   UNL     1      -3.328   1.532   9.849  1.00  0.00    -0.014 A 
BRANCH  33  34
ATOM     34  C   UNL     1      -2.714   0.943  11.066  1.00  0.00     0.031 A 
ATOM     35  C   UNL     1      -2.266   1.823  12.203  1.00  0.00     0.074 A 
ATOM     36  C   UNL     1      -2.494  -0.386  11.119  1.00  0.00     0.049 A 
ATOM     37  N   UNL     1      -1.705   1.484  13.335  1.00  0.00    -0.248 NA
ATOM     38  C   UNL     1      -2.443   3.275  12.035  1.00  0.00     0.031 C 
ATOM     39  C   UNL     1      -2.785  -1.333  10.040  1.00  0.00     0.029 A 
ATOM     40  N   UNL     1      -1.954  -1.166  12.109  1.00  0.00    -0.354 N 
ATOM     41  C   UNL     1      -1.437   2.676  13.999  1.00  0.00     0.074 A 
ATOM     42  C   UNL     1      -1.853   3.748  13.122  1.00  0.00     0.031 C 
ATOM     43  C   UNL     1      -2.427  -2.567  10.430  1.00  0.00     0.029 A 
ATOM     44  C   UNL     1      -1.865  -2.497  11.775  1.00  0.00     0.049 A 
ATOM     45  H   UNL     1      -1.658  -0.807  12.977  1.00  0.00     0.167 HD
ATOM     46  C   UNL     1      -0.929   2.863  15.241  1.00  0.00     0.034 A 
ATOM     47  C   UNL     1      -1.387  -3.545  12.474  1.00  0.00     0.034 A 
ATOM     48  C   UNL     1      -0.555   1.793  16.127  1.00  0.00     0.049 A 
ATOM     49  C   UNL     1      -0.899  -3.323  13.879  1.00  0.00     0.074 A 
ATOM     50  C   UNL     1      -0.106   1.872  17.433  1.00  0.00     0.029 A 
ATOM     51  N   UNL     1      -0.584   0.447  15.796  1.00  0.00    -0.354 N 
ATOM     52  N   UNL     1      -0.812  -2.202  14.553  1.00  0.00    -0.248 NA
ATOM     53  C   UNL     1      -0.491  -4.514  14.636  1.00  0.00     0.031 C 
ATOM     54  C   UNL     1       0.148   0.572  17.888  1.00  0.00     0.029 A 
ATOM     55  C   UNL     1      -0.162  -0.317  16.871  1.00  0.00     0.049 A 
ATOM     56  H   UNL     1      -0.864   0.086  14.923  1.00  0.00     0.167 HD
ATOM     57  C   UNL     1      -0.365  -2.554  15.822  1.00  0.00     0.074 A 
ATOM     58  C   UNL     1      -0.230  -3.997  15.829  1.00  0.00     0.031 C 
ATOM     59  C   UNL     1      -0.074  -1.755  16.878  1.00  0.00     0.034 A 
BRANCH  46  60
ATOM     60  C   UNL     1      -0.814   4.282  15.737  1.00  0.00     0.023 A 
ATOM     61  C   UNL     1      -1.987   5.004  16.044  1.00  0.00     0.012 A 
ATOM     62  C   UNL     1       0.440   4.891  15.937  1.00  0.00     0.148 A 
ATOM     63  C   UNL     1      -1.917   6.319  16.500  1.00  0.00     0.002 A 
ATOM     64  C   UNL     1       0.504   6.188  16.435  1.00  0.00     0.091 A 
ATOM     65  F   UNL     1       1.545   4.202  15.619  1.00  0.00    -0.205 F 
ATOM     66  C   UNL     1      -0.672   6.907  16.705  1.00  0.00     0.022 A 
BRANCH  64  67
ATOM     67  S   UNL     1       2.060   7.005  16.808  1.00  0.00     0.127 S 
ATOM     68  O   UNL     1       2.156   7.970  15.713  1.00  0.00    -0.237 OA
ATOM     69  O   UNL     1       1.792   7.599  18.119  1.00  0.00    -0.237 OA
ATOM     70  O   UNL     1       3.070   5.958  16.813  1.00  0.00    -0.744 OA
ENDBRANCH  64  67
ENDBRANCH  46  60
BRANCH  47  71
ATOM     71  C   UNL     1      -1.429  -4.909  11.875  1.00  0.00     0.023 A 
ATOM     72  C   UNL     1      -2.348  -5.855  12.367  1.00  0.00     0.012 A 
ATOM     73  C   UNL     1      -0.603  -5.254  10.787  1.00  0.00     0.148 A 
ATOM     74  C   UNL     1      -2.425  -7.130  11.806  1.00  0.00     0.002 A 
ATOM     75  C   UNL     1      -0.725  -6.506  10.196  1.00  0.00     0.091 A 
ATOM     76  F   UNL     1       0.272  -4.342  10.340  1.00  0.00    -0.205 F 
ATOM     77  C   UNL     1      -1.623  -7.452  10.714  1.00  0.00     0.022 A 
BRANCH  75  78
ATOM     78  S   UNL     1       0.162  -6.947   8.697  1.00  0.00     0.127 S 
ATOM     79  O   UNL     1       1.144  -7.907   9.203  1.00  0.00    -0.237 OA
ATOM     80  O   UNL     1      -0.902  -7.533   7.877  1.00  0.00    -0.237 OA
ATOM     81  O   UNL     1       0.701  -5.703   8.177  1.00  0.00    -0.744 OA
ENDBRANCH  75  78
ENDBRANCH  47  71
BRANCH  59  82
ATOM     82  C   UNL     1       0.404  -2.424  18.140  1.00  0.00     0.023 A 
ATOM     83  C   UNL     1       1.694  -2.990  18.186  1.00  0.00     0.012 A 
ATOM     84  C   UNL     1      -0.403  -2.451  19.295  1.00  0.00     0.148 A 
ATOM     85  C   UNL     1       2.158  -3.608  19.347  1.00  0.00     0.002 A 
ATOM     86  C   UNL     1       0.084  -3.027  20.463  1.00  0.00     0.091 A 
ATOM     87  F   UNL     1      -1.636  -1.928  19.228  1.00  0.00    -0.205 F 
ATOM     88  C   UNL     1       1.358  -3.617  20.487  1.00  0.00     0.022 A 
BRANCH  86  89
ATOM     89  S   UNL     1      -0.845  -2.998  22.000  1.00  0.00     0.127 S 
ATOM     90  O   UNL     1      -1.376  -4.359  22.053  1.00  0.00    -0.237 OA
ATOM     91  O   UNL     1       0.195  -2.711  22.990  1.00  0.00    -0.237 OA
ATOM     92  O   UNL     1      -1.833  -1.940  21.845  1.00  0.00    -0.744 OA
ENDBRANCH  86  89
ENDBRANCH  59  82
ENDBRANCH  33  34
ENDBRANCH  25  28
ENDBRANCH  23  24
ENDBRANCH   1  23
TORSDOF 17
