REMARK SMILES CCN1C(=O)N(CC)[C@H]2NC(=O)N(CCCC(=O)NCCCNC(=O)c3ccc(-c4c5nc(c(-c6cccc(S(=O)(=O)[O-])c6F)c6ccc([nH]6)c(-c6cccc(S(=O)(=O)[O-])c6F)c6nc(c(-c7cccc(S(=O)(=O)[O-])c7F)c7ccc4[nH]7)C=C6)C=C5)cc3)[C@@H]21
REMARK SMILES IDX 20 1 19 2 17 3 18 4 16 6 15 7 14 8 13 9 3 10 4 11 89 12 5 13
REMARK SMILES IDX 6 14 9 15 10 16 11 17 12 19 2 20 1 21 7 22 8 23 21 24 22 25
REMARK SMILES IDX 23 26 24 27 25 29 26 30 27 31 88 32 28 33 87 34 29 35 30 36
REMARK SMILES IDX 31 37 81 38 32 39 86 40 80 41 82 42 33 43 85 44 79 45 78 46
REMARK SMILES IDX 34 48 66 49 46 50 65 51 47 52 50 53 64 54 83 55 48 56 49 57
REMARK SMILES IDX 63 59 84 60 51 61 35 62 36 63 44 64 37 65 39 66 45 67 38 68
REMARK SMILES IDX 40 69 41 70 42 71 43 72 67 73 68 74 76 75 69 76 71 77 77 78
REMARK SMILES IDX 70 79 72 80 73 81 74 82 75 83 52 84 53 85 61 86 54 87 56 88
REMARK SMILES IDX 62 89 55 90 57 91 58 92 59 93 60 94
REMARK H PARENT 19 5 10 18 23 28 82 47 50 58
REMARK Flexibility Score: inf
ROOT
ATOM      1  C   UNL     1       0.802   2.950   1.495  1.00  0.00     0.117 C 
ENDROOT
BRANCH   1   2
ATOM      2  N   UNL     1      -0.196   2.194   2.223  1.00  0.00    -0.356 N 
ATOM      3  C   UNL     1      -1.379   1.651   1.831  1.00  0.00     0.220 C 
ATOM      4  O   UNL     1      -1.907   0.852   2.611  1.00  0.00    -0.275 OA
ATOM      5  H   UNL     1       0.021   2.046   3.172  1.00  0.00     0.163 HD
BRANCH   3   6
ATOM      6  C   UNL     1      -2.019   1.901   0.473  1.00  0.00     0.102 C 
BRANCH   6   7
ATOM      7  C   UNL     1      -2.542   3.272   0.134  1.00  0.00     0.031 C 
BRANCH   7   8
ATOM      8  C   UNL     1      -1.537   4.354  -0.210  1.00  0.00     0.124 C 
BRANCH   8   9
ATOM      9  N   UNL     1      -0.573   4.277  -1.317  1.00  0.00    -0.300 N 
ATOM     10  N   UNL     1       0.978   2.033  -1.849  1.00  0.00    -0.300 N 
ATOM     11  C   UNL     1       1.843   1.969  -3.010  1.00  0.00     0.323 C 
ATOM     12  C   UNL     1       0.108   3.209  -2.074  1.00  0.00     0.231 C 
ATOM     13  O   UNL     1       2.455   1.003  -3.428  1.00  0.00    -0.248 OA
ATOM     14  N   UNL     1       1.824   3.226  -3.621  1.00  0.00    -0.300 N 
ATOM     15  C   UNL     1       1.198   4.098  -2.716  1.00  0.00     0.228 C 
ATOM     16  N   UNL     1       0.534   5.274  -3.070  1.00  0.00    -0.314 N 
ATOM     17  C   UNL     1      -0.399   5.495  -2.063  1.00  0.00     0.320 C 
ATOM     18  H   UNL     1       0.693   5.830  -3.867  1.00  0.00     0.167 HD
ATOM     19  O   UNL     1      -0.928   6.572  -1.867  1.00  0.00    -0.249 OA
BRANCH  10  20
ATOM     20  C   UNL     1       0.631   0.789  -1.168  1.00  0.00     0.120 C 
ATOM     21  C   UNL     1       1.632  -0.364  -1.190  1.00  0.00     0.027 C 
ENDBRANCH  10  20
BRANCH  14  22
ATOM     22  C   UNL     1       2.454   3.600  -4.865  1.00  0.00     0.120 C 
ATOM     23  C   UNL     1       3.965   3.467  -4.854  1.00  0.00     0.027 C 
ENDBRANCH  14  22
ENDBRANCH   8   9
ENDBRANCH   7   8
ENDBRANCH   6   7
ENDBRANCH   3   6
ENDBRANCH   1   2
BRANCH   1  24
ATOM     24  C   UNL     1       1.014   4.349   2.043  1.00  0.00     0.042 C 
BRANCH  24  25
ATOM     25  C   UNL     1       2.224   4.422   2.939  1.00  0.00     0.118 C 
BRANCH  25  26
ATOM     26  N   UNL     1       3.480   4.350   2.197  1.00  0.00    -0.352 N 
ATOM     27  C   UNL     1       4.624   5.090   2.400  1.00  0.00     0.251 C 
ATOM     28  H   UNL     1       3.513   3.694   1.464  1.00  0.00     0.163 HD
ATOM     29  O   UNL     1       5.559   5.018   1.609  1.00  0.00    -0.269 OA
BRANCH  27  30
ATOM     30  C   UNL     1       4.679   6.003   3.562  1.00  0.00     0.039 A 
ATOM     31  C   UNL     1       5.166   7.300   3.397  1.00  0.00     0.014 A 
ATOM     32  C   UNL     1       4.151   5.598   4.788  1.00  0.00     0.014 A 
ATOM     33  C   UNL     1       5.057   8.207   4.452  1.00  0.00     0.010 A 
ATOM     34  C   UNL     1       3.899   6.540   5.770  1.00  0.00     0.010 A 
ATOM     35  C   UNL     1       4.386   7.844   5.633  1.00  0.00    -0.014 A 
BRANCH  35  36
ATOM     36  C   UNL     1       4.226   8.792   6.762  1.00  0.00     0.031 A 
ATOM     37  C   UNL     1       4.782   8.438   8.118  1.00  0.00     0.074 A 
ATOM     38  C   UNL     1       3.527   9.931   6.589  1.00  0.00     0.049 A 
ATOM     39  N   UNL     1       4.740   9.121   9.231  1.00  0.00    -0.248 NA
ATOM     40  C   UNL     1       5.433   7.122   8.254  1.00  0.00     0.031 C 
ATOM     41  C   UNL     1       2.860  10.338   5.349  1.00  0.00     0.029 A 
ATOM     42  N   UNL     1       3.257  10.954   7.460  1.00  0.00    -0.354 N 
ATOM     43  C   UNL     1       5.322   8.307  10.195  1.00  0.00     0.074 A 
ATOM     44  C   UNL     1       5.635   7.050   9.559  1.00  0.00     0.031 C 
ATOM     45  C   UNL     1       2.300  11.545   5.527  1.00  0.00     0.029 A 
ATOM     46  C   UNL     1       2.537  11.982   6.898  1.00  0.00     0.049 A 
ATOM     47  H   UNL     1       3.551  10.953   8.400  1.00  0.00     0.167 HD
ATOM     48  C   UNL     1       5.620   8.592  11.484  1.00  0.00     0.034 A 
ATOM     49  C   UNL     1       2.129  13.151   7.429  1.00  0.00     0.034 A 
ATOM     50  C   UNL     1       5.344   9.860  12.097  1.00  0.00     0.049 A 
ATOM     51  C   UNL     1       2.495  13.463   8.855  1.00  0.00     0.074 A 
ATOM     52  C   UNL     1       5.671  10.294  13.367  1.00  0.00     0.029 A 
ATOM     53  N   UNL     1       4.663  10.899  11.478  1.00  0.00    -0.354 N 
ATOM     54  N   UNL     1       3.184  12.743   9.708  1.00  0.00    -0.248 NA
ATOM     55  C   UNL     1       2.059  14.764   9.379  1.00  0.00     0.031 C 
ATOM     56  C   UNL     1       5.157  11.585  13.529  1.00  0.00     0.029 A 
ATOM     57  C   UNL     1       4.547  11.970  12.345  1.00  0.00     0.049 A 
ATOM     58  H   UNL     1       4.314  10.877  10.558  1.00  0.00     0.167 HD
ATOM     59  C   UNL     1       3.300  13.519  10.855  1.00  0.00     0.074 A 
ATOM     60  C   UNL     1       2.622  14.771  10.580  1.00  0.00     0.031 C 
ATOM     61  C   UNL     1       3.905  13.223  12.033  1.00  0.00     0.034 A 
BRANCH  48  62
ATOM     62  C   UNL     1       6.318   7.521  12.286  1.00  0.00     0.023 A 
ATOM     63  C   UNL     1       7.632   7.134  11.943  1.00  0.00     0.012 A 
ATOM     64  C   UNL     1       5.680   6.895  13.373  1.00  0.00     0.148 A 
ATOM     65  C   UNL     1       8.273   6.101  12.626  1.00  0.00     0.002 A 
ATOM     66  C   UNL     1       6.348   5.906  14.086  1.00  0.00     0.091 A 
ATOM     67  F   UNL     1       4.424   7.256  13.674  1.00  0.00    -0.205 F 
ATOM     68  C   UNL     1       7.635   5.494  13.702  1.00  0.00     0.022 A 
BRANCH  66  69
ATOM     69  S   UNL     1       5.645   5.122  15.540  1.00  0.00     0.127 S 
ATOM     70  O   UNL     1       5.330   3.787  15.034  1.00  0.00    -0.237 OA
ATOM     71  O   UNL     1       6.762   5.168  16.484  1.00  0.00    -0.237 OA
ATOM     72  O   UNL     1       4.498   5.936  15.919  1.00  0.00    -0.744 OA
ENDBRANCH  66  69
ENDBRANCH  48  62
BRANCH  49  73
ATOM     73  C   UNL     1       1.423  14.149   6.577  1.00  0.00     0.023 A 
ATOM     74  C   UNL     1       2.092  15.332   6.206  1.00  0.00     0.012 A 
ATOM     75  C   UNL     1       0.118  13.920   6.100  1.00  0.00     0.148 A 
ATOM     76  C   UNL     1       1.466  16.282   5.399  1.00  0.00     0.002 A 
ATOM     77  C   UNL     1      -0.481  14.846   5.254  1.00  0.00     0.091 A 
ATOM     78  F   UNL     1      -0.501  12.789   6.467  1.00  0.00    -0.205 F 
ATOM     79  C   UNL     1       0.184  16.035   4.915  1.00  0.00     0.022 A 
BRANCH  77  80
ATOM     80  S   UNL     1      -2.079  14.563   4.484  1.00  0.00     0.127 S 
ATOM     81  O   UNL     1      -2.895  15.610   5.096  1.00  0.00    -0.237 OA
ATOM     82  O   UNL     1      -1.770  14.770   3.069  1.00  0.00    -0.237 OA
ATOM     83  O   UNL     1      -2.449  13.198   4.830  1.00  0.00    -0.744 OA
ENDBRANCH  77  80
ENDBRANCH  49  73
BRANCH  61  84
ATOM     84  C   UNL     1       3.905  14.282  13.102  1.00  0.00     0.023 A 
ATOM     85  C   UNL     1       2.712  14.599  13.782  1.00  0.00     0.012 A 
ATOM     86  C   UNL     1       5.109  14.906  13.485  1.00  0.00     0.148 A 
ATOM     87  C   UNL     1       2.713  15.548  14.803  1.00  0.00     0.002 A 
ATOM     88  C   UNL     1       5.111  15.809  14.540  1.00  0.00     0.091 A 
ATOM     89  F   UNL     1       6.228  14.601  12.813  1.00  0.00    -0.205 F 
ATOM     90  C   UNL     1       3.912  16.142  15.191  1.00  0.00     0.022 A 
BRANCH  88  91
ATOM     91  S   UNL     1       6.621  16.542  15.176  1.00  0.00     0.127 S 
ATOM     92  O   UNL     1       6.476  17.935  14.755  1.00  0.00    -0.237 OA
ATOM     93  O   UNL     1       6.488  16.322  16.617  1.00  0.00    -0.237 OA
ATOM     94  O   UNL     1       7.718  15.814  14.552  1.00  0.00    -0.744 OA
ENDBRANCH  88  91
ENDBRANCH  61  84
ENDBRANCH  35  36
ENDBRANCH  27  30
ENDBRANCH  25  26
ENDBRANCH  24  25
ENDBRANCH   1  24
TORSDOF 18
