REMARK SMILES C[C@H]1[C@@H](C(=O)NCCCNC(=O)c2ccc(-c3c4nc(c(-c5cccc(S(=O)(=O)[O-])c5F)c5ccc([nH]5)c(-c5cccc(S(=O)(=O)[O-])c5F)c5nc(c(-c6cccc(S(=O)(=O)[O-])c6F)c6ccc3[nH]6)C=C5)C=C4)cc2)CC[N@@H+]1CC(F)(F)F
REMARK SMILES IDX 8 1 7 2 6 3 4 4 5 5 3 7 1 8 2 9 78 10 76 11 77 12 79 14
REMARK SMILES IDX 80 15 81 16 82 17 83 18 9 19 10 20 11 21 12 23 13 24 14 25
REMARK SMILES IDX 75 26 15 27 74 28 16 29 17 30 18 31 68 32 19 33 73 34 67 35
REMARK SMILES IDX 69 36 20 37 72 38 66 39 65 40 21 42 53 43 33 44 52 45 34 46
REMARK SMILES IDX 37 47 51 48 70 49 35 50 36 51 50 53 71 54 38 55 22 56 23 57
REMARK SMILES IDX 31 58 24 59 26 60 32 61 25 62 27 63 28 64 29 65 30 66 54 67
REMARK SMILES IDX 55 68 63 69 56 70 58 71 64 72 57 73 59 74 60 75 61 76 62 77
REMARK SMILES IDX 39 78 40 79 48 80 41 81 43 82 49 83 42 84 44 85 45 86 46 87
REMARK SMILES IDX 47 88
REMARK H PARENT 6 6 78 13 10 22 69 41 37 52
REMARK Flexibility Score: inf
ROOT
ATOM      1  C   UNL     1       3.812   0.706  -1.648  1.00  0.00     0.042 C 
ENDROOT
BRANCH   1   2
ATOM      2  C   UNL     1       2.930   1.774  -0.996  1.00  0.00     0.117 C 
BRANCH   2   3
ATOM      3  N   UNL     1       1.666   1.871  -1.700  1.00  0.00    -0.356 N 
ATOM      4  C   UNL     1       0.432   1.379  -1.405  1.00  0.00     0.229 C 
ATOM      5  O   UNL     1      -0.390   1.402  -2.325  1.00  0.00    -0.275 OA
ATOM      6  H   UNL     1       1.708   2.383  -2.540  1.00  0.00     0.163 HD
BRANCH   4   7
ATOM      7  C   UNL     1       0.051   0.982   0.023  1.00  0.00     0.142 C 
ATOM      8  C   UNL     1       1.599  -1.163  -0.038  1.00  0.00     0.076 C 
ATOM      9  C   UNL     1       0.476  -0.380   0.611  1.00  0.00     0.193 C 
ATOM     10  N   UNL     1      -0.709  -1.264   0.603  1.00  0.00    -0.325 N 
ATOM     11  C   UNL     1      -1.481   0.918   0.143  1.00  0.00     0.081 C 
ATOM     12  C   UNL     1      -1.790  -0.550  -0.069  1.00  0.00     0.263 C 
ATOM     13  H   UNL     1      -0.508  -2.115   0.078  1.00  0.00     0.348 HD
BRANCH  10  14
ATOM     14  C   UNL     1      -1.052  -1.797   1.944  1.00  0.00     0.379 C 
BRANCH  14  15
ATOM     15  C   UNL     1      -1.641  -0.884   3.038  1.00  0.00     0.438 C 
ATOM     16  F   UNL     1      -2.879  -0.445   2.715  1.00  0.00    -0.165 F 
ATOM     17  F   UNL     1      -1.748  -1.553   4.210  1.00  0.00    -0.165 F 
ATOM     18  F   UNL     1      -0.868   0.202   3.268  1.00  0.00    -0.165 F 
ENDBRANCH  14  15
ENDBRANCH  10  14
ENDBRANCH   4   7
ENDBRANCH   2   3
ENDBRANCH   1   2
BRANCH   1  19
ATOM     19  C   UNL     1       4.344   1.089  -3.022  1.00  0.00     0.118 C 
BRANCH  19  20
ATOM     20  N   UNL     1       5.593   1.821  -2.934  1.00  0.00    -0.352 N 
ATOM     21  C   UNL     1       6.873   1.420  -3.230  1.00  0.00     0.251 C 
ATOM     22  H   UNL     1       5.510   2.748  -2.612  1.00  0.00     0.163 HD
ATOM     23  O   UNL     1       7.810   2.117  -2.844  1.00  0.00    -0.269 OA
BRANCH  21  24
ATOM     24  C   UNL     1       7.147   0.172  -3.989  1.00  0.00     0.039 A 
ATOM     25  C   UNL     1       8.293  -0.564  -3.670  1.00  0.00     0.014 A 
ATOM     26  C   UNL     1       6.343  -0.247  -5.053  1.00  0.00     0.014 A 
ATOM     27  C   UNL     1       8.612  -1.720  -4.392  1.00  0.00     0.010 A 
ATOM     28  C   UNL     1       6.609  -1.451  -5.708  1.00  0.00     0.010 A 
ATOM     29  C   UNL     1       7.763  -2.187  -5.408  1.00  0.00    -0.014 A 
BRANCH  29  30
ATOM     30  C   UNL     1       8.092  -3.415  -6.183  1.00  0.00     0.031 A 
ATOM     31  C   UNL     1       8.322  -3.343  -7.673  1.00  0.00     0.074 A 
ATOM     32  C   UNL     1       8.131  -4.611  -5.562  1.00  0.00     0.049 A 
ATOM     33  N   UNL     1       8.604  -4.306  -8.513  1.00  0.00    -0.248 NA
ATOM     34  C   UNL     1       8.191  -2.021  -8.308  1.00  0.00     0.031 C 
ATOM     35  C   UNL     1       7.839  -4.837  -4.145  1.00  0.00     0.029 A 
ATOM     36  N   UNL     1       8.411  -5.865  -6.046  1.00  0.00    -0.354 N 
ATOM     37  C   UNL     1       8.648  -3.717  -9.772  1.00  0.00     0.074 A 
ATOM     38  C   UNL     1       8.322  -2.319  -9.592  1.00  0.00     0.031 C 
ATOM     39  C   UNL     1       7.961  -6.146  -3.873  1.00  0.00     0.029 A 
ATOM     40  C   UNL     1       8.321  -6.857  -5.097  1.00  0.00     0.049 A 
ATOM     41  H   UNL     1       8.653  -6.038  -6.984  1.00  0.00     0.167 HD
ATOM     42  C   UNL     1       8.967  -4.273 -10.965  1.00  0.00     0.034 A 
ATOM     43  C   UNL     1       8.508  -8.188  -5.197  1.00  0.00     0.034 A 
ATOM     44  C   UNL     1       9.346  -5.650 -11.138  1.00  0.00     0.049 A 
ATOM     45  C   UNL     1       8.932  -8.771  -6.518  1.00  0.00     0.074 A 
ATOM     46  C   UNL     1       9.774  -6.288 -12.289  1.00  0.00     0.029 A 
ATOM     47  N   UNL     1       9.344  -6.602 -10.131  1.00  0.00    -0.354 N 
ATOM     48  N   UNL     1       9.130  -8.164  -7.663  1.00  0.00    -0.248 NA
ATOM     49  C   UNL     1       9.201 -10.216  -6.551  1.00  0.00     0.031 C 
ATOM     50  C   UNL     1      10.019  -7.631 -11.979  1.00  0.00     0.029 A 
ATOM     51  C   UNL     1       9.761  -7.824 -10.632  1.00  0.00     0.049 A 
ATOM     52  H   UNL     1       9.084  -6.435  -9.196  1.00  0.00     0.167 HD
ATOM     53  C   UNL     1       9.572  -9.144  -8.544  1.00  0.00     0.074 A 
ATOM     54  C   UNL     1       9.642 -10.380  -7.791  1.00  0.00     0.031 C 
ATOM     55  C   UNL     1       9.873  -9.036  -9.862  1.00  0.00     0.034 A 
BRANCH  42  56
ATOM     56  C   UNL     1       8.991  -3.369 -12.173  1.00  0.00     0.023 A 
ATOM     57  C   UNL     1      10.020  -2.412 -12.299  1.00  0.00     0.012 A 
ATOM     58  C   UNL     1       8.037  -3.494 -13.201  1.00  0.00     0.148 A 
ATOM     59  C   UNL     1      10.077  -1.568 -13.407  1.00  0.00     0.002 A 
ATOM     60  C   UNL     1       8.125  -2.678 -14.325  1.00  0.00     0.091 A 
ATOM     61  F   UNL     1       7.054  -4.394 -13.057  1.00  0.00    -0.205 F 
ATOM     62  C   UNL     1       9.136  -1.708 -14.423  1.00  0.00     0.022 A 
BRANCH  60  63
ATOM     63  S   UNL     1       7.009  -2.832 -15.724  1.00  0.00     0.127 S 
ATOM     64  O   UNL     1       6.177  -1.639 -15.570  1.00  0.00    -0.237 OA
ATOM     65  O   UNL     1       7.930  -2.789 -16.861  1.00  0.00    -0.237 OA
ATOM     66  O   UNL     1       6.321  -4.103 -15.549  1.00  0.00    -0.744 OA
ENDBRANCH  60  63
ENDBRANCH  42  56
BRANCH  43  67
ATOM     67  C   UNL     1       8.372  -9.046  -3.986  1.00  0.00     0.023 A 
ATOM     68  C   UNL     1       9.524  -9.609  -3.404  1.00  0.00     0.012 A 
ATOM     69  C   UNL     1       7.119  -9.271  -3.384  1.00  0.00     0.148 A 
ATOM     70  C   UNL     1       9.429 -10.402  -2.260  1.00  0.00     0.002 A 
ATOM     71  C   UNL     1       7.037 -10.016  -2.213  1.00  0.00     0.091 A 
ATOM     72  F   UNL     1       6.032  -8.739  -3.961  1.00  0.00    -0.205 F 
ATOM     73  C   UNL     1       8.189 -10.596  -1.659  1.00  0.00     0.022 A 
BRANCH  71  74
ATOM     74  S   UNL     1       5.503 -10.197  -1.296  1.00  0.00     0.127 S 
ATOM     75  O   UNL     1       5.155 -11.591  -1.566  1.00  0.00    -0.237 OA
ATOM     76  O   UNL     1       5.936  -9.926   0.077  1.00  0.00    -0.237 OA
ATOM     77  O   UNL     1       4.599  -9.198  -1.845  1.00  0.00    -0.744 OA
ENDBRANCH  71  74
ENDBRANCH  43  67
BRANCH  55  78
ATOM     78  C   UNL     1      10.325 -10.282 -10.577  1.00  0.00     0.023 A 
ATOM     79  C   UNL     1       9.389 -11.293 -10.873  1.00  0.00     0.012 A 
ATOM     80  C   UNL     1      11.657 -10.424 -11.012  1.00  0.00     0.148 A 
ATOM     81  C   UNL     1       9.780 -12.443 -11.559  1.00  0.00     0.002 A 
ATOM     82  C   UNL     1      12.029 -11.552 -11.736  1.00  0.00     0.091 A 
ATOM     83  F   UNL     1      12.539  -9.462 -10.704  1.00  0.00    -0.205 F 
ATOM     84  C   UNL     1      11.095 -12.567 -11.999  1.00  0.00     0.022 A 
BRANCH  82  85
ATOM     85  S   UNL     1      13.679 -11.749 -12.419  1.00  0.00     0.127 S 
ATOM     86  O   UNL     1      14.276 -12.704 -11.488  1.00  0.00    -0.237 OA
ATOM     87  O   UNL     1      13.404 -12.289 -13.752  1.00  0.00    -0.237 OA
ATOM     88  O   UNL     1      14.269 -10.418 -12.421  1.00  0.00    -0.744 OA
ENDBRANCH  82  85
ENDBRANCH  55  78
ENDBRANCH  29  30
ENDBRANCH  21  24
ENDBRANCH  19  20
ENDBRANCH   1  19
TORSDOF 15
