REMARK SMILES C[C@@H](CCO)SCc1cccc(/C=C/C(=O)NCCCNC(=O)c2ccc(-c3c4nc(c(-c5cccc(S(=O)(=O)[O-])c5F)c5ccc([nH]5)c(-c5cccc(S(=O)(=O)[O-])c5F)c5nc(c(-c6cccc(S(=O)(=O)[O-])c6F)c6ccc3[nH]6)C=C5)C=C4)cc2)c1
REMARK SMILES IDX 15 1 16 2 17 3 14 5 13 6 12 7 8 8 9 9 87 10 10 11 11 12 7 13
REMARK SMILES IDX 6 14 2 15 1 16 3 17 4 18 5 19 18 21 19 22 20 23 21 24 22 25
REMARK SMILES IDX 23 27 24 28 25 29 86 30 26 31 85 32 27 33 28 34 29 35 79 36
REMARK SMILES IDX 30 37 84 38 78 39 80 40 31 41 83 42 77 43 76 44 32 46 64 47
REMARK SMILES IDX 44 48 63 49 45 50 48 51 62 52 81 53 46 54 47 55 61 57 82 58
REMARK SMILES IDX 49 59 33 60 34 61 42 62 35 63 37 64 43 65 36 66 38 67 39 68
REMARK SMILES IDX 40 69 41 70 65 71 66 72 74 73 67 74 69 75 75 76 68 77 70 78
REMARK SMILES IDX 71 79 72 80 73 81 50 82 51 83 59 84 52 85 54 86 60 87 53 88
REMARK SMILES IDX 55 89 56 90 57 91 58 92
REMARK H PARENT 17 4 5 20 21 26 80 45 48 56
REMARK Flexibility Score: inf
ROOT
ATOM      1  C   UNL     1       3.500  -6.383   0.632  1.00  0.00     0.244 C 
ATOM      2  O   UNL     1       3.894  -7.540   0.746  1.00  0.00    -0.270 OA
ATOM      3  N   UNL     1       4.395  -5.361   0.540  1.00  0.00    -0.352 N 
ATOM      4  H   UNL     1       5.335  -5.615   0.686  1.00  0.00     0.163 HD
ENDROOT
BRANCH   1   5
ATOM      5  C   UNL     1       2.059  -6.110   0.462  1.00  0.00     0.072 C 
ATOM      6  C   UNL     1       1.354  -5.283   1.251  1.00  0.00     0.014 C 
BRANCH   6   7
ATOM      7  C   UNL     1      -0.041  -4.924   0.944  1.00  0.00    -0.025 A 
ATOM      8  C   UNL     1      -1.633  -3.116   0.542  1.00  0.00    -0.037 A 
ATOM      9  C   UNL     1      -2.538  -4.049   0.017  1.00  0.00     0.004 A 
ATOM     10  C   UNL     1      -0.419  -3.580   1.071  1.00  0.00     0.012 A 
ATOM     11  C   UNL     1      -2.213  -5.405  -0.018  1.00  0.00     0.001 A 
ATOM     12  C   UNL     1      -0.964  -5.839   0.429  1.00  0.00     0.008 A 
BRANCH   8  13
ATOM     13  C   UNL     1      -1.909  -1.636   0.433  1.00  0.00     0.105 C 
BRANCH  13  14
ATOM     14  S   UNL     1      -1.631  -1.014  -1.277  1.00  0.00    -0.154 SA
BRANCH  14  15
ATOM     15  C   UNL     1       0.129  -0.445  -1.319  1.00  0.00     0.046 C 
ATOM     16  C   UNL     1       0.760  -0.094   0.025  1.00  0.00     0.019 C 
BRANCH  15  17
ATOM     17  C   UNL     1       1.056  -1.302  -2.212  1.00  0.00     0.042 C 
BRANCH  17  18
ATOM     18  C   UNL     1       1.163  -2.783  -1.891  1.00  0.00     0.157 C 
BRANCH  18  19
ATOM     19  O   UNL     1       0.074  -3.513  -2.430  1.00  0.00    -0.396 OA
ATOM     20  H   UNL     1      -0.755  -3.188  -2.045  1.00  0.00     0.210 HD
ENDBRANCH  18  19
ENDBRANCH  17  18
ENDBRANCH  15  17
ENDBRANCH  14  15
ENDBRANCH  13  14
ENDBRANCH   8  13
ENDBRANCH   6   7
ENDBRANCH   1   5
BRANCH   3  21
ATOM     21  C   UNL     1       4.176  -3.953   0.259  1.00  0.00     0.118 C 
BRANCH  21  22
ATOM     22  C   UNL     1       4.437  -3.075   1.478  1.00  0.00     0.042 C 
BRANCH  22  23
ATOM     23  C   UNL     1       5.907  -2.999   1.878  1.00  0.00     0.118 C 
BRANCH  23  24
ATOM     24  N   UNL     1       6.716  -2.294   0.893  1.00  0.00    -0.352 N 
ATOM     25  C   UNL     1       7.516  -1.187   1.026  1.00  0.00     0.251 C 
ATOM     26  H   UNL     1       6.685  -2.674  -0.015  1.00  0.00     0.163 HD
ATOM     27  O   UNL     1       7.955  -0.648   0.011  1.00  0.00    -0.269 OA
BRANCH  25  28
ATOM     28  C   UNL     1       7.846  -0.626   2.358  1.00  0.00     0.039 A 
ATOM     29  C   UNL     1       7.950   0.762   2.492  1.00  0.00     0.014 A 
ATOM     30  C   UNL     1       8.109  -1.446   3.459  1.00  0.00     0.014 A 
ATOM     31  C   UNL     1       8.274   1.323   3.731  1.00  0.00     0.010 A 
ATOM     32  C   UNL     1       8.347  -0.882   4.712  1.00  0.00     0.010 A 
ATOM     33  C   UNL     1       8.452   0.508   4.860  1.00  0.00    -0.014 A 
BRANCH  33  34
ATOM     34  C   UNL     1       8.759   1.100   6.189  1.00  0.00     0.031 A 
ATOM     35  C   UNL     1      10.057   0.787   6.889  1.00  0.00     0.074 A 
ATOM     36  C   UNL     1       7.843   1.881   6.797  1.00  0.00     0.049 A 
ATOM     37  N   UNL     1      10.494   1.215   8.046  1.00  0.00    -0.248 NA
ATOM     38  C   UNL     1      10.974  -0.148   6.215  1.00  0.00     0.031 C 
ATOM     39  C   UNL     1       6.514   2.193   6.268  1.00  0.00     0.029 A 
ATOM     40  N   UNL     1       7.883   2.541   8.000  1.00  0.00    -0.354 N 
ATOM     41  C   UNL     1      11.713   0.580   8.254  1.00  0.00     0.074 A 
ATOM     42  C   UNL     1      11.930  -0.293   7.121  1.00  0.00     0.031 C 
ATOM     43  C   UNL     1       5.872   2.993   7.133  1.00  0.00     0.029 A 
ATOM     44  C   UNL     1       6.729   3.231   8.290  1.00  0.00     0.049 A 
ATOM     45  H   UNL     1       8.664   2.522   8.599  1.00  0.00     0.167 HD
ATOM     46  C   UNL     1      12.590   0.730   9.276  1.00  0.00     0.034 A 
ATOM     47  C   UNL     1       6.398   3.974   9.364  1.00  0.00     0.034 A 
ATOM     48  C   UNL     1      12.392   1.628  10.383  1.00  0.00     0.049 A 
ATOM     49  C   UNL     1       7.413   4.171  10.457  1.00  0.00     0.074 A 
ATOM     50  C   UNL     1      13.256   1.914  11.425  1.00  0.00     0.029 A 
ATOM     51  N   UNL     1      11.247   2.381  10.596  1.00  0.00    -0.354 N 
ATOM     52  N   UNL     1       8.627   3.687  10.555  1.00  0.00    -0.248 NA
ATOM     53  C   UNL     1       7.029   5.055  11.567  1.00  0.00     0.031 C 
ATOM     54  C   UNL     1      12.623   2.821  12.282  1.00  0.00     0.029 A 
ATOM     55  C   UNL     1      11.379   3.128  11.755  1.00  0.00     0.049 A 
ATOM     56  H   UNL     1      10.456   2.384  10.010  1.00  0.00     0.167 HD
ATOM     57  C   UNL     1       9.166   4.239  11.712  1.00  0.00     0.074 A 
ATOM     58  C   UNL     1       8.153   5.112  12.267  1.00  0.00     0.031 C 
ATOM     59  C   UNL     1      10.384   4.032  12.271  1.00  0.00     0.034 A 
BRANCH  46  60
ATOM     60  C   UNL     1      13.873  -0.061   9.221  1.00  0.00     0.023 A 
ATOM     61  C   UNL     1      14.854   0.268   8.263  1.00  0.00     0.012 A 
ATOM     62  C   UNL     1      14.134  -1.090  10.148  1.00  0.00     0.148 A 
ATOM     63  C   UNL     1      16.056  -0.438   8.202  1.00  0.00     0.002 A 
ATOM     64  C   UNL     1      15.354  -1.756  10.112  1.00  0.00     0.091 A 
ATOM     65  F   UNL     1      13.183  -1.403  11.040  1.00  0.00    -0.205 F 
ATOM     66  C   UNL     1      16.309  -1.441   9.132  1.00  0.00     0.022 A 
BRANCH  64  67
ATOM     67  S   UNL     1      15.811  -3.007  11.318  1.00  0.00     0.127 S 
ATOM     68  O   UNL     1      15.786  -4.223  10.505  1.00  0.00    -0.237 OA
ATOM     69  O   UNL     1      17.149  -2.571  11.719  1.00  0.00    -0.237 OA
ATOM     70  O   UNL     1      14.809  -2.937  12.370  1.00  0.00    -0.744 OA
ENDBRANCH  64  67
ENDBRANCH  46  60
BRANCH  47  71
ATOM     71  C   UNL     1       5.072   4.652   9.421  1.00  0.00     0.023 A 
ATOM     72  C   UNL     1       5.003   6.055   9.313  1.00  0.00     0.012 A 
ATOM     73  C   UNL     1       3.880   3.915   9.559  1.00  0.00     0.148 A 
ATOM     74  C   UNL     1       3.776   6.715   9.380  1.00  0.00     0.002 A 
ATOM     75  C   UNL     1       2.656   4.575   9.565  1.00  0.00     0.091 A 
ATOM     76  F   UNL     1       3.966   2.582   9.668  1.00  0.00    -0.205 F 
ATOM     77  C   UNL     1       2.603   5.975   9.496  1.00  0.00     0.022 A 
BRANCH  75  78
ATOM     78  S   UNL     1       1.091   3.693   9.569  1.00  0.00     0.127 S 
ATOM     79  O   UNL     1       0.584   3.991  10.908  1.00  0.00    -0.237 OA
ATOM     80  O   UNL     1       0.371   4.354   8.478  1.00  0.00    -0.237 OA
ATOM     81  O   UNL     1       1.421   2.302   9.311  1.00  0.00    -0.744 OA
ENDBRANCH  75  78
ENDBRANCH  47  71
BRANCH  59  82
ATOM     82  C   UNL     1      10.713   4.799  13.526  1.00  0.00     0.023 A 
ATOM     83  C   UNL     1      10.064   4.486  14.738  1.00  0.00     0.012 A 
ATOM     84  C   UNL     1      11.699   5.805  13.513  1.00  0.00     0.148 A 
ATOM     85  C   UNL     1      10.357   5.193  15.903  1.00  0.00     0.002 A 
ATOM     86  C   UNL     1      12.025   6.468  14.690  1.00  0.00     0.091 A 
ATOM     87  F   UNL     1      12.293   6.105  12.349  1.00  0.00    -0.205 F 
ATOM     88  C   UNL     1      11.344   6.176  15.882  1.00  0.00     0.022 A 
BRANCH  86  89
ATOM     89  S   UNL     1      13.352   7.676  14.772  1.00  0.00     0.127 S 
ATOM     90  O   UNL     1      12.608   8.934  14.814  1.00  0.00    -0.237 OA
ATOM     91  O   UNL     1      14.021   7.321  16.024  1.00  0.00    -0.237 OA
ATOM     92  O   UNL     1      14.159   7.462  13.578  1.00  0.00    -0.744 OA
ENDBRANCH  86  89
ENDBRANCH  59  82
ENDBRANCH  33  34
ENDBRANCH  25  28
ENDBRANCH  23  24
ENDBRANCH  22  23
ENDBRANCH  21  22
ENDBRANCH   3  21
TORSDOF 20
