REMARK SMILES C[C@H](Sc1ccnc(C(=O)NCCCNC(=O)c2ccc(-c3c4nc(c(-c5cccc(S(=O)(=O)[O-])c5F)c5ccc([nH]5)c(-c5cccc(S(=O)(=O)[O-])c5F)c5nc(c(-c6cccc(S(=O)(=O)[O-])c6F)c6ccc3[nH]6)C=C5)C=C4)cc2)c1)[C@@H](C)O
REMARK SMILES IDX 12 1 11 2 9 3 10 4 8 6 4 7 5 8 81 9 6 10 7 11 3 12 2 13 1 14
REMARK SMILES IDX 82 15 83 16 84 17 13 19 14 20 15 21 16 22 17 24 18 25 19 26
REMARK SMILES IDX 80 27 20 28 79 29 21 30 22 31 23 32 73 33 24 34 78 35 72 36
REMARK SMILES IDX 74 37 25 38 77 39 71 40 70 41 26 43 58 44 38 45 57 46 39 47
REMARK SMILES IDX 42 48 56 49 75 50 40 51 41 52 55 54 76 55 43 56 27 57 28 58
REMARK SMILES IDX 36 59 29 60 31 61 37 62 30 63 32 64 33 65 34 66 35 67 59 68
REMARK SMILES IDX 60 69 68 70 61 71 63 72 69 73 62 74 64 75 65 76 66 77 67 78
REMARK SMILES IDX 44 79 45 80 53 81 46 82 48 83 54 84 47 85 49 86 50 87 51 88
REMARK SMILES IDX 52 89
REMARK H PARENT 11 5 84 18 15 23 74 42 42 53
REMARK Flexibility Score: inf
ROOT
ATOM      1  C   UNL     1       1.898  -5.020   1.195  1.00  0.00     0.118 C 
ENDROOT
BRANCH   1   2
ATOM      2  N   UNL     1       0.842  -5.735   0.503  1.00  0.00    -0.351 N 
ATOM      3  C   UNL     1      -0.101  -5.359  -0.427  1.00  0.00     0.269 C 
ATOM      4  O   UNL     1      -0.838  -6.257  -0.842  1.00  0.00    -0.268 OA
ATOM      5  H   UNL     1       0.789  -6.687   0.750  1.00  0.00     0.163 HD
BRANCH   3   6
ATOM      6  C   UNL     1      -0.234  -3.964  -0.981  1.00  0.00     0.129 A 
ATOM      7  C   UNL     1       0.185  -1.588  -1.001  1.00  0.00     0.011 A 
ATOM      8  C   UNL     1      -0.433  -1.528  -2.241  1.00  0.00     0.035 A 
ATOM      9  C   UNL     1       0.227  -2.824  -0.343  1.00  0.00     0.049 A 
ATOM     10  C   UNL     1      -0.946  -2.695  -2.781  1.00  0.00     0.113 A 
ATOM     11  N   UNL     1      -0.838  -3.901  -2.196  1.00  0.00    -0.251 NA
BRANCH   7  12
ATOM     12  S   UNL     1       1.074  -0.268  -0.186  1.00  0.00    -0.120 SA
BRANCH  12  13
ATOM     13  C   UNL     1       0.420   1.334  -0.820  1.00  0.00     0.077 C 
ATOM     14  C   UNL     1       0.998   1.675  -2.196  1.00  0.00     0.022 C 
BRANCH  13  15
ATOM     15  C   UNL     1      -1.107   1.520  -0.700  1.00  0.00     0.124 C 
ATOM     16  C   UNL     1      -1.621   1.410   0.735  1.00  0.00     0.039 C 
BRANCH  15  17
ATOM     17  O   UNL     1      -1.477   2.808  -1.209  1.00  0.00    -0.392 OA
ATOM     18  H   UNL     1      -1.059   3.499  -0.673  1.00  0.00     0.210 HD
ENDBRANCH  15  17
ENDBRANCH  13  15
ENDBRANCH  12  13
ENDBRANCH   7  12
ENDBRANCH   3   6
ENDBRANCH   1   2
BRANCH   1  19
ATOM     19  C   UNL     1       1.457  -4.608   2.601  1.00  0.00     0.042 C 
BRANCH  19  20
ATOM     20  C   UNL     1       1.432  -5.771   3.592  1.00  0.00     0.118 C 
BRANCH  20  21
ATOM     21  N   UNL     1       2.768  -6.290   3.846  1.00  0.00    -0.352 N 
ATOM     22  C   UNL     1       3.453  -6.449   5.023  1.00  0.00     0.251 C 
ATOM     23  H   UNL     1       3.260  -6.573   3.042  1.00  0.00     0.163 HD
ATOM     24  O   UNL     1       4.660  -6.675   4.976  1.00  0.00    -0.269 OA
BRANCH  22  25
ATOM     25  C   UNL     1       2.768  -6.360   6.332  1.00  0.00     0.039 A 
ATOM     26  C   UNL     1       3.467  -5.811   7.411  1.00  0.00     0.014 A 
ATOM     27  C   UNL     1       1.487  -6.883   6.529  1.00  0.00     0.014 A 
ATOM     28  C   UNL     1       2.875  -5.764   8.675  1.00  0.00     0.010 A 
ATOM     29  C   UNL     1       0.869  -6.769   7.774  1.00  0.00     0.010 A 
ATOM     30  C   UNL     1       1.563  -6.228   8.865  1.00  0.00    -0.014 A 
BRANCH  30  31
ATOM     31  C   UNL     1       0.919  -6.151  10.201  1.00  0.00     0.031 A 
ATOM     32  C   UNL     1       0.528  -7.404  10.940  1.00  0.00     0.074 A 
ATOM     33  C   UNL     1       0.640  -4.943  10.728  1.00  0.00     0.049 A 
ATOM     34  N   UNL     1      -0.020  -7.525  12.122  1.00  0.00    -0.248 NA
ATOM     35  C   UNL     1       0.758  -8.687  10.255  1.00  0.00     0.031 C 
ATOM     36  C   UNL     1       0.885  -3.658  10.069  1.00  0.00     0.029 A 
ATOM     37  N   UNL     1       0.077  -4.597  11.930  1.00  0.00    -0.354 N 
ATOM     38  C   UNL     1      -0.230  -8.887  12.308  1.00  0.00     0.074 A 
ATOM     39  C   UNL     1       0.216  -9.550  11.102  1.00  0.00     0.031 C 
ATOM     40  C   UNL     1       0.490  -2.665  10.880  1.00  0.00     0.029 A 
ATOM     41  C   UNL     1      -0.052  -3.239  12.107  1.00  0.00     0.049 A 
ATOM     42  H   UNL     1      -0.207  -5.258  12.602  1.00  0.00     0.167 HD
ATOM     43  C   UNL     1      -0.717  -9.532  13.396  1.00  0.00     0.034 A 
ATOM     44  C   UNL     1      -0.542  -2.536  13.146  1.00  0.00     0.034 A 
ATOM     45  C   UNL     1      -1.116  -8.871  14.610  1.00  0.00     0.049 A 
ATOM     46  C   UNL     1      -1.004  -3.276  14.372  1.00  0.00     0.074 A 
ATOM     47  C   UNL     1      -1.542  -9.435  15.800  1.00  0.00     0.029 A 
ATOM     48  N   UNL     1      -1.140  -7.496  14.791  1.00  0.00    -0.354 N 
ATOM     49  N   UNL     1      -1.036  -4.568  14.593  1.00  0.00    -0.248 NA
ATOM     50  C   UNL     1      -1.453  -2.461  15.509  1.00  0.00     0.031 C 
ATOM     51  C   UNL     1      -1.838  -8.400  16.695  1.00  0.00     0.029 A 
ATOM     52  C   UNL     1      -1.574  -7.192  16.070  1.00  0.00     0.049 A 
ATOM     53  H   UNL     1      -0.885  -6.833  14.109  1.00  0.00     0.167 HD
ATOM     54  C   UNL     1      -1.475  -4.720  15.903  1.00  0.00     0.074 A 
ATOM     55  C   UNL     1      -1.667  -3.386  16.434  1.00  0.00     0.031 C 
ATOM     56  C   UNL     1      -1.715  -5.859  16.599  1.00  0.00     0.034 A 
BRANCH  43  57
ATOM     57  C   UNL     1      -0.788 -11.037  13.345  1.00  0.00     0.023 A 
ATOM     58  C   UNL     1       0.406 -11.789  13.382  1.00  0.00     0.012 A 
ATOM     59  C   UNL     1      -2.025 -11.711  13.315  1.00  0.00     0.148 A 
ATOM     60  C   UNL     1       0.372 -13.182  13.352  1.00  0.00     0.002 A 
ATOM     61  C   UNL     1      -2.052 -13.102  13.330  1.00  0.00     0.091 A 
ATOM     62  F   UNL     1      -3.149 -10.983  13.259  1.00  0.00    -0.205 F 
ATOM     63  C   UNL     1      -0.856 -13.838  13.336  1.00  0.00     0.022 A 
BRANCH  61  64
ATOM     64  S   UNL     1      -3.582 -14.042  13.393  1.00  0.00     0.127 S 
ATOM     65  O   UNL     1      -3.636 -14.608  12.046  1.00  0.00    -0.237 OA
ATOM     66  O   UNL     1      -3.304 -15.014  14.451  1.00  0.00    -0.237 OA
ATOM     67  O   UNL     1      -4.629 -13.082  13.711  1.00  0.00    -0.744 OA
ENDBRANCH  61  64
ENDBRANCH  43  57
BRANCH  44  68
ATOM     68  C   UNL     1      -0.529  -1.046  13.106  1.00  0.00     0.023 A 
ATOM     69  C   UNL     1       0.366  -0.341  13.934  1.00  0.00     0.012 A 
ATOM     70  C   UNL     1      -1.365  -0.327  12.231  1.00  0.00     0.148 A 
ATOM     71  C   UNL     1       0.405   1.053  13.917  1.00  0.00     0.002 A 
ATOM     72  C   UNL     1      -1.282   1.059  12.177  1.00  0.00     0.091 A 
ATOM     73  F   UNL     1      -2.217  -1.015  11.458  1.00  0.00    -0.205 F 
ATOM     74  C   UNL     1      -0.411   1.753  13.032  1.00  0.00     0.022 A 
BRANCH  72  75
ATOM     75  S   UNL     1      -2.192   2.031  10.971  1.00  0.00     0.127 S 
ATOM     76  O   UNL     1      -3.212   2.661  11.802  1.00  0.00    -0.237 OA
ATOM     77  O   UNL     1      -1.159   2.936  10.467  1.00  0.00    -0.237 OA
ATOM     78  O   UNL     1      -2.677   1.073   9.984  1.00  0.00    -0.744 OA
ENDBRANCH  72  75
ENDBRANCH  44  68
BRANCH  56  79
ATOM     79  C   UNL     1      -2.186  -5.712  18.022  1.00  0.00     0.023 A 
ATOM     80  C   UNL     1      -3.491  -5.246  18.283  1.00  0.00     0.012 A 
ATOM     81  C   UNL     1      -1.355  -6.076  19.099  1.00  0.00     0.148 A 
ATOM     82  C   UNL     1      -3.943  -5.101  19.594  1.00  0.00     0.002 A 
ATOM     83  C   UNL     1      -1.831  -5.976  20.402  1.00  0.00     0.091 A 
ATOM     84  F   UNL     1      -0.110  -6.498  18.836  1.00  0.00    -0.205 F 
ATOM     85  C   UNL     1      -3.119  -5.475  20.652  1.00  0.00     0.022 A 
BRANCH  83  86
ATOM     86  S   UNL     1      -0.866  -6.528  21.813  1.00  0.00     0.127 S 
ATOM     87  O   UNL     1      -0.347  -5.264  22.332  1.00  0.00    -0.237 OA
ATOM     88  O   UNL     1      -1.878  -7.164  22.658  1.00  0.00    -0.237 OA
ATOM     89  O   UNL     1       0.128  -7.447  21.275  1.00  0.00    -0.744 OA
ENDBRANCH  83  86
ENDBRANCH  56  79
ENDBRANCH  30  31
ENDBRANCH  22  25
ENDBRANCH  20  21
ENDBRANCH  19  20
ENDBRANCH   1  19
TORSDOF 17
