REMARK SMILES COCCNC(=O)NC(=O)C[N@H+]1CC[C@H](C(=O)NCCCNC(=O)c2ccc(-c3c4nc(c(-c5cccc(S(=O)(=O)[O-])c5F)c5ccc([nH]5)c(-c5cccc(S(=O)(=O)[O-])c5F)c5nc(c(-c6cccc(S(=O)(=O)[O-])c6F)c6ccc3[nH]6)C=C5)C=C4)cc2)[C@@H]1C
REMARK SMILES IDX 19 1 18 2 16 3 17 4 15 6 12 7 13 8 88 9 14 11 89 12 11 13
REMARK SMILES IDX 9 14 5 15 6 16 7 18 8 19 10 21 4 22 3 23 2 24 1 25 20 26
REMARK SMILES IDX 21 27 22 28 23 29 24 31 25 32 26 33 87 34 27 35 86 36 28 37
REMARK SMILES IDX 29 38 30 39 80 40 31 41 85 42 79 43 81 44 32 45 84 46 78 47
REMARK SMILES IDX 77 48 33 50 65 51 45 52 64 53 46 54 49 55 63 56 82 57 47 58
REMARK SMILES IDX 48 59 62 61 83 62 50 63 34 64 35 65 43 66 36 67 38 68 44 69
REMARK SMILES IDX 37 70 39 71 40 72 41 73 42 74 66 75 67 76 75 77 68 78 70 79
REMARK SMILES IDX 76 80 69 81 71 82 72 83 73 84 74 85 51 86 52 87 60 88 53 89
REMARK SMILES IDX 55 90 61 91 54 92 56 93 57 94 58 95 59 96
REMARK H PARENT 18 5 12 10 5 17 8 20 22 30 81 49 49 60
REMARK Flexibility Score: inf
ROOT
ATOM      1  C   UNL     1       2.483   2.878   2.705  1.00  0.00     0.117 C 
ENDROOT
BRANCH   1   2
ATOM      2  N   UNL     1       3.677   2.163   3.140  1.00  0.00    -0.356 N 
ATOM      3  C   UNL     1       3.829   0.846   3.486  1.00  0.00     0.229 C 
ATOM      4  O   UNL     1       4.927   0.471   3.881  1.00  0.00    -0.275 OA
ATOM      5  H   UNL     1       4.495   2.707   3.192  1.00  0.00     0.163 HD
BRANCH   3   6
ATOM      6  C   UNL     1       2.626  -0.056   3.281  1.00  0.00     0.142 C 
ATOM      7  N   UNL     1       2.624  -2.402   2.609  1.00  0.00    -0.324 N 
ATOM      8  C   UNL     1       2.794  -1.582   1.422  1.00  0.00     0.263 C 
ATOM      9  C   UNL     1       2.615  -1.506   3.786  1.00  0.00     0.194 C 
ATOM     10  H   UNL     1       3.421  -3.038   2.650  1.00  0.00     0.348 HD
ATOM     11  C   UNL     1       2.395  -0.172   1.783  1.00  0.00     0.081 C 
ATOM     12  C   UNL     1       3.723  -1.934   4.736  1.00  0.00     0.076 C 
BRANCH   7  13
ATOM     13  C   UNL     1       1.512  -3.357   2.592  1.00  0.00     0.364 C 
BRANCH  13  14
ATOM     14  C   UNL     1       1.819  -4.590   1.750  1.00  0.00     0.283 C 
ATOM     15  N   UNL     1       0.218  -2.980  -0.609  1.00  0.00    -0.335 N 
ATOM     16  C   UNL     1       1.249  -3.838  -0.632  1.00  0.00     0.321 C 
ATOM     17  H   UNL     1       0.268  -2.292  -1.310  1.00  0.00     0.165 HD
ATOM     18  O   UNL     1       1.928  -3.883  -1.660  1.00  0.00    -0.248 OA
ATOM     19  N   UNL     1       1.545  -4.674   0.398  1.00  0.00    -0.273 N 
ATOM     20  H   UNL     1       1.572  -5.609   0.092  1.00  0.00     0.175 HD
ATOM     21  O   UNL     1       2.362  -5.580   2.261  1.00  0.00    -0.268 OA
BRANCH  15  22
ATOM     22  C   UNL     1      -0.958  -2.854   0.235  1.00  0.00     0.146 C 
BRANCH  22  23
ATOM     23  C   UNL     1      -1.107  -1.458   0.857  1.00  0.00     0.181 C 
BRANCH  23  24
ATOM     24  O   UNL     1      -1.415  -0.422  -0.078  1.00  0.00    -0.383 OA
ATOM     25  C   UNL     1      -0.331   0.026  -0.879  1.00  0.00     0.194 C 
ENDBRANCH  23  24
ENDBRANCH  22  23
ENDBRANCH  15  22
ENDBRANCH  13  14
ENDBRANCH   7  13
ENDBRANCH   3   6
ENDBRANCH   1   2
BRANCH   1  26
ATOM     26  C   UNL     1       2.094   3.973   3.684  1.00  0.00     0.042 C 
BRANCH  26  27
ATOM     27  C   UNL     1       3.197   4.991   3.918  1.00  0.00     0.118 C 
BRANCH  27  28
ATOM     28  N   UNL     1       3.617   5.665   2.699  1.00  0.00    -0.352 N 
ATOM     29  C   UNL     1       3.940   6.987   2.515  1.00  0.00     0.251 C 
ATOM     30  H   UNL     1       3.678   5.096   1.897  1.00  0.00     0.163 HD
ATOM     31  O   UNL     1       4.135   7.415   1.385  1.00  0.00    -0.269 OA
BRANCH  29  32
ATOM     32  C   UNL     1       4.024   7.885   3.687  1.00  0.00     0.039 A 
ATOM     33  C   UNL     1       3.486   9.169   3.590  1.00  0.00     0.014 A 
ATOM     34  C   UNL     1       4.624   7.460   4.876  1.00  0.00     0.014 A 
ATOM     35  C   UNL     1       3.530  10.016   4.697  1.00  0.00     0.010 A 
ATOM     36  C   UNL     1       4.568   8.264   6.006  1.00  0.00     0.010 A 
ATOM     37  C   UNL     1       4.057   9.565   5.918  1.00  0.00    -0.014 A 
BRANCH  37  38
ATOM     38  C   UNL     1       4.126  10.463   7.096  1.00  0.00     0.031 A 
ATOM     39  C   UNL     1       5.462  10.838   7.681  1.00  0.00     0.074 A 
ATOM     40  C   UNL     1       2.989  10.911   7.662  1.00  0.00     0.049 A 
ATOM     41  N   UNL     1       5.730  11.644   8.675  1.00  0.00    -0.248 NA
ATOM     42  C   UNL     1       6.653  10.201   7.094  1.00  0.00     0.031 C 
ATOM     43  C   UNL     1       1.634  10.555   7.235  1.00  0.00     0.029 A 
ATOM     44  N   UNL     1       2.793  11.761   8.719  1.00  0.00    -0.354 N 
ATOM     45  C   UNL     1       7.108  11.588   8.849  1.00  0.00     0.074 A 
ATOM     46  C   UNL     1       7.614  10.622   7.901  1.00  0.00     0.031 C 
ATOM     47  C   UNL     1       0.747  11.216   7.996  1.00  0.00     0.029 A 
ATOM     48  C   UNL     1       1.468  12.018   8.980  1.00  0.00     0.049 A 
ATOM     49  H   UNL     1       3.530  12.151   9.241  1.00  0.00     0.167 HD
ATOM     50  C   UNL     1       7.891  12.302   9.692  1.00  0.00     0.034 A 
ATOM     51  C   UNL     1       0.901  12.825   9.897  1.00  0.00     0.034 A 
ATOM     52  C   UNL     1       7.384  13.281  10.614  1.00  0.00     0.049 A 
ATOM     53  C   UNL     1       1.790  13.631  10.804  1.00  0.00     0.074 A 
ATOM     54  C   UNL     1       8.089  14.114  11.464  1.00  0.00     0.029 A 
ATOM     55  N   UNL     1       6.038  13.551  10.815  1.00  0.00    -0.354 N 
ATOM     56  N   UNL     1       3.099  13.680  10.852  1.00  0.00    -0.248 NA
ATOM     57  C   UNL     1       1.120  14.528  11.755  1.00  0.00     0.031 C 
ATOM     58  C   UNL     1       7.167  14.863  12.204  1.00  0.00     0.029 A 
ATOM     59  C   UNL     1       5.889  14.531  11.781  1.00  0.00     0.049 A 
ATOM     60  H   UNL     1       5.298  13.111  10.339  1.00  0.00     0.167 HD
ATOM     61  C   UNL     1       3.411  14.649  11.799  1.00  0.00     0.074 A 
ATOM     62  C   UNL     1       2.150  15.168  12.290  1.00  0.00     0.031 C 
ATOM     63  C   UNL     1       4.628  15.070  12.226  1.00  0.00     0.034 A 
BRANCH  50  64
ATOM     64  C   UNL     1       9.380  12.066   9.619  1.00  0.00     0.023 A 
ATOM     65  C   UNL     1      10.095  12.441   8.461  1.00  0.00     0.012 A 
ATOM     66  C   UNL     1      10.075  11.475  10.692  1.00  0.00     0.148 A 
ATOM     67  C   UNL     1      11.459  12.177   8.346  1.00  0.00     0.002 A 
ATOM     68  C   UNL     1      11.446  11.266  10.592  1.00  0.00     0.091 A 
ATOM     69  F   UNL     1       9.382  11.103  11.777  1.00  0.00    -0.205 F 
ATOM     70  C   UNL     1      12.136  11.598   9.415  1.00  0.00     0.022 A 
BRANCH  68  71
ATOM     71  S   UNL     1      12.422  10.607  11.949  1.00  0.00     0.127 S 
ATOM     72  O   UNL     1      12.701   9.251  11.480  1.00  0.00    -0.237 OA
ATOM     73  O   UNL     1      13.581  11.500  11.956  1.00  0.00    -0.237 OA
ATOM     74  O   UNL     1      11.577  10.703  13.131  1.00  0.00    -0.744 OA
ENDBRANCH  68  71
ENDBRANCH  50  64
BRANCH  51  75
ATOM     75  C   UNL     1      -0.579  12.995   9.924  1.00  0.00     0.023 A 
ATOM     76  C   UNL     1      -1.137  14.218   9.501  1.00  0.00     0.012 A 
ATOM     77  C   UNL     1      -1.434  11.954  10.333  1.00  0.00     0.148 A 
ATOM     78  C   UNL     1      -2.518  14.413   9.516  1.00  0.00     0.002 A 
ATOM     79  C   UNL     1      -2.811  12.137  10.295  1.00  0.00     0.091 A 
ATOM     80  F   UNL     1      -0.881  10.800  10.732  1.00  0.00    -0.205 F 
ATOM     81  C   UNL     1      -3.355  13.371   9.905  1.00  0.00     0.022 A 
BRANCH  79  82
ATOM     82  S   UNL     1      -3.973  10.817  10.660  1.00  0.00     0.127 S 
ATOM     83  O   UNL     1      -4.628  11.319  11.866  1.00  0.00    -0.237 OA
ATOM     84  O   UNL     1      -4.809  10.816   9.459  1.00  0.00    -0.237 OA
ATOM     85  O   UNL     1      -3.167   9.617  10.837  1.00  0.00    -0.744 OA
ENDBRANCH  79  82
ENDBRANCH  51  75
BRANCH  63  86
ATOM     86  C   UNL     1       4.662  16.191  13.233  1.00  0.00     0.023 A 
ATOM     87  C   UNL     1       4.231  15.973  14.556  1.00  0.00     0.012 A 
ATOM     88  C   UNL     1       5.171  17.454  12.872  1.00  0.00     0.148 A 
ATOM     89  C   UNL     1       4.259  17.009  15.490  1.00  0.00     0.002 A 
ATOM     90  C   UNL     1       5.250  18.464  13.822  1.00  0.00     0.091 A 
ATOM     91  F   UNL     1       5.559  17.651  11.603  1.00  0.00    -0.205 F 
ATOM     92  C   UNL     1       4.778  18.250  15.127  1.00  0.00     0.022 A 
BRANCH  90  93
ATOM     93  S   UNL     1       6.001  20.056  13.468  1.00  0.00     0.127 S 
ATOM     94  O   UNL     1       4.829  20.924  13.367  1.00  0.00    -0.237 OA
ATOM     95  O   UNL     1       6.827  20.282  14.655  1.00  0.00    -0.237 OA
ATOM     96  O   UNL     1       6.756  19.876  12.235  1.00  0.00    -0.744 OA
ENDBRANCH  90  93
ENDBRANCH  63  86
ENDBRANCH  37  38
ENDBRANCH  29  32
ENDBRANCH  27  28
ENDBRANCH  26  27
ENDBRANCH   1  26
TORSDOF 18
