REMARK SMILES Cc1ccc(C(=O)N2C[C@@H](C(=O)NCCCNC(=O)c3ccc(-c4c5nc(c(-c6cccc(S(=O)(=O)[O-])c6F)c6ccc([nH]6)c(-c6cccc(S(=O)(=O)[O-])c6F)c6nc(c(-c7cccc(S(=O)(=O)[O-])c7F)c7ccc4[nH]7)C=C6)C=C5)cc3)C[C@H](C(=O)N3CCOCC3)C2)cc1F
REMARK SMILES IDX 15 1 14 2 13 3 11 4 12 5 10 7 8 8 9 9 93 10 84 11 83 12 6 13
REMARK SMILES IDX 7 14 5 15 1 16 2 17 3 18 95 19 4 20 94 21 96 22 85 23 86 24
REMARK SMILES IDX 87 25 88 26 92 27 89 28 91 29 90 30 16 31 17 32 18 33 19 35
REMARK SMILES IDX 20 36 21 37 82 38 22 39 81 40 23 41 24 42 25 43 75 44 26 45
REMARK SMILES IDX 80 46 74 47 76 48 27 49 79 50 73 51 72 52 28 54 60 55 40 56
REMARK SMILES IDX 59 57 41 58 44 59 58 60 77 61 42 62 43 63 57 65 78 66 45 67
REMARK SMILES IDX 29 68 30 69 38 70 31 71 33 72 39 73 32 74 34 75 35 76 36 77
REMARK SMILES IDX 37 78 61 79 62 80 70 81 63 82 65 83 71 84 64 85 66 86 67 87
REMARK SMILES IDX 68 88 69 89 46 90 47 91 55 92 48 93 50 94 56 95 49 96 51 97
REMARK SMILES IDX 52 98 53 99 54 100
REMARK H PARENT 13 6 17 34 76 53 44 64
REMARK Flexibility Score: inf
ROOT
ATOM      1  C   UNL     1      -8.206   1.481   0.838  1.00  0.00     0.042 C 
ENDROOT
BRANCH   1   2
ATOM      2  C   UNL     1      -7.218   0.693   1.676  1.00  0.00     0.117 C 
BRANCH   2   3
ATOM      3  N   UNL     1      -7.805  -0.518   2.229  1.00  0.00    -0.356 N 
ATOM      4  C   UNL     1      -7.575  -1.813   1.891  1.00  0.00     0.224 C 
ATOM      5  O   UNL     1      -8.256  -2.710   2.386  1.00  0.00    -0.275 OA
ATOM      6  H   UNL     1      -8.461  -0.379   2.950  1.00  0.00     0.163 HD
BRANCH   4   7
ATOM      7  C   UNL     1      -6.487  -2.145   0.893  1.00  0.00     0.099 C 
ATOM      8  N   UNL     1      -4.121  -1.405   0.392  1.00  0.00    -0.337 N 
ATOM      9  C   UNL     1      -5.132  -1.668   1.406  1.00  0.00     0.133 C 
ATOM     10  C   UNL     1      -4.545  -0.834  -0.885  1.00  0.00     0.133 C 
ATOM     11  C   UNL     1      -5.742  -1.562  -1.514  1.00  0.00     0.099 C 
ATOM     12  C   UNL     1      -6.888  -1.769  -0.538  1.00  0.00     0.030 C 
BRANCH   8  13
ATOM     13  C   UNL     1      -2.805  -1.481   0.843  1.00  0.00     0.254 C 
ATOM     14  O   UNL     1      -2.472  -2.200   1.786  1.00  0.00    -0.269 OA
BRANCH  13  15
ATOM     15  C   UNL     1      -1.740  -0.631   0.272  1.00  0.00     0.042 A 
ATOM     16  C   UNL     1       1.722   1.858  -0.260  1.00  0.00     0.047 C 
ATOM     17  C   UNL     1       0.493   1.005  -0.170  1.00  0.00    -0.015 A 
ATOM     18  C   UNL     1      -0.785   1.571  -0.066  1.00  0.00     0.007 A 
ATOM     19  C   UNL     1       0.624  -0.385  -0.097  1.00  0.00     0.126 A 
ATOM     20  C   UNL     1      -1.900   0.756   0.163  1.00  0.00     0.014 A 
ATOM     21  C   UNL     1      -0.474  -1.203   0.125  1.00  0.00     0.053 A 
ATOM     22  F   UNL     1       1.840  -0.944  -0.177  1.00  0.00    -0.207 F 
ENDBRANCH  13  15
ENDBRANCH   8  13
BRANCH  11  23
ATOM     23  C   UNL     1      -5.235  -2.723  -2.379  1.00  0.00     0.227 C 
ATOM     24  O   UNL     1      -4.957  -2.482  -3.561  1.00  0.00    -0.275 OA
ATOM     25  N   UNL     1      -4.834  -3.903  -1.807  1.00  0.00    -0.338 N 
ATOM     26  C   UNL     1      -5.589  -4.779  -0.912  1.00  0.00     0.148 C 
ATOM     27  C   UNL     1      -3.581  -4.508  -2.247  1.00  0.00     0.148 C 
ATOM     28  C   UNL     1      -4.717  -5.176   0.288  1.00  0.00     0.181 C 
ATOM     29  C   UNL     1      -2.758  -4.885  -1.010  1.00  0.00     0.181 C 
ATOM     30  O   UNL     1      -3.492  -5.788  -0.163  1.00  0.00    -0.378 OA
ENDBRANCH  11  23
ENDBRANCH   4   7
ENDBRANCH   2   3
ENDBRANCH   1   2
BRANCH   1  31
ATOM     31  C   UNL     1      -9.207   2.155   1.730  1.00  0.00     0.118 C 
BRANCH  31  32
ATOM     32  N   UNL     1      -8.604   3.194   2.570  1.00  0.00    -0.352 N 
ATOM     33  C   UNL     1      -9.269   4.270   3.140  1.00  0.00     0.251 C 
ATOM     34  H   UNL     1      -7.638   3.122   2.746  1.00  0.00     0.163 HD
ATOM     35  O   UNL     1      -8.703   5.275   3.507  1.00  0.00    -0.269 OA
BRANCH  33  36
ATOM     36  C   UNL     1     -10.723   4.092   3.281  1.00  0.00     0.039 A 
ATOM     37  C   UNL     1     -11.652   5.093   3.008  1.00  0.00     0.014 A 
ATOM     38  C   UNL     1     -11.123   2.806   3.620  1.00  0.00     0.014 A 
ATOM     39  C   UNL     1     -13.002   4.751   3.033  1.00  0.00     0.010 A 
ATOM     40  C   UNL     1     -12.380   2.412   3.313  1.00  0.00     0.010 A 
ATOM     41  C   UNL     1     -13.345   3.399   3.176  1.00  0.00    -0.014 A 
BRANCH  41  42
ATOM     42  C   UNL     1     -14.687   2.881   3.361  1.00  0.00     0.031 A 
ATOM     43  C   UNL     1     -15.712   3.138   2.358  1.00  0.00     0.074 A 
ATOM     44  C   UNL     1     -14.889   2.146   4.480  1.00  0.00     0.049 A 
ATOM     45  N   UNL     1     -16.929   3.446   2.627  1.00  0.00    -0.248 NA
ATOM     46  C   UNL     1     -15.417   3.122   0.928  1.00  0.00     0.031 C 
ATOM     47  C   UNL     1     -16.030   1.369   4.919  1.00  0.00     0.029 A 
ATOM     48  N   UNL     1     -14.029   2.102   5.574  1.00  0.00    -0.354 N 
ATOM     49  C   UNL     1     -17.639   3.255   1.463  1.00  0.00     0.074 A 
ATOM     50  C   UNL     1     -16.645   3.253   0.411  1.00  0.00     0.031 C 
ATOM     51  C   UNL     1     -15.928   1.174   6.252  1.00  0.00     0.029 A 
ATOM     52  C   UNL     1     -14.764   1.914   6.733  1.00  0.00     0.049 A 
ATOM     53  H   UNL     1     -13.050   2.190   5.531  1.00  0.00     0.167 HD
ATOM     54  C   UNL     1     -18.947   2.871   1.543  1.00  0.00     0.034 A 
ATOM     55  C   UNL     1     -14.742   2.924   7.653  1.00  0.00     0.034 A 
ATOM     56  C   UNL     1     -19.327   2.683   2.945  1.00  0.00     0.049 A 
ATOM     57  C   UNL     1     -16.091   3.595   7.687  1.00  0.00     0.074 A 
ATOM     58  C   UNL     1     -19.423   1.536   3.718  1.00  0.00     0.029 A 
ATOM     59  N   UNL     1     -19.280   3.751   3.836  1.00  0.00    -0.354 N 
ATOM     60  N   UNL     1     -16.909   3.632   6.670  1.00  0.00    -0.248 NA
ATOM     61  C   UNL     1     -16.640   4.219   8.883  1.00  0.00     0.031 C 
ATOM     62  C   UNL     1     -19.344   1.916   5.082  1.00  0.00     0.029 A 
ATOM     63  C   UNL     1     -19.221   3.294   5.140  1.00  0.00     0.049 A 
ATOM     64  H   UNL     1     -19.289   4.700   3.575  1.00  0.00     0.167 HD
ATOM     65  C   UNL     1     -18.100   4.170   7.074  1.00  0.00     0.074 A 
ATOM     66  C   UNL     1     -17.872   4.548   8.459  1.00  0.00     0.031 C 
ATOM     67  C   UNL     1     -19.194   4.228   6.260  1.00  0.00     0.034 A 
BRANCH  54  68
ATOM     68  C   UNL     1     -19.733   2.311   0.371  1.00  0.00     0.023 A 
ATOM     69  C   UNL     1     -19.429   2.635  -0.970  1.00  0.00     0.012 A 
ATOM     70  C   UNL     1     -20.811   1.414   0.556  1.00  0.00     0.148 A 
ATOM     71  C   UNL     1     -20.049   2.006  -2.059  1.00  0.00     0.002 A 
ATOM     72  C   UNL     1     -21.454   0.815  -0.530  1.00  0.00     0.091 A 
ATOM     73  F   UNL     1     -21.244   1.125   1.789  1.00  0.00    -0.205 F 
ATOM     74  C   UNL     1     -21.058   1.083  -1.840  1.00  0.00     0.022 A 
BRANCH  72  75
ATOM     75  S   UNL     1     -22.824  -0.307  -0.225  1.00  0.00     0.127 S 
ATOM     76  O   UNL     1     -22.189  -1.405   0.497  1.00  0.00    -0.237 OA
ATOM     77  O   UNL     1     -23.767   0.517   0.523  1.00  0.00    -0.237 OA
ATOM     78  O   UNL     1     -23.276  -0.657  -1.573  1.00  0.00    -0.744 OA
ENDBRANCH  72  75
ENDBRANCH  54  68
BRANCH  55  79
ATOM     79  C   UNL     1     -13.404   3.625   7.707  1.00  0.00     0.023 A 
ATOM     80  C   UNL     1     -13.192   4.858   7.062  1.00  0.00     0.012 A 
ATOM     81  C   UNL     1     -12.271   2.826   8.003  1.00  0.00     0.148 A 
ATOM     82  C   UNL     1     -11.902   5.231   6.646  1.00  0.00     0.002 A 
ATOM     83  C   UNL     1     -11.015   3.151   7.489  1.00  0.00     0.091 A 
ATOM     84  F   UNL     1     -12.458   1.681   8.679  1.00  0.00    -0.205 F 
ATOM     85  C   UNL     1     -10.822   4.362   6.820  1.00  0.00     0.022 A 
BRANCH  83  86
ATOM     86  S   UNL     1      -9.739   1.877   7.375  1.00  0.00     0.127 S 
ATOM     87  O   UNL     1      -9.009   2.041   8.626  1.00  0.00    -0.237 OA
ATOM     88  O   UNL     1     -10.490   0.636   7.214  1.00  0.00    -0.237 OA
ATOM     89  O   UNL     1      -8.990   2.245   6.169  1.00  0.00    -0.744 OA
ENDBRANCH  83  86
ENDBRANCH  55  79
BRANCH  67  90
ATOM     90  C   UNL     1     -20.431   5.049   6.511  1.00  0.00     0.023 A 
ATOM     91  C   UNL     1     -21.602   4.751   5.766  1.00  0.00     0.012 A 
ATOM     92  C   UNL     1     -20.489   6.169   7.349  1.00  0.00     0.148 A 
ATOM     93  C   UNL     1     -22.758   5.525   5.845  1.00  0.00     0.002 A 
ATOM     94  C   UNL     1     -21.684   6.862   7.522  1.00  0.00     0.091 A 
ATOM     95  F   UNL     1     -19.382   6.627   7.949  1.00  0.00    -0.205 F 
ATOM     96  C   UNL     1     -22.811   6.572   6.750  1.00  0.00     0.022 A 
BRANCH  94  97
ATOM     97  S   UNL     1     -21.787   8.044   8.864  1.00  0.00     0.127 S 
ATOM     98  O   UNL     1     -21.493   7.216  10.032  1.00  0.00    -0.237 OA
ATOM     99  O   UNL     1     -20.787   9.047   8.513  1.00  0.00    -0.237 OA
ATOM    100  O   UNL     1     -23.169   8.517   8.794  1.00  0.00    -0.744 OA
ENDBRANCH  94  97
ENDBRANCH  67  90
ENDBRANCH  41  42
ENDBRANCH  33  36
ENDBRANCH  31  32
ENDBRANCH   1  31
TORSDOF 16
