REMARK SMILES [NH3+]CCOCC(=O)N[C@H](C(=O)NCCCNC(=O)c1ccc(-c2c3nc(c(-c4cccc(S(=O)(=O)[O-])c4F)c4ccc([nH]4)c(-c4cccc(S(=O)(=O)[O-])c4F)c4nc(c(-c5cccc(S(=O)(=O)[O-])c5F)c5ccc2[nH]5)C=C4)C=C3)cc1)c1ccccc1
REMARK SMILES IDX 10 1 11 2 12 3 9 5 8 6 6 7 7 8 5 10 4 11 3 12 2 13 1 14
REMARK SMILES IDX 82 18 83 19 87 20 84 21 86 22 85 23 13 24 14 25 15 26 16 27
REMARK SMILES IDX 17 28 18 30 19 31 20 32 81 33 21 34 80 35 22 36 23 37 24 38
REMARK SMILES IDX 74 39 25 40 79 41 73 42 75 43 26 44 78 45 72 46 71 47 27 49
REMARK SMILES IDX 59 50 39 51 58 52 40 53 43 54 57 55 76 56 41 57 42 58 56 60
REMARK SMILES IDX 77 61 44 62 28 63 29 64 37 65 30 66 32 67 38 68 31 69 33 70
REMARK SMILES IDX 34 71 35 72 36 73 60 74 61 75 69 76 62 77 64 78 70 79 63 80
REMARK SMILES IDX 65 81 66 82 67 83 68 84 45 85 46 86 54 87 47 88 49 89 55 90
REMARK SMILES IDX 48 91 50 92 51 93 52 94 53 95
REMARK H PARENT 12 4 8 9 1 15 1 16 1 17 16 29 75 48 43 59
REMARK Flexibility Score: inf
ROOT
ATOM      1  C   UNL     1       3.126   1.309   3.357  1.00  0.00     0.247 C 
ATOM      2  O   UNL     1       4.248   1.771   3.137  1.00  0.00    -0.272 OA
ATOM      3  N   UNL     1       2.650   0.429   2.421  1.00  0.00    -0.354 N 
ATOM      4  H   UNL     1       3.247   0.286   1.651  1.00  0.00     0.163 HD
ENDROOT
BRANCH   1   5
ATOM      5  C   UNL     1       2.336   1.543   4.671  1.00  0.00     0.202 C 
BRANCH   5   6
ATOM      6  N   UNL     1       2.800   0.507   5.609  1.00  0.00    -0.339 N 
ATOM      7  C   UNL     1       3.915   0.437   6.387  1.00  0.00     0.246 C 
ATOM      8  O   UNL     1       4.205  -0.666   6.868  1.00  0.00    -0.272 OA
ATOM      9  H   UNL     1       2.200  -0.270   5.688  1.00  0.00     0.164 HD
BRANCH   7  10
ATOM     10  C   UNL     1       4.774   1.667   6.724  1.00  0.00     0.260 C 
BRANCH  10  11
ATOM     11  O   UNL     1       5.635   2.207   5.750  1.00  0.00    -0.366 OA
BRANCH  11  12
ATOM     12  C   UNL     1       6.615   1.305   5.243  1.00  0.00     0.222 C 
BRANCH  12  13
ATOM     13  C   UNL     1       7.852   1.190   6.150  1.00  0.00     0.287 C 
BRANCH  13  14
ATOM     14  N   UNL     1       7.675   0.364   7.350  1.00  0.00    -0.356 N 
ATOM     15  H   UNL     1       8.544   0.349   7.884  1.00  0.00     0.344 HD
ATOM     16  H   UNL     1       7.428  -0.587   7.075  1.00  0.00     0.344 HD
ATOM     17  H   UNL     1       6.929   0.755   7.926  1.00  0.00     0.344 HD
ENDBRANCH  13  14
ENDBRANCH  12  13
ENDBRANCH  11  12
ENDBRANCH  10  11
ENDBRANCH   7  10
ENDBRANCH   5   6
BRANCH   5  18
ATOM     18  C   UNL     1       2.305   2.948   5.245  1.00  0.00    -0.016 A 
ATOM     19  C   UNL     1       1.796   3.156   6.544  1.00  0.00     0.006 A 
ATOM     20  C   UNL     1       2.754   4.067   4.530  1.00  0.00     0.006 A 
ATOM     21  C   UNL     1       1.878   4.409   7.155  1.00  0.00     0.000 A 
ATOM     22  C   UNL     1       2.809   5.325   5.133  1.00  0.00     0.000 A 
ATOM     23  C   UNL     1       2.402   5.490   6.454  1.00  0.00     0.000 A 
ENDBRANCH   5  18
ENDBRANCH   1   5
BRANCH   3  24
ATOM     24  C   UNL     1       1.412  -0.329   2.375  1.00  0.00     0.117 C 
BRANCH  24  25
ATOM     25  C   UNL     1       0.424   0.255   1.371  1.00  0.00     0.042 C 
BRANCH  25  26
ATOM     26  C   UNL     1       0.899   0.190  -0.081  1.00  0.00     0.118 C 
BRANCH  26  27
ATOM     27  N   UNL     1       1.090  -1.177  -0.554  1.00  0.00    -0.352 N 
ATOM     28  C   UNL     1       0.476  -1.857  -1.577  1.00  0.00     0.251 C 
ATOM     29  H   UNL     1       1.767  -1.695  -0.061  1.00  0.00     0.163 HD
ATOM     30  O   UNL     1       0.659  -3.069  -1.690  1.00  0.00    -0.269 OA
BRANCH  28  31
ATOM     31  C   UNL     1      -0.412  -1.153  -2.526  1.00  0.00     0.039 A 
ATOM     32  C   UNL     1      -1.616  -1.757  -2.901  1.00  0.00     0.014 A 
ATOM     33  C   UNL     1      -0.059   0.090  -3.057  1.00  0.00     0.014 A 
ATOM     34  C   UNL     1      -2.500  -1.078  -3.745  1.00  0.00     0.010 A 
ATOM     35  C   UNL     1      -0.974   0.798  -3.832  1.00  0.00     0.010 A 
ATOM     36  C   UNL     1      -2.206   0.224  -4.181  1.00  0.00    -0.014 A 
BRANCH  36  37
ATOM     37  C   UNL     1      -3.188   1.018  -4.965  1.00  0.00     0.031 A 
ATOM     38  C   UNL     1      -2.861   1.488  -6.355  1.00  0.00     0.074 A 
ATOM     39  C   UNL     1      -4.341   1.401  -4.381  1.00  0.00     0.049 A 
ATOM     40  N   UNL     1      -3.573   2.230  -7.163  1.00  0.00    -0.248 NA
ATOM     41  C   UNL     1      -1.552   1.094  -6.899  1.00  0.00     0.031 C 
ATOM     42  C   UNL     1      -4.747   1.069  -3.014  1.00  0.00     0.029 A 
ATOM     43  N   UNL     1      -5.372   2.173  -4.854  1.00  0.00    -0.354 N 
ATOM     44  C   UNL     1      -2.787   2.425  -8.293  1.00  0.00     0.074 A 
ATOM     45  C   UNL     1      -1.530   1.751  -8.049  1.00  0.00     0.031 C 
ATOM     46  C   UNL     1      -5.947   1.616  -2.765  1.00  0.00     0.029 A 
ATOM     47  C   UNL     1      -6.378   2.371  -3.937  1.00  0.00     0.049 A 
ATOM     48  H   UNL     1      -5.391   2.550  -5.764  1.00  0.00     0.167 HD
ATOM     49  C   UNL     1      -3.090   3.084  -9.437  1.00  0.00     0.034 A 
ATOM     50  C   UNL     1      -7.517   3.086  -4.024  1.00  0.00     0.034 A 
ATOM     51  C   UNL     1      -4.350   3.735  -9.682  1.00  0.00     0.049 A 
ATOM     52  C   UNL     1      -7.832   3.809  -5.304  1.00  0.00     0.074 A 
ATOM     53  C   UNL     1      -4.791   4.348 -10.842  1.00  0.00     0.029 A 
ATOM     54  N   UNL     1      -5.363   3.879  -8.746  1.00  0.00    -0.354 N 
ATOM     55  N   UNL     1      -7.147   3.847  -6.421  1.00  0.00    -0.248 NA
ATOM     56  C   UNL     1      -9.092   4.566  -5.344  1.00  0.00     0.031 C 
ATOM     57  C   UNL     1      -6.052   4.902 -10.591  1.00  0.00     0.029 A 
ATOM     58  C   UNL     1      -6.416   4.596  -9.289  1.00  0.00     0.049 A 
ATOM     59  H   UNL     1      -5.337   3.524  -7.828  1.00  0.00     0.167 HD
ATOM     60  C   UNL     1      -7.908   4.600  -7.309  1.00  0.00     0.074 A 
ATOM     61  C   UNL     1      -9.113   4.984  -6.603  1.00  0.00     0.031 C 
ATOM     62  C   UNL     1      -7.628   4.946  -8.591  1.00  0.00     0.034 A 
BRANCH  49  63
ATOM     63  C   UNL     1      -2.040   3.112 -10.520  1.00  0.00     0.023 A 
ATOM     64  C   UNL     1      -1.694   1.922 -11.195  1.00  0.00     0.012 A 
ATOM     65  C   UNL     1      -1.407   4.317 -10.884  1.00  0.00     0.148 A 
ATOM     66  C   UNL     1      -0.697   1.919 -12.170  1.00  0.00     0.002 A 
ATOM     67  C   UNL     1      -0.451   4.315 -11.894  1.00  0.00     0.091 A 
ATOM     68  F   UNL     1      -1.730   5.437 -10.223  1.00  0.00    -0.205 F 
ATOM     69  C   UNL     1      -0.082   3.116 -12.525  1.00  0.00     0.022 A 
BRANCH  67  70
ATOM     70  S   UNL     1       0.337   5.820 -12.479  1.00  0.00     0.127 S 
ATOM     71  O   UNL     1       1.672   5.700 -11.896  1.00  0.00    -0.237 OA
ATOM     72  O   UNL     1       0.288   5.650 -13.931  1.00  0.00    -0.237 OA
ATOM     73  O   UNL     1      -0.475   6.918 -11.972  1.00  0.00    -0.744 OA
ENDBRANCH  67  70
ENDBRANCH  49  63
BRANCH  50  74
ATOM     74  C   UNL     1      -8.480   3.082  -2.887  1.00  0.00     0.023 A 
ATOM     75  C   UNL     1      -9.698   2.389  -3.024  1.00  0.00     0.012 A 
ATOM     76  C   UNL     1      -8.179   3.709  -1.662  1.00  0.00     0.148 A 
ATOM     77  C   UNL     1     -10.610   2.338  -1.971  1.00  0.00     0.002 A 
ATOM     78  C   UNL     1      -9.069   3.610  -0.599  1.00  0.00     0.091 A 
ATOM     79  F   UNL     1      -7.015   4.365  -1.555  1.00  0.00    -0.205 F 
ATOM     80  C   UNL     1     -10.292   2.939  -0.756  1.00  0.00     0.022 A 
BRANCH  78  81
ATOM     81  S   UNL     1      -8.693   4.238   1.041  1.00  0.00     0.127 S 
ATOM     82  O   UNL     1      -9.717   5.266   1.210  1.00  0.00    -0.237 OA
ATOM     83  O   UNL     1      -8.875   3.044   1.867  1.00  0.00    -0.237 OA
ATOM     84  O   UNL     1      -7.322   4.724   0.976  1.00  0.00    -0.744 OA
ENDBRANCH  78  81
ENDBRANCH  50  74
BRANCH  62  85
ATOM     85  C   UNL     1      -8.655   5.761  -9.335  1.00  0.00     0.023 A 
ATOM     86  C   UNL     1      -8.861   7.114  -8.999  1.00  0.00     0.012 A 
ATOM     87  C   UNL     1      -9.366   5.203 -10.417  1.00  0.00     0.148 A 
ATOM     88  C   UNL     1      -9.780   7.889  -9.707  1.00  0.00     0.002 A 
ATOM     89  C   UNL     1     -10.240   5.996 -11.151  1.00  0.00     0.091 A 
ATOM     90  F   UNL     1      -9.170   3.909 -10.711  1.00  0.00    -0.205 F 
ATOM     91  C   UNL     1     -10.459   7.335 -10.789  1.00  0.00     0.022 A 
BRANCH  89  92
ATOM     92  S   UNL     1     -11.084   5.399 -12.620  1.00  0.00     0.127 S 
ATOM     93  O   UNL     1     -12.473   5.350 -12.166  1.00  0.00    -0.237 OA
ATOM     94  O   UNL     1     -10.796   6.454 -13.592  1.00  0.00    -0.237 OA
ATOM     95  O   UNL     1     -10.486   4.108 -12.933  1.00  0.00    -0.744 OA
ENDBRANCH  89  92
ENDBRANCH  62  85
ENDBRANCH  36  37
ENDBRANCH  28  31
ENDBRANCH  26  27
ENDBRANCH  25  26
ENDBRANCH  24  25
ENDBRANCH   3  24
TORSDOF 20
