REMARK SMILES Cc1cc(C)c(S(=O)(=O)Nc2ccc(N3CC[NH+](C)CC3)c(C(=O)NCCCNC(=O)c3ccc(-c4c5nc(c(-c6cccc(S(=O)(=O)[O-])c6F)c6ccc([nH]6)c(-c6cccc(S(=O)(=O)[O-])c6F)c6nc(c(-c7cccc(S(=O)(=O)[O-])c7F)c7ccc4[nH]7)C=C6)C=C5)cc3)c2)c(C)c1
REMARK SMILES IDX 27 1 26 2 25 3 23 4 24 5 22 7 11 8 12 9 95 10 13 11 14 12
REMARK SMILES IDX 10 13 7 15 8 16 9 17 6 18 1 19 2 20 3 21 98 22 4 23 96 24
REMARK SMILES IDX 5 25 97 26 15 27 16 28 21 29 17 30 20 31 18 32 19 33 28 35
REMARK SMILES IDX 29 36 30 37 31 39 32 40 33 41 94 42 34 43 93 44 35 45 36 46
REMARK SMILES IDX 37 47 87 48 38 49 92 50 86 51 88 52 39 53 91 54 85 55 84 56
REMARK SMILES IDX 40 58 72 59 52 60 71 61 53 62 56 63 70 64 89 65 54 66 55 67
REMARK SMILES IDX 69 69 90 70 57 71 41 72 42 73 50 74 43 75 45 76 51 77 44 78
REMARK SMILES IDX 46 79 47 80 48 81 49 82 73 83 74 84 82 85 75 86 77 87 83 88
REMARK SMILES IDX 76 89 78 90 79 91 80 92 81 93 58 94 59 95 67 96 60 97 62 98
REMARK SMILES IDX 68 99 61 100 63 101 64 102 65 103 66 104
REMARK H PARENT 25 6 10 14 18 34 29 38 88 57 56 68
REMARK Flexibility Score: inf
ROOT
ATOM      1  C   UNL     1      -0.089  -1.210   3.659  1.00  0.00     0.042 C 
ENDROOT
BRANCH   1   2
ATOM      2  C   UNL     1       1.001  -1.076   2.598  1.00  0.00     0.118 C 
BRANCH   2   3
ATOM      3  N   UNL     1       2.125  -1.941   2.890  1.00  0.00    -0.352 N 
ATOM      4  C   UNL     1       2.489  -3.198   2.474  1.00  0.00     0.253 C 
ATOM      5  O   UNL     1       3.455  -3.670   3.072  1.00  0.00    -0.269 OA
ATOM      6  H   UNL     1       2.765  -1.542   3.522  1.00  0.00     0.163 HD
BRANCH   4   7
ATOM      7  C   UNL     1       1.787  -3.961   1.383  1.00  0.00     0.065 A 
ATOM      8  C   UNL     1      -0.227  -4.348   0.073  1.00  0.00     0.050 A 
ATOM      9  C   UNL     1       0.428  -5.322  -0.668  1.00  0.00     0.029 A 
ATOM     10  C   UNL     1       0.401  -3.808   1.191  1.00  0.00     0.042 A 
ATOM     11  C   UNL     1       1.783  -5.545  -0.456  1.00  0.00     0.029 A 
ATOM     12  C   UNL     1       2.513  -4.789   0.482  1.00  0.00     0.050 A 
BRANCH   8  13
ATOM     13  N   UNL     1      -1.447  -3.867  -0.469  1.00  0.00    -0.280 N 
ATOM     14  H   UNL     1      -1.921  -4.475  -1.082  1.00  0.00     0.180 HD
BRANCH  13  15
ATOM     15  S   UNL     1      -2.171  -2.389  -0.189  1.00  0.00     0.262 S 
ATOM     16  O   UNL     1      -2.452  -2.337   1.236  1.00  0.00    -0.201 OA
ATOM     17  O   UNL     1      -3.231  -2.304  -1.167  1.00  0.00    -0.201 OA
BRANCH  15  18
ATOM     18  C   UNL     1      -1.068  -1.001  -0.538  1.00  0.00     0.093 A 
ATOM     19  C   UNL     1       1.855   2.177  -0.171  1.00  0.00     0.044 C 
ATOM     20  C   UNL     1       0.824   1.103  -0.352  1.00  0.00    -0.051 A 
ATOM     21  C   UNL     1      -0.473   1.282   0.119  1.00  0.00     0.008 A 
ATOM     22  C   UNL     1       1.116  -0.066  -1.055  1.00  0.00     0.008 A 
ATOM     23  C   UNL     1      -1.429   0.251   0.033  1.00  0.00    -0.030 A 
ATOM     24  C   UNL     1       0.171  -1.109  -1.202  1.00  0.00    -0.030 A 
ATOM     25  C   UNL     1      -2.821   0.614   0.494  1.00  0.00     0.046 C 
ATOM     26  C   UNL     1       0.592  -2.226  -2.108  1.00  0.00     0.046 C 
ENDBRANCH  15  18
ENDBRANCH  13  15
ENDBRANCH   8  13
BRANCH  12  27
ATOM     27  N   UNL     1       3.892  -4.770   0.353  1.00  0.00    -0.360 N 
ATOM     28  C   UNL     1       4.769  -5.459   1.307  1.00  0.00     0.178 C 
ATOM     29  C   UNL     1       4.496  -4.571  -0.970  1.00  0.00     0.178 C 
ATOM     30  C   UNL     1       6.089  -4.654   1.436  1.00  0.00     0.283 C 
ATOM     31  C   UNL     1       5.833  -3.815  -0.825  1.00  0.00     0.283 C 
ATOM     32  N   UNL     1       6.771  -4.458   0.124  1.00  0.00    -0.334 N 
ATOM     33  C   UNL     1       7.960  -3.624   0.291  1.00  0.00     0.332 C 
ATOM     34  H   UNL     1       7.059  -5.366  -0.242  1.00  0.00     0.347 HD
ENDBRANCH  12  27
ENDBRANCH   4   7
ENDBRANCH   2   3
ENDBRANCH   1   2
BRANCH   1  35
ATOM     35  C   UNL     1       0.307  -0.604   4.998  1.00  0.00     0.118 C 
BRANCH  35  36
ATOM     36  N   UNL     1       0.364   0.850   4.941  1.00  0.00    -0.352 N 
ATOM     37  C   UNL     1      -0.189   1.770   5.795  1.00  0.00     0.251 C 
ATOM     38  H   UNL     1       0.869   1.224   4.184  1.00  0.00     0.163 HD
ATOM     39  O   UNL     1      -0.207   2.956   5.476  1.00  0.00    -0.269 OA
BRANCH  37  40
ATOM     40  C   UNL     1      -0.768   1.336   7.087  1.00  0.00     0.039 A 
ATOM     41  C   UNL     1      -1.963   1.919   7.518  1.00  0.00     0.014 A 
ATOM     42  C   UNL     1      -0.121   0.390   7.888  1.00  0.00     0.014 A 
ATOM     43  C   UNL     1      -2.523   1.533   8.737  1.00  0.00     0.010 A 
ATOM     44  C   UNL     1      -0.717  -0.045   9.068  1.00  0.00     0.010 A 
ATOM     45  C   UNL     1      -1.909   0.540   9.517  1.00  0.00    -0.014 A 
BRANCH  45  46
ATOM     46  C   UNL     1      -2.479   0.128  10.824  1.00  0.00     0.031 A 
ATOM     47  C   UNL     1      -1.716   0.394  12.094  1.00  0.00     0.074 A 
ATOM     48  C   UNL     1      -3.641  -0.552  10.862  1.00  0.00     0.049 A 
ATOM     49  N   UNL     1      -2.029   0.080  13.325  1.00  0.00    -0.248 NA
ATOM     50  C   UNL     1      -0.415   1.071  11.963  1.00  0.00     0.031 C 
ATOM     51  C   UNL     1      -4.424  -0.955   9.693  1.00  0.00     0.029 A 
ATOM     52  N   UNL     1      -4.352  -1.046  11.926  1.00  0.00    -0.354 N 
ATOM     53  C   UNL     1      -0.948   0.476  14.103  1.00  0.00     0.074 A 
ATOM     54  C   UNL     1       0.042   1.026  13.205  1.00  0.00     0.031 C 
ATOM     55  C   UNL     1      -5.510  -1.631  10.103  1.00  0.00     0.029 A 
ATOM     56  C   UNL     1      -5.496  -1.717  11.561  1.00  0.00     0.049 A 
ATOM     57  H   UNL     1      -4.071  -0.932  12.862  1.00  0.00     0.167 HD
ATOM     58  C   UNL     1      -0.806   0.421  15.449  1.00  0.00     0.034 A 
ATOM     59  C   UNL     1      -6.433  -2.320  12.318  1.00  0.00     0.034 A 
ATOM     60  C   UNL     1      -1.827  -0.049  16.344  1.00  0.00     0.049 A 
ATOM     61  C   UNL     1      -6.308  -2.263  13.816  1.00  0.00     0.074 A 
ATOM     62  C   UNL     1      -1.830  -0.043  17.727  1.00  0.00     0.029 A 
ATOM     63  N   UNL     1      -3.034  -0.599  15.943  1.00  0.00    -0.354 N 
ATOM     64  N   UNL     1      -5.359  -1.724  14.544  1.00  0.00    -0.248 NA
ATOM     65  C   UNL     1      -7.402  -2.856  14.599  1.00  0.00     0.031 C 
ATOM     66  C   UNL     1      -3.045  -0.585  18.163  1.00  0.00     0.029 A 
ATOM     67  C   UNL     1      -3.795  -0.930  17.050  1.00  0.00     0.049 A 
ATOM     68  H   UNL     1      -3.310  -0.734  15.007  1.00  0.00     0.167 HD
ATOM     69  C   UNL     1      -5.755  -1.885  15.866  1.00  0.00     0.074 A 
ATOM     70  C   UNL     1      -7.041  -2.551  15.839  1.00  0.00     0.031 C 
ATOM     71  C   UNL     1      -5.103  -1.532  17.001  1.00  0.00     0.034 A 
BRANCH  58  72
ATOM     72  C   UNL     1       0.469   0.963  16.036  1.00  0.00     0.023 A 
ATOM     73  C   UNL     1       0.668   2.358  16.077  1.00  0.00     0.012 A 
ATOM     74  C   UNL     1       1.448   0.110  16.580  1.00  0.00     0.148 A 
ATOM     75  C   UNL     1       1.835   2.895  16.618  1.00  0.00     0.002 A 
ATOM     76  C   UNL     1       2.593   0.654  17.152  1.00  0.00     0.091 A 
ATOM     77  F   UNL     1       1.257  -1.216  16.508  1.00  0.00    -0.205 F 
ATOM     78  C   UNL     1       2.792   2.045  17.164  1.00  0.00     0.022 A 
BRANCH  76  79
ATOM     79  S   UNL     1       3.847  -0.364  17.940  1.00  0.00     0.127 S 
ATOM     80  O   UNL     1       4.870  -0.435  16.898  1.00  0.00    -0.237 OA
ATOM     81  O   UNL     1       4.220   0.441  19.105  1.00  0.00    -0.237 OA
ATOM     82  O   UNL     1       3.185  -1.620  18.266  1.00  0.00    -0.744 OA
ENDBRANCH  76  79
ENDBRANCH  58  72
BRANCH  59  83
ATOM     83  C   UNL     1      -7.628  -2.925  11.666  1.00  0.00     0.023 A 
ATOM     84  C   UNL     1      -8.865  -2.258  11.755  1.00  0.00     0.012 A 
ATOM     85  C   UNL     1      -7.541  -4.116  10.921  1.00  0.00     0.148 A 
ATOM     86  C   UNL     1     -10.000  -2.777  11.131  1.00  0.00     0.002 A 
ATOM     87  C   UNL     1      -8.666  -4.604  10.263  1.00  0.00     0.091 A 
ATOM     88  F   UNL     1      -6.359  -4.746  10.861  1.00  0.00    -0.205 F 
ATOM     89  C   UNL     1      -9.898  -3.942  10.376  1.00  0.00     0.022 A 
BRANCH  87  90
ATOM     90  S   UNL     1      -8.588  -6.029   9.171  1.00  0.00     0.127 S 
ATOM     91  O   UNL     1      -9.138  -7.085  10.016  1.00  0.00    -0.237 OA
ATOM     92  O   UNL     1      -9.451  -5.617   8.062  1.00  0.00    -0.237 OA
ATOM     93  O   UNL     1      -7.182  -6.161   8.812  1.00  0.00    -0.744 OA
ENDBRANCH  87  90
ENDBRANCH  59  83
BRANCH  71  94
ATOM     94  C   UNL     1      -5.770  -1.841  18.313  1.00  0.00     0.023 A 
ATOM     95  C   UNL     1      -5.767  -3.165  18.794  1.00  0.00     0.012 A 
ATOM     96  C   UNL     1      -6.322  -0.817  19.106  1.00  0.00     0.148 A 
ATOM     97  C   UNL     1      -6.323  -3.469  20.035  1.00  0.00     0.002 A 
ATOM     98  C   UNL     1      -6.841  -1.122  20.360  1.00  0.00     0.091 A 
ATOM     99  F   UNL     1      -6.338   0.434  18.622  1.00  0.00    -0.205 F 
ATOM    100  C   UNL     1      -6.849  -2.447  20.823  1.00  0.00     0.022 A 
BRANCH  98 101
ATOM    101  S   UNL     1      -7.454   0.158  21.463  1.00  0.00     0.127 S 
ATOM    102  O   UNL     1      -8.890   0.121  21.198  1.00  0.00    -0.237 OA
ATOM    103  O   UNL     1      -7.065  -0.344  22.782  1.00  0.00    -0.237 OA
ATOM    104  O   UNL     1      -6.764   1.377  21.063  1.00  0.00    -0.744 OA
ENDBRANCH  98 101
ENDBRANCH  71  94
ENDBRANCH  45  46
ENDBRANCH  37  40
ENDBRANCH  35  36
ENDBRANCH   1  35
TORSDOF 17
