REMARK SMILES O=C(Cn1ccc2ccc(CO)cc21)NCCCNC(=O)c1ccc(-c2c3nc(c(-c4cccc(S(=O)(=O)[O-])c4F)c4ccc([nH]4)c(-c4cccc(S(=O)(=O)[O-])c4F)c4nc(c(-c5cccc(S(=O)(=O)[O-])c5F)c5ccc2[nH]5)C=C4)C=C3)cc1
REMARK SMILES IDX 17 1 16 2 15 3 1 4 2 5 3 7 4 8 5 9 14 10 6 11 7 12 13 13
REMARK SMILES IDX 8 14 10 15 9 16 11 17 12 18 18 20 19 21 20 22 21 24 22 25
REMARK SMILES IDX 23 26 84 27 24 28 83 29 25 30 26 31 27 32 77 33 28 34 82 35
REMARK SMILES IDX 76 36 78 37 29 38 81 39 75 40 74 41 30 43 62 44 42 45 61 46
REMARK SMILES IDX 43 47 46 48 60 49 79 50 44 51 45 52 59 54 80 55 47 56 31 57
REMARK SMILES IDX 32 58 40 59 33 60 35 61 41 62 34 63 36 64 37 65 38 66 39 67
REMARK SMILES IDX 63 68 64 69 72 70 65 71 67 72 73 73 66 74 68 75 69 76 70 77
REMARK SMILES IDX 71 78 48 79 49 80 57 81 50 82 52 83 58 84 51 85 53 86 54 87
REMARK SMILES IDX 55 88 56 89
REMARK H PARENT 15 6 12 19 19 23 78 42 46 53
REMARK Flexibility Score: inf
ROOT
ATOM      1  C   UNL     1       2.765   1.072   3.364  1.00  0.00     0.042 C 
ENDROOT
BRANCH   1   2
ATOM      2  C   UNL     1       2.345   1.427   1.938  1.00  0.00     0.117 C 
BRANCH   2   3
ATOM      3  N   UNL     1       3.008   0.613   0.933  1.00  0.00    -0.354 N 
ATOM      4  O   UNL     1       1.120  -0.349   0.043  1.00  0.00    -0.273 OA
ATOM      5  C   UNL     1       2.333  -0.163   0.013  1.00  0.00     0.239 C 
ATOM      6  H   UNL     1       3.992   0.614   0.908  1.00  0.00     0.163 HD
BRANCH   5   7
ATOM      7  C   UNL     1       3.219  -0.820  -1.030  1.00  0.00     0.222 C 
BRANCH   7   8
ATOM      8  N   UNL     1       3.941   0.105  -1.905  1.00  0.00    -0.338 N 
ATOM      9  C   UNL     1       3.728   1.457  -2.014  1.00  0.00     0.087 A 
ATOM     10  C   UNL     1       4.947  -0.277  -2.781  1.00  0.00     0.049 A 
ATOM     11  C   UNL     1       4.644   1.969  -2.901  1.00  0.00     0.028 A 
ATOM     12  C   UNL     1       5.407   0.887  -3.405  1.00  0.00    -0.000 A 
ATOM     13  C   UNL     1       5.489  -1.539  -3.087  1.00  0.00     0.033 A 
ATOM     14  C   UNL     1       6.443   0.796  -4.352  1.00  0.00     0.011 A 
ATOM     15  C   UNL     1       6.506  -1.619  -4.059  1.00  0.00    -0.021 A 
ATOM     16  C   UNL     1       6.980  -0.455  -4.672  1.00  0.00     0.007 A 
BRANCH  15  17
ATOM     17  C   UNL     1       7.081  -2.959  -4.438  1.00  0.00     0.191 C 
BRANCH  17  18
ATOM     18  O   UNL     1       7.827  -3.512  -3.362  1.00  0.00    -0.392 OA
ATOM     19  H   UNL     1       8.561  -2.919  -3.140  1.00  0.00     0.211 HD
ENDBRANCH  17  18
ENDBRANCH  15  17
ENDBRANCH   7   8
ENDBRANCH   5   7
ENDBRANCH   2   3
ENDBRANCH   1   2
BRANCH   1  20
ATOM     20  C   UNL     1       4.277   1.027   3.581  1.00  0.00     0.118 C 
BRANCH  20  21
ATOM     21  N   UNL     1       4.974   2.252   3.252  1.00  0.00    -0.352 N 
ATOM     22  C   UNL     1       5.402   3.335   3.967  1.00  0.00     0.251 C 
ATOM     23  H   UNL     1       5.189   2.321   2.293  1.00  0.00     0.163 HD
ATOM     24  O   UNL     1       6.199   4.074   3.384  1.00  0.00    -0.269 OA
BRANCH  22  25
ATOM     25  C   UNL     1       4.903   3.721   5.312  1.00  0.00     0.039 A 
ATOM     26  C   UNL     1       4.096   2.936   6.139  1.00  0.00     0.014 A 
ATOM     27  C   UNL     1       5.208   5.036   5.711  1.00  0.00     0.014 A 
ATOM     28  C   UNL     1       3.496   3.491   7.261  1.00  0.00     0.010 A 
ATOM     29  C   UNL     1       4.622   5.592   6.836  1.00  0.00     0.010 A 
ATOM     30  C   UNL     1       3.713   4.833   7.566  1.00  0.00    -0.014 A 
BRANCH  30  31
ATOM     31  C   UNL     1       3.034   5.401   8.722  1.00  0.00     0.031 A 
ATOM     32  C   UNL     1       3.490   4.856  10.033  1.00  0.00     0.074 A 
ATOM     33  C   UNL     1       2.171   6.431   8.596  1.00  0.00     0.049 A 
ATOM     34  N   UNL     1       2.793   4.245  10.937  1.00  0.00    -0.248 NA
ATOM     35  C   UNL     1       4.938   4.882  10.308  1.00  0.00     0.031 C 
ATOM     36  C   UNL     1       1.874   7.204   7.386  1.00  0.00     0.029 A 
ATOM     37  N   UNL     1       1.490   7.108   9.561  1.00  0.00    -0.354 N 
ATOM     38  C   UNL     1       3.677   4.008  11.988  1.00  0.00     0.074 A 
ATOM     39  C   UNL     1       5.002   4.263  11.486  1.00  0.00     0.031 C 
ATOM     40  C   UNL     1       1.308   8.380   7.737  1.00  0.00     0.029 A 
ATOM     41  C   UNL     1       1.090   8.387   9.172  1.00  0.00     0.049 A 
ATOM     42  H   UNL     1       1.297   6.731  10.450  1.00  0.00     0.167 HD
ATOM     43  C   UNL     1       3.262   3.849  13.274  1.00  0.00     0.034 A 
ATOM     44  C   UNL     1       0.714   9.398   9.997  1.00  0.00     0.034 A 
ATOM     45  C   UNL     1       1.861   3.571  13.372  1.00  0.00     0.049 A 
ATOM     46  C   UNL     1       0.341   8.774  11.289  1.00  0.00     0.074 A 
ATOM     47  C   UNL     1       1.038   2.555  12.931  1.00  0.00     0.029 A 
ATOM     48  N   UNL     1       1.037   4.627  13.673  1.00  0.00    -0.354 N 
ATOM     49  N   UNL     1      -0.675   7.973  11.442  1.00  0.00    -0.248 NA
ATOM     50  C   UNL     1       1.358   8.709  12.326  1.00  0.00     0.031 C 
ATOM     51  C   UNL     1      -0.165   3.208  12.534  1.00  0.00     0.029 A 
ATOM     52  C   UNL     1      -0.026   4.569  12.811  1.00  0.00     0.049 A 
ATOM     53  H   UNL     1       1.183   5.300  14.377  1.00  0.00     0.167 HD
ATOM     54  C   UNL     1      -0.220   7.006  12.327  1.00  0.00     0.074 A 
ATOM     55  C   UNL     1       0.998   7.564  12.912  1.00  0.00     0.031 C 
ATOM     56  C   UNL     1      -0.704   5.733  12.288  1.00  0.00     0.034 A 
BRANCH  43  57
ATOM     57  C   UNL     1       4.079   4.288  14.456  1.00  0.00     0.023 A 
ATOM     58  C   UNL     1       3.805   3.736  15.722  1.00  0.00     0.012 A 
ATOM     59  C   UNL     1       4.948   5.403  14.403  1.00  0.00     0.148 A 
ATOM     60  C   UNL     1       4.391   4.260  16.882  1.00  0.00     0.002 A 
ATOM     61  C   UNL     1       5.587   5.868  15.544  1.00  0.00     0.091 A 
ATOM     62  F   UNL     1       5.061   6.093  13.261  1.00  0.00    -0.205 F 
ATOM     63  C   UNL     1       5.298   5.312  16.791  1.00  0.00     0.022 A 
BRANCH  61  64
ATOM     64  S   UNL     1       6.798   7.192  15.464  1.00  0.00     0.127 S 
ATOM     65  O   UNL     1       6.063   8.296  16.082  1.00  0.00    -0.237 OA
ATOM     66  O   UNL     1       7.888   6.645  16.279  1.00  0.00    -0.237 OA
ATOM     67  O   UNL     1       7.120   7.341  14.059  1.00  0.00    -0.744 OA
ENDBRANCH  61  64
ENDBRANCH  43  57
BRANCH  44  68
ATOM     68  C   UNL     1       0.949  10.865   9.894  1.00  0.00     0.023 A 
ATOM     69  C   UNL     1       0.288  11.727  10.798  1.00  0.00     0.012 A 
ATOM     70  C   UNL     1       2.023  11.399   9.147  1.00  0.00     0.148 A 
ATOM     71  C   UNL     1       0.721  13.045  10.999  1.00  0.00     0.002 A 
ATOM     72  C   UNL     1       2.441  12.715   9.339  1.00  0.00     0.091 A 
ATOM     73  F   UNL     1       2.704  10.597   8.320  1.00  0.00    -0.205 F 
ATOM     74  C   UNL     1       1.806  13.534  10.279  1.00  0.00     0.022 A 
BRANCH  72  75
ATOM     75  S   UNL     1       3.839  13.410   8.446  1.00  0.00     0.127 S 
ATOM     76  O   UNL     1       3.337  14.734   8.073  1.00  0.00    -0.237 OA
ATOM     77  O   UNL     1       4.880  13.416   9.469  1.00  0.00    -0.237 OA
ATOM     78  O   UNL     1       4.065  12.519   7.314  1.00  0.00    -0.744 OA
ENDBRANCH  72  75
ENDBRANCH  44  68
BRANCH  56  79
ATOM     79  C   UNL     1      -1.905   5.459  11.419  1.00  0.00     0.023 A 
ATOM     80  C   UNL     1      -1.833   5.476  10.009  1.00  0.00     0.012 A 
ATOM     81  C   UNL     1      -3.064   4.969  12.039  1.00  0.00     0.148 A 
ATOM     82  C   UNL     1      -2.900   5.009   9.235  1.00  0.00     0.002 A 
ATOM     83  C   UNL     1      -4.106   4.472  11.268  1.00  0.00     0.091 A 
ATOM     84  F   UNL     1      -3.101   4.953  13.380  1.00  0.00    -0.205 F 
ATOM     85  C   UNL     1      -4.030   4.493   9.865  1.00  0.00     0.022 A 
BRANCH  83  86
ATOM     86  S   UNL     1      -5.538   3.689  12.011  1.00  0.00     0.127 S 
ATOM     87  O   UNL     1      -6.610   4.621  11.665  1.00  0.00    -0.237 OA
ATOM     88  O   UNL     1      -5.590   2.407  11.306  1.00  0.00    -0.237 OA
ATOM     89  O   UNL     1      -5.249   3.578  13.435  1.00  0.00    -0.744 OA
ENDBRANCH  83  86
ENDBRANCH  56  79
ENDBRANCH  30  31
ENDBRANCH  22  25
ENDBRANCH  20  21
ENDBRANCH   1  20
TORSDOF 16
