REMARK SMILES COc1cc(NC(=O)CN2C(=O)c3ccccc3C2=O)c(C(=O)NCCCNC(=O)c2ccc(-c3c4nc(c(-c5cccc(S(=O)(=O)[O-])c5F)c5ccc([nH]5)c(-c5cccc(S(=O)(=O)[O-])c5F)c5nc(c(-c6cccc(S(=O)(=O)[O-])c6F)c6ccc3[nH]6)C=C5)C=C4)cc2)cc1OC
REMARK SMILES IDX 26 1 25 2 24 3 22 4 23 5 21 7 3 8 4 9 95 10 5 11 94 12 2 13
REMARK SMILES IDX 1 14 96 15 97 16 6 17 7 18 8 20 9 21 10 22 11 23 19 24 12 25
REMARK SMILES IDX 13 26 18 27 20 28 14 29 17 30 15 31 16 32 27 33 28 34 29 35
REMARK SMILES IDX 30 37 31 38 32 39 93 40 33 41 92 42 34 43 35 44 36 45 86 46
REMARK SMILES IDX 37 47 91 48 85 49 87 50 38 51 90 52 84 53 83 54 39 56 71 57
REMARK SMILES IDX 51 58 70 59 52 60 55 61 69 62 88 63 53 64 54 65 68 67 89 68
REMARK SMILES IDX 56 69 40 70 41 71 49 72 42 73 44 74 50 75 43 76 45 77 46 78
REMARK SMILES IDX 47 79 48 80 72 81 73 82 81 83 74 84 76 85 82 86 75 87 77 88
REMARK SMILES IDX 78 89 79 90 80 91 57 92 58 93 66 94 59 95 61 96 67 97 60 98
REMARK SMILES IDX 62 99 63 100 64 101 65 102
REMARK H PARENT 24 6 6 19 28 36 87 55 55 66
REMARK Flexibility Score: inf
ROOT
ATOM      1  C   UNL     1       5.560  -5.863   1.078  1.00  0.00     0.042 C 
ENDROOT
BRANCH   1   2
ATOM      2  C   UNL     1       4.327  -6.052   0.195  1.00  0.00     0.118 C 
BRANCH   2   3
ATOM      3  N   UNL     1       3.212  -6.598   0.952  1.00  0.00    -0.352 N 
ATOM      4  C   UNL     1       2.079  -6.029   1.482  1.00  0.00     0.253 C 
ATOM      5  O   UNL     1       1.248  -6.798   1.967  1.00  0.00    -0.269 OA
ATOM      6  H   UNL     1       3.282  -7.566   1.117  1.00  0.00     0.163 HD
BRANCH   4   7
ATOM      7  C   UNL     1       1.775  -4.563   1.414  1.00  0.00     0.067 A 
ATOM      8  C   UNL     1       1.242  -1.829   1.033  1.00  0.00     0.162 A 
ATOM      9  C   UNL     1       0.192  -2.752   1.148  1.00  0.00     0.077 A 
ATOM     10  C   UNL     1       2.557  -2.259   1.176  1.00  0.00     0.161 A 
ATOM     11  C   UNL     1       0.436  -4.101   1.427  1.00  0.00     0.058 A 
ATOM     12  C   UNL     1       2.805  -3.616   1.382  1.00  0.00     0.066 A 
BRANCH   8  13
ATOM     13  O   UNL     1       0.973  -0.490   0.953  1.00  0.00    -0.493 OA
ATOM     14  C   UNL     1       0.202  -0.120  -0.185  1.00  0.00     0.278 C 
ENDBRANCH   8  13
BRANCH  10  15
ATOM     15  O   UNL     1       3.693  -1.498   1.148  1.00  0.00    -0.493 OA
ATOM     16  C   UNL     1       3.656  -0.310   0.369  1.00  0.00     0.278 C 
ENDBRANCH  10  15
BRANCH  11  17
ATOM     17  N   UNL     1      -0.610  -5.006   1.714  1.00  0.00    -0.324 N 
ATOM     18  C   UNL     1      -1.892  -4.885   2.162  1.00  0.00     0.244 C 
ATOM     19  H   UNL     1      -0.353  -5.942   1.553  1.00  0.00     0.170 HD
ATOM     20  O   UNL     1      -2.622  -5.880   2.046  1.00  0.00    -0.273 OA
BRANCH  18  21
ATOM     21  C   UNL     1      -2.512  -3.586   2.682  1.00  0.00     0.229 C 
BRANCH  21  22
ATOM     22  N   UNL     1      -1.692  -2.796   3.577  1.00  0.00    -0.265 N 
ATOM     23  C   UNL     1      -1.235  -3.255   4.780  1.00  0.00     0.262 C 
ATOM     24  C   UNL     1      -1.509  -1.444   3.459  1.00  0.00     0.262 C 
ATOM     25  O   UNL     1      -1.399  -4.348   5.291  1.00  0.00    -0.269 OA
ATOM     26  C   UNL     1      -0.529  -2.143   5.411  1.00  0.00     0.053 A 
ATOM     27  C   UNL     1      -0.692  -1.034   4.599  1.00  0.00     0.053 A 
ATOM     28  O   UNL     1      -1.960  -0.687   2.622  1.00  0.00    -0.269 OA
ATOM     29  C   UNL     1       0.190  -2.087   6.588  1.00  0.00     0.015 A 
ATOM     30  C   UNL     1      -0.143   0.193   4.915  1.00  0.00     0.015 A 
ATOM     31  C   UNL     1       0.762  -0.857   6.928  1.00  0.00     0.001 A 
ATOM     32  C   UNL     1       0.598   0.273   6.098  1.00  0.00     0.001 A 
ENDBRANCH  21  22
ENDBRANCH  18  21
ENDBRANCH  11  17
ENDBRANCH   4   7
ENDBRANCH   2   3
ENDBRANCH   1   2
BRANCH   1  33
ATOM     33  C   UNL     1       6.320  -7.159   1.340  1.00  0.00     0.118 C 
BRANCH  33  34
ATOM     34  N   UNL     1       6.979  -7.651   0.138  1.00  0.00    -0.352 N 
ATOM     35  C   UNL     1       8.310  -7.886  -0.102  1.00  0.00     0.251 C 
ATOM     36  H   UNL     1       6.378  -7.845  -0.618  1.00  0.00     0.163 HD
ATOM     37  O   UNL     1       8.688  -8.068  -1.257  1.00  0.00    -0.269 OA
BRANCH  35  38
ATOM     38  C   UNL     1       9.284  -7.919   1.010  1.00  0.00     0.039 A 
ATOM     39  C   UNL     1      10.550  -7.358   0.814  1.00  0.00     0.014 A 
ATOM     40  C   UNL     1       8.976  -8.537   2.225  1.00  0.00     0.014 A 
ATOM     41  C   UNL     1      11.486  -7.377   1.851  1.00  0.00     0.010 A 
ATOM     42  C   UNL     1       9.881  -8.487   3.282  1.00  0.00     0.010 A 
ATOM     43  C   UNL     1      11.150  -7.917   3.103  1.00  0.00    -0.014 A 
BRANCH  43  44
ATOM     44  C   UNL     1      12.107  -7.884   4.238  1.00  0.00     0.031 A 
ATOM     45  C   UNL     1      12.614  -9.163   4.847  1.00  0.00     0.074 A 
ATOM     46  C   UNL     1      12.453  -6.697   4.776  1.00  0.00     0.049 A 
ATOM     47  N   UNL     1      13.409  -9.328   5.872  1.00  0.00    -0.248 NA
ATOM     48  C   UNL     1      12.148 -10.423   4.244  1.00  0.00     0.031 C 
ATOM     49  C   UNL     1      11.968  -5.392   4.322  1.00  0.00     0.029 A 
ATOM     50  N   UNL     1      13.272  -6.397   5.835  1.00  0.00    -0.354 N 
ATOM     51  C   UNL     1      13.504 -10.701   6.065  1.00  0.00     0.074 A 
ATOM     52  C   UNL     1      12.667 -11.326   5.064  1.00  0.00     0.031 C 
ATOM     53  C   UNL     1      12.505  -4.432   5.091  1.00  0.00     0.029 A 
ATOM     54  C   UNL     1      13.342  -5.052   6.113  1.00  0.00     0.049 A 
ATOM     55  H   UNL     1      13.762  -7.080   6.348  1.00  0.00     0.167 HD
ATOM     56  C   UNL     1      14.237 -11.380   6.978  1.00  0.00     0.034 A 
ATOM     57  C   UNL     1      13.999  -4.390   7.086  1.00  0.00     0.034 A 
ATOM     58  C   UNL     1      15.102 -10.754   7.941  1.00  0.00     0.049 A 
ATOM     59  C   UNL     1      14.846  -5.167   8.056  1.00  0.00     0.074 A 
ATOM     60  C   UNL     1      15.964 -11.358   8.840  1.00  0.00     0.029 A 
ATOM     61  N   UNL     1      15.210  -9.387   8.141  1.00  0.00    -0.354 N 
ATOM     62  N   UNL     1      15.043  -6.461   8.123  1.00  0.00    -0.248 NA
ATOM     63  C   UNL     1      15.589  -4.392   9.059  1.00  0.00     0.031 C 
ATOM     64  C   UNL     1      16.566 -10.357   9.608  1.00  0.00     0.029 A 
ATOM     65  C   UNL     1      16.111  -9.127   9.159  1.00  0.00     0.049 A 
ATOM     66  H   UNL     1      14.717  -8.702   7.634  1.00  0.00     0.167 HD
ATOM     67  C   UNL     1      15.957  -6.654   9.153  1.00  0.00     0.074 A 
ATOM     68  C   UNL     1      16.289  -5.341   9.667  1.00  0.00     0.031 C 
ATOM     69  C   UNL     1      16.467  -7.815   9.634  1.00  0.00     0.034 A 
BRANCH  56  70
ATOM     70  C   UNL     1      14.172 -12.885   6.961  1.00  0.00     0.023 A 
ATOM     71  C   UNL     1      14.787 -13.601   5.913  1.00  0.00     0.012 A 
ATOM     72  C   UNL     1      13.576 -13.592   8.024  1.00  0.00     0.148 A 
ATOM     73  C   UNL     1      14.784 -14.995   5.909  1.00  0.00     0.002 A 
ATOM     74  C   UNL     1      13.619 -14.981   8.036  1.00  0.00     0.091 A 
ATOM     75  F   UNL     1      12.980 -12.894   9.001  1.00  0.00    -0.205 F 
ATOM     76  C   UNL     1      14.212 -15.684   6.975  1.00  0.00     0.022 A 
BRANCH  74  77
ATOM     77  S   UNL     1      12.986 -15.961   9.403  1.00  0.00     0.127 S 
ATOM     78  O   UNL     1      11.847 -16.634   8.780  1.00  0.00    -0.237 OA
ATOM     79  O   UNL     1      14.120 -16.834   9.704  1.00  0.00    -0.237 OA
ATOM     80  O   UNL     1      12.648 -15.014  10.456  1.00  0.00    -0.744 OA
ENDBRANCH  74  77
ENDBRANCH  56  70
BRANCH  57  81
ATOM     81  C   UNL     1      13.933  -2.903   7.141  1.00  0.00     0.023 A 
ATOM     82  C   UNL     1      15.069  -2.148   6.791  1.00  0.00     0.012 A 
ATOM     83  C   UNL     1      12.742  -2.234   7.485  1.00  0.00     0.148 A 
ATOM     84  C   UNL     1      15.028  -0.753   6.807  1.00  0.00     0.002 A 
ATOM     85  C   UNL     1      12.692  -0.846   7.445  1.00  0.00     0.091 A 
ATOM     86  F   UNL     1      11.674  -2.973   7.819  1.00  0.00    -0.205 F 
ATOM     87  C   UNL     1      13.839  -0.103   7.123  1.00  0.00     0.022 A 
BRANCH  85  88
ATOM     88  S   UNL     1      11.172   0.076   7.705  1.00  0.00     0.127 S 
ATOM     89  O   UNL     1      11.465   0.794   8.943  1.00  0.00    -0.237 OA
ATOM     90  O   UNL     1      11.120   0.911   6.505  1.00  0.00    -0.237 OA
ATOM     91  O   UNL     1      10.113  -0.921   7.792  1.00  0.00    -0.744 OA
ENDBRANCH  85  88
ENDBRANCH  57  81
BRANCH  69  92
ATOM     92  C   UNL     1      17.469  -7.729  10.755  1.00  0.00     0.023 A 
ATOM     93  C   UNL     1      17.047  -7.375  12.052  1.00  0.00     0.012 A 
ATOM     94  C   UNL     1      18.817  -8.081  10.537  1.00  0.00     0.148 A 
ATOM     95  C   UNL     1      17.957  -7.341  13.108  1.00  0.00     0.002 A 
ATOM     96  C   UNL     1      19.706  -8.095  11.604  1.00  0.00     0.091 A 
ATOM     97  F   UNL     1      19.202  -8.398   9.293  1.00  0.00    -0.205 F 
ATOM     98  C   UNL     1      19.282  -7.713  12.887  1.00  0.00     0.022 A 
BRANCH  96  99
ATOM     99  S   UNL     1      21.405  -8.655  11.434  1.00  0.00     0.127 S 
ATOM    100  O   UNL     1      22.145  -7.401  11.560  1.00  0.00    -0.237 OA
ATOM    101  O   UNL     1      21.547  -9.564  12.572  1.00  0.00    -0.237 OA
ATOM    102  O   UNL     1      21.487  -9.301  10.131  1.00  0.00    -0.744 OA
ENDBRANCH  96  99
ENDBRANCH  69  92
ENDBRANCH  43  44
ENDBRANCH  35  38
ENDBRANCH  33  34
ENDBRANCH   1  33
TORSDOF 18
