REMARK SMILES CCC(CC)([NH2+]Cc1ccc(I)cc1)C(=O)NCCCNC(=O)c1ccc(-c2c3nc(c(-c4cccc(S(=O)(=O)[O-])c4F)c4ccc([nH]4)c(-c4cccc(S(=O)(=O)[O-])c4F)c4nc(c(-c5cccc(S(=O)(=O)[O-])c5F)c5ccc2[nH]5)C=C4)C=C3)cc1
REMARK SMILES IDX 19 1 18 2 17 3 15 4 16 5 3 7 2 8 1 9 4 10 5 11 6 12 7 15
REMARK SMILES IDX 8 16 9 17 14 18 10 19 13 20 11 21 12 22 20 23 21 24 22 25
REMARK SMILES IDX 23 27 24 28 25 29 86 30 26 31 85 32 27 33 28 34 29 35 79 36
REMARK SMILES IDX 30 37 84 38 78 39 80 40 31 41 83 42 77 43 76 44 32 46 64 47
REMARK SMILES IDX 44 48 63 49 45 50 48 51 62 52 81 53 46 54 47 55 61 57 82 58
REMARK SMILES IDX 49 59 33 60 34 61 42 62 35 63 37 64 43 65 36 66 38 67 39 68
REMARK SMILES IDX 40 69 41 70 65 71 66 72 74 73 67 74 69 75 75 76 68 77 70 78
REMARK SMILES IDX 71 79 72 80 73 81 50 82 51 83 59 84 52 85 54 86 60 87 53 88
REMARK SMILES IDX 55 89 56 90 57 91 58 92
REMARK H PARENT 17 6 6 13 6 14 21 26 80 45 48 56
REMARK Flexibility Score: inf
ROOT
ATOM      1  C   UNL     1       3.405   5.704   0.304  1.00  0.00     0.042 C 
ENDROOT
BRANCH   1   2
ATOM      2  C   UNL     1       3.075   4.486  -0.559  1.00  0.00     0.118 C 
BRANCH   2   3
ATOM      3  N   UNL     1       3.277   3.273   0.200  1.00  0.00    -0.351 N 
ATOM      4  C   UNL     1       2.423   2.470   0.888  1.00  0.00     0.281 C 
ATOM      5  O   UNL     1       2.987   1.821   1.782  1.00  0.00    -0.268 OA
ATOM      6  H   UNL     1       4.213   2.969   0.222  1.00  0.00     0.163 HD
BRANCH   4   7
ATOM      7  C   UNL     1       0.891   2.262   0.552  1.00  0.00     0.175 C 
BRANCH   7   8
ATOM      8  C   UNL     1       0.512   0.902   1.281  1.00  0.00     0.076 C 
ATOM      9  C   UNL     1       1.151  -0.372   0.721  1.00  0.00     0.011 C 
ENDBRANCH   7   8
BRANCH   7  10
ATOM     10  C   UNL     1       0.633   2.093  -0.968  1.00  0.00     0.076 C 
ATOM     11  C   UNL     1      -0.741   1.528  -1.352  1.00  0.00     0.011 C 
ENDBRANCH   7  10
BRANCH   7  12
ATOM     12  N   UNL     1      -0.023   3.227   1.230  1.00  0.00    -0.330 N 
ATOM     13  H   UNL     1       0.051   3.011   2.224  1.00  0.00     0.347 HD
ATOM     14  H   UNL     1      -0.874   3.066   0.692  1.00  0.00     0.347 HD
BRANCH  12  15
ATOM     15  C   UNL     1       0.050   4.680   1.149  1.00  0.00     0.298 C 
BRANCH  15  16
ATOM     16  C   UNL     1      -0.306   5.365  -0.157  1.00  0.00     0.006 A 
ATOM     17  C   UNL     1       0.263   6.615  -0.453  1.00  0.00     0.010 A 
ATOM     18  C   UNL     1      -1.187   4.827  -1.098  1.00  0.00     0.010 A 
ATOM     19  C   UNL     1       0.155   7.180  -1.729  1.00  0.00     0.015 A 
ATOM     20  C   UNL     1      -1.291   5.371  -2.383  1.00  0.00     0.015 A 
ATOM     21  C   UNL     1      -0.583   6.524  -2.707  1.00  0.00     0.013 A 
ATOM     22  I   UNL     1      -0.618   7.250  -4.651  1.00  0.00    -0.044 I 
ENDBRANCH  15  16
ENDBRANCH  12  15
ENDBRANCH   7  12
ENDBRANCH   4   7
ENDBRANCH   2   3
ENDBRANCH   1   2
BRANCH   1  23
ATOM     23  C   UNL     1       4.892   5.979   0.459  1.00  0.00     0.118 C 
BRANCH  23  24
ATOM     24  N   UNL     1       5.442   6.582  -0.744  1.00  0.00    -0.352 N 
ATOM     25  C   UNL     1       5.850   7.869  -0.997  1.00  0.00     0.251 C 
ATOM     26  H   UNL     1       5.538   5.965  -1.505  1.00  0.00     0.163 HD
ATOM     27  O   UNL     1       6.002   8.209  -2.169  1.00  0.00    -0.269 OA
BRANCH  25  28
ATOM     28  C   UNL     1       6.114   8.844   0.093  1.00  0.00     0.039 A 
ATOM     29  C   UNL     1       5.956  10.208  -0.182  1.00  0.00     0.014 A 
ATOM     30  C   UNL     1       6.605   8.457   1.341  1.00  0.00     0.014 A 
ATOM     31  C   UNL     1       6.286  11.164   0.784  1.00  0.00     0.010 A 
ATOM     32  C   UNL     1       6.824   9.403   2.341  1.00  0.00     0.010 A 
ATOM     33  C   UNL     1       6.720  10.770   2.060  1.00  0.00    -0.014 A 
BRANCH  33  34
ATOM     34  C   UNL     1       7.139  11.774   3.074  1.00  0.00     0.031 A 
ATOM     35  C   UNL     1       8.558  11.784   3.592  1.00  0.00     0.074 A 
ATOM     36  C   UNL     1       6.242  12.654   3.561  1.00  0.00     0.049 A 
ATOM     37  N   UNL     1       9.114  12.586   4.464  1.00  0.00    -0.248 NA
ATOM     38  C   UNL     1       9.466  10.738   3.089  1.00  0.00     0.031 C 
ATOM     39  C   UNL     1       4.820  12.693   3.212  1.00  0.00     0.029 A 
ATOM     40  N   UNL     1       6.389  13.676   4.465  1.00  0.00    -0.354 N 
ATOM     41  C   UNL     1      10.412  12.118   4.642  1.00  0.00     0.074 A 
ATOM     42  C   UNL     1      10.549  10.934   3.825  1.00  0.00     0.031 C 
ATOM     43  C   UNL     1       4.231  13.700   3.877  1.00  0.00     0.029 A 
ATOM     44  C   UNL     1       5.225  14.366   4.713  1.00  0.00     0.049 A 
ATOM     45  H   UNL     1       7.247  13.895   4.894  1.00  0.00     0.167 HD
ATOM     46  C   UNL     1      11.415  12.644   5.385  1.00  0.00     0.034 A 
ATOM     47  C   UNL     1       4.989  15.422   5.516  1.00  0.00     0.034 A 
ATOM     48  C   UNL     1      11.295  13.856   6.148  1.00  0.00     0.049 A 
ATOM     49  C   UNL     1       6.140  16.040   6.263  1.00  0.00     0.074 A 
ATOM     50  C   UNL     1      12.271  14.523   6.868  1.00  0.00     0.029 A 
ATOM     51  N   UNL     1      10.126  14.587   6.288  1.00  0.00    -0.354 N 
ATOM     52  N   UNL     1       7.399  15.674   6.293  1.00  0.00    -0.248 NA
ATOM     53  C   UNL     1       5.849  17.249   7.047  1.00  0.00     0.031 C 
ATOM     54  C   UNL     1      11.687  15.651   7.455  1.00  0.00     0.029 A 
ATOM     55  C   UNL     1      10.354  15.700   7.077  1.00  0.00     0.049 A 
ATOM     56  H   UNL     1       9.260  14.349   5.885  1.00  0.00     0.167 HD
ATOM     57  C   UNL     1       8.056  16.629   7.059  1.00  0.00     0.074 A 
ATOM     58  C   UNL     1       7.059  17.602   7.457  1.00  0.00     0.031 C 
ATOM     59  C   UNL     1       9.364  16.691   7.413  1.00  0.00     0.034 A 
BRANCH  46  60
ATOM     60  C   UNL     1      12.751  11.943   5.356  1.00  0.00     0.023 A 
ATOM     61  C   UNL     1      13.530  11.977   4.180  1.00  0.00     0.012 A 
ATOM     62  C   UNL     1      13.258  11.294   6.499  1.00  0.00     0.148 A 
ATOM     63  C   UNL     1      14.770  11.341   4.128  1.00  0.00     0.002 A 
ATOM     64  C   UNL     1      14.517  10.704   6.454  1.00  0.00     0.091 A 
ATOM     65  F   UNL     1      12.498  11.254   7.602  1.00  0.00    -0.205 F 
ATOM     66  C   UNL     1      15.267  10.714   5.266  1.00  0.00     0.022 A 
BRANCH  64  67
ATOM     67  S   UNL     1      15.284   9.944   7.890  1.00  0.00     0.127 S 
ATOM     68  O   UNL     1      15.230   8.526   7.537  1.00  0.00    -0.237 OA
ATOM     69  O   UNL     1      16.626  10.528   7.867  1.00  0.00    -0.237 OA
ATOM     70  O   UNL     1      14.472  10.336   9.033  1.00  0.00    -0.744 OA
ENDBRANCH  64  67
ENDBRANCH  46  60
BRANCH  47  71
ATOM     71  C   UNL     1       3.626  16.022   5.575  1.00  0.00     0.023 A 
ATOM     72  C   UNL     1       3.399  17.285   4.994  1.00  0.00     0.012 A 
ATOM     73  C   UNL     1       2.550  15.339   6.174  1.00  0.00     0.148 A 
ATOM     74  C   UNL     1       2.136  17.875   5.042  1.00  0.00     0.002 A 
ATOM     75  C   UNL     1       1.281  15.908   6.168  1.00  0.00     0.091 A 
ATOM     76  F   UNL     1       2.787  14.142   6.729  1.00  0.00    -0.205 F 
ATOM     77  C   UNL     1       1.075  17.183   5.620  1.00  0.00     0.022 A 
BRANCH  75  78
ATOM     78  S   UNL     1      -0.166  15.028   6.769  1.00  0.00     0.127 S 
ATOM     79  O   UNL     1      -0.462  15.752   8.006  1.00  0.00    -0.237 OA
ATOM     80  O   UNL     1      -1.125  15.251   5.684  1.00  0.00    -0.237 OA
ATOM     81  O   UNL     1       0.250  13.647   6.926  1.00  0.00    -0.744 OA
ENDBRANCH  75  78
ENDBRANCH  47  71
BRANCH  59  82
ATOM     82  C   UNL     1       9.809  17.875   8.230  1.00  0.00     0.023 A 
ATOM     83  C   UNL     1       9.421  17.989   9.579  1.00  0.00     0.012 A 
ATOM     84  C   UNL     1      10.660  18.849   7.671  1.00  0.00     0.148 A 
ATOM     85  C   UNL     1       9.836  19.077  10.347  1.00  0.00     0.002 A 
ATOM     86  C   UNL     1      11.112  19.903   8.457  1.00  0.00     0.091 A 
ATOM     87  F   UNL     1      11.004  18.737   6.380  1.00  0.00    -0.205 F 
ATOM     88  C   UNL     1      10.689  20.027   9.790  1.00  0.00     0.022 A 
BRANCH  86  89
ATOM     89  S   UNL     1      12.292  21.110   7.844  1.00  0.00     0.127 S 
ATOM     90  O   UNL     1      11.427  22.251   7.550  1.00  0.00    -0.237 OA
ATOM     91  O   UNL     1      13.177  21.297   8.994  1.00  0.00    -0.237 OA
ATOM     92  O   UNL     1      12.931  20.489   6.691  1.00  0.00    -0.744 OA
ENDBRANCH  86  89
ENDBRANCH  59  82
ENDBRANCH  33  34
ENDBRANCH  25  28
ENDBRANCH  23  24
ENDBRANCH   1  23
TORSDOF 18
