REMARK SMILES O=C(NCCCNC(=O)[C@@]1([NH2+]C2CC2)CCC[C@H]1CCn1ccnc1)c1ccc(-c2c3nc(c(-c4cccc(S(=O)(=O)[O-])c4F)c4ccc([nH]4)c(-c4cccc(S(=O)(=O)[O-])c4F)c4nc(c(-c5cccc(S(=O)(=O)[O-])c5F)c5ccc2[nH]5)C=C4)C=C3)cc1
REMARK SMILES IDX 5 1 4 2 3 3 1 4 2 5 26 7 27 8 88 9 28 10 87 11 29 12 30 13
REMARK SMILES IDX 31 14 81 15 32 16 86 17 80 18 82 19 33 20 85 21 79 22 78 23
REMARK SMILES IDX 34 25 66 26 46 27 65 28 47 29 50 30 64 31 83 32 48 33 49 34
REMARK SMILES IDX 63 36 84 37 51 38 35 39 36 40 44 41 37 42 39 43 45 44 38 45
REMARK SMILES IDX 40 46 41 47 42 48 43 49 67 50 68 51 76 52 69 53 71 54 77 55
REMARK SMILES IDX 70 56 72 57 73 58 74 59 75 60 52 61 53 62 61 63 54 64 56 65
REMARK SMILES IDX 62 66 55 67 57 68 58 69 59 70 60 71 6 72 7 73 8 74 9 76
REMARK SMILES IDX 10 77 15 78 18 79 16 80 17 81 11 82 12 85 13 86 14 87 19 88
REMARK SMILES IDX 20 89 21 90 22 91 25 92 23 93 24 94
REMARK H PARENT 3 6 82 24 50 35 7 75 11 83 11 84
REMARK Flexibility Score: inf
ROOT
ATOM      1  C   UNL     1       4.101   2.029  -0.663  1.00  0.00     0.042 C 
ENDROOT
BRANCH   1   2
ATOM      2  C   UNL     1       4.165   0.951   0.416  1.00  0.00     0.118 C 
BRANCH   2   3
ATOM      3  N   UNL     1       2.867   0.513   0.879  1.00  0.00    -0.352 N 
ATOM      4  O   UNL     1       0.880  -0.439   1.027  1.00  0.00    -0.269 OA
ATOM      5  C   UNL     1       1.873  -0.247   0.321  1.00  0.00     0.251 C 
ATOM      6  H   UNL     1       2.653   0.827   1.787  1.00  0.00     0.163 HD
BRANCH   5   7
ATOM      7  C   UNL     1       1.897  -0.802  -1.063  1.00  0.00     0.039 A 
ATOM      8  C   UNL     1       3.043  -1.001  -1.838  1.00  0.00     0.014 A 
ATOM      9  C   UNL     1       0.656  -1.195  -1.597  1.00  0.00     0.014 A 
ATOM     10  C   UNL     1       2.948  -1.525  -3.127  1.00  0.00     0.010 A 
ATOM     11  C   UNL     1       0.560  -1.751  -2.871  1.00  0.00     0.010 A 
ATOM     12  C   UNL     1       1.707  -1.902  -3.648  1.00  0.00    -0.014 A 
BRANCH  12  13
ATOM     13  C   UNL     1       1.689  -2.588  -4.943  1.00  0.00     0.031 A 
ATOM     14  C   UNL     1       2.424  -3.890  -5.006  1.00  0.00     0.074 A 
ATOM     15  C   UNL     1       0.927  -2.222  -5.993  1.00  0.00     0.049 A 
ATOM     16  N   UNL     1       3.400  -4.230  -5.788  1.00  0.00    -0.248 NA
ATOM     17  C   UNL     1       2.048  -4.926  -4.033  1.00  0.00     0.031 C 
ATOM     18  C   UNL     1      -0.126  -1.205  -6.026  1.00  0.00     0.029 A 
ATOM     19  N   UNL     1       0.846  -2.801  -7.229  1.00  0.00    -0.354 N 
ATOM     20  C   UNL     1       3.638  -5.584  -5.537  1.00  0.00     0.074 A 
ATOM     21  C   UNL     1       2.861  -5.926  -4.373  1.00  0.00     0.031 C 
ATOM     22  C   UNL     1      -0.898  -1.408  -7.117  1.00  0.00     0.029 A 
ATOM     23  C   UNL     1      -0.309  -2.465  -7.922  1.00  0.00     0.049 A 
ATOM     24  H   UNL     1       1.539  -3.398  -7.593  1.00  0.00     0.167 HD
ATOM     25  C   UNL     1       4.323  -6.387  -6.397  1.00  0.00     0.034 A 
ATOM     26  C   UNL     1      -0.787  -3.061  -9.039  1.00  0.00     0.034 A 
ATOM     27  C   UNL     1       5.065  -5.642  -7.374  1.00  0.00     0.049 A 
ATOM     28  C   UNL     1       0.320  -3.804  -9.677  1.00  0.00     0.074 A 
ATOM     29  C   UNL     1       6.079  -4.707  -7.345  1.00  0.00     0.029 A 
ATOM     30  N   UNL     1       4.575  -5.624  -8.655  1.00  0.00    -0.354 N 
ATOM     31  N   UNL     1       1.345  -3.242 -10.252  1.00  0.00    -0.248 NA
ATOM     32  C   UNL     1       0.454  -5.225  -9.406  1.00  0.00     0.031 C 
ATOM     33  C   UNL     1       5.827  -3.855  -8.459  1.00  0.00     0.029 A 
ATOM     34  C   UNL     1       4.683  -4.335  -9.101  1.00  0.00     0.049 A 
ATOM     35  H   UNL     1       4.216  -6.391  -9.157  1.00  0.00     0.167 HD
ATOM     36  C   UNL     1       2.394  -4.123 -10.032  1.00  0.00     0.074 A 
ATOM     37  C   UNL     1       1.758  -5.376  -9.641  1.00  0.00     0.031 C 
ATOM     38  C   UNL     1       3.678  -3.674  -9.906  1.00  0.00     0.034 A 
BRANCH  25  39
ATOM     39  C   UNL     1       4.116  -7.876  -6.554  1.00  0.00     0.023 A 
ATOM     40  C   UNL     1       5.080  -8.604  -7.290  1.00  0.00     0.012 A 
ATOM     41  C   UNL     1       2.908  -8.540  -6.249  1.00  0.00     0.148 A 
ATOM     42  C   UNL     1       4.841  -9.913  -7.725  1.00  0.00     0.002 A 
ATOM     43  C   UNL     1       2.710  -9.869  -6.612  1.00  0.00     0.091 A 
ATOM     44  F   UNL     1       1.887  -7.855  -5.721  1.00  0.00    -0.205 F 
ATOM     45  C   UNL     1       3.660 -10.551  -7.375  1.00  0.00     0.022 A 
BRANCH  43  46
ATOM     46  S   UNL     1       1.230 -10.753  -6.108  1.00  0.00     0.127 S 
ATOM     47  O   UNL     1       0.411 -10.665  -7.318  1.00  0.00    -0.237 OA
ATOM     48  O   UNL     1       1.758 -12.091  -5.821  1.00  0.00    -0.237 OA
ATOM     49  O   UNL     1       0.746 -10.044  -4.941  1.00  0.00    -0.744 OA
ENDBRANCH  43  46
ENDBRANCH  25  39
BRANCH  26  50
ATOM     50  C   UNL     1      -2.183  -3.206  -9.508  1.00  0.00     0.023 A 
ATOM     51  C   UNL     1      -2.440  -3.400 -10.880  1.00  0.00     0.012 A 
ATOM     52  C   UNL     1      -3.236  -3.418  -8.592  1.00  0.00     0.148 A 
ATOM     53  C   UNL     1      -3.700  -3.819 -11.323  1.00  0.00     0.002 A 
ATOM     54  C   UNL     1      -4.489  -3.826  -9.038  1.00  0.00     0.091 A 
ATOM     55  F   UNL     1      -2.982  -3.308  -7.281  1.00  0.00    -0.205 F 
ATOM     56  C   UNL     1      -4.721  -4.039 -10.403  1.00  0.00     0.022 A 
BRANCH  54  57
ATOM     57  S   UNL     1      -5.851  -4.145  -7.909  1.00  0.00     0.127 S 
ATOM     58  O   UNL     1      -6.957  -3.443  -8.561  1.00  0.00    -0.237 OA
ATOM     59  O   UNL     1      -5.942  -5.602  -7.949  1.00  0.00    -0.237 OA
ATOM     60  O   UNL     1      -5.449  -3.568  -6.632  1.00  0.00    -0.744 OA
ENDBRANCH  54  57
ENDBRANCH  26  50
BRANCH  38  61
ATOM     61  C   UNL     1       3.992  -2.258 -10.320  1.00  0.00     0.023 A 
ATOM     62  C   UNL     1       3.383  -1.150  -9.695  1.00  0.00     0.012 A 
ATOM     63  C   UNL     1       5.061  -2.036 -11.207  1.00  0.00     0.148 A 
ATOM     64  C   UNL     1       3.812   0.150  -9.966  1.00  0.00     0.002 A 
ATOM     65  C   UNL     1       5.520  -0.743 -11.433  1.00  0.00     0.091 A 
ATOM     66  F   UNL     1       5.636  -3.099 -11.790  1.00  0.00    -0.205 F 
ATOM     67  C   UNL     1       4.891   0.353 -10.823  1.00  0.00     0.022 A 
BRANCH  65  68
ATOM     68  S   UNL     1       6.998  -0.425 -12.401  1.00  0.00     0.127 S 
ATOM     69  O   UNL     1       6.441   0.066 -13.659  1.00  0.00    -0.237 OA
ATOM     70  O   UNL     1       7.687   0.589 -11.600  1.00  0.00    -0.237 OA
ATOM     71  O   UNL     1       7.705  -1.698 -12.479  1.00  0.00    -0.744 OA
ENDBRANCH  65  68
ENDBRANCH  38  61
ENDBRANCH  12  13
ENDBRANCH   5   7
ENDBRANCH   2   3
ENDBRANCH   1   2
BRANCH   1  72
ATOM     72  C   UNL     1       3.728   3.427  -0.156  1.00  0.00     0.118 C 
BRANCH  72  73
ATOM     73  N   UNL     1       4.607   3.908   0.904  1.00  0.00    -0.351 N 
ATOM     74  C   UNL     1       5.614   4.813   1.010  1.00  0.00     0.281 C 
ATOM     75  H   UNL     1       4.422   3.463   1.763  1.00  0.00     0.163 HD
ATOM     76  O   UNL     1       6.254   4.713   2.067  1.00  0.00    -0.268 OA
BRANCH  74  77
ATOM     77  C   UNL     1       5.988   5.894  -0.038  1.00  0.00     0.178 C 
ATOM     78  C   UNL     1       4.938   6.247  -1.097  1.00  0.00     0.079 C 
ATOM     79  C   UNL     1       6.147   7.310   0.679  1.00  0.00     0.062 C 
ATOM     80  C   UNL     1       5.271   7.641  -1.609  1.00  0.00     0.008 C 
ATOM     81  C   UNL     1       6.014   8.337  -0.479  1.00  0.00     0.011 C 
BRANCH  77  82
ATOM     82  N   UNL     1       7.345   5.676  -0.608  1.00  0.00    -0.331 N 
ATOM     83  H   UNL     1       7.986   5.920   0.147  1.00  0.00     0.347 HD
ATOM     84  H   UNL     1       7.239   6.210  -1.471  1.00  0.00     0.347 HD
BRANCH  82  85
ATOM     85  C   UNL     1       7.889   4.452  -1.172  1.00  0.00     0.183 C 
ATOM     86  C   UNL     1       7.601   3.061  -0.716  1.00  0.00     0.071 C 
ATOM     87  C   UNL     1       7.114   3.538  -2.061  1.00  0.00     0.071 C 
ENDBRANCH  82  85
ENDBRANCH  77  82
BRANCH  79  88
ATOM     88  C   UNL     1       5.152   7.692   1.808  1.00  0.00     0.032 C 
BRANCH  88  89
ATOM     89  C   UNL     1       5.548   7.325   3.251  1.00  0.00     0.123 C 
BRANCH  89  90
ATOM     90  N   UNL     1       6.916   7.620   3.623  1.00  0.00    -0.337 N 
ATOM     91  C   UNL     1       7.473   8.861   3.769  1.00  0.00     0.107 A 
ATOM     92  C   UNL     1       7.880   6.701   3.932  1.00  0.00     0.199 A 
ATOM     93  C   UNL     1       8.774   8.624   4.149  1.00  0.00     0.130 A 
ATOM     94  N   UNL     1       9.013   7.282   4.264  1.00  0.00    -0.245 NA
ENDBRANCH  89  90
ENDBRANCH  88  89
ENDBRANCH  79  88
ENDBRANCH  74  77
ENDBRANCH  72  73
ENDBRANCH   1  72
TORSDOF 18
