REMARK SMILES C[C@H]([C@@H](C)O)[NH+]1CCC(C)(C(=O)NCCCNC(=O)c2ccc(-c3c4nc(c(-c5cccc(S(=O)(=O)[O-])c5F)c5ccc([nH]5)c(-c5cccc(S(=O)(=O)[O-])c5F)c5nc(c(-c6cccc(S(=O)(=O)[O-])c6F)c6ccc3[nH]6)C=C5)C=C4)cc2)CC1
REMARK SMILES IDX 15 1 14 2 13 3 11 4 12 5 9 7 6 8 7 9 84 10 8 12 83 13 10 14
REMARK SMILES IDX 2 15 1 16 3 17 4 18 5 19 16 21 17 22 18 23 19 25 20 26 21 27
REMARK SMILES IDX 82 28 22 29 81 30 23 31 24 32 25 33 75 34 26 35 80 36 74 37
REMARK SMILES IDX 76 38 27 39 79 40 73 41 72 42 28 44 60 45 40 46 59 47 41 48
REMARK SMILES IDX 44 49 58 50 77 51 42 52 43 53 57 55 78 56 45 57 29 58 30 59
REMARK SMILES IDX 38 60 31 61 33 62 39 63 32 64 34 65 35 66 36 67 37 68 61 69
REMARK SMILES IDX 62 70 70 71 63 72 65 73 71 74 64 75 66 76 67 77 68 78 69 79
REMARK SMILES IDX 46 80 47 81 55 82 48 83 50 84 56 85 49 86 51 87 52 88 53 89
REMARK SMILES IDX 54 90
REMARK H PARENT 13 6 6 11 5 20 17 24 76 43 44 54
REMARK Flexibility Score: inf
ROOT
ATOM      1  C   UNL     1      -3.486  -2.092   4.529  1.00  0.00     0.042 C 
ENDROOT
BRANCH   1   2
ATOM      2  C   UNL     1      -3.123  -3.468   3.981  1.00  0.00     0.117 C 
BRANCH   2   3
ATOM      3  N   UNL     1      -3.675  -3.692   2.652  1.00  0.00    -0.356 N 
ATOM      4  C   UNL     1      -3.114  -3.766   1.414  1.00  0.00     0.226 C 
ATOM      5  O   UNL     1      -3.899  -3.908   0.473  1.00  0.00    -0.274 OA
ATOM      6  H   UNL     1      -4.652  -3.816   2.649  1.00  0.00     0.163 HD
BRANCH   4   7
ATOM      7  C   UNL     1      -1.588  -3.714   1.197  1.00  0.00     0.057 C 
ATOM      8  N   UNL     1      -0.652  -1.466  -0.536  1.00  0.00    -0.331 N 
ATOM      9  C   UNL     1      -1.223  -1.220   0.774  1.00  0.00     0.263 C 
ATOM     10  C   UNL     1      -1.288  -2.622  -1.163  1.00  0.00     0.263 C 
ATOM     11  H   UNL     1      -0.905  -0.640  -1.079  1.00  0.00     0.348 HD
ATOM     12  C   UNL     1      -1.003  -2.387   1.727  1.00  0.00     0.078 C 
ATOM     13  C   UNL     1      -1.263  -3.898  -0.320  1.00  0.00     0.078 C 
ATOM     14  C   UNL     1      -0.945  -4.931   1.899  1.00  0.00     0.022 C 
BRANCH   8  15
ATOM     15  C   UNL     1       0.799  -1.291  -0.750  1.00  0.00     0.209 C 
ATOM     16  C   UNL     1       1.736  -2.390  -0.219  1.00  0.00     0.078 C 
BRANCH  15  17
ATOM     17  C   UNL     1       1.333   0.131  -0.352  1.00  0.00     0.169 C 
ATOM     18  C   UNL     1       1.828   0.295   1.086  1.00  0.00     0.045 C 
BRANCH  17  19
ATOM     19  O   UNL     1       2.420   0.490  -1.224  1.00  0.00    -0.387 OA
ATOM     20  H   UNL     1       3.159  -0.123  -1.088  1.00  0.00     0.211 HD
ENDBRANCH  17  19
ENDBRANCH  15  17
ENDBRANCH   8  15
ENDBRANCH   4   7
ENDBRANCH   2   3
ENDBRANCH   1   2
BRANCH   1  21
ATOM     21  C   UNL     1      -4.979  -1.885   4.731  1.00  0.00     0.118 C 
BRANCH  21  22
ATOM     22  N   UNL     1      -5.548  -2.844   5.666  1.00  0.00    -0.352 N 
ATOM     23  C   UNL     1      -6.139  -2.642   6.888  1.00  0.00     0.251 C 
ATOM     24  H   UNL     1      -5.501  -3.784   5.378  1.00  0.00     0.163 HD
ATOM     25  O   UNL     1      -6.344  -3.603   7.623  1.00  0.00    -0.269 OA
BRANCH  23  26
ATOM     26  C   UNL     1      -6.516  -1.278   7.320  1.00  0.00     0.039 A 
ATOM     27  C   UNL     1      -6.329  -0.920   8.657  1.00  0.00     0.014 A 
ATOM     28  C   UNL     1      -7.075  -0.364   6.423  1.00  0.00     0.014 A 
ATOM     29  C   UNL     1      -6.651   0.372   9.077  1.00  0.00     0.010 A 
ATOM     30  C   UNL     1      -7.304   0.949   6.820  1.00  0.00     0.010 A 
ATOM     31  C   UNL     1      -7.109   1.328   8.155  1.00  0.00    -0.014 A 
BRANCH  31  32
ATOM     32  C   UNL     1      -7.375   2.728   8.573  1.00  0.00     0.031 A 
ATOM     33  C   UNL     1      -8.756   3.315   8.453  1.00  0.00     0.074 A 
ATOM     34  C   UNL     1      -6.350   3.494   8.996  1.00  0.00     0.049 A 
ATOM     35  N   UNL     1      -9.169   4.516   8.767  1.00  0.00    -0.248 NA
ATOM     36  C   UNL     1      -9.805   2.455   7.880  1.00  0.00     0.031 C 
ATOM     37  C   UNL     1      -4.949   3.070   9.063  1.00  0.00     0.029 A 
ATOM     38  N   UNL     1      -6.322   4.794   9.433  1.00  0.00    -0.354 N 
ATOM     39  C   UNL     1     -10.509   4.567   8.402  1.00  0.00     0.074 A 
ATOM     40  C   UNL     1     -10.831   3.289   7.805  1.00  0.00     0.031 C 
ATOM     41  C   UNL     1      -4.203   4.083   9.530  1.00  0.00     0.029 A 
ATOM     42  C   UNL     1      -5.064   5.236   9.770  1.00  0.00     0.049 A 
ATOM     43  H   UNL     1      -7.127   5.357   9.499  1.00  0.00     0.167 HD
ATOM     44  C   UNL     1     -11.400   5.571   8.577  1.00  0.00     0.034 A 
ATOM     45  C   UNL     1      -4.651   6.435  10.224  1.00  0.00     0.034 A 
ATOM     46  C   UNL     1     -11.084   6.824   9.209  1.00  0.00     0.049 A 
ATOM     47  C   UNL     1      -5.672   7.512  10.468  1.00  0.00     0.074 A 
ATOM     48  C   UNL     1     -11.934   7.871   9.518  1.00  0.00     0.029 A 
ATOM     49  N   UNL     1      -9.817   7.204   9.623  1.00  0.00    -0.354 N 
ATOM     50  N   UNL     1      -6.969   7.478  10.276  1.00  0.00    -0.248 NA
ATOM     51  C   UNL     1      -5.180   8.776  11.032  1.00  0.00     0.031 C 
ATOM     52  C   UNL     1     -11.176   8.894  10.098  1.00  0.00     0.029 A 
ATOM     53  C   UNL     1      -9.858   8.472  10.178  1.00  0.00     0.049 A 
ATOM     54  H   UNL     1      -9.006   6.652   9.535  1.00  0.00     0.167 HD
ATOM     55  C   UNL     1      -7.452   8.701  10.726  1.00  0.00     0.074 A 
ATOM     56  C   UNL     1      -6.311   9.441  11.227  1.00  0.00     0.031 C 
ATOM     57  C   UNL     1      -8.722   9.176  10.714  1.00  0.00     0.034 A 
BRANCH  44  58
ATOM     58  C   UNL     1     -12.820   5.335   8.129  1.00  0.00     0.023 A 
ATOM     59  C   UNL     1     -13.632   4.427   8.840  1.00  0.00     0.012 A 
ATOM     60  C   UNL     1     -13.370   6.049   7.046  1.00  0.00     0.148 A 
ATOM     61  C   UNL     1     -14.955   4.206   8.460  1.00  0.00     0.002 A 
ATOM     62  C   UNL     1     -14.704   5.858   6.703  1.00  0.00     0.091 A 
ATOM     63  F   UNL     1     -12.579   6.892   6.368  1.00  0.00    -0.205 F 
ATOM     64  C   UNL     1     -15.494   4.929   7.400  1.00  0.00     0.022 A 
BRANCH  62  65
ATOM     65  S   UNL     1     -15.517   6.800   5.407  1.00  0.00     0.127 S 
ATOM     66  O   UNL     1     -15.705   5.781   4.376  1.00  0.00    -0.237 OA
ATOM     67  O   UNL     1     -16.748   7.233   6.068  1.00  0.00    -0.237 OA
ATOM     68  O   UNL     1     -14.602   7.878   5.060  1.00  0.00    -0.744 OA
ENDBRANCH  62  65
ENDBRANCH  44  58
BRANCH  45  69
ATOM     69  C   UNL     1      -3.213   6.650  10.553  1.00  0.00     0.023 A 
ATOM     70  C   UNL     1      -2.824   6.787  11.899  1.00  0.00     0.012 A 
ATOM     71  C   UNL     1      -2.229   6.686   9.546  1.00  0.00     0.148 A 
ATOM     72  C   UNL     1      -1.485   6.991  12.236  1.00  0.00     0.002 A 
ATOM     73  C   UNL     1      -0.891   6.831   9.892  1.00  0.00     0.091 A 
ATOM     74  F   UNL     1      -2.621   6.563   8.270  1.00  0.00    -0.205 F 
ATOM     75  C   UNL     1      -0.518   7.003  11.234  1.00  0.00     0.022 A 
BRANCH  73  76
ATOM     76  S   UNL     1       0.432   6.715   8.683  1.00  0.00     0.127 S 
ATOM     77  O   UNL     1       0.889   8.100   8.606  1.00  0.00    -0.237 OA
ATOM     78  O   UNL     1       1.361   5.793   9.338  1.00  0.00    -0.237 OA
ATOM     79  O   UNL     1      -0.186   6.183   7.476  1.00  0.00    -0.744 OA
ENDBRANCH  73  76
ENDBRANCH  45  69
BRANCH  57  80
ATOM     80  C   UNL     1      -8.954  10.550  11.288  1.00  0.00     0.023 A 
ATOM     81  C   UNL     1      -8.491  11.688  10.597  1.00  0.00     0.012 A 
ATOM     82  C   UNL     1      -9.673  10.715  12.488  1.00  0.00     0.148 A 
ATOM     83  C   UNL     1      -8.701  12.965  11.114  1.00  0.00     0.002 A 
ATOM     84  C   UNL     1      -9.925  11.994  12.970  1.00  0.00     0.091 A 
ATOM     85  F   UNL     1     -10.089   9.621  13.142  1.00  0.00    -0.205 F 
ATOM     86  C   UNL     1      -9.427  13.119  12.293  1.00  0.00     0.022 A 
BRANCH  84  87
ATOM     87  S   UNL     1     -10.933  12.287  14.427  1.00  0.00     0.127 S 
ATOM     88  O   UNL     1      -9.921  12.623  15.427  1.00  0.00    -0.237 OA
ATOM     89  O   UNL     1     -11.771  13.410  14.006  1.00  0.00    -0.237 OA
ATOM     90  O   UNL     1     -11.662  11.048  14.663  1.00  0.00    -0.744 OA
ENDBRANCH  84  87
ENDBRANCH  57  80
ENDBRANCH  31  32
ENDBRANCH  23  26
ENDBRANCH  21  22
ENDBRANCH   1  21
TORSDOF 16
