REMARK SMILES O=C(NCCCNC(=O)[C@H]1CCCN(C(=O)C2CCN(S(=O)(=O)c3ccccc3)CC2)C1)c1ccc(-c2c3nc(c(-c4cccc(S(=O)(=O)[O-])c4F)c4ccc([nH]4)c(-c4cccc(S(=O)(=O)[O-])c4F)c4nc(c(-c5cccc(S(=O)(=O)[O-])c5F)c5ccc2[nH]5)C=C4)C=C3)cc1
REMARK SMILES IDX 5 1 4 2 3 3 1 4 2 5 33 7 34 8 95 9 35 10 94 11 36 12 37 13
REMARK SMILES IDX 38 14 88 15 39 16 93 17 87 18 89 19 40 20 92 21 86 22 85 23
REMARK SMILES IDX 41 25 73 26 53 27 72 28 54 29 57 30 71 31 90 32 55 33 56 34
REMARK SMILES IDX 70 36 91 37 58 38 42 39 43 40 51 41 44 42 46 43 52 44 45 45
REMARK SMILES IDX 47 46 48 47 49 48 50 49 74 50 75 51 83 52 76 53 78 54 84 55
REMARK SMILES IDX 77 56 79 57 80 58 81 59 82 60 59 61 60 62 68 63 61 64 63 65
REMARK SMILES IDX 69 66 62 67 64 68 65 69 66 70 67 71 6 72 7 73 8 74 9 76
REMARK SMILES IDX 10 77 11 78 32 79 12 80 14 81 13 82 15 83 16 84 17 85 18 86
REMARK SMILES IDX 31 87 19 88 30 89 20 90 21 91 22 92 23 93 24 94 25 95 29 96
REMARK SMILES IDX 26 97 28 98 27 99
REMARK H PARENT 3 6 89 24 57 35 7 75
REMARK Flexibility Score: inf
ROOT
ATOM      1  C   UNL     1       8.860   6.760   2.228  1.00  0.00     0.042 C 
ENDROOT
BRANCH   1   2
ATOM      2  C   UNL     1       9.403   7.120   0.857  1.00  0.00     0.118 C 
BRANCH   2   3
ATOM      3  N   UNL     1       9.066   8.482   0.472  1.00  0.00    -0.352 N 
ATOM      4  O   UNL     1       9.489  10.602  -0.152  1.00  0.00    -0.269 OA
ATOM      5  C   UNL     1       9.887   9.447  -0.055  1.00  0.00     0.251 C 
ATOM      6  H   UNL     1       8.127   8.746   0.607  1.00  0.00     0.163 HD
BRANCH   5   7
ATOM      7  C   UNL     1      11.252   9.074  -0.477  1.00  0.00     0.039 A 
ATOM      8  C   UNL     1      11.464   7.903  -1.212  1.00  0.00     0.014 A 
ATOM      9  C   UNL     1      12.323   9.901  -0.136  1.00  0.00     0.014 A 
ATOM     10  C   UNL     1      12.757   7.500  -1.510  1.00  0.00     0.010 A 
ATOM     11  C   UNL     1      13.617   9.538  -0.512  1.00  0.00     0.010 A 
ATOM     12  C   UNL     1      13.842   8.332  -1.193  1.00  0.00    -0.014 A 
BRANCH  12  13
ATOM     13  C   UNL     1      15.184   7.996  -1.720  1.00  0.00     0.031 A 
ATOM     14  C   UNL     1      16.327   7.673  -0.806  1.00  0.00     0.074 A 
ATOM     15  C   UNL     1      15.356   8.036  -3.056  1.00  0.00     0.049 A 
ATOM     16  N   UNL     1      17.564   7.388  -1.118  1.00  0.00    -0.248 NA
ATOM     17  C   UNL     1      16.060   7.678   0.642  1.00  0.00     0.031 C 
ATOM     18  C   UNL     1      14.316   8.399  -4.025  1.00  0.00     0.029 A 
ATOM     19  N   UNL     1      16.459   7.794  -3.831  1.00  0.00    -0.354 N 
ATOM     20  C   UNL     1      18.235   7.228   0.086  1.00  0.00     0.074 A 
ATOM     21  C   UNL     1      17.266   7.435   1.141  1.00  0.00     0.031 C 
ATOM     22  C   UNL     1      14.828   8.353  -5.261  1.00  0.00     0.029 A 
ATOM     23  C   UNL     1      16.242   8.015  -5.171  1.00  0.00     0.049 A 
ATOM     24  H   UNL     1      17.321   7.492  -3.465  1.00  0.00     0.167 HD
ATOM     25  C   UNL     1      19.540   6.925   0.284  1.00  0.00     0.034 A 
ATOM     26  C   UNL     1      17.094   7.986  -6.212  1.00  0.00     0.034 A 
ATOM     27  C   UNL     1      20.476   6.671  -0.779  1.00  0.00     0.049 A 
ATOM     28  C   UNL     1      18.526   7.627  -5.956  1.00  0.00     0.074 A 
ATOM     29  C   UNL     1      21.784   6.229  -0.684  1.00  0.00     0.029 A 
ATOM     30  N   UNL     1      20.212   6.857  -2.128  1.00  0.00    -0.354 N 
ATOM     31  N   UNL     1      19.100   7.299  -4.823  1.00  0.00    -0.248 NA
ATOM     32  C   UNL     1      19.426   7.616  -7.115  1.00  0.00     0.031 C 
ATOM     33  C   UNL     1      22.320   6.173  -1.975  1.00  0.00     0.029 A 
ATOM     34  C   UNL     1      21.342   6.571  -2.874  1.00  0.00     0.049 A 
ATOM     35  H   UNL     1      19.349   7.149  -2.499  1.00  0.00     0.167 HD
ATOM     36  C   UNL     1      20.427   7.038  -5.133  1.00  0.00     0.074 A 
ATOM     37  C   UNL     1      20.562   7.208  -6.566  1.00  0.00     0.031 C 
ATOM     38  C   UNL     1      21.448   6.714  -4.303  1.00  0.00     0.034 A 
BRANCH  25  39
ATOM     39  C   UNL     1      20.042   6.807   1.697  1.00  0.00     0.023 A 
ATOM     40  C   UNL     1      19.766   5.641   2.437  1.00  0.00     0.012 A 
ATOM     41  C   UNL     1      20.880   7.797   2.248  1.00  0.00     0.148 A 
ATOM     42  C   UNL     1      20.310   5.464   3.709  1.00  0.00     0.002 A 
ATOM     43  C   UNL     1      21.444   7.599   3.504  1.00  0.00     0.091 A 
ATOM     44  F   UNL     1      21.112   8.907   1.534  1.00  0.00    -0.205 F 
ATOM     45  C   UNL     1      21.156   6.436   4.237  1.00  0.00     0.022 A 
BRANCH  43  46
ATOM     46  S   UNL     1      22.599   8.759   4.245  1.00  0.00     0.127 S 
ATOM     47  O   UNL     1      21.801   9.309   5.340  1.00  0.00    -0.237 OA
ATOM     48  O   UNL     1      23.689   7.881   4.667  1.00  0.00    -0.237 OA
ATOM     49  O   UNL     1      22.950   9.704   3.194  1.00  0.00    -0.744 OA
ENDBRANCH  43  46
ENDBRANCH  25  39
BRANCH  26  50
ATOM     50  C   UNL     1      16.594   8.293  -7.580  1.00  0.00     0.023 A 
ATOM     51  C   UNL     1      16.506   7.264  -8.535  1.00  0.00     0.012 A 
ATOM     52  C   UNL     1      16.143   9.585  -7.917  1.00  0.00     0.148 A 
ATOM     53  C   UNL     1      15.993   7.521  -9.808  1.00  0.00     0.002 A 
ATOM     54  C   UNL     1      15.578   9.818  -9.165  1.00  0.00     0.091 A 
ATOM     55  F   UNL     1      16.255  10.560  -7.004  1.00  0.00    -0.205 F 
ATOM     56  C   UNL     1      15.515   8.792 -10.118  1.00  0.00     0.022 A 
BRANCH  54  57
ATOM     57  S   UNL     1      14.802  11.390  -9.558  1.00  0.00     0.127 S 
ATOM     58  O   UNL     1      15.885  12.101 -10.232  1.00  0.00    -0.237 OA
ATOM     59  O   UNL     1      13.696  10.987 -10.428  1.00  0.00    -0.237 OA
ATOM     60  O   UNL     1      14.376  11.928  -8.272  1.00  0.00    -0.744 OA
ENDBRANCH  54  57
ENDBRANCH  26  50
BRANCH  38  61
ATOM     61  C   UNL     1      22.805   6.536  -4.923  1.00  0.00     0.023 A 
ATOM     62  C   UNL     1      23.533   7.676  -5.316  1.00  0.00     0.012 A 
ATOM     63  C   UNL     1      23.385   5.261  -5.051  1.00  0.00     0.148 A 
ATOM     64  C   UNL     1      24.813   7.547  -5.851  1.00  0.00     0.002 A 
ATOM     65  C   UNL     1      24.678   5.143  -5.545  1.00  0.00     0.091 A 
ATOM     66  F   UNL     1      22.664   4.190  -4.688  1.00  0.00    -0.205 F 
ATOM     67  C   UNL     1      25.390   6.283  -5.954  1.00  0.00     0.022 A 
BRANCH  65  68
ATOM     68  S   UNL     1      25.533   3.566  -5.636  1.00  0.00     0.127 S 
ATOM     69  O   UNL     1      25.537   3.311  -7.075  1.00  0.00    -0.237 OA
ATOM     70  O   UNL     1      26.843   3.889  -5.069  1.00  0.00    -0.237 OA
ATOM     71  O   UNL     1      24.744   2.636  -4.839  1.00  0.00    -0.744 OA
ENDBRANCH  65  68
ENDBRANCH  38  61
ENDBRANCH  12  13
ENDBRANCH   5   7
ENDBRANCH   2   3
ENDBRANCH   1   2
BRANCH   1  72
ATOM     72  C   UNL     1       7.341   6.722   2.269  1.00  0.00     0.117 C 
BRANCH  72  73
ATOM     73  N   UNL     1       6.787   5.585   1.551  1.00  0.00    -0.356 N 
ATOM     74  C   UNL     1       5.979   4.575   1.983  1.00  0.00     0.224 C 
ATOM     75  H   UNL     1       7.035   5.537   0.600  1.00  0.00     0.163 HD
ATOM     76  O   UNL     1       5.614   3.730   1.164  1.00  0.00    -0.275 OA
BRANCH  74  77
ATOM     77  C   UNL     1       5.546   4.483   3.438  1.00  0.00     0.098 C 
ATOM     78  C   UNL     1       6.756   4.212   4.346  1.00  0.00     0.017 C 
ATOM     79  C   UNL     1       4.629   5.671   3.795  1.00  0.00     0.133 C 
ATOM     80  C   UNL     1       6.511   4.619   5.785  1.00  0.00     0.022 C 
ATOM     81  N   UNL     1       4.610   6.032   5.218  1.00  0.00    -0.342 N 
ATOM     82  C   UNL     1       5.911   6.012   5.842  1.00  0.00     0.119 C 
BRANCH  81  83
ATOM     83  C   UNL     1       3.457   6.592   5.740  1.00  0.00     0.225 C 
ATOM     84  O   UNL     1       2.500   6.821   4.985  1.00  0.00    -0.275 OA
BRANCH  83  85
ATOM     85  C   UNL     1       3.252   6.936   7.238  1.00  0.00     0.081 C 
ATOM     86  C   UNL     1       3.858   8.222   7.773  1.00  0.00     0.030 C 
ATOM     87  C   UNL     1       3.346   5.814   8.256  1.00  0.00     0.030 C 
ATOM     88  C   UNL     1       5.195   8.101   8.480  1.00  0.00     0.103 C 
ATOM     89  C   UNL     1       4.704   5.622   8.900  1.00  0.00     0.103 C 
ATOM     90  N   UNL     1       5.410   6.862   9.313  1.00  0.00    -0.198 NA
BRANCH  90  91
ATOM     91  S   UNL     1       7.135   6.686   9.584  1.00  0.00     0.243 S 
ATOM     92  O   UNL     1       7.750   6.465   8.283  1.00  0.00    -0.207 OA
ATOM     93  O   UNL     1       7.538   7.808  10.393  1.00  0.00    -0.207 OA
BRANCH  91  94
ATOM     94  C   UNL     1       7.403   5.191  10.506  1.00  0.00     0.082 A 
ATOM     95  C   UNL     1       7.933   5.264  11.796  1.00  0.00     0.022 A 
ATOM     96  C   UNL     1       7.308   3.949   9.860  1.00  0.00     0.022 A 
ATOM     97  C   UNL     1       8.326   4.093  12.447  1.00  0.00     0.001 A 
ATOM     98  C   UNL     1       7.664   2.780  10.529  1.00  0.00     0.001 A 
ATOM     99  C   UNL     1       8.178   2.853  11.821  1.00  0.00     0.000 A 
ENDBRANCH  91  94
ENDBRANCH  90  91
ENDBRANCH  83  85
ENDBRANCH  81  83
ENDBRANCH  74  77
ENDBRANCH  72  73
ENDBRANCH   1  72
TORSDOF 17
