REMARK SMILES CCOc1ccc(C(=O)NC(=S)Nc2cccc(C(=O)NCCCNC(=O)c3ccc(-c4c5nc(c(-c6cccc(S(=O)(=O)[O-])c6F)c6ccc([nH]6)c(-c6cccc(S(=O)(=O)[O-])c6F)c6nc(c(-c7cccc(S(=O)(=O)[O-])c7F)c7ccc4[nH]7)C=C6)C=C5)cc3)c2C)cc1Br
REMARK SMILES IDX 19 1 20 2 21 3 18 5 14 6 15 7 91 8 16 9 92 10 17 11 13 12
REMARK SMILES IDX 11 14 12 15 10 16 8 17 9 18 7 20 4 21 5 22 94 23 6 24 93 25
REMARK SMILES IDX 95 26 3 27 2 28 1 29 22 30 23 31 24 32 25 33 26 34 27 36
REMARK SMILES IDX 28 37 29 38 90 39 30 40 89 41 31 42 32 43 33 44 83 45 34 46
REMARK SMILES IDX 88 47 82 48 84 49 35 50 87 51 81 52 80 53 36 55 68 56 48 57
REMARK SMILES IDX 67 58 49 59 52 60 66 61 85 62 50 63 51 64 65 66 86 67 53 68
REMARK SMILES IDX 37 69 38 70 46 71 39 72 41 73 47 74 40 75 42 76 43 77 44 78
REMARK SMILES IDX 45 79 69 80 70 81 78 82 71 83 73 84 79 85 72 86 74 87 75 88
REMARK SMILES IDX 76 89 77 90 54 91 55 92 63 93 56 94 58 95 64 96 57 97 59 98
REMARK SMILES IDX 60 99 61 100 62 101
REMARK H PARENT 21 4 13 13 10 19 25 35 84 54 52 65
REMARK Flexibility Score: inf
ROOT
ATOM      1  C   UNL     1       2.189   2.653   1.857  1.00  0.00     0.251 C 
ATOM      2  O   UNL     1       2.065   1.869   2.797  1.00  0.00    -0.269 OA
ATOM      3  N   UNL     1       1.411   3.814   1.893  1.00  0.00    -0.352 N 
ATOM      4  H   UNL     1       0.673   3.710   2.535  1.00  0.00     0.163 HD
ENDROOT
BRANCH   1   5
ATOM      5  C   UNL     1       3.074   2.226   0.726  1.00  0.00     0.044 A 
ATOM      6  C   UNL     1       4.743   0.178  -1.068  1.00  0.00     0.044 A 
ATOM      7  C   UNL     1       4.723   1.181  -2.524  1.00  0.00     0.026 A 
ATOM      8  C   UNL     1       3.822   0.611   0.456  1.00  0.00    -0.015 A 
ATOM      9  C   UNL     1       3.965   2.756  -2.393  1.00  0.00     0.003 A 
ATOM     10  C   UNL     1       3.756  -0.434   1.529  1.00  0.00     0.047 C 
ATOM     11  C   UNL     1       3.189   3.355  -0.624  1.00  0.00     0.014 A 
BRANCH   6  12
ATOM     12  N   UNL     1       6.123  -0.138  -0.848  1.00  0.00    -0.332 N 
ATOM     13  H   UNL     1       6.305  -0.988  -0.385  1.00  0.00     0.169 HD
BRANCH  12  14
ATOM     14  C   UNL     1       7.234   0.609  -1.210  1.00  0.00     0.177 C 
ATOM     15  S   UNL     1       8.670  -0.237  -1.427  1.00  0.00    -0.040 S 
BRANCH  14  16
ATOM     16  N   UNL     1       7.303   2.059  -1.352  1.00  0.00    -0.299 N 
ATOM     17  C   UNL     1       6.759   3.487  -1.336  1.00  0.00     0.257 C 
ATOM     18  O   UNL     1       7.526   4.414  -1.590  1.00  0.00    -0.269 OA
ATOM     19  H   UNL     1       8.245   2.199  -1.603  1.00  0.00     0.172 HD
BRANCH  17  20
ATOM     20  C   UNL     1       5.302   3.776  -1.076  1.00  0.00     0.041 A 
ATOM     21  C   UNL     1       1.811   2.771  -2.099  1.00  0.00     0.133 A 
ATOM     22  C   UNL     1       2.485   4.413  -2.394  1.00  0.00     0.048 A 
ATOM     23  C   UNL     1       2.885   1.575  -1.326  1.00  0.00     0.060 A 
ATOM     24  C   UNL     1       4.186   4.886  -1.915  1.00  0.00     0.018 A 
ATOM     25  C   UNL     1       4.690   2.226  -0.690  1.00  0.00     0.033 A 
ATOM     26  Br  UNL     1       2.280  -0.273  -2.292  1.00  0.00    -0.047 Br
BRANCH  21  27
ATOM     27  O   UNL     1       0.464   2.452  -2.128  1.00  0.00    -0.493 OA
BRANCH  27  28
ATOM     28  C   UNL     1      -0.114   1.974  -0.862  1.00  0.00     0.226 C 
ATOM     29  C   UNL     1      -0.022   0.511  -0.413  1.00  0.00     0.049 C 
ENDBRANCH  27  28
ENDBRANCH  21  27
ENDBRANCH  17  20
ENDBRANCH  14  16
ENDBRANCH  12  14
ENDBRANCH   6  12
ENDBRANCH   1   5
BRANCH   3  30
ATOM     30  C   UNL     1       1.356   5.160   1.258  1.00  0.00     0.118 C 
BRANCH  30  31
ATOM     31  C   UNL     1       0.449   5.321   0.035  1.00  0.00     0.042 C 
BRANCH  31  32
ATOM     32  C   UNL     1      -0.983   5.680   0.354  1.00  0.00     0.118 C 
BRANCH  32  33
ATOM     33  N   UNL     1      -1.175   7.106   0.497  1.00  0.00    -0.352 N 
ATOM     34  C   UNL     1      -2.307   7.852   0.219  1.00  0.00     0.251 C 
ATOM     35  H   UNL     1      -0.401   7.611   0.837  1.00  0.00     0.163 HD
ATOM     36  O   UNL     1      -2.163   9.048  -0.015  1.00  0.00    -0.269 OA
BRANCH  34  37
ATOM     37  C   UNL     1      -3.665   7.246   0.394  1.00  0.00     0.039 A 
ATOM     38  C   UNL     1      -4.525   8.038   1.157  1.00  0.00     0.014 A 
ATOM     39  C   UNL     1      -3.804   5.867   0.449  1.00  0.00     0.014 A 
ATOM     40  C   UNL     1      -5.096   7.487   2.288  1.00  0.00     0.010 A 
ATOM     41  C   UNL     1      -4.242   5.331   1.624  1.00  0.00     0.010 A 
ATOM     42  C   UNL     1      -4.763   6.182   2.598  1.00  0.00    -0.014 A 
BRANCH  42  43
ATOM     43  C   UNL     1      -5.209   5.461   3.760  1.00  0.00     0.031 A 
ATOM     44  C   UNL     1      -6.594   4.980   3.609  1.00  0.00     0.074 A 
ATOM     45  C   UNL     1      -4.207   4.999   4.550  1.00  0.00     0.049 A 
ATOM     46  N   UNL     1      -7.275   4.417   4.528  1.00  0.00    -0.248 NA
ATOM     47  C   UNL     1      -7.367   5.136   2.362  1.00  0.00     0.031 C 
ATOM     48  C   UNL     1      -4.105   3.781   5.344  1.00  0.00     0.029 A 
ATOM     49  N   UNL     1      -3.016   5.670   4.859  1.00  0.00    -0.354 N 
ATOM     50  C   UNL     1      -8.329   3.781   3.896  1.00  0.00     0.074 A 
ATOM     51  C   UNL     1      -8.464   4.422   2.623  1.00  0.00     0.031 C 
ATOM     52  C   UNL     1      -3.123   3.924   6.259  1.00  0.00     0.029 A 
ATOM     53  C   UNL     1      -2.641   5.292   6.166  1.00  0.00     0.049 A 
ATOM     54  H   UNL     1      -2.529   6.293   4.272  1.00  0.00     0.167 HD
ATOM     55  C   UNL     1      -8.787   2.633   4.460  1.00  0.00     0.034 A 
ATOM     56  C   UNL     1      -2.713   6.218   7.176  1.00  0.00     0.034 A 
ATOM     57  C   UNL     1      -8.048   2.416   5.717  1.00  0.00     0.049 A 
ATOM     58  C   UNL     1      -3.911   5.939   8.070  1.00  0.00     0.074 A 
ATOM     59  C   UNL     1      -6.935   1.651   6.024  1.00  0.00     0.029 A 
ATOM     60  N   UNL     1      -8.150   3.380   6.715  1.00  0.00    -0.354 N 
ATOM     61  N   UNL     1      -4.912   5.177   7.717  1.00  0.00    -0.248 NA
ATOM     62  C   UNL     1      -4.032   6.402   9.450  1.00  0.00     0.031 C 
ATOM     63  C   UNL     1      -6.314   2.237   7.169  1.00  0.00     0.029 A 
ATOM     64  C   UNL     1      -7.050   3.345   7.558  1.00  0.00     0.049 A 
ATOM     65  H   UNL     1      -8.905   4.005   6.811  1.00  0.00     0.167 HD
ATOM     66  C   UNL     1      -5.792   5.037   8.749  1.00  0.00     0.074 A 
ATOM     67  C   UNL     1      -5.180   5.806   9.824  1.00  0.00     0.031 C 
ATOM     68  C   UNL     1      -6.946   4.307   8.652  1.00  0.00     0.034 A 
BRANCH  55  69
ATOM     69  C   UNL     1      -9.670   1.567   3.832  1.00  0.00     0.023 A 
ATOM     70  C   UNL     1      -9.824   0.387   4.596  1.00  0.00     0.012 A 
ATOM     71  C   UNL     1     -10.334   1.579   2.578  1.00  0.00     0.148 A 
ATOM     72  C   UNL     1     -10.555  -0.718   4.152  1.00  0.00     0.002 A 
ATOM     73  C   UNL     1     -11.084   0.478   2.139  1.00  0.00     0.091 A 
ATOM     74  F   UNL     1     -10.251   2.644   1.780  1.00  0.00    -0.205 F 
ATOM     75  C   UNL     1     -11.188  -0.673   2.923  1.00  0.00     0.022 A 
BRANCH  73  76
ATOM     76  S   UNL     1     -11.971   0.438   0.565  1.00  0.00     0.127 S 
ATOM     77  O   UNL     1     -11.353  -0.707  -0.106  1.00  0.00    -0.237 OA
ATOM     78  O   UNL     1     -13.352   0.215   0.992  1.00  0.00    -0.237 OA
ATOM     79  O   UNL     1     -11.729   1.721  -0.082  1.00  0.00    -0.744 OA
ENDBRANCH  73  76
ENDBRANCH  55  69
BRANCH  56  80
ATOM     80  C   UNL     1      -2.244   7.562   6.688  1.00  0.00     0.023 A 
ATOM     81  C   UNL     1      -0.924   7.588   6.162  1.00  0.00     0.012 A 
ATOM     82  C   UNL     1      -3.176   8.495   6.211  1.00  0.00     0.148 A 
ATOM     83  C   UNL     1      -0.651   8.283   4.981  1.00  0.00     0.002 A 
ATOM     84  C   UNL     1      -2.879   9.223   5.061  1.00  0.00     0.091 A 
ATOM     85  F   UNL     1      -4.360   8.596   6.830  1.00  0.00    -0.205 F 
ATOM     86  C   UNL     1      -1.654   9.049   4.394  1.00  0.00     0.022 A 
BRANCH  84  87
ATOM     87  S   UNL     1      -4.103  10.328   4.353  1.00  0.00     0.127 S 
ATOM     88  O   UNL     1      -3.856  11.560   5.095  1.00  0.00    -0.237 OA
ATOM     89  O   UNL     1      -3.719  10.391   2.945  1.00  0.00    -0.237 OA
ATOM     90  O   UNL     1      -5.382   9.680   4.603  1.00  0.00    -0.744 OA
ENDBRANCH  84  87
ENDBRANCH  56  80
BRANCH  68  91
ATOM     91  C   UNL     1      -8.097   4.412   9.632  1.00  0.00     0.023 A 
ATOM     92  C   UNL     1      -8.238   5.518  10.488  1.00  0.00     0.012 A 
ATOM     93  C   UNL     1      -9.162   3.473   9.623  1.00  0.00     0.148 A 
ATOM     94  C   UNL     1      -9.300   5.622  11.387  1.00  0.00     0.002 A 
ATOM     95  C   UNL     1     -10.291   3.665  10.404  1.00  0.00     0.091 A 
ATOM     96  F   UNL     1      -9.083   2.366   8.873  1.00  0.00    -0.205 F 
ATOM     97  C   UNL     1     -10.338   4.705  11.332  1.00  0.00     0.022 A 
BRANCH  95  98
ATOM     98  S   UNL     1     -11.780   2.688  10.173  1.00  0.00     0.127 S 
ATOM     99  O   UNL     1     -11.756   1.831  11.356  1.00  0.00    -0.237 OA
ATOM    100  O   UNL     1     -12.820   3.717  10.184  1.00  0.00    -0.237 OA
ATOM    101  O   UNL     1     -11.621   2.009   8.895  1.00  0.00    -0.744 OA
ENDBRANCH  95  98
ENDBRANCH  68  91
ENDBRANCH  42  43
ENDBRANCH  34  37
ENDBRANCH  32  33
ENDBRANCH  31  32
ENDBRANCH  30  31
ENDBRANCH   3  30
TORSDOF 19
