REMARK SMILES COCC1CCN(C(=O)NC[C@H]2CC[C@H](C(=O)NCCCNC(=O)c3ccc(-c4c5nc(c(-c6cccc(S(=O)(=O)[O-])c6F)c6ccc([nH]6)c(-c6cccc(S(=O)(=O)[O-])c6F)c6nc(c(-c7cccc(S(=O)(=O)[O-])c7F)c7ccc4[nH]7)C=C6)C=C5)cc3)O2)CC1
REMARK SMILES IDX 19 1 18 2 16 3 17 4 15 6 12 7 13 8 88 9 14 10 11 11 10 12
REMARK SMILES IDX 4 13 5 14 90 15 6 16 89 17 7 18 8 19 9 20 3 22 2 23 1 24
REMARK SMILES IDX 20 25 21 26 22 27 23 28 24 30 25 31 26 32 87 33 27 34 86 35
REMARK SMILES IDX 28 36 29 37 30 38 80 39 31 40 85 41 79 42 81 43 32 44 84 45
REMARK SMILES IDX 78 46 77 47 33 49 65 50 45 51 64 52 46 53 49 54 63 55 82 56
REMARK SMILES IDX 47 57 48 58 62 60 83 61 50 62 34 63 35 64 43 65 36 66 38 67
REMARK SMILES IDX 44 68 37 69 39 70 40 71 41 72 42 73 66 74 67 75 75 76 68 77
REMARK SMILES IDX 70 78 76 79 69 80 71 81 72 82 73 83 74 84 51 85 52 86 60 87
REMARK SMILES IDX 53 88 55 89 61 90 54 91 56 92 57 93 58 94 59 95
REMARK H PARENT 18 5 10 21 22 29 81 48 49 59
REMARK Flexibility Score: inf
ROOT
ATOM      1  C   UNL     1      -2.014   9.296  -1.515  1.00  0.00     0.117 C 
ENDROOT
BRANCH   1   2
ATOM      2  N   UNL     1      -2.534   9.758  -2.783  1.00  0.00    -0.354 N 
ATOM      3  C   UNL     1      -1.955   9.760  -4.016  1.00  0.00     0.249 C 
ATOM      4  O   UNL     1      -2.639  10.174  -4.959  1.00  0.00    -0.272 OA
ATOM      5  H   UNL     1      -3.445  10.129  -2.749  1.00  0.00     0.163 HD
BRANCH   3   6
ATOM      6  C   UNL     1      -0.481   9.342  -4.245  1.00  0.00     0.207 C 
ATOM      7  C   UNL     1       1.121   8.399  -2.801  1.00  0.00     0.138 C 
ATOM      8  C   UNL     1       1.364   9.897  -2.795  1.00  0.00     0.037 C 
ATOM      9  O   UNL     1      -0.019   8.143  -3.637  1.00  0.00    -0.363 OA
ATOM     10  C   UNL     1       0.503  10.447  -3.907  1.00  0.00     0.045 C 
BRANCH   7  11
ATOM     11  C   UNL     1       2.361   7.587  -3.218  1.00  0.00     0.149 C 
BRANCH  11  12
ATOM     12  N   UNL     1       2.042   6.218  -3.586  1.00  0.00    -0.335 N 
ATOM     13  C   UNL     1       4.123   7.243  -7.936  1.00  0.00     0.018 C 
ATOM     14  C   UNL     1       4.138   5.738  -7.591  1.00  0.00     0.027 C 
ATOM     15  C   UNL     1       3.514   8.058  -6.780  1.00  0.00     0.027 C 
ATOM     16  C   UNL     1       2.798   5.236  -7.048  1.00  0.00     0.121 C 
ATOM     17  C   UNL     1       2.178   7.473  -6.326  1.00  0.00     0.121 C 
ATOM     18  N   UNL     1       2.366   6.084  -5.938  1.00  0.00    -0.325 N 
ATOM     19  C   UNL     1       2.135   5.503  -4.723  1.00  0.00     0.317 C 
ATOM     20  O   UNL     1       2.039   4.278  -4.592  1.00  0.00    -0.249 OA
ATOM     21  H   UNL     1       1.677   5.696  -2.835  1.00  0.00     0.165 HD
BRANCH  13  22
ATOM     22  C   UNL     1       3.388   7.538  -9.256  1.00  0.00     0.163 C 
BRANCH  22  23
ATOM     23  O   UNL     1       3.917   6.810 -10.363  1.00  0.00    -0.384 OA
ATOM     24  C   UNL     1       5.169   7.305 -10.818  1.00  0.00     0.194 C 
ENDBRANCH  22  23
ENDBRANCH  13  22
ENDBRANCH  11  12
ENDBRANCH   7  11
ENDBRANCH   3   6
ENDBRANCH   1   2
BRANCH   1  25
ATOM     25  C   UNL     1      -1.460  10.436  -0.669  1.00  0.00     0.042 C 
BRANCH  25  26
ATOM     26  C   UNL     1      -2.523  11.151   0.156  1.00  0.00     0.118 C 
BRANCH  26  27
ATOM     27  N   UNL     1      -3.082  10.284   1.185  1.00  0.00    -0.352 N 
ATOM     28  C   UNL     1      -3.148  10.439   2.545  1.00  0.00     0.251 C 
ATOM     29  H   UNL     1      -3.478   9.449   0.847  1.00  0.00     0.163 HD
ATOM     30  O   UNL     1      -3.462   9.470   3.232  1.00  0.00    -0.269 OA
BRANCH  28  31
ATOM     31  C   UNL     1      -2.853  11.738   3.191  1.00  0.00     0.039 A 
ATOM     32  C   UNL     1      -2.270  11.732   4.463  1.00  0.00     0.014 A 
ATOM     33  C   UNL     1      -3.213  12.953   2.601  1.00  0.00     0.014 A 
ATOM     34  C   UNL     1      -2.034  12.937   5.128  1.00  0.00     0.010 A 
ATOM     35  C   UNL     1      -2.897  14.156   3.227  1.00  0.00     0.010 A 
ATOM     36  C   UNL     1      -2.336  14.161   4.511  1.00  0.00    -0.014 A 
BRANCH  36  37
ATOM     37  C   UNL     1      -2.110  15.448   5.215  1.00  0.00     0.031 A 
ATOM     38  C   UNL     1      -3.275  16.344   5.549  1.00  0.00     0.074 A 
ATOM     39  C   UNL     1      -0.853  15.840   5.501  1.00  0.00     0.049 A 
ATOM     40  N   UNL     1      -3.276  17.508   6.145  1.00  0.00    -0.248 NA
ATOM     41  C   UNL     1      -4.612  15.888   5.132  1.00  0.00     0.031 C 
ATOM     42  C   UNL     1       0.362  15.102   5.151  1.00  0.00     0.029 A 
ATOM     43  N   UNL     1      -0.388  16.964   6.135  1.00  0.00    -0.354 N 
ATOM     44  C   UNL     1      -4.598  17.939   6.139  1.00  0.00     0.074 A 
ATOM     45  C   UNL     1      -5.367  16.931   5.444  1.00  0.00     0.031 C 
ATOM     46  C   UNL     1       1.433  15.787   5.584  1.00  0.00     0.029 A 
ATOM     47  C   UNL     1       0.983  17.020   6.223  1.00  0.00     0.049 A 
ATOM     48  H   UNL     1      -0.980  17.664   6.492  1.00  0.00     0.167 HD
ATOM     49  C   UNL     1      -5.132  19.053   6.693  1.00  0.00     0.034 A 
ATOM     50  C   UNL     1       1.786  17.957   6.763  1.00  0.00     0.034 A 
ATOM     51  C   UNL     1      -4.372  20.023   7.435  1.00  0.00     0.049 A 
ATOM     52  C   UNL     1       1.162  19.149   7.436  1.00  0.00     0.074 A 
ATOM     53  C   UNL     1      -4.829  21.135   8.120  1.00  0.00     0.029 A 
ATOM     54  N   UNL     1      -2.995  19.996   7.588  1.00  0.00    -0.354 N 
ATOM     55  N   UNL     1      -0.107  19.453   7.568  1.00  0.00    -0.248 NA
ATOM     56  C   UNL     1       2.078  20.106   8.073  1.00  0.00     0.031 C 
ATOM     57  C   UNL     1      -3.724  21.790   8.675  1.00  0.00     0.029 A 
ATOM     58  C   UNL     1      -2.582  21.074   8.352  1.00  0.00     0.049 A 
ATOM     59  H   UNL     1      -2.398  19.310   7.210  1.00  0.00     0.167 HD
ATOM     60  C   UNL     1      -0.144  20.617   8.326  1.00  0.00     0.074 A 
ATOM     61  C   UNL     1       1.229  20.945   8.651  1.00  0.00     0.031 C 
ATOM     62  C   UNL     1      -1.214  21.359   8.705  1.00  0.00     0.034 A 
BRANCH  49  63
ATOM     63  C   UNL     1      -6.622  19.249   6.572  1.00  0.00     0.023 A 
ATOM     64  C   UNL     1      -7.494  18.417   7.305  1.00  0.00     0.012 A 
ATOM     65  C   UNL     1      -7.160  20.279   5.776  1.00  0.00     0.148 A 
ATOM     66  C   UNL     1      -8.876  18.581   7.218  1.00  0.00     0.002 A 
ATOM     67  C   UNL     1      -8.537  20.466   5.730  1.00  0.00     0.091 A 
ATOM     68  F   UNL     1      -6.319  21.047   5.069  1.00  0.00    -0.205 F 
ATOM     69  C   UNL     1      -9.396  19.610   6.440  1.00  0.00     0.022 A 
BRANCH  67  70
ATOM     70  S   UNL     1      -9.304  21.810   4.819  1.00  0.00     0.127 S 
ATOM     71  O   UNL     1      -9.921  21.096   3.702  1.00  0.00    -0.237 OA
ATOM     72  O   UNL     1     -10.251  22.346   5.798  1.00  0.00    -0.237 OA
ATOM     73  O   UNL     1      -8.224  22.719   4.460  1.00  0.00    -0.744 OA
ENDBRANCH  67  70
ENDBRANCH  49  63
BRANCH  50  74
ATOM     74  C   UNL     1       3.263  17.759   6.764  1.00  0.00     0.023 A 
ATOM     75  C   UNL     1       3.921  17.478   7.977  1.00  0.00     0.012 A 
ATOM     76  C   UNL     1       4.012  17.811   5.573  1.00  0.00     0.148 A 
ATOM     77  C   UNL     1       5.303  17.287   8.010  1.00  0.00     0.002 A 
ATOM     78  C   UNL     1       5.380  17.564   5.604  1.00  0.00     0.091 A 
ATOM     79  F   UNL     1       3.369  18.090   4.430  1.00  0.00    -0.205 F 
ATOM     80  C   UNL     1       6.030  17.319   6.823  1.00  0.00     0.022 A 
BRANCH  78  81
ATOM     81  S   UNL     1       6.370  17.450   4.109  1.00  0.00     0.127 S 
ATOM     82  O   UNL     1       7.141  18.687   4.164  1.00  0.00    -0.237 OA
ATOM     83  O   UNL     1       7.141  16.229   4.347  1.00  0.00    -0.237 OA
ATOM     84  O   UNL     1       5.412  17.345   3.014  1.00  0.00    -0.744 OA
ENDBRANCH  78  81
ENDBRANCH  50  74
BRANCH  62  85
ATOM     85  C   UNL     1      -0.947  22.591   9.530  1.00  0.00     0.023 A 
ATOM     86  C   UNL     1      -0.357  23.719   8.926  1.00  0.00     0.012 A 
ATOM     87  C   UNL     1      -1.330  22.651  10.883  1.00  0.00     0.148 A 
ATOM     88  C   UNL     1      -0.116  24.875   9.668  1.00  0.00     0.002 A 
ATOM     89  C   UNL     1      -1.132  23.823  11.603  1.00  0.00     0.091 A 
ATOM     90  F   UNL     1      -1.871  21.561  11.446  1.00  0.00    -0.205 F 
ATOM     91  C   UNL     1      -0.513  24.931  11.002  1.00  0.00     0.022 A 
BRANCH  89  92
ATOM     92  S   UNL     1      -1.701  24.013  13.297  1.00  0.00     0.127 S 
ATOM     93  O   UNL     1      -0.455  23.869  14.048  1.00  0.00    -0.237 OA
ATOM     94  O   UNL     1      -2.256  25.367  13.291  1.00  0.00    -0.237 OA
ATOM     95  O   UNL     1      -2.687  22.960  13.503  1.00  0.00    -0.744 OA
ENDBRANCH  89  92
ENDBRANCH  62  85
ENDBRANCH  36  37
ENDBRANCH  28  31
ENDBRANCH  26  27
ENDBRANCH  25  26
ENDBRANCH   1  25
TORSDOF 17
