REMARK SMILES Cc1cc2c(c(C)c1Cl)C=C(C(=O)NCCCNC(=O)c1ccc(-c3c4nc(c(-c5cccc(S(=O)(=O)[O-])c5F)c5ccc([nH]5)c(-c5cccc(S(=O)(=O)[O-])c5F)c5nc(c(-c6cccc(S(=O)(=O)[O-])c6F)c6ccc3[nH]6)C=C5)C=C4)cc1)[C@@H](C(F)(F)F)O2
REMARK SMILES IDX 17 1 16 2 15 3 14 4 12 5 13 6 11 8 1 9 2 10 3 11 8 12 4 13
REMARK SMILES IDX 6 14 9 15 5 16 89 17 7 18 10 19 84 20 85 21 86 22 87 23
REMARK SMILES IDX 88 24 18 25 19 26 20 28 21 29 22 30 83 31 23 32 82 33 24 34
REMARK SMILES IDX 25 35 26 36 76 37 27 38 81 39 75 40 77 41 28 42 80 43 74 44
REMARK SMILES IDX 73 45 29 47 61 48 41 49 60 50 42 51 45 52 59 53 78 54 43 55
REMARK SMILES IDX 44 56 58 58 79 59 46 60 30 61 31 62 39 63 32 64 34 65 40 66
REMARK SMILES IDX 33 67 35 68 36 69 37 70 38 71 62 72 63 73 71 74 64 75 66 76
REMARK SMILES IDX 72 77 65 78 67 79 68 80 69 81 70 82 47 83 48 84 56 85 49 86
REMARK SMILES IDX 51 87 57 88 50 89 52 90 53 91 54 92 55 93
REMARK H PARENT 14 7 18 27 77 46 45 57
REMARK Flexibility Score: inf
ROOT
ATOM      1  C   UNL     1       0.169  -6.543   8.918  1.00  0.00     0.118 C 
ENDROOT
BRANCH   1   2
ATOM      2  C   UNL     1       0.376  -6.082   7.481  1.00  0.00     0.042 C 
BRANCH   2   3
ATOM      3  C   UNL     1      -0.878  -5.454   6.893  1.00  0.00     0.118 C 
BRANCH   3   4
ATOM      4  N   UNL     1      -1.090  -4.097   7.375  1.00  0.00    -0.352 N 
ATOM      5  C   UNL     1      -1.028  -2.843   6.872  1.00  0.00     0.251 C 
ATOM      6  O   UNL     1      -1.327  -1.943   7.663  1.00  0.00    -0.270 OA
ATOM      7  H   UNL     1      -1.347  -4.090   8.325  1.00  0.00     0.163 HD
BRANCH   5   8
ATOM      8  C   UNL     1      -0.650  -2.499   5.470  1.00  0.00     0.067 C 
ATOM      9  C   UNL     1       1.085   0.176  -0.196  1.00  0.00     0.046 C 
ATOM     10  C   UNL     1       0.597  -0.093   1.201  1.00  0.00    -0.028 A 
ATOM     11  C   UNL     1       0.648  -1.414   1.653  1.00  0.00     0.052 A 
ATOM     12  C   UNL     1       0.167   0.913   2.091  1.00  0.00     0.047 A 
ATOM     13  C   UNL     1       0.247  -1.736   2.943  1.00  0.00     0.128 A 
ATOM     14  C   UNL     1      -0.248   0.596   3.410  1.00  0.00    -0.021 A 
ATOM     15  Cl  UNL     1       0.173   2.563   1.545  1.00  0.00    -0.084 Cl
ATOM     16  C   UNL     1      -0.196  -0.754   3.834  1.00  0.00     0.022 A 
ATOM     17  O   UNL     1       0.366  -3.055   3.272  1.00  0.00    -0.475 OA
ATOM     18  C   UNL     1      -0.727   1.657   4.374  1.00  0.00     0.047 C 
ATOM     19  C   UNL     1      -0.538  -1.186   5.194  1.00  0.00     0.026 C 
ATOM     20  C   UNL     1      -0.426  -3.516   4.393  1.00  0.00     0.314 C 
BRANCH  20  21
ATOM     21  C   UNL     1      -1.742  -4.121   3.869  1.00  0.00     0.429 C 
ATOM     22  F   UNL     1      -1.506  -5.275   3.198  1.00  0.00    -0.167 F 
ATOM     23  F   UNL     1      -2.611  -4.428   4.863  1.00  0.00    -0.167 F 
ATOM     24  F   UNL     1      -2.398  -3.291   3.026  1.00  0.00    -0.167 F 
ENDBRANCH  20  21
ENDBRANCH   5   8
ENDBRANCH   3   4
ENDBRANCH   2   3
ENDBRANCH   1   2
BRANCH   1  25
ATOM     25  N   UNL     1      -0.842  -7.594   9.010  1.00  0.00    -0.352 N 
ATOM     26  C   UNL     1      -0.697  -8.942   9.222  1.00  0.00     0.251 C 
ATOM     27  H   UNL     1      -1.772  -7.288   8.903  1.00  0.00     0.163 HD
ATOM     28  O   UNL     1      -1.636  -9.701   8.984  1.00  0.00    -0.269 OA
BRANCH  26  29
ATOM     29  C   UNL     1       0.579  -9.473   9.734  1.00  0.00     0.039 A 
ATOM     30  C   UNL     1       1.084 -10.671   9.223  1.00  0.00     0.014 A 
ATOM     31  C   UNL     1       1.268  -8.790  10.739  1.00  0.00     0.014 A 
ATOM     32  C   UNL     1       2.315 -11.146   9.678  1.00  0.00     0.010 A 
ATOM     33  C   UNL     1       2.537  -9.207  11.112  1.00  0.00     0.010 A 
ATOM     34  C   UNL     1       3.065 -10.399  10.601  1.00  0.00    -0.014 A 
BRANCH  34  35
ATOM     35  C   UNL     1       4.397 -10.852  11.068  1.00  0.00     0.031 A 
ATOM     36  C   UNL     1       4.617 -11.148  12.527  1.00  0.00     0.074 A 
ATOM     37  C   UNL     1       5.421 -10.917  10.195  1.00  0.00     0.049 A 
ATOM     38  N   UNL     1       5.718 -11.498  13.138  1.00  0.00    -0.248 NA
ATOM     39  C   UNL     1       3.456 -11.003  13.425  1.00  0.00     0.031 C 
ATOM     40  C   UNL     1       5.341 -10.580   8.772  1.00  0.00     0.029 A 
ATOM     41  N   UNL     1       6.733 -11.273  10.378  1.00  0.00    -0.354 N 
ATOM     42  C   UNL     1       5.390 -11.587  14.486  1.00  0.00     0.074 A 
ATOM     43  C   UNL     1       4.003 -11.203  14.614  1.00  0.00     0.031 C 
ATOM     44  C   UNL     1       6.544 -10.768   8.207  1.00  0.00     0.029 A 
ATOM     45  C   UNL     1       7.488 -11.206   9.230  1.00  0.00     0.049 A 
ATOM     46  H   UNL     1       7.100 -11.550  11.248  1.00  0.00     0.167 HD
ATOM     47  C   UNL     1       6.163 -11.996  15.518  1.00  0.00     0.034 A 
ATOM     48  C   UNL     1       8.794 -11.471   9.026  1.00  0.00     0.034 A 
ATOM     49  C   UNL     1       7.525 -12.427  15.372  1.00  0.00     0.049 A 
ATOM     50  C   UNL     1       9.625 -11.950  10.187  1.00  0.00     0.074 A 
ATOM     51  C   UNL     1       8.373 -12.931  16.340  1.00  0.00     0.029 A 
ATOM     52  N   UNL     1       8.237 -12.408  14.182  1.00  0.00    -0.354 N 
ATOM     53  N   UNL     1       9.260 -12.165  11.428  1.00  0.00    -0.248 NA
ATOM     54  C   UNL     1      11.037 -12.255   9.915  1.00  0.00     0.031 C 
ATOM     55  C   UNL     1       9.607 -13.197  15.740  1.00  0.00     0.029 A 
ATOM     56  C   UNL     1       9.518 -12.885  14.393  1.00  0.00     0.049 A 
ATOM     57  H   UNL     1       7.883 -12.101  13.316  1.00  0.00     0.167 HD
ATOM     58  C   UNL     1      10.385 -12.658  12.078  1.00  0.00     0.074 A 
ATOM     59  C   UNL     1      11.439 -12.732  11.087  1.00  0.00     0.031 C 
ATOM     60  C   UNL     1      10.538 -13.000  13.381  1.00  0.00     0.034 A 
BRANCH  47  61
ATOM     61  C   UNL     1       5.533 -12.073  16.885  1.00  0.00     0.023 A 
ATOM     62  C   UNL     1       4.573 -13.072  17.147  1.00  0.00     0.012 A 
ATOM     63  C   UNL     1       5.945 -11.220  17.927  1.00  0.00     0.148 A 
ATOM     64  C   UNL     1       4.013 -13.205  18.416  1.00  0.00     0.002 A 
ATOM     65  C   UNL     1       5.418 -11.391  19.203  1.00  0.00     0.091 A 
ATOM     66  F   UNL     1       6.842 -10.263  17.654  1.00  0.00    -0.205 F 
ATOM     67  C   UNL     1       4.444 -12.374  19.446  1.00  0.00     0.022 A 
BRANCH  65  68
ATOM     68  S   UNL     1       5.968 -10.433  20.619  1.00  0.00     0.127 S 
ATOM     69  O   UNL     1       4.770  -9.653  20.930  1.00  0.00    -0.237 OA
ATOM     70  O   UNL     1       6.283 -11.479  21.591  1.00  0.00    -0.237 OA
ATOM     71  O   UNL     1       7.112  -9.657  20.162  1.00  0.00    -0.744 OA
ENDBRANCH  65  68
ENDBRANCH  47  61
BRANCH  48  72
ATOM     72  C   UNL     1       9.362 -11.380   7.651  1.00  0.00     0.023 A 
ATOM     73  C   UNL     1       9.726 -12.563   6.978  1.00  0.00     0.012 A 
ATOM     74  C   UNL     1       9.486 -10.146   6.982  1.00  0.00     0.148 A 
ATOM     75  C   UNL     1      10.223 -12.519   5.676  1.00  0.00     0.002 A 
ATOM     76  C   UNL     1       9.928 -10.114   5.663  1.00  0.00     0.091 A 
ATOM     77  F   UNL     1       9.144  -9.030   7.640  1.00  0.00    -0.205 F 
ATOM     78  C   UNL     1      10.313 -11.297   5.014  1.00  0.00     0.022 A 
BRANCH  76  79
ATOM     79  S   UNL     1       9.940  -8.608   4.683  1.00  0.00     0.127 S 
ATOM     80  O   UNL     1      11.370  -8.382   4.498  1.00  0.00    -0.237 OA
ATOM     81  O   UNL     1       9.220  -9.027   3.480  1.00  0.00    -0.237 OA
ATOM     82  O   UNL     1       9.241  -7.611   5.484  1.00  0.00    -0.744 OA
ENDBRANCH  76  79
ENDBRANCH  48  72
BRANCH  60  83
ATOM     83  C   UNL     1      11.886 -13.504  13.828  1.00  0.00     0.023 A 
ATOM     84  C   UNL     1      12.957 -12.600  13.957  1.00  0.00     0.012 A 
ATOM     85  C   UNL     1      12.051 -14.841  14.244  1.00  0.00     0.148 A 
ATOM     86  C   UNL     1      14.180 -13.021  14.476  1.00  0.00     0.002 A 
ATOM     87  C   UNL     1      13.255 -15.240  14.810  1.00  0.00     0.091 A 
ATOM     88  F   UNL     1      11.022 -15.687  14.100  1.00  0.00    -0.205 F 
ATOM     89  C   UNL     1      14.324 -14.335  14.917  1.00  0.00     0.022 A 
BRANCH  87  90
ATOM     90  S   UNL     1      13.499 -16.877  15.509  1.00  0.00     0.127 S 
ATOM     91  O   UNL     1      14.453 -17.462  14.569  1.00  0.00    -0.237 OA
ATOM     92  O   UNL     1      14.053 -16.570  16.828  1.00  0.00    -0.237 OA
ATOM     93  O   UNL     1      12.185 -17.505  15.534  1.00  0.00    -0.744 OA
ENDBRANCH  87  90
ENDBRANCH  60  83
ENDBRANCH  34  35
ENDBRANCH  26  29
ENDBRANCH   1  25
TORSDOF 14
