REMARK SMILES C[C@@H](C(=O)NCCCNC(=O)c1ccc(-c2c3nc(c(-c4cccc(S(=O)(=O)[O-])c4F)c4ccc([nH]4)c(-c4cccc(S(=O)(=O)[O-])c4F)c4nc(c(-c5cccc(S(=O)(=O)[O-])c5F)c5ccc2[nH]5)C=C4)C=C3)cc1)c1ccc(=O)n(C(F)F)c1
REMARK SMILES IDX 7 1 6 2 5 3 3 4 4 5 2 7 1 8 75 9 76 10 84 11 77 12 80 13
REMARK SMILES IDX 78 14 79 15 81 16 82 17 83 18 8 19 9 20 10 21 11 23 12 24
REMARK SMILES IDX 13 25 74 26 14 27 73 28 15 29 16 30 17 31 67 32 18 33 72 34
REMARK SMILES IDX 66 35 68 36 19 37 71 38 65 39 64 40 20 42 52 43 32 44 51 45
REMARK SMILES IDX 33 46 36 47 50 48 69 49 34 50 35 51 49 53 70 54 37 55 21 56
REMARK SMILES IDX 22 57 30 58 23 59 25 60 31 61 24 62 26 63 27 64 28 65 29 66
REMARK SMILES IDX 53 67 54 68 62 69 55 70 57 71 63 72 56 73 58 74 59 75 60 76
REMARK SMILES IDX 61 77 38 78 39 79 47 80 40 81 42 82 48 83 41 84 43 85 44 86
REMARK SMILES IDX 45 87 46 88
REMARK H PARENT 5 6 9 22 68 41 36 52
REMARK Flexibility Score: inf
ROOT
ATOM      1  C   UNL     1       4.349   0.374   1.236  1.00  0.00     0.042 C 
ENDROOT
BRANCH   1   2
ATOM      2  C   UNL     1       3.460  -0.632   1.962  1.00  0.00     0.117 C 
BRANCH   2   3
ATOM      3  N   UNL     1       2.395   0.024   2.698  1.00  0.00    -0.356 N 
ATOM      4  C   UNL     1       1.074   0.177   2.394  1.00  0.00     0.227 C 
ATOM      5  O   UNL     1       0.401   0.853   3.175  1.00  0.00    -0.274 OA
ATOM      6  H   UNL     1       2.671   0.423   3.554  1.00  0.00     0.163 HD
BRANCH   4   7
ATOM      7  C   UNL     1       0.482  -0.508   1.145  1.00  0.00     0.107 C 
ATOM      8  C   UNL     1       0.973   0.125  -0.159  1.00  0.00     0.023 C 
BRANCH   7   9
ATOM      9  C   UNL     1      -1.042  -0.490   1.177  1.00  0.00    -0.019 A 
ATOM     10  C   UNL     1      -1.747  -1.756   1.218  1.00  0.00     0.012 A 
ATOM     11  C   UNL     1      -1.766   0.642   1.110  1.00  0.00     0.099 A 
ATOM     12  C   UNL     1      -3.085  -1.800   1.158  1.00  0.00     0.072 A 
ATOM     13  N   UNL     1      -3.148   0.628   1.062  1.00  0.00    -0.258 N 
ATOM     14  C   UNL     1      -3.881  -0.546   1.054  1.00  0.00     0.254 A 
ATOM     15  O   UNL     1      -5.102  -0.635   0.970  1.00  0.00    -0.269 OA
BRANCH  13  16
ATOM     16  C   UNL     1      -3.877   1.865   0.950  1.00  0.00     0.451 C 
ATOM     17  F   UNL     1      -4.491   1.950  -0.256  1.00  0.00    -0.185 F 
ATOM     18  F   UNL     1      -4.831   1.967   1.908  1.00  0.00    -0.185 F 
ENDBRANCH  13  16
ENDBRANCH   7   9
ENDBRANCH   4   7
ENDBRANCH   2   3
ENDBRANCH   1   2
BRANCH   1  19
ATOM     19  C   UNL     1       5.125   1.303   2.163  1.00  0.00     0.118 C 
BRANCH  19  20
ATOM     20  N   UNL     1       6.123   0.599   2.957  1.00  0.00    -0.352 N 
ATOM     21  C   UNL     1       7.477   0.820   3.046  1.00  0.00     0.251 C 
ATOM     22  H   UNL     1       5.779  -0.140   3.509  1.00  0.00     0.163 HD
ATOM     23  O   UNL     1       8.190   0.012   3.636  1.00  0.00    -0.269 OA
BRANCH  21  24
ATOM     24  C   UNL     1       8.073   2.018   2.418  1.00  0.00     0.039 A 
ATOM     25  C   UNL     1       9.242   1.884   1.663  1.00  0.00     0.014 A 
ATOM     26  C   UNL     1       7.477   3.272   2.574  1.00  0.00     0.014 A 
ATOM     27  C   UNL     1       9.778   2.997   1.008  1.00  0.00     0.010 A 
ATOM     28  C   UNL     1       7.967   4.360   1.861  1.00  0.00     0.010 A 
ATOM     29  C   UNL     1       9.125   4.237   1.077  1.00  0.00    -0.014 A 
BRANCH  29  30
ATOM     30  C   UNL     1       9.622   5.436   0.355  1.00  0.00     0.031 A 
ATOM     31  C   UNL     1      10.023   6.657   1.136  1.00  0.00     0.074 A 
ATOM     32  C   UNL     1       9.577   5.479  -0.990  1.00  0.00     0.049 A 
ATOM     33  N   UNL     1      10.299   7.860   0.706  1.00  0.00    -0.248 NA
ATOM     34  C   UNL     1      10.081   6.513   2.600  1.00  0.00     0.031 C 
ATOM     35  C   UNL     1       9.146   4.381  -1.857  1.00  0.00     0.029 A 
ATOM     36  N   UNL     1       9.850   6.505  -1.862  1.00  0.00    -0.354 N 
ATOM     37  C   UNL     1      10.507   8.629   1.845  1.00  0.00     0.074 A 
ATOM     38  C   UNL     1      10.300   7.762   2.984  1.00  0.00     0.031 C 
ATOM     39  C   UNL     1       9.162   4.798  -3.134  1.00  0.00     0.029 A 
ATOM     40  C   UNL     1       9.566   6.201  -3.173  1.00  0.00     0.049 A 
ATOM     41  H   UNL     1      10.213   7.374  -1.575  1.00  0.00     0.167 HD
ATOM     42  C   UNL     1      10.860   9.933   1.935  1.00  0.00     0.034 A 
ATOM     43  C   UNL     1       9.598   6.971  -4.279  1.00  0.00     0.034 A 
ATOM     44  C   UNL     1      11.111  10.776   0.799  1.00  0.00     0.049 A 
ATOM     45  C   UNL     1      10.039   8.405  -4.162  1.00  0.00     0.074 A 
ATOM     46  C   UNL     1      11.562  12.084   0.780  1.00  0.00     0.029 A 
ATOM     47  N   UNL     1      10.928  10.396  -0.522  1.00  0.00    -0.354 N 
ATOM     48  N   UNL     1      10.366   9.079  -3.087  1.00  0.00    -0.248 NA
ATOM     49  C   UNL     1      10.149   9.174  -5.410  1.00  0.00     0.031 C 
ATOM     50  C   UNL     1      11.631  12.501  -0.553  1.00  0.00     0.029 A 
ATOM     51  C   UNL     1      11.253  11.443  -1.365  1.00  0.00     0.049 A 
ATOM     52  H   UNL     1      10.614   9.511  -0.817  1.00  0.00     0.167 HD
ATOM     53  C   UNL     1      10.762  10.336  -3.530  1.00  0.00     0.074 A 
ATOM     54  C   UNL     1      10.638  10.328  -4.973  1.00  0.00     0.031 C 
ATOM     55  C   UNL     1      11.185  11.401  -2.805  1.00  0.00     0.034 A 
BRANCH  42  56
ATOM     56  C   UNL     1      11.033  10.512   3.316  1.00  0.00     0.023 A 
ATOM     57  C   UNL     1      12.117  10.097   4.117  1.00  0.00     0.012 A 
ATOM     58  C   UNL     1      10.141  11.483   3.812  1.00  0.00     0.148 A 
ATOM     59  C   UNL     1      12.281  10.599   5.408  1.00  0.00     0.002 A 
ATOM     60  C   UNL     1      10.340  12.015   5.081  1.00  0.00     0.091 A 
ATOM     61  F   UNL     1       9.103  11.851   3.048  1.00  0.00    -0.205 F 
ATOM     62  C   UNL     1      11.399  11.564   5.885  1.00  0.00     0.022 A 
BRANCH  60  63
ATOM     63  S   UNL     1       9.305  13.323   5.747  1.00  0.00     0.127 S 
ATOM     64  O   UNL     1       8.463  12.584   6.687  1.00  0.00    -0.237 OA
ATOM     65  O   UNL     1      10.287  14.208   6.375  1.00  0.00    -0.237 OA
ATOM     66  O   UNL     1       8.615  13.904   4.604  1.00  0.00    -0.744 OA
ENDBRANCH  60  63
ENDBRANCH  42  56
BRANCH  43  67
ATOM     67  C   UNL     1       9.254   6.371  -5.599  1.00  0.00     0.023 A 
ATOM     68  C   UNL     1      10.279   6.121  -6.532  1.00  0.00     0.012 A 
ATOM     69  C   UNL     1       7.935   5.986  -5.906  1.00  0.00     0.148 A 
ATOM     70  C   UNL     1       9.993   5.517  -7.756  1.00  0.00     0.002 A 
ATOM     71  C   UNL     1       7.666   5.335  -7.104  1.00  0.00     0.091 A 
ATOM     72  F   UNL     1       6.975   6.237  -5.005  1.00  0.00    -0.205 F 
ATOM     73  C   UNL     1       8.691   5.114  -8.038  1.00  0.00     0.022 A 
BRANCH  71  74
ATOM     74  S   UNL     1       6.049   4.654  -7.495  1.00  0.00     0.127 S 
ATOM     75  O   UNL     1       5.642   5.481  -8.627  1.00  0.00    -0.237 OA
ATOM     76  O   UNL     1       6.381   3.269  -7.830  1.00  0.00    -0.237 OA
ATOM     77  O   UNL     1       5.252   4.806  -6.285  1.00  0.00    -0.744 OA
ENDBRANCH  71  74
ENDBRANCH  43  67
BRANCH  55  78
ATOM     78  C   UNL     1      11.608  12.641  -3.546  1.00  0.00     0.023 A 
ATOM     79  C   UNL     1      10.639  13.490  -4.113  1.00  0.00     0.012 A 
ATOM     80  C   UNL     1      12.966  13.021  -3.574  1.00  0.00     0.148 A 
ATOM     81  C   UNL     1      11.017  14.692  -4.712  1.00  0.00     0.002 A 
ATOM     82  C   UNL     1      13.329  14.241  -4.128  1.00  0.00     0.091 A 
ATOM     83  F   UNL     1      13.872  12.187  -3.044  1.00  0.00    -0.205 F 
ATOM     84  C   UNL     1      12.357  15.074  -4.705  1.00  0.00     0.022 A 
BRANCH  82  85
ATOM     85  S   UNL     1      15.014  14.862  -4.074  1.00  0.00     0.127 S 
ATOM     86  O   UNL     1      15.404  14.785  -5.481  1.00  0.00    -0.237 OA
ATOM     87  O   UNL     1      14.827  16.221  -3.566  1.00  0.00    -0.237 OA
ATOM     88  O   UNL     1      15.742  13.975  -3.176  1.00  0.00    -0.744 OA
ENDBRANCH  82  85
ENDBRANCH  55  78
ENDBRANCH  29  30
ENDBRANCH  21  24
ENDBRANCH  19  20
ENDBRANCH   1  19
TORSDOF 15
