REMARK SMILES Cc1cccc(C(=O)NCCCNC(=O)c2ccc(-c3c4nc(c(-c5cccc(S(=O)(=O)[O-])c5F)c5ccc([nH]5)c(-c5cccc(S(=O)(=O)[O-])c5F)c5nc(c(-c6cccc(S(=O)(=O)[O-])c6F)c6ccc3[nH]6)C=C5)C=C4)cc2)c1OC[C@@H]1C[C@H]2CC[C@@H]1C2
REMARK SMILES IDX 11 1 10 2 9 3 7 4 8 5 6 7 1 8 2 9 3 10 79 11 4 12 5 13 80 14
REMARK SMILES IDX 81 15 82 16 83 17 87 18 84 19 86 20 88 21 85 22 12 23 13 24
REMARK SMILES IDX 14 25 15 27 16 28 17 29 78 30 18 31 77 32 19 33 20 34 21 35
REMARK SMILES IDX 71 36 22 37 76 38 70 39 72 40 23 41 75 42 69 43 68 44 24 46
REMARK SMILES IDX 56 47 36 48 55 49 37 50 40 51 54 52 73 53 38 54 39 55 53 57
REMARK SMILES IDX 74 58 41 59 25 60 26 61 34 62 27 63 29 64 35 65 28 66 30 67
REMARK SMILES IDX 31 68 32 69 33 70 57 71 58 72 66 73 59 74 61 75 67 76 60 77
REMARK SMILES IDX 62 78 63 79 64 80 65 81 42 82 43 83 51 84 44 85 46 86 52 87
REMARK SMILES IDX 45 88 47 89 48 90 49 91 50 92
REMARK H PARENT 9 6 13 26 72 45 40 56
REMARK Flexibility Score: inf
ROOT
ATOM      1  C   UNL     1       0.810   4.217  -0.672  1.00  0.00     0.042 C 
ENDROOT
BRANCH   1   2
ATOM      2  C   UNL     1       0.227   3.908   0.698  1.00  0.00     0.118 C 
BRANCH   2   3
ATOM      3  N   UNL     1      -1.112   3.403   0.532  1.00  0.00    -0.352 N 
ATOM      4  C   UNL     1      -1.594   2.171   0.192  1.00  0.00     0.255 C 
ATOM      5  O   UNL     1      -2.804   2.149  -0.073  1.00  0.00    -0.269 OA
ATOM      6  H   UNL     1      -1.814   4.074   0.697  1.00  0.00     0.163 HD
BRANCH   4   7
ATOM      7  C   UNL     1      -0.853   0.857   0.162  1.00  0.00     0.082 A 
ATOM      8  C   UNL     1       1.952  -1.269  -1.376  1.00  0.00     0.048 C 
ATOM      9  C   UNL     1       0.788  -0.808  -0.540  1.00  0.00    -0.008 A 
ATOM     10  C   UNL     1      -0.117  -1.833  -0.199  1.00  0.00     0.007 A 
ATOM     11  C   UNL     1       0.472   0.543  -0.250  1.00  0.00     0.134 A 
ATOM     12  C   UNL     1      -1.365  -1.542   0.316  1.00  0.00     0.001 A 
ATOM     13  C   UNL     1      -1.734  -0.213   0.458  1.00  0.00     0.018 A 
BRANCH  11  14
ATOM     14  O   UNL     1       1.356   1.551  -0.485  1.00  0.00    -0.492 OA
BRANCH  14  15
ATOM     15  C   UNL     1       2.731   1.503  -0.047  1.00  0.00     0.233 C 
BRANCH  15  16
ATOM     16  C   UNL     1       2.992   1.088   1.411  1.00  0.00     0.030 C 
ATOM     17  C   UNL     1       3.889   2.105   2.181  1.00  0.00     0.011 C 
ATOM     18  C   UNL     1       3.876  -0.186   1.471  1.00  0.00    -0.004 C 
ATOM     19  C   UNL     1       5.096   1.261   2.630  1.00  0.00    -0.010 C 
ATOM     20  C   UNL     1       3.816  -0.757   2.893  1.00  0.00     0.004 C 
ATOM     21  C   UNL     1       5.302   0.368   1.414  1.00  0.00     0.007 C 
ATOM     22  C   UNL     1       4.644   0.251   3.698  1.00  0.00     0.004 C 
ENDBRANCH  15  16
ENDBRANCH  14  15
ENDBRANCH  11  14
ENDBRANCH   4   7
ENDBRANCH   2   3
ENDBRANCH   1   2
BRANCH   1  23
ATOM     23  C   UNL     1       0.825   5.681  -1.040  1.00  0.00     0.118 C 
BRANCH  23  24
ATOM     24  N   UNL     1       2.131   6.267  -0.729  1.00  0.00    -0.352 N 
ATOM     25  C   UNL     1       2.742   7.395  -1.237  1.00  0.00     0.251 C 
ATOM     26  H   UNL     1       2.654   5.780  -0.053  1.00  0.00     0.163 HD
ATOM     27  O   UNL     1       3.909   7.640  -0.943  1.00  0.00    -0.269 OA
BRANCH  25  28
ATOM     28  C   UNL     1       1.911   8.362  -1.981  1.00  0.00     0.039 A 
ATOM     29  C   UNL     1       1.740   9.609  -1.374  1.00  0.00     0.014 A 
ATOM     30  C   UNL     1       1.011   7.898  -2.934  1.00  0.00     0.014 A 
ATOM     31  C   UNL     1       0.507  10.237  -1.470  1.00  0.00     0.010 A 
ATOM     32  C   UNL     1      -0.249   8.449  -2.931  1.00  0.00     0.010 A 
ATOM     33  C   UNL     1      -0.515   9.565  -2.127  1.00  0.00    -0.014 A 
BRANCH  33  34
ATOM     34  C   UNL     1      -1.918   9.926  -2.048  1.00  0.00     0.031 A 
ATOM     35  C   UNL     1      -2.498  10.721  -3.143  1.00  0.00     0.074 A 
ATOM     36  C   UNL     1      -2.690   9.340  -1.104  1.00  0.00     0.049 A 
ATOM     37  N   UNL     1      -3.675  11.238  -3.131  1.00  0.00    -0.248 NA
ATOM     38  C   UNL     1      -1.741  11.027  -4.351  1.00  0.00     0.031 C 
ATOM     39  C   UNL     1      -4.143   9.216  -1.107  1.00  0.00     0.029 A 
ATOM     40  N   UNL     1      -2.322   8.903   0.175  1.00  0.00    -0.354 N 
ATOM     41  C   UNL     1      -3.945  11.673  -4.412  1.00  0.00     0.074 A 
ATOM     42  C   UNL     1      -2.676  11.625  -5.091  1.00  0.00     0.031 C 
ATOM     43  C   UNL     1      -4.562   9.023   0.154  1.00  0.00     0.029 A 
ATOM     44  C   UNL     1      -3.407   9.245   1.006  1.00  0.00     0.049 A 
ATOM     45  H   UNL     1      -1.486   8.454   0.437  1.00  0.00     0.167 HD
ATOM     46  C   UNL     1      -5.247  11.869  -4.768  1.00  0.00     0.034 A 
ATOM     47  C   UNL     1      -3.337  10.195   1.990  1.00  0.00     0.034 A 
ATOM     48  C   UNL     1      -6.113  11.808  -3.577  1.00  0.00     0.049 A 
ATOM     49  C   UNL     1      -4.359  11.316   1.827  1.00  0.00     0.074 A 
ATOM     50  C   UNL     1      -6.921  10.822  -3.034  1.00  0.00     0.029 A 
ATOM     51  N   UNL     1      -5.973  12.782  -2.593  1.00  0.00    -0.354 N 
ATOM     52  N   UNL     1      -5.087  11.496   0.759  1.00  0.00    -0.248 NA
ATOM     53  C   UNL     1      -4.621  12.335   2.842  1.00  0.00     0.031 C 
ATOM     54  C   UNL     1      -7.169  11.160  -1.673  1.00  0.00     0.029 A 
ATOM     55  C   UNL     1      -6.548  12.368  -1.401  1.00  0.00     0.049 A 
ATOM     56  H   UNL     1      -5.526  13.648  -2.726  1.00  0.00     0.167 HD
ATOM     57  C   UNL     1      -5.783  12.673   0.855  1.00  0.00     0.074 A 
ATOM     58  C   UNL     1      -5.524  13.113   2.217  1.00  0.00     0.031 C 
ATOM     59  C   UNL     1      -6.449  13.215  -0.213  1.00  0.00     0.034 A 
BRANCH  46  60
ATOM     60  C   UNL     1      -5.796  11.848  -6.192  1.00  0.00     0.023 A 
ATOM     61  C   UNL     1      -7.196  11.713  -6.338  1.00  0.00     0.012 A 
ATOM     62  C   UNL     1      -5.060  11.850  -7.403  1.00  0.00     0.148 A 
ATOM     63  C   UNL     1      -7.814  11.513  -7.582  1.00  0.00     0.002 A 
ATOM     64  C   UNL     1      -5.667  11.620  -8.642  1.00  0.00     0.091 A 
ATOM     65  F   UNL     1      -3.758  12.119  -7.399  1.00  0.00    -0.205 F 
ATOM     66  C   UNL     1      -7.046  11.442  -8.734  1.00  0.00     0.022 A 
BRANCH  64  67
ATOM     67  S   UNL     1      -4.720  11.484 -10.174  1.00  0.00     0.127 S 
ATOM     68  O   UNL     1      -5.146  10.179 -10.684  1.00  0.00    -0.237 OA
ATOM     69  O   UNL     1      -5.207  12.626 -10.945  1.00  0.00    -0.237 OA
ATOM     70  O   UNL     1      -3.312  11.546  -9.799  1.00  0.00    -0.744 OA
ENDBRANCH  64  67
ENDBRANCH  46  60
BRANCH  47  71
ATOM     71  C   UNL     1      -1.966  10.361   2.566  1.00  0.00     0.023 A 
ATOM     72  C   UNL     1      -1.385   9.219   3.171  1.00  0.00     0.012 A 
ATOM     73  C   UNL     1      -1.128  11.423   2.184  1.00  0.00     0.148 A 
ATOM     74  C   UNL     1       0.001   9.064   3.223  1.00  0.00     0.002 A 
ATOM     75  C   UNL     1       0.257  11.268   2.260  1.00  0.00     0.091 A 
ATOM     76  F   UNL     1      -1.683  12.539   1.694  1.00  0.00    -0.205 F 
ATOM     77  C   UNL     1       0.821  10.070   2.727  1.00  0.00     0.022 A 
BRANCH  75  78
ATOM     78  S   UNL     1       1.376  12.537   1.647  1.00  0.00     0.127 S 
ATOM     79  O   UNL     1       1.626  13.315   2.856  1.00  0.00    -0.237 OA
ATOM     80  O   UNL     1       2.517  11.752   1.174  1.00  0.00    -0.237 OA
ATOM     81  O   UNL     1       0.633  13.202   0.587  1.00  0.00    -0.744 OA
ENDBRANCH  75  78
ENDBRANCH  47  71
BRANCH  59  82
ATOM     82  C   UNL     1      -7.035  14.617  -0.270  1.00  0.00     0.023 A 
ATOM     83  C   UNL     1      -6.588  15.659   0.565  1.00  0.00     0.012 A 
ATOM     84  C   UNL     1      -7.953  14.976  -1.293  1.00  0.00     0.148 A 
ATOM     85  C   UNL     1      -7.063  16.970   0.435  1.00  0.00     0.002 A 
ATOM     86  C   UNL     1      -8.329  16.303  -1.494  1.00  0.00     0.091 A 
ATOM     87  F   UNL     1      -8.486  14.027  -2.077  1.00  0.00    -0.205 F 
ATOM     88  C   UNL     1      -7.912  17.299  -0.611  1.00  0.00     0.022 A 
BRANCH  86  89
ATOM     89  S   UNL     1      -9.210  16.794  -2.985  1.00  0.00     0.127 S 
ATOM     90  O   UNL     1     -10.605  16.697  -2.563  1.00  0.00    -0.237 OA
ATOM     91  O   UNL     1      -8.733  18.162  -3.199  1.00  0.00    -0.237 OA
ATOM     92  O   UNL     1      -8.775  15.848  -4.004  1.00  0.00    -0.744 OA
ENDBRANCH  86  89
ENDBRANCH  59  82
ENDBRANCH  33  34
ENDBRANCH  25  28
ENDBRANCH  23  24
ENDBRANCH   1  23
TORSDOF 16
