REMARK SMILES CC(C)N(CC1CC[NH2+]CC1)S(=O)(=O)[C@H](C)C(=O)NCCCNC(=O)c1ccc(-c2c3nc(c(-c4cccc(S(=O)(=O)[O-])c4F)c4ccc([nH]4)c(-c4cccc(S(=O)(=O)[O-])c4F)c4nc(c(-c5cccc(S(=O)(=O)[O-])c5F)c5ccc2[nH]5)C=C4)C=C3)cc1
REMARK SMILES IDX 20 1 19 2 17 3 18 4 15 6 16 7 12 8 13 9 14 10 4 11 2 12 1 13
REMARK SMILES IDX 3 14 5 15 6 16 7 17 11 18 8 19 10 20 9 21 21 24 22 25 23 26
REMARK SMILES IDX 24 27 25 29 26 30 27 31 88 32 28 33 87 34 29 35 30 36 31 37
REMARK SMILES IDX 81 38 32 39 86 40 80 41 82 42 33 43 85 44 79 45 78 46 34 48
REMARK SMILES IDX 66 49 46 50 65 51 47 52 50 53 64 54 83 55 48 56 49 57 63 59
REMARK SMILES IDX 84 60 51 61 35 62 36 63 44 64 37 65 39 66 45 67 38 68 40 69
REMARK SMILES IDX 41 70 42 71 43 72 67 73 68 74 76 75 69 76 71 77 77 78 70 79
REMARK SMILES IDX 72 80 73 81 74 82 75 83 52 84 53 85 61 86 54 87 56 88 62 89
REMARK SMILES IDX 55 90 57 91 58 92 59 93 60 94
REMARK H PARENT 19 5 9 22 9 23 23 28 82 47 50 58
REMARK Flexibility Score: inf
ROOT
ATOM      1  C   UNL     1      -2.125  -1.105   2.167  1.00  0.00     0.117 C 
ENDROOT
BRANCH   1   2
ATOM      2  N   UNL     1      -3.053  -0.056   2.569  1.00  0.00    -0.355 N 
ATOM      3  C   UNL     1      -3.651   0.937   1.867  1.00  0.00     0.239 C 
ATOM      4  O   UNL     1      -4.556   1.542   2.460  1.00  0.00    -0.274 OA
ATOM      5  H   UNL     1      -3.288  -0.072   3.525  1.00  0.00     0.163 HD
BRANCH   3   6
ATOM      6  C   UNL     1      -3.204   1.457   0.546  1.00  0.00     0.210 C 
ATOM      7  C   UNL     1      -1.749   1.940   0.639  1.00  0.00     0.037 C 
BRANCH   6   8
ATOM      8  S   UNL     1      -3.452   0.511  -0.943  1.00  0.00     0.226 S 
ATOM      9  O   UNL     1      -2.551  -0.624  -0.930  1.00  0.00    -0.211 OA
ATOM     10  O   UNL     1      -3.300   1.525  -1.977  1.00  0.00    -0.211 OA
BRANCH   8  11
ATOM     11  N   UNL     1      -5.018  -0.159  -1.222  1.00  0.00    -0.198 NA
BRANCH  11  12
ATOM     12  C   UNL     1      -5.270  -0.270  -2.784  1.00  0.00     0.066 C 
ATOM     13  C   UNL     1      -4.053  -0.747  -3.601  1.00  0.00     0.025 C 
ATOM     14  C   UNL     1      -6.410  -1.215  -3.154  1.00  0.00     0.025 C 
ENDBRANCH  11  12
BRANCH  11  15
ATOM     15  C   UNL     1      -6.210   0.439  -0.522  1.00  0.00     0.106 C 
BRANCH  15  16
ATOM     16  C   UNL     1      -7.119  -0.528   0.320  1.00  0.00     0.015 C 
ATOM     17  C   UNL     1      -6.656  -0.760   1.765  1.00  0.00     0.066 C 
ATOM     18  C   UNL     1      -7.477  -1.920  -0.225  1.00  0.00     0.066 C 
ATOM     19  C   UNL     1      -5.532  -1.785   1.833  1.00  0.00     0.260 C 
ATOM     20  C   UNL     1      -6.328  -2.923  -0.115  1.00  0.00     0.260 C 
ATOM     21  N   UNL     1      -5.924  -3.078   1.282  1.00  0.00    -0.346 N 
ATOM     22  H   UNL     1      -6.705  -3.453   1.821  1.00  0.00     0.346 HD
ATOM     23  H   UNL     1      -5.131  -3.719   1.333  1.00  0.00     0.346 HD
ENDBRANCH  15  16
ENDBRANCH  11  15
ENDBRANCH   8  11
ENDBRANCH   6   8
ENDBRANCH   3   6
ENDBRANCH   1   2
BRANCH   1  24
ATOM     24  C   UNL     1      -1.084  -1.415   3.230  1.00  0.00     0.042 C 
BRANCH  24  25
ATOM     25  C   UNL     1      -1.647  -1.887   4.566  1.00  0.00     0.118 C 
BRANCH  25  26
ATOM     26  N   UNL     1      -2.339  -3.169   4.500  1.00  0.00    -0.352 N 
ATOM     27  C   UNL     1      -2.006  -4.397   5.033  1.00  0.00     0.251 C 
ATOM     28  H   UNL     1      -3.182  -3.156   3.992  1.00  0.00     0.163 HD
ATOM     29  O   UNL     1      -2.677  -5.380   4.750  1.00  0.00    -0.269 OA
BRANCH  27  30
ATOM     30  C   UNL     1      -0.823  -4.539   5.915  1.00  0.00     0.039 A 
ATOM     31  C   UNL     1       0.033  -5.628   5.728  1.00  0.00     0.014 A 
ATOM     32  C   UNL     1      -0.548  -3.605   6.913  1.00  0.00     0.014 A 
ATOM     33  C   UNL     1       1.213  -5.721   6.474  1.00  0.00     0.010 A 
ATOM     34  C   UNL     1       0.675  -3.639   7.576  1.00  0.00     0.010 A 
ATOM     35  C   UNL     1       1.572  -4.697   7.365  1.00  0.00    -0.014 A 
BRANCH  35  36
ATOM     36  C   UNL     1       2.882  -4.698   8.072  1.00  0.00     0.031 A 
ATOM     37  C   UNL     1       2.935  -4.676   9.577  1.00  0.00     0.074 A 
ATOM     38  C   UNL     1       4.025  -4.611   7.360  1.00  0.00     0.049 A 
ATOM     39  N   UNL     1       3.975  -4.584  10.365  1.00  0.00    -0.248 NA
ATOM     40  C   UNL     1       1.649  -4.729  10.292  1.00  0.00     0.031 C 
ATOM     41  C   UNL     1       4.110  -4.536   5.899  1.00  0.00     0.029 A 
ATOM     42  N   UNL     1       5.334  -4.540   7.769  1.00  0.00    -0.354 N 
ATOM     43  C   UNL     1       3.470  -4.525  11.659  1.00  0.00     0.074 A 
ATOM     44  C   UNL     1       2.028  -4.551  11.549  1.00  0.00     0.031 C 
ATOM     45  C   UNL     1       5.399  -4.439   5.536  1.00  0.00     0.029 A 
ATOM     46  C   UNL     1       6.231  -4.406   6.734  1.00  0.00     0.049 A 
ATOM     47  H   UNL     1       5.606  -4.580   8.714  1.00  0.00     0.167 HD
ATOM     48  C   UNL     1       4.141  -4.484  12.834  1.00  0.00     0.034 A 
ATOM     49  C   UNL     1       7.571  -4.261   6.745  1.00  0.00     0.034 A 
ATOM     50  C   UNL     1       5.575  -4.508  12.943  1.00  0.00     0.049 A 
ATOM     51  C   UNL     1       8.296  -4.264   8.064  1.00  0.00     0.074 A 
ATOM     52  C   UNL     1       6.349  -4.568  14.088  1.00  0.00     0.029 A 
ATOM     53  N   UNL     1       6.451  -4.467  11.870  1.00  0.00    -0.354 N 
ATOM     54  N   UNL     1       7.805  -4.370   9.275  1.00  0.00    -0.248 NA
ATOM     55  C   UNL     1       9.762  -4.163   8.017  1.00  0.00     0.031 C 
ATOM     56  C   UNL     1       7.694  -4.533  13.709  1.00  0.00     0.029 A 
ATOM     57  C   UNL     1       7.758  -4.488  12.325  1.00  0.00     0.049 A 
ATOM     58  H   UNL     1       6.183  -4.428  10.924  1.00  0.00     0.167 HD
ATOM     59  C   UNL     1       8.901  -4.387  10.130  1.00  0.00     0.074 A 
ATOM     60  C   UNL     1      10.082  -4.301   9.296  1.00  0.00     0.031 C 
ATOM     61  C   UNL     1       8.927  -4.455  11.484  1.00  0.00     0.034 A 
BRANCH  48  62
ATOM     62  C   UNL     1       3.330  -4.462  14.105  1.00  0.00     0.023 A 
ATOM     63  C   UNL     1       2.613  -5.612  14.495  1.00  0.00     0.012 A 
ATOM     64  C   UNL     1       3.322  -3.328  14.940  1.00  0.00     0.148 A 
ATOM     65  C   UNL     1       1.869  -5.621  15.674  1.00  0.00     0.002 A 
ATOM     66  C   UNL     1       2.617  -3.361  16.138  1.00  0.00     0.091 A 
ATOM     67  F   UNL     1       3.993  -2.236  14.545  1.00  0.00    -0.205 F 
ATOM     68  C   UNL     1       1.880  -4.501  16.500  1.00  0.00     0.022 A 
BRANCH  66  69
ATOM     69  S   UNL     1       2.634  -2.001  17.312  1.00  0.00     0.127 S 
ATOM     70  O   UNL     1       1.266  -1.498  17.200  1.00  0.00    -0.237 OA
ATOM     71  O   UNL     1       2.930  -2.687  18.571  1.00  0.00    -0.237 OA
ATOM     72  O   UNL     1       3.675  -1.090  16.857  1.00  0.00    -0.744 OA
ENDBRANCH  66  69
ENDBRANCH  48  62
BRANCH  49  73
ATOM     73  C   UNL     1       8.323  -4.165   5.461  1.00  0.00     0.023 A 
ATOM     74  C   UNL     1       9.149  -5.234   5.061  1.00  0.00     0.012 A 
ATOM     75  C   UNL     1       8.209  -3.036   4.626  1.00  0.00     0.148 A 
ATOM     76  C   UNL     1       9.876  -5.166   3.872  1.00  0.00     0.002 A 
ATOM     77  C   UNL     1       8.891  -2.999   3.416  1.00  0.00     0.091 A 
ATOM     78  F   UNL     1       7.425  -2.026   5.029  1.00  0.00    -0.205 F 
ATOM     79  C   UNL     1       9.739  -4.054   3.045  1.00  0.00     0.022 A 
BRANCH  77  80
ATOM     80  S   UNL     1       8.675  -1.669   2.228  1.00  0.00     0.127 S 
ATOM     81  O   UNL     1       9.971  -0.997   2.293  1.00  0.00    -0.237 OA
ATOM     82  O   UNL     1       8.425  -2.408   0.990  1.00  0.00    -0.237 OA
ATOM     83  O   UNL     1       7.537  -0.896   2.706  1.00  0.00    -0.744 OA
ENDBRANCH  77  80
ENDBRANCH  49  73
BRANCH  61  84
ATOM     84  C   UNL     1      10.273  -4.484  12.159  1.00  0.00     0.023 A 
ATOM     85  C   UNL     1      11.067  -3.321  12.198  1.00  0.00     0.012 A 
ATOM     86  C   UNL     1      10.717  -5.647  12.820  1.00  0.00     0.148 A 
ATOM     87  C   UNL     1      12.296  -3.324  12.857  1.00  0.00     0.002 A 
ATOM     88  C   UNL     1      11.918  -5.627  13.518  1.00  0.00     0.091 A 
ATOM     89  F   UNL     1       9.955  -6.749  12.756  1.00  0.00    -0.205 F 
ATOM     90  C   UNL     1      12.715  -4.472  13.526  1.00  0.00     0.022 A 
BRANCH  88  91
ATOM     91  S   UNL     1      12.489  -7.025  14.492  1.00  0.00     0.127 S 
ATOM     92  O   UNL     1      13.613  -7.506  13.690  1.00  0.00    -0.237 OA
ATOM     93  O   UNL     1      12.868  -6.388  15.753  1.00  0.00    -0.237 OA
ATOM     94  O   UNL     1      11.357  -7.936  14.591  1.00  0.00    -0.744 OA
ENDBRANCH  88  91
ENDBRANCH  61  84
ENDBRANCH  35  36
ENDBRANCH  27  30
ENDBRANCH  25  26
ENDBRANCH  24  25
ENDBRANCH   1  24
TORSDOF 18
