REMARK SMILES C[C@H]([NH2+][C@@H](C)[C@@H](C)C(=O)NCCCNC(=O)c1ccc(-c2c3nc(c(-c4cccc(S(=O)(=O)[O-])c4F)c4ccc([nH]4)c(-c4cccc(S(=O)(=O)[O-])c4F)c4nc(c(-c5cccc(S(=O)(=O)[O-])c5F)c5ccc2[nH]5)C=C4)C=C3)cc1)c1cccc(Br)c1
REMARK SMILES IDX 11 1 10 2 8 3 9 4 6 6 7 7 4 8 5 9 3 10 2 13 1 14 80 15 81 16
REMARK SMILES IDX 86 17 82 18 84 19 83 20 85 21 12 22 13 23 14 24 15 25 16 27
REMARK SMILES IDX 17 28 18 29 79 30 19 31 78 32 20 33 21 34 22 35 72 36 23 37
REMARK SMILES IDX 77 38 71 39 73 40 24 41 76 42 70 43 69 44 25 46 57 47 37 48
REMARK SMILES IDX 56 49 38 50 41 51 55 52 74 53 39 54 40 55 54 57 75 58 42 59
REMARK SMILES IDX 26 60 27 61 35 62 28 63 30 64 36 65 29 66 31 67 32 68 33 69
REMARK SMILES IDX 34 70 58 71 59 72 67 73 60 74 62 75 68 76 61 77 63 78 64 79
REMARK SMILES IDX 65 80 66 81 43 82 44 83 52 84 45 85 47 86 53 87 46 88 48 89
REMARK SMILES IDX 49 90 50 91 51 92
REMARK H PARENT 10 5 3 11 3 12 14 26 73 45 41 56
REMARK Flexibility Score: inf
ROOT
ATOM      1  C   UNL     1       4.089  -2.888   1.091  1.00  0.00     0.117 C 
ENDROOT
BRANCH   1   2
ATOM      2  N   UNL     1       4.973  -1.865   0.554  1.00  0.00    -0.356 N 
ATOM      3  C   UNL     1       4.772  -0.525   0.413  1.00  0.00     0.228 C 
ATOM      4  O   UNL     1       5.685   0.159  -0.052  1.00  0.00    -0.275 OA
ATOM      5  H   UNL     1       5.849  -2.191   0.247  1.00  0.00     0.163 HD
BRANCH   3   6
ATOM      6  C   UNL     1       3.467   0.114   0.879  1.00  0.00     0.133 C 
ATOM      7  C   UNL     1       3.413  -0.102   2.404  1.00  0.00     0.024 C 
BRANCH   6   8
ATOM      8  C   UNL     1       2.249  -0.320  -0.009  1.00  0.00     0.192 C 
ATOM      9  C   UNL     1       2.583  -0.094  -1.500  1.00  0.00     0.076 C 
BRANCH   8  10
ATOM     10  N   UNL     1       0.959   0.374   0.202  1.00  0.00    -0.337 N 
ATOM     11  H   UNL     1       1.133   1.377   0.145  1.00  0.00     0.347 HD
ATOM     12  H   UNL     1       0.336   0.012  -0.521  1.00  0.00     0.347 HD
BRANCH  10  13
ATOM     13  C   UNL     1       0.279   0.112   1.465  1.00  0.00     0.210 C 
ATOM     14  C   UNL     1       0.537   1.248   2.471  1.00  0.00     0.081 C 
BRANCH  13  15
ATOM     15  C   UNL     1      -1.221  -0.109   1.295  1.00  0.00     0.010 A 
ATOM     16  C   UNL     1      -2.116   0.957   1.097  1.00  0.00     0.010 A 
ATOM     17  C   UNL     1      -1.755  -1.404   1.424  1.00  0.00     0.025 A 
ATOM     18  C   UNL     1      -3.497   0.756   1.138  1.00  0.00     0.002 A 
ATOM     19  C   UNL     1      -3.137  -1.602   1.448  1.00  0.00     0.018 A 
ATOM     20  C   UNL     1      -4.011  -0.524   1.331  1.00  0.00     0.016 A 
ATOM     21  Br  UNL     1      -3.834  -3.343   1.692  1.00  0.00    -0.051 Br
ENDBRANCH  13  15
ENDBRANCH  10  13
ENDBRANCH   8  10
ENDBRANCH   6   8
ENDBRANCH   3   6
ENDBRANCH   1   2
BRANCH   1  22
ATOM     22  C   UNL     1       3.760  -3.939   0.046  1.00  0.00     0.042 C 
BRANCH  22  23
ATOM     23  C   UNL     1       4.967  -4.786  -0.326  1.00  0.00     0.118 C 
BRANCH  23  24
ATOM     24  N   UNL     1       5.482  -5.540   0.812  1.00  0.00    -0.352 N 
ATOM     25  C   UNL     1       5.635  -6.897   0.958  1.00  0.00     0.251 C 
ATOM     26  H   UNL     1       5.760  -4.999   1.586  1.00  0.00     0.163 HD
ATOM     27  O   UNL     1       5.875  -7.374   2.058  1.00  0.00    -0.269 OA
BRANCH  25  28
ATOM     28  C   UNL     1       5.496  -7.765  -0.228  1.00  0.00     0.039 A 
ATOM     29  C   UNL     1       4.768  -8.952  -0.126  1.00  0.00     0.014 A 
ATOM     30  C   UNL     1       6.070  -7.387  -1.444  1.00  0.00     0.014 A 
ATOM     31  C   UNL     1       4.568  -9.731  -1.265  1.00  0.00     0.010 A 
ATOM     32  C   UNL     1       5.779  -8.106  -2.593  1.00  0.00     0.010 A 
ATOM     33  C   UNL     1       5.044  -9.296  -2.514  1.00  0.00    -0.014 A 
BRANCH  33  34
ATOM     34  C   UNL     1       4.805 -10.076  -3.752  1.00  0.00     0.031 A 
ATOM     35  C   UNL     1       5.974 -10.594  -4.546  1.00  0.00     0.074 A 
ATOM     36  C   UNL     1       3.548 -10.232  -4.210  1.00  0.00     0.049 A 
ATOM     37  N   UNL     1       5.978 -11.221  -5.692  1.00  0.00    -0.248 NA
ATOM     38  C   UNL     1       7.318 -10.341  -3.998  1.00  0.00     0.031 C 
ATOM     39  C   UNL     1       2.341  -9.703  -3.571  1.00  0.00     0.029 A 
ATOM     40  N   UNL     1       3.079 -10.856  -5.338  1.00  0.00    -0.354 N 
ATOM     41  C   UNL     1       7.316 -11.398  -6.021  1.00  0.00     0.074 A 
ATOM     42  C   UNL     1       8.096 -10.773  -4.977  1.00  0.00     0.031 C 
ATOM     43  C   UNL     1       1.271 -10.032  -4.312  1.00  0.00     0.029 A 
ATOM     44  C   UNL     1       1.717 -10.761  -5.495  1.00  0.00     0.049 A 
ATOM     45  H   UNL     1       3.663 -11.328  -5.975  1.00  0.00     0.167 HD
ATOM     46  C   UNL     1       7.851 -12.049  -7.081  1.00  0.00     0.034 A 
ATOM     47  C   UNL     1       0.919 -11.200  -6.487  1.00  0.00     0.034 A 
ATOM     48  C   UNL     1       7.069 -12.704  -8.092  1.00  0.00     0.049 A 
ATOM     49  C   UNL     1       1.532 -11.954  -7.634  1.00  0.00     0.074 A 
ATOM     50  C   UNL     1       7.507 -13.471  -9.156  1.00  0.00     0.029 A 
ATOM     51  N   UNL     1       5.685 -12.661  -8.173  1.00  0.00    -0.354 N 
ATOM     52  N   UNL     1       2.792 -12.248  -7.849  1.00  0.00    -0.248 NA
ATOM     53  C   UNL     1       0.612 -12.470  -8.658  1.00  0.00     0.031 C 
ATOM     54  C   UNL     1       6.389 -13.863  -9.900  1.00  0.00     0.029 A 
ATOM     55  C   UNL     1       5.252 -13.375  -9.276  1.00  0.00     0.049 A 
ATOM     56  H   UNL     1       5.097 -12.191  -7.538  1.00  0.00     0.167 HD
ATOM     57  C   UNL     1       2.813 -13.013  -9.009  1.00  0.00     0.074 A 
ATOM     58  C   UNL     1       1.437 -13.153  -9.441  1.00  0.00     0.031 C 
ATOM     59  C   UNL     1       3.875 -13.544  -9.664  1.00  0.00     0.034 A 
BRANCH  46  60
ATOM     60  C   UNL     1       9.354 -12.118  -7.172  1.00  0.00     0.023 A 
ATOM     61  C   UNL     1      10.078 -12.890  -6.240  1.00  0.00     0.012 A 
ATOM     62  C   UNL     1      10.047 -11.452  -8.201  1.00  0.00     0.148 A 
ATOM     63  C   UNL     1      11.469 -12.961  -6.302  1.00  0.00     0.002 A 
ATOM     64  C   UNL     1      11.429 -11.569  -8.287  1.00  0.00     0.091 A 
ATOM     65  F   UNL     1       9.346 -10.704  -9.066  1.00  0.00    -0.205 F 
ATOM     66  C   UNL     1      12.143 -12.309  -7.331  1.00  0.00     0.022 A 
BRANCH  64  67
ATOM     67  S   UNL     1      12.381 -10.838  -9.623  1.00  0.00     0.127 S 
ATOM     68  O   UNL     1      13.096  -9.770  -8.926  1.00  0.00    -0.237 OA
ATOM     69  O   UNL     1      13.222 -11.958 -10.048  1.00  0.00    -0.237 OA
ATOM     70  O   UNL     1      11.411 -10.398 -10.615  1.00  0.00    -0.744 OA
ENDBRANCH  64  67
ENDBRANCH  46  60
BRANCH  47  71
ATOM     71  C   UNL     1      -0.554 -10.989  -6.404  1.00  0.00     0.023 A 
ATOM     72  C   UNL     1      -1.400 -12.091  -6.176  1.00  0.00     0.012 A 
ATOM     73  C   UNL     1      -1.115  -9.703  -6.515  1.00  0.00     0.148 A 
ATOM     74  C   UNL     1      -2.782 -11.921  -6.091  1.00  0.00     0.002 A 
ATOM     75  C   UNL     1      -2.488  -9.533  -6.375  1.00  0.00     0.091 A 
ATOM     76  F   UNL     1      -0.292  -8.668  -6.737  1.00  0.00    -0.205 F 
ATOM     77  C   UNL     1      -3.325 -10.642  -6.181  1.00  0.00     0.022 A 
BRANCH  75  78
ATOM     78  S   UNL     1      -3.262  -7.913  -6.347  1.00  0.00     0.127 S 
ATOM     79  O   UNL     1      -4.043  -7.933  -7.582  1.00  0.00    -0.237 OA
ATOM     80  O   UNL     1      -4.052  -7.980  -5.117  1.00  0.00    -0.237 OA
ATOM     81  O   UNL     1      -2.168  -6.952  -6.309  1.00  0.00    -0.744 OA
ENDBRANCH  75  78
ENDBRANCH  47  71
BRANCH  59  82
ATOM     82  C   UNL     1       3.598 -14.368 -10.895  1.00  0.00     0.023 A 
ATOM     83  C   UNL     1       3.171 -13.742 -12.082  1.00  0.00     0.012 A 
ATOM     84  C   UNL     1       3.838 -15.756 -10.892  1.00  0.00     0.148 A 
ATOM     85  C   UNL     1       2.954 -14.491 -13.238  1.00  0.00     0.002 A 
ATOM     86  C   UNL     1       3.673 -16.487 -12.061  1.00  0.00     0.091 A 
ATOM     87  F   UNL     1       4.228 -16.335  -9.746  1.00  0.00    -0.205 F 
ATOM     88  C   UNL     1       3.218 -15.859 -13.231  1.00  0.00     0.022 A 
BRANCH  86  89
ATOM     89  S   UNL     1       4.085 -18.232 -12.173  1.00  0.00     0.127 S 
ATOM     90  O   UNL     1       2.763 -18.843 -12.290  1.00  0.00    -0.237 OA
ATOM     91  O   UNL     1       4.891 -18.281 -13.394  1.00  0.00    -0.237 OA
ATOM     92  O   UNL     1       4.815 -18.553 -10.954  1.00  0.00    -0.744 OA
ENDBRANCH  86  89
ENDBRANCH  59  82
ENDBRANCH  33  34
ENDBRANCH  25  28
ENDBRANCH  23  24
ENDBRANCH  22  23
ENDBRANCH   1  22
TORSDOF 17
