REMARK SMILES O=C(CNC(=O)[C@@H](CC1=c2ccccc2=NC1)N1C(=O)N=C2C=CC=C[C@H]2C1=O)NCCCNC(=O)c1ccc(-c2c3nc(c(-c4cccc(S(=O)(=O)[O-])c4F)c4ccc([nH]4)c(-c4cccc(S(=O)(=O)[O-])c4F)c4nc(c(-c5cccc(S(=O)(=O)[O-])c5F)c5ccc2[nH]5)C=C4)C=C3)cc1
REMARK SMILES IDX 31 1 30 2 1 3 2 4 3 6 4 7 5 8 6 10 7 11 8 12 9 13 10 14
REMARK SMILES IDX 17 15 11 16 15 17 16 18 12 19 14 20 13 21 18 22 19 23 28 24
REMARK SMILES IDX 21 25 20 26 27 27 29 28 22 29 26 30 23 31 25 32 24 33 32 34
REMARK SMILES IDX 33 35 34 36 35 37 36 39 37 40 38 41 99 42 39 43 98 44 40 45
REMARK SMILES IDX 41 46 42 47 92 48 43 49 97 50 91 51 93 52 44 53 96 54 90 55
REMARK SMILES IDX 89 56 45 58 77 59 57 60 76 61 58 62 61 63 75 64 94 65 59 66
REMARK SMILES IDX 60 67 74 69 95 70 62 71 46 72 47 73 55 74 48 75 50 76 56 77
REMARK SMILES IDX 49 78 51 79 52 80 53 81 54 82 78 83 79 84 87 85 80 86 82 87
REMARK SMILES IDX 88 88 81 89 83 90 84 91 85 92 86 93 63 94 64 95 72 96 65 97
REMARK SMILES IDX 67 98 73 99 66 100 68 101 69 102 70 103 71 104
REMARK H PARENT 30 5 4 9 34 38 93 57 61 68
REMARK Flexibility Score: inf
ROOT
ATOM      1  C   UNL     1       1.878   1.649   2.272  1.00  0.00     0.117 C 
ENDROOT
BRANCH   1   2
ATOM      2  N   UNL     1       2.442   1.142   1.029  1.00  0.00    -0.355 N 
ATOM      3  O   UNL     1       0.509   0.200   0.215  1.00  0.00    -0.273 OA
ATOM      4  C   UNL     1       1.711   0.429   0.092  1.00  0.00     0.239 C 
ATOM      5  H   UNL     1       3.393   1.315   0.844  1.00  0.00     0.163 HD
BRANCH   4   6
ATOM      6  C   UNL     1       2.523  -0.150  -1.100  1.00  0.00     0.216 C 
BRANCH   6   7
ATOM      7  N   UNL     1       3.780   0.546  -1.353  1.00  0.00    -0.345 N 
ATOM      8  C   UNL     1       4.983   0.184  -1.835  1.00  0.00     0.244 C 
ATOM      9  H   UNL     1       3.738   1.501  -1.117  1.00  0.00     0.164 HD
ATOM     10  O   UNL     1       5.510   1.116  -2.475  1.00  0.00    -0.273 OA
BRANCH   8  11
ATOM     11  C   UNL     1       5.796  -1.148  -1.714  1.00  0.00     0.188 C 
BRANCH  11  12
ATOM     12  C   UNL     1       5.774  -2.301  -0.671  1.00  0.00     0.069 C 
BRANCH  12  13
ATOM     13  C   UNL     1       4.579  -2.574   0.162  1.00  0.00    -0.037 C 
ATOM     14  C   UNL     1       3.780  -3.637   0.214  1.00  0.00     0.001 A 
ATOM     15  C   UNL     1       4.238  -1.646   1.274  1.00  0.00     0.174 C 
ATOM     16  C   UNL     1       3.761  -4.939  -0.365  1.00  0.00     0.010 A 
ATOM     17  C   UNL     1       2.727  -3.198   1.147  1.00  0.00     0.065 A 
ATOM     18  N   UNL     1       2.907  -2.063   1.750  1.00  0.00    -0.280 NA
ATOM     19  C   UNL     1       2.718  -5.744  -0.098  1.00  0.00     0.001 A 
ATOM     20  C   UNL     1       1.541  -4.070   1.263  1.00  0.00     0.028 A 
ATOM     21  C   UNL     1       1.571  -5.272   0.663  1.00  0.00     0.002 A 
ENDBRANCH  12  13
ENDBRANCH  11  12
BRANCH  11  22
ATOM     22  N   UNL     1       6.159  -1.582  -3.095  1.00  0.00    -0.249 N 
ATOM     23  C   UNL     1       7.334  -1.063  -3.639  1.00  0.00     0.351 C 
ATOM     24  C   UNL     1       5.367  -2.502  -3.752  1.00  0.00     0.244 C 
ATOM     25  N   UNL     1       7.623  -1.257  -4.955  1.00  0.00    -0.197 NA
ATOM     26  O   UNL     1       8.165  -0.488  -2.934  1.00  0.00    -0.246 OA
ATOM     27  C   UNL     1       5.697  -2.782  -5.208  1.00  0.00     0.151 C 
ATOM     28  O   UNL     1       4.412  -3.061  -3.208  1.00  0.00    -0.273 OA
ATOM     29  C   UNL     1       6.936  -2.072  -5.677  1.00  0.00     0.062 C 
ATOM     30  C   UNL     1       5.841  -4.244  -5.577  1.00  0.00    -0.007 C 
ATOM     31  C   UNL     1       7.425  -2.375  -7.046  1.00  0.00     0.025 C 
ATOM     32  C   UNL     1       6.567  -4.619  -6.647  1.00  0.00    -0.003 C 
ATOM     33  C   UNL     1       7.234  -3.631  -7.470  1.00  0.00     0.002 C 
ENDBRANCH  11  22
ENDBRANCH   8  11
ENDBRANCH   6   7
ENDBRANCH   4   6
ENDBRANCH   1   2
BRANCH   1  34
ATOM     34  C   UNL     1       1.957   0.690   3.469  1.00  0.00     0.042 C 
BRANCH  34  35
ATOM     35  C   UNL     1       3.350   0.376   4.025  1.00  0.00     0.118 C 
BRANCH  35  36
ATOM     36  N   UNL     1       4.081   1.524   4.532  1.00  0.00    -0.352 N 
ATOM     37  C   UNL     1       4.946   1.631   5.598  1.00  0.00     0.251 C 
ATOM     38  H   UNL     1       3.934   2.361   4.034  1.00  0.00     0.163 HD
ATOM     39  O   UNL     1       5.465   2.724   5.820  1.00  0.00    -0.269 OA
BRANCH  37  40
ATOM     40  C   UNL     1       5.226   0.491   6.510  1.00  0.00     0.039 A 
ATOM     41  C   UNL     1       5.511  -0.798   6.054  1.00  0.00     0.014 A 
ATOM     42  C   UNL     1       5.247   0.748   7.888  1.00  0.00     0.014 A 
ATOM     43  C   UNL     1       5.693  -1.844   6.972  1.00  0.00     0.010 A 
ATOM     44  C   UNL     1       5.468  -0.289   8.802  1.00  0.00     0.010 A 
ATOM     45  C   UNL     1       5.646  -1.607   8.357  1.00  0.00    -0.014 A 
BRANCH  45  46
ATOM     46  C   UNL     1       5.741  -2.732   9.330  1.00  0.00     0.031 A 
ATOM     47  C   UNL     1       4.546  -3.119  10.168  1.00  0.00     0.074 A 
ATOM     48  C   UNL     1       6.892  -3.418   9.479  1.00  0.00     0.049 A 
ATOM     49  N   UNL     1       4.435  -4.078  11.054  1.00  0.00    -0.248 NA
ATOM     50  C   UNL     1       3.317  -2.326   9.993  1.00  0.00     0.031 C 
ATOM     51  C   UNL     1       8.139  -3.136   8.768  1.00  0.00     0.029 A 
ATOM     52  N   UNL     1       7.201  -4.489  10.284  1.00  0.00    -0.354 N 
ATOM     53  C   UNL     1       3.143  -3.987  11.559  1.00  0.00     0.074 A 
ATOM     54  C   UNL     1       2.509  -2.870  10.893  1.00  0.00     0.031 C 
ATOM     55  C   UNL     1       9.073  -4.021   9.156  1.00  0.00     0.029 A 
ATOM     56  C   UNL     1       8.502  -4.918  10.159  1.00  0.00     0.049 A 
ATOM     57  H   UNL     1       6.552  -4.910  10.892  1.00  0.00     0.167 HD
ATOM     58  C   UNL     1       2.526  -4.774  12.472  1.00  0.00     0.034 A 
ATOM     59  C   UNL     1       9.165  -5.918  10.777  1.00  0.00     0.034 A 
ATOM     60  C   UNL     1       3.123  -5.919  13.104  1.00  0.00     0.049 A 
ATOM     61  C   UNL     1       8.454  -6.787  11.778  1.00  0.00     0.074 A 
ATOM     62  C   UNL     1       2.538  -6.810  13.988  1.00  0.00     0.029 A 
ATOM     63  N   UNL     1       4.431  -6.334  12.924  1.00  0.00    -0.354 N 
ATOM     64  N   UNL     1       7.200  -6.753  12.152  1.00  0.00    -0.248 NA
ATOM     65  C   UNL     1       9.244  -7.847  12.425  1.00  0.00     0.031 C 
ATOM     66  C   UNL     1       3.496  -7.762  14.348  1.00  0.00     0.029 A 
ATOM     67  C   UNL     1       4.674  -7.465  13.684  1.00  0.00     0.049 A 
ATOM     68  H   UNL     1       5.091  -5.890  12.343  1.00  0.00     0.167 HD
ATOM     69  C   UNL     1       7.044  -7.792  13.063  1.00  0.00     0.074 A 
ATOM     70  C   UNL     1       8.328  -8.451  13.173  1.00  0.00     0.031 C 
ATOM     71  C   UNL     1       5.937  -8.151  13.755  1.00  0.00     0.034 A 
BRANCH  58  72
ATOM     72  C   UNL     1       1.090  -4.478  12.806  1.00  0.00     0.023 A 
ATOM     73  C   UNL     1       0.081  -4.912  11.923  1.00  0.00     0.012 A 
ATOM     74  C   UNL     1       0.734  -3.885  14.033  1.00  0.00     0.148 A 
ATOM     75  C   UNL     1      -1.263  -4.752  12.251  1.00  0.00     0.002 A 
ATOM     76  C   UNL     1      -0.609  -3.755  14.366  1.00  0.00     0.091 A 
ATOM     77  F   UNL     1       1.713  -3.474  14.851  1.00  0.00    -0.205 F 
ATOM     78  C   UNL     1      -1.608  -4.184  13.475  1.00  0.00     0.022 A 
BRANCH  76  79
ATOM     79  S   UNL     1      -1.164  -3.090  15.940  1.00  0.00     0.127 S 
ATOM     80  O   UNL     1      -1.839  -1.862  15.519  1.00  0.00    -0.237 OA
ATOM     81  O   UNL     1      -2.059  -4.144  16.419  1.00  0.00    -0.237 OA
ATOM     82  O   UNL     1       0.035  -2.893  16.741  1.00  0.00    -0.744 OA
ENDBRANCH  76  79
ENDBRANCH  58  72
BRANCH  59  83
ATOM     83  C   UNL     1      10.580  -6.190  10.405  1.00  0.00     0.023 A 
ATOM     84  C   UNL     1      10.873  -7.299   9.588  1.00  0.00     0.012 A 
ATOM     85  C   UNL     1      11.620  -5.329  10.803  1.00  0.00     0.148 A 
ATOM     86  C   UNL     1      12.182  -7.550   9.177  1.00  0.00     0.002 A 
ATOM     87  C   UNL     1      12.915  -5.562  10.357  1.00  0.00     0.091 A 
ATOM     88  F   UNL     1      11.313  -4.287  11.588  1.00  0.00    -0.205 F 
ATOM     89  C   UNL     1      13.200  -6.677   9.552  1.00  0.00     0.022 A 
BRANCH  87  90
ATOM     90  S   UNL     1      14.277  -4.442  10.700  1.00  0.00     0.127 S 
ATOM     91  O   UNL     1      15.169  -5.290  11.488  1.00  0.00    -0.237 OA
ATOM     92  O   UNL     1      14.753  -4.133   9.352  1.00  0.00    -0.237 OA
ATOM     93  O   UNL     1      13.695  -3.315  11.414  1.00  0.00    -0.744 OA
ENDBRANCH  87  90
ENDBRANCH  59  83
BRANCH  71  94
ATOM     94  C   UNL     1       6.031  -9.316  14.704  1.00  0.00     0.023 A 
ATOM     95  C   UNL     1       6.603  -9.121  15.976  1.00  0.00     0.012 A 
ATOM     96  C   UNL     1       5.436 -10.554  14.391  1.00  0.00     0.148 A 
ATOM     97  C   UNL     1       6.585 -10.144  16.923  1.00  0.00     0.002 A 
ATOM     98  C   UNL     1       5.393 -11.559  15.351  1.00  0.00     0.091 A 
ATOM     99  F   UNL     1       4.904 -10.715  13.171  1.00  0.00    -0.205 F 
ATOM    100  C   UNL     1       5.970 -11.357  16.616  1.00  0.00     0.022 A 
BRANCH  98 101
ATOM    101  S   UNL     1       4.561 -13.128  15.079  1.00  0.00     0.127 S 
ATOM    102  O   UNL     1       5.682 -14.066  15.093  1.00  0.00    -0.237 OA
ATOM    103  O   UNL     1       3.678 -13.215  16.242  1.00  0.00    -0.237 OA
ATOM    104  O   UNL     1       3.873 -13.005  13.801  1.00  0.00    -0.744 OA
ENDBRANCH  98 101
ENDBRANCH  71  94
ENDBRANCH  45  46
ENDBRANCH  37  40
ENDBRANCH  35  36
ENDBRANCH  34  35
ENDBRANCH   1  34
TORSDOF 18
