REMARK SMILES O=C(C[C@@H]1CN(C(=O)NCc2cccs2)CCO1)NCCCNC(=O)c1ccc(-c2c3nc(c(-c4cccc(S(=O)(=O)[O-])c4F)c4ccc([nH]4)c(-c4cccc(S(=O)(=O)[O-])c4F)c4nc(c(-c5cccc(S(=O)(=O)[O-])c5F)c5ccc2[nH]5)C=C4)C=C3)cc1
REMARK SMILES IDX 20 1 19 2 1 3 2 4 3 6 4 7 5 8 18 9 6 10 17 11 16 12 7 13
REMARK SMILES IDX 8 14 9 15 10 17 11 18 12 19 15 20 13 21 14 22 21 23 22 24
REMARK SMILES IDX 23 25 24 26 25 28 26 29 27 30 88 31 28 32 87 33 29 34 30 35
REMARK SMILES IDX 31 36 81 37 32 38 86 39 80 40 82 41 33 42 85 43 79 44 78 45
REMARK SMILES IDX 34 47 66 48 46 49 65 50 47 51 50 52 64 53 83 54 48 55 49 56
REMARK SMILES IDX 63 58 84 59 51 60 35 61 36 62 44 63 37 64 39 65 45 66 38 67
REMARK SMILES IDX 40 68 41 69 42 70 43 71 67 72 68 73 76 74 69 75 71 76 77 77
REMARK SMILES IDX 70 78 72 79 73 80 74 81 75 82 52 83 53 84 61 85 54 86 56 87
REMARK SMILES IDX 62 88 55 89 57 90 58 91 59 92 60 93
REMARK H PARENT 19 5 9 16 23 27 82 46 50 57
REMARK Flexibility Score: inf
ROOT
ATOM      1  C   UNL     1       2.038   1.962   1.761  1.00  0.00     0.117 C 
ENDROOT
BRANCH   1   2
ATOM      2  N   UNL     1       2.698   1.075   0.830  1.00  0.00    -0.356 N 
ATOM      3  O   UNL     1       0.827  -0.033   0.077  1.00  0.00    -0.275 OA
ATOM      4  C   UNL     1       2.037   0.164   0.041  1.00  0.00     0.222 C 
ATOM      5  H   UNL     1       3.679   1.127   0.756  1.00  0.00     0.163 HD
BRANCH   4   6
ATOM      6  C   UNL     1       2.958  -0.677  -0.817  1.00  0.00     0.133 C 
BRANCH   6   7
ATOM      7  C   UNL     1       3.841   0.081  -1.818  1.00  0.00     0.147 C 
ATOM      8  C   UNL     1       5.254  -0.549  -1.840  1.00  0.00     0.154 C 
ATOM      9  O   UNL     1       3.944   1.481  -1.502  1.00  0.00    -0.374 OA
ATOM     10  N   UNL     1       6.155   0.176  -2.739  1.00  0.00    -0.320 N 
ATOM     11  C   UNL     1       4.729   2.168  -2.489  1.00  0.00     0.182 C 
ATOM     12  C   UNL     1       6.157   1.625  -2.480  1.00  0.00     0.150 C 
BRANCH  10  13
ATOM     13  C   UNL     1       6.887  -0.280  -3.790  1.00  0.00     0.317 C 
ATOM     14  O   UNL     1       7.436   0.497  -4.580  1.00  0.00    -0.249 OA
ATOM     15  N   UNL     1       7.078  -1.577  -4.062  1.00  0.00    -0.333 N 
ATOM     16  H   UNL     1       7.535  -1.701  -4.926  1.00  0.00     0.165 HD
BRANCH  15  17
ATOM     17  C   UNL     1       6.793  -2.844  -3.428  1.00  0.00     0.164 C 
BRANCH  17  18
ATOM     18  C   UNL     1       5.690  -3.574  -4.148  1.00  0.00     0.024 A 
ATOM     19  C   UNL     1       5.558  -4.945  -4.292  1.00  0.00     0.017 A 
ATOM     20  S   UNL     1       4.386  -2.757  -4.917  1.00  0.00    -0.147 S 
ATOM     21  C   UNL     1       4.429  -5.313  -5.080  1.00  0.00     0.012 A 
ATOM     22  C   UNL     1       3.716  -4.215  -5.500  1.00  0.00     0.065 A 
ENDBRANCH  17  18
ENDBRANCH  15  17
ENDBRANCH  10  13
ENDBRANCH   6   7
ENDBRANCH   4   6
ENDBRANCH   1   2
BRANCH   1  23
ATOM     23  C   UNL     1       2.435   1.692   3.208  1.00  0.00     0.042 C 
BRANCH  23  24
ATOM     24  C   UNL     1       3.930   1.794   3.502  1.00  0.00     0.118 C 
BRANCH  24  25
ATOM     25  N   UNL     1       4.486   3.115   3.245  1.00  0.00    -0.352 N 
ATOM     26  C   UNL     1       5.216   3.952   4.054  1.00  0.00     0.251 C 
ATOM     27  H   UNL     1       4.311   3.466   2.342  1.00  0.00     0.163 HD
ATOM     28  O   UNL     1       5.479   5.085   3.654  1.00  0.00    -0.269 OA
BRANCH  26  29
ATOM     29  C   UNL     1       5.669   3.527   5.401  1.00  0.00     0.039 A 
ATOM     30  C   UNL     1       5.616   4.457   6.445  1.00  0.00     0.014 A 
ATOM     31  C   UNL     1       6.179   2.249   5.643  1.00  0.00     0.014 A 
ATOM     32  C   UNL     1       6.017   4.088   7.733  1.00  0.00     0.010 A 
ATOM     33  C   UNL     1       6.503   1.859   6.944  1.00  0.00     0.010 A 
ATOM     34  C   UNL     1       6.434   2.774   8.004  1.00  0.00    -0.014 A 
BRANCH  34  35
ATOM     35  C   UNL     1       6.777   2.354   9.391  1.00  0.00     0.031 A 
ATOM     36  C   UNL     1       8.166   1.881   9.737  1.00  0.00     0.074 A 
ATOM     37  C   UNL     1       5.816   2.343  10.338  1.00  0.00     0.049 A 
ATOM     38  N   UNL     1       8.639   1.490  10.893  1.00  0.00    -0.248 NA
ATOM     39  C   UNL     1       9.145   1.815   8.640  1.00  0.00     0.031 C 
ATOM     40  C   UNL     1       4.410   2.690  10.118  1.00  0.00     0.029 A 
ATOM     41  N   UNL     1       5.870   2.013  11.670  1.00  0.00    -0.354 N 
ATOM     42  C   UNL     1       9.954   1.105  10.660  1.00  0.00     0.074 A 
ATOM     43  C   UNL     1      10.194   1.273   9.243  1.00  0.00     0.031 C 
ATOM     44  C   UNL     1       3.741   2.569  11.275  1.00  0.00     0.029 A 
ATOM     45  C   UNL     1       4.659   2.112  12.314  1.00  0.00     0.049 A 
ATOM     46  H   UNL     1       6.699   1.730  12.121  1.00  0.00     0.167 HD
ATOM     47  C   UNL     1      10.888   0.679  11.545  1.00  0.00     0.034 A 
ATOM     48  C   UNL     1       4.322   1.865  13.595  1.00  0.00     0.034 A 
ATOM     49  C   UNL     1      10.662   0.548  12.960  1.00  0.00     0.049 A 
ATOM     50  C   UNL     1       5.390   1.443  14.567  1.00  0.00     0.074 A 
ATOM     51  C   UNL     1      11.570   0.211  13.949  1.00  0.00     0.029 A 
ATOM     52  N   UNL     1       9.442   0.739  13.589  1.00  0.00    -0.354 N 
ATOM     53  N   UNL     1       6.668   1.248  14.355  1.00  0.00    -0.248 NA
ATOM     54  C   UNL     1       4.976   1.248  15.964  1.00  0.00     0.031 C 
ATOM     55  C   UNL     1      10.892   0.171  15.172  1.00  0.00     0.029 A 
ATOM     56  C   UNL     1       9.569   0.517  14.951  1.00  0.00     0.049 A 
ATOM     57  H   UNL     1       8.607   0.994  13.135  1.00  0.00     0.167 HD
ATOM     58  C   UNL     1       7.218   0.944  15.596  1.00  0.00     0.074 A 
ATOM     59  C   UNL     1       6.137   1.007  16.558  1.00  0.00     0.031 C 
ATOM     60  C   UNL     1       8.499   0.628  15.908  1.00  0.00     0.034 A 
BRANCH  47  61
ATOM     61  C   UNL     1      12.267   0.373  11.016  1.00  0.00     0.023 A 
ATOM     62  C   UNL     1      13.096   1.428  10.582  1.00  0.00     0.012 A 
ATOM     63  C   UNL     1      12.768  -0.944  11.008  1.00  0.00     0.148 A 
ATOM     64  C   UNL     1      14.385   1.176  10.114  1.00  0.00     0.002 A 
ATOM     65  C   UNL     1      14.071  -1.183  10.584  1.00  0.00     0.091 A 
ATOM     66  F   UNL     1      11.962  -1.938  11.407  1.00  0.00    -0.205 F 
ATOM     67  C   UNL     1      14.875  -0.127  10.125  1.00  0.00     0.022 A 
BRANCH  65  68
ATOM     68  S   UNL     1      14.826  -2.812  10.634  1.00  0.00     0.127 S 
ATOM     69  O   UNL     1      14.917  -3.139   9.212  1.00  0.00    -0.237 OA
ATOM     70  O   UNL     1      16.109  -2.537  11.280  1.00  0.00    -0.237 OA
ATOM     71  O   UNL     1      13.922  -3.650  11.411  1.00  0.00    -0.744 OA
ENDBRANCH  65  68
ENDBRANCH  47  61
BRANCH  48  72
ATOM     72  C   UNL     1       2.919   2.083  14.051  1.00  0.00     0.023 A 
ATOM     73  C   UNL     1       2.631   3.153  14.922  1.00  0.00     0.012 A 
ATOM     74  C   UNL     1       1.870   1.252  13.614  1.00  0.00     0.148 A 
ATOM     75  C   UNL     1       1.330   3.370  15.376  1.00  0.00     0.002 A 
ATOM     76  C   UNL     1       0.567   1.509  14.025  1.00  0.00     0.091 A 
ATOM     77  F   UNL     1       2.166   0.233  12.795  1.00  0.00    -0.205 F 
ATOM     78  C   UNL     1       0.297   2.555  14.921  1.00  0.00     0.022 A 
BRANCH  76  79
ATOM     79  S   UNL     1      -0.842   0.595  13.387  1.00  0.00     0.127 S 
ATOM     80  O   UNL     1      -1.248  -0.182  14.553  1.00  0.00    -0.237 OA
ATOM     81  O   UNL     1      -1.756   1.674  13.013  1.00  0.00    -0.237 OA
ATOM     82  O   UNL     1      -0.331  -0.175  12.259  1.00  0.00    -0.744 OA
ENDBRANCH  76  79
ENDBRANCH  48  72
BRANCH  60  83
ATOM     83  C   UNL     1       8.818   0.361  17.357  1.00  0.00     0.023 A 
ATOM     84  C   UNL     1       8.347  -0.813  17.978  1.00  0.00     0.012 A 
ATOM     85  C   UNL     1       9.631   1.249  18.090  1.00  0.00     0.148 A 
ATOM     86  C   UNL     1       8.642  -1.077  19.315  1.00  0.00     0.002 A 
ATOM     87  C   UNL     1       9.965   0.954  19.406  1.00  0.00     0.091 A 
ATOM     88  F   UNL     1      10.056   2.371  17.490  1.00  0.00    -0.205 F 
ATOM     89  C   UNL     1       9.459  -0.201  20.025  1.00  0.00     0.022 A 
BRANCH  87  90
ATOM     90  S   UNL     1      11.090   1.975  20.364  1.00  0.00     0.127 S 
ATOM     91  O   UNL     1      10.173   2.651  21.280  1.00  0.00    -0.237 OA
ATOM     92  O   UNL     1      11.956   0.977  20.995  1.00  0.00    -0.237 OA
ATOM     93  O   UNL     1      11.765   2.836  19.403  1.00  0.00    -0.744 OA
ENDBRANCH  87  90
ENDBRANCH  60  83
ENDBRANCH  34  35
ENDBRANCH  26  29
ENDBRANCH  24  25
ENDBRANCH  23  24
ENDBRANCH   1  23
TORSDOF 17
