REMARK SMILES CC[C@@H](C)[C@@H](NC(=O)Cn1nc(-c2ccc3ccccc3c2)ccc1=O)C(=O)NCCCNC(=O)c1ccc(-c2c3nc(c(-c4cccc(S(=O)(=O)[O-])c4F)c4ccc([nH]4)c(-c4cccc(S(=O)(=O)[O-])c4F)c4nc(c(-c5cccc(S(=O)(=O)[O-])c5F)c5ccc2[nH]5)C=C4)C=C3)cc1
REMARK SMILES IDX 30 1 29 2 27 3 28 4 5 6 3 7 4 8 2 9 1 10 6 11 7 12 8 14 9 15
REMARK SMILES IDX 10 16 11 17 25 18 12 19 24 20 26 21 23 22 13 23 14 24 22 25
REMARK SMILES IDX 15 26 21 27 16 28 20 29 17 30 19 31 18 32 31 33 32 34 33 35
REMARK SMILES IDX 34 36 35 38 36 39 37 40 98 41 38 42 97 43 39 44 40 45 41 46
REMARK SMILES IDX 91 47 42 48 96 49 90 50 92 51 43 52 95 53 89 54 88 55 44 57
REMARK SMILES IDX 76 58 56 59 75 60 57 61 60 62 74 63 93 64 58 65 59 66 73 68
REMARK SMILES IDX 94 69 61 70 45 71 46 72 54 73 47 74 49 75 55 76 48 77 50 78
REMARK SMILES IDX 51 79 52 80 53 81 77 82 78 83 86 84 79 85 81 86 87 87 80 88
REMARK SMILES IDX 82 89 83 90 84 91 85 92 62 93 63 94 71 95 64 96 66 97 72 98
REMARK SMILES IDX 65 99 67 100 68 101 69 102 70 103
REMARK H PARENT 29 5 6 13 33 37 92 56 60 67
REMARK Flexibility Score: inf
ROOT
ATOM      1  C   UNL     1       3.320  -3.123  -1.284  1.00  0.00     0.117 C 
ENDROOT
BRANCH   1   2
ATOM      2  N   UNL     1       2.547  -3.773  -2.320  1.00  0.00    -0.354 N 
ATOM      3  C   UNL     1       1.466  -3.336  -3.048  1.00  0.00     0.242 C 
ATOM      4  O   UNL     1       1.076  -4.116  -3.929  1.00  0.00    -0.273 OA
ATOM      5  H   UNL     1       2.848  -4.684  -2.542  1.00  0.00     0.163 HD
BRANCH   3   6
ATOM      6  C   UNL     1       0.715  -1.943  -2.892  1.00  0.00     0.174 C 
BRANCH   6   7
ATOM      7  C   UNL     1       0.584  -1.428  -1.426  1.00  0.00     0.018 C 
ATOM      8  C   UNL     1      -0.148  -2.466  -0.560  1.00  0.00     0.010 C 
BRANCH   7   9
ATOM      9  C   UNL     1      -0.123  -0.055  -1.242  1.00  0.00     0.002 C 
ATOM     10  C   UNL     1       0.316   0.623   0.056  1.00  0.00     0.004 C 
ENDBRANCH   7   9
ENDBRANCH   6   7
BRANCH   6  11
ATOM     11  N   UNL     1       1.153  -0.843  -3.769  1.00  0.00    -0.342 N 
ATOM     12  C   UNL     1       0.962  -0.645  -5.111  1.00  0.00     0.242 C 
ATOM     13  H   UNL     1       1.667  -0.135  -3.317  1.00  0.00     0.164 HD
ATOM     14  O   UNL     1       0.598   0.479  -5.474  1.00  0.00    -0.273 OA
BRANCH  12  15
ATOM     15  C   UNL     1       1.272  -1.742  -6.112  1.00  0.00     0.248 C 
BRANCH  15  16
ATOM     16  N   UNL     1       2.657  -2.156  -5.945  1.00  0.00    -0.220 N 
ATOM     17  N   UNL     1       3.490  -1.280  -5.269  1.00  0.00    -0.169 NA
ATOM     18  C   UNL     1       3.001  -3.442  -6.319  1.00  0.00     0.267 A 
ATOM     19  C   UNL     1       4.594  -1.734  -4.771  1.00  0.00     0.091 A 
ATOM     20  C   UNL     1       4.255  -3.936  -5.741  1.00  0.00     0.075 A 
ATOM     21  O   UNL     1       2.331  -4.178  -7.037  1.00  0.00    -0.268 OA
ATOM     22  C   UNL     1       5.028  -3.123  -5.020  1.00  0.00     0.036 A 
BRANCH  19  23
ATOM     23  C   UNL     1       5.308  -0.885  -3.740  1.00  0.00     0.003 A 
ATOM     24  C   UNL     1       4.493  -0.174  -2.845  1.00  0.00     0.011 A 
ATOM     25  C   UNL     1       6.681  -0.902  -3.487  1.00  0.00     0.019 A 
ATOM     26  C   UNL     1       4.994   0.361  -1.655  1.00  0.00     0.009 A 
ATOM     27  C   UNL     1       7.214  -0.369  -2.280  1.00  0.00    -0.018 A 
ATOM     28  C   UNL     1       6.347   0.238  -1.341  1.00  0.00    -0.018 A 
ATOM     29  C   UNL     1       8.580  -0.457  -1.949  1.00  0.00     0.009 A 
ATOM     30  C   UNL     1       6.842   0.701  -0.108  1.00  0.00     0.009 A 
ATOM     31  C   UNL     1       9.066   0.021  -0.724  1.00  0.00     0.001 A 
ATOM     32  C   UNL     1       8.196   0.591   0.199  1.00  0.00     0.001 A 
ENDBRANCH  19  23
ENDBRANCH  15  16
ENDBRANCH  12  15
ENDBRANCH   6  11
ENDBRANCH   3   6
ENDBRANCH   1   2
BRANCH   1  33
ATOM     33  C   UNL     1       4.331  -3.926  -0.467  1.00  0.00     0.042 C 
BRANCH  33  34
ATOM     34  C   UNL     1       5.581  -4.556  -1.080  1.00  0.00     0.118 C 
BRANCH  34  35
ATOM     35  N   UNL     1       6.270  -3.856  -2.149  1.00  0.00    -0.352 N 
ATOM     36  C   UNL     1       7.476  -4.167  -2.784  1.00  0.00     0.251 C 
ATOM     37  H   UNL     1       5.822  -3.042  -2.474  1.00  0.00     0.163 HD
ATOM     38  O   UNL     1       7.864  -3.613  -3.801  1.00  0.00    -0.269 OA
BRANCH  36  39
ATOM     39  C   UNL     1       8.430  -5.044  -2.115  1.00  0.00     0.039 A 
ATOM     40  C   UNL     1       7.980  -6.178  -1.471  1.00  0.00     0.014 A 
ATOM     41  C   UNL     1       9.662  -4.445  -1.819  1.00  0.00     0.014 A 
ATOM     42  C   UNL     1       8.539  -6.432  -0.243  1.00  0.00     0.010 A 
ATOM     43  C   UNL     1      10.319  -4.821  -0.666  1.00  0.00     0.010 A 
ATOM     44  C   UNL     1       9.678  -5.718   0.187  1.00  0.00    -0.014 A 
BRANCH  44  45
ATOM     45  C   UNL     1      10.141  -5.911   1.568  1.00  0.00     0.031 A 
ATOM     46  C   UNL     1      10.130  -4.776   2.553  1.00  0.00     0.074 A 
ATOM     47  C   UNL     1      10.455  -7.168   1.917  1.00  0.00     0.049 A 
ATOM     48  N   UNL     1      10.474  -4.800   3.812  1.00  0.00    -0.248 NA
ATOM     49  C   UNL     1       9.697  -3.445   2.083  1.00  0.00     0.031 C 
ATOM     50  C   UNL     1      10.480  -8.304   0.988  1.00  0.00     0.029 A 
ATOM     51  N   UNL     1      10.744  -7.718   3.128  1.00  0.00    -0.354 N 
ATOM     52  C   UNL     1      10.373  -3.490   4.264  1.00  0.00     0.074 A 
ATOM     53  C   UNL     1       9.909  -2.689   3.155  1.00  0.00     0.031 C 
ATOM     54  C   UNL     1      10.655  -9.431   1.683  1.00  0.00     0.029 A 
ATOM     55  C   UNL     1      10.871  -9.083   3.079  1.00  0.00     0.049 A 
ATOM     56  H   UNL     1      10.851  -7.191   3.953  1.00  0.00     0.167 HD
ATOM     57  C   UNL     1      10.645  -3.018   5.501  1.00  0.00     0.034 A 
ATOM     58  C   UNL     1      11.155  -9.960   4.056  1.00  0.00     0.034 A 
ATOM     59  C   UNL     1      11.033  -3.867   6.596  1.00  0.00     0.049 A 
ATOM     60  C   UNL     1      11.394  -9.415   5.424  1.00  0.00     0.074 A 
ATOM     61  C   UNL     1      11.319  -3.511   7.900  1.00  0.00     0.029 A 
ATOM     62  N   UNL     1      11.170  -5.246   6.512  1.00  0.00    -0.354 N 
ATOM     63  N   UNL     1      11.294  -8.172   5.834  1.00  0.00    -0.248 NA
ATOM     64  C   UNL     1      11.798 -10.370   6.457  1.00  0.00     0.031 C 
ATOM     65  C   UNL     1      11.624  -4.678   8.607  1.00  0.00     0.029 A 
ATOM     66  C   UNL     1      11.526  -5.760   7.743  1.00  0.00     0.049 A 
ATOM     67  H   UNL     1      11.033  -5.779   5.695  1.00  0.00     0.167 HD
ATOM     68  C   UNL     1      11.643  -8.188   7.174  1.00  0.00     0.074 A 
ATOM     69  C   UNL     1      11.917  -9.573   7.513  1.00  0.00     0.031 C 
ATOM     70  C   UNL     1      11.757  -7.151   8.037  1.00  0.00     0.034 A 
BRANCH  57  71
ATOM     71  C   UNL     1      10.505  -1.543   5.763  1.00  0.00     0.023 A 
ATOM     72  C   UNL     1       9.231  -1.000   6.016  1.00  0.00     0.012 A 
ATOM     73  C   UNL     1      11.643  -0.718   5.869  1.00  0.00     0.148 A 
ATOM     74  C   UNL     1       9.089   0.343   6.370  1.00  0.00     0.002 A 
ATOM     75  C   UNL     1      11.497   0.613   6.246  1.00  0.00     0.091 A 
ATOM     76  F   UNL     1      12.845  -1.253   5.611  1.00  0.00    -0.205 F 
ATOM     77  C   UNL     1      10.221   1.145   6.495  1.00  0.00     0.022 A 
BRANCH  75  78
ATOM     78  S   UNL     1      12.891   1.724   6.481  1.00  0.00     0.127 S 
ATOM     79  O   UNL     1      12.655   2.715   5.432  1.00  0.00    -0.237 OA
ATOM     80  O   UNL     1      12.668   2.210   7.842  1.00  0.00    -0.237 OA
ATOM     81  O   UNL     1      14.087   0.912   6.306  1.00  0.00    -0.744 OA
ENDBRANCH  75  78
ENDBRANCH  57  71
BRANCH  58  82
ATOM     82  C   UNL     1      11.199 -11.405   3.719  1.00  0.00     0.023 A 
ATOM     83  C   UNL     1      10.134 -12.235   4.106  1.00  0.00     0.012 A 
ATOM     84  C   UNL     1      12.191 -11.908   2.852  1.00  0.00     0.148 A 
ATOM     85  C   UNL     1      10.047 -13.541   3.622  1.00  0.00     0.002 A 
ATOM     86  C   UNL     1      12.063 -13.185   2.323  1.00  0.00     0.091 A 
ATOM     87  F   UNL     1      13.197 -11.094   2.500  1.00  0.00    -0.205 F 
ATOM     88  C   UNL     1      10.997 -14.008   2.716  1.00  0.00     0.022 A 
BRANCH  86  89
ATOM     89  S   UNL     1      13.135 -13.785   1.012  1.00  0.00     0.127 S 
ATOM     90  O   UNL     1      13.964 -14.753   1.724  1.00  0.00    -0.237 OA
ATOM     91  O   UNL     1      12.173 -14.366   0.074  1.00  0.00    -0.237 OA
ATOM     92  O   UNL     1      13.826 -12.608   0.503  1.00  0.00    -0.744 OA
ENDBRANCH  86  89
ENDBRANCH  58  82
BRANCH  70  93
ATOM     93  C   UNL     1      12.207  -7.476   9.428  1.00  0.00     0.023 A 
ATOM     94  C   UNL     1      13.583  -7.630   9.681  1.00  0.00     0.012 A 
ATOM     95  C   UNL     1      11.285  -7.514  10.488  1.00  0.00     0.148 A 
ATOM     96  C   UNL     1      14.038  -7.823  10.982  1.00  0.00     0.002 A 
ATOM     97  C   UNL     1      11.748  -7.676  11.785  1.00  0.00     0.091 A 
ATOM     98  F   UNL     1       9.982  -7.373  10.204  1.00  0.00    -0.205 F 
ATOM     99  C   UNL     1      13.123  -7.835  12.033  1.00  0.00     0.022 A 
BRANCH  97 100
ATOM    100  S   UNL     1      10.658  -7.634  13.209  1.00  0.00     0.127 S 
ATOM    101  O   UNL     1      10.772  -9.003  13.710  1.00  0.00    -0.237 OA
ATOM    102  O   UNL     1      11.290  -6.619  14.050  1.00  0.00    -0.237 OA
ATOM    103  O   UNL     1       9.342  -7.271  12.700  1.00  0.00    -0.744 OA
ENDBRANCH  97 100
ENDBRANCH  70  93
ENDBRANCH  44  45
ENDBRANCH  36  39
ENDBRANCH  34  35
ENDBRANCH  33  34
ENDBRANCH   1  33
TORSDOF 19
