REMARK SMILES Cc1ccc([C@@]23C[C@@H]4C[C@@H](C[C@@](C(=O)N5CCC(C(=O)NCCCNC(=O)c6ccc(-c7c8nc(c(-c9cccc(S(=O)(=O)[O-])c9F)c9ccc([nH]9)c(-c9cccc(S(=O)(=O)[O-])c9F)c9nc(c(-c%10cccc(S(=O)(=O)[O-])c%10F)c%10ccc7[nH]%10)C=C9)C=C8)cc6)CC5)(C4)C2)C3)cc1
REMARK SMILES IDX 23 1 22 2 21 3 19 4 20 5 18 7 13 8 14 9 15 10 16 11 92 12
REMARK SMILES IDX 17 13 91 14 12 15 6 16 7 17 94 18 95 19 8 20 10 21 9 22
REMARK SMILES IDX 93 23 11 24 5 25 1 26 2 27 3 28 97 29 4 30 96 31 24 32 25 33
REMARK SMILES IDX 26 34 27 36 28 37 29 38 90 39 30 40 89 41 31 42 32 43 33 44
REMARK SMILES IDX 83 45 34 46 88 47 82 48 84 49 35 50 87 51 81 52 80 53 36 55
REMARK SMILES IDX 68 56 48 57 67 58 49 59 52 60 66 61 85 62 50 63 51 64 65 66
REMARK SMILES IDX 86 67 53 68 37 69 38 70 46 71 39 72 41 73 47 74 40 75 42 76
REMARK SMILES IDX 43 77 44 78 45 79 69 80 70 81 78 82 71 83 73 84 79 85 72 86
REMARK SMILES IDX 74 87 75 88 76 89 77 90 54 91 55 92 63 93 56 94 58 95 64 96
REMARK SMILES IDX 57 97 59 98 60 99 61 100 62 101
REMARK H PARENT 21 6 25 35 84 54 52 65
REMARK Flexibility Score: inf
ROOT
ATOM      1  C   UNL     1      -8.676  -1.936  -2.930  1.00  0.00     0.042 C 
ENDROOT
BRANCH   1   2
ATOM      2  C   UNL     1      -8.597  -3.448  -2.798  1.00  0.00     0.117 C 
BRANCH   2   3
ATOM      3  N   UNL     1      -8.288  -4.133  -4.050  1.00  0.00    -0.356 N 
ATOM      4  C   UNL     1      -7.142  -4.724  -4.499  1.00  0.00     0.223 C 
ATOM      5  O   UNL     1      -7.160  -5.289  -5.594  1.00  0.00    -0.275 OA
ATOM      6  H   UNL     1      -9.040  -4.177  -4.684  1.00  0.00     0.163 HD
BRANCH   4   7
ATOM      7  C   UNL     1      -5.844  -4.672  -3.701  1.00  0.00     0.082 C 
ATOM      8  C   UNL     1      -5.740  -2.506  -0.344  1.00  0.00     0.228 C 
ATOM      9  O   UNL     1      -6.569  -2.983   0.436  1.00  0.00    -0.274 OA
ATOM     10  N   UNL     1      -5.119  -3.315  -1.301  1.00  0.00    -0.342 N 
ATOM     11  C   UNL     1      -5.221  -4.762  -1.187  1.00  0.00     0.120 C 
ATOM     12  C   UNL     1      -4.427  -2.911  -2.522  1.00  0.00     0.120 C 
ATOM     13  C   UNL     1      -5.989  -5.386  -2.344  1.00  0.00     0.035 C 
ATOM     14  C   UNL     1      -5.293  -3.241  -3.717  1.00  0.00     0.035 C 
BRANCH   8  15
ATOM     15  C   UNL     1      -5.314  -1.025  -0.197  1.00  0.00     0.051 C 
ATOM     16  C   UNL     1      -3.178   0.391   0.071  1.00  0.00    -0.003 C 
ATOM     17  C   UNL     1      -3.667   1.180  -1.181  1.00  0.00     0.015 C 
ATOM     18  C   UNL     1      -3.787  -1.020  -0.018  1.00  0.00     0.028 C 
ATOM     19  C   UNL     1      -3.772   1.047   1.343  1.00  0.00     0.015 C 
ATOM     20  C   UNL     1      -5.205   1.274  -1.229  1.00  0.00    -0.009 C 
ATOM     21  C   UNL     1      -5.315   1.069   1.270  1.00  0.00    -0.009 C 
ATOM     22  C   UNL     1      -5.727   1.922   0.060  1.00  0.00     0.007 C 
ATOM     23  C   UNL     1      -5.806  -0.131  -1.351  1.00  0.00     0.020 C 
ATOM     24  C   UNL     1      -5.872  -0.368   1.105  1.00  0.00     0.020 C 
BRANCH  16  25
ATOM     25  C   UNL     1      -1.641   0.320   0.119  1.00  0.00    -0.042 A 
ATOM     26  C   UNL     1       2.695   0.110  -0.004  1.00  0.00     0.044 C 
ATOM     27  C   UNL     1       1.202   0.202   0.062  1.00  0.00    -0.051 A 
ATOM     28  C   UNL     1       0.449  -0.967   0.122  1.00  0.00     0.004 A 
ATOM     29  C   UNL     1       0.535   1.430   0.052  1.00  0.00     0.004 A 
ATOM     30  C   UNL     1      -0.945  -0.906   0.160  1.00  0.00     0.004 A 
ATOM     31  C   UNL     1      -0.865   1.488   0.084  1.00  0.00     0.004 A 
ENDBRANCH  16  25
ENDBRANCH   8  15
ENDBRANCH   4   7
ENDBRANCH   2   3
ENDBRANCH   1   2
BRANCH   1  32
ATOM     32  C   UNL     1      -9.904  -1.456  -3.670  1.00  0.00     0.118 C 
BRANCH  32  33
ATOM     33  N   UNL     1     -10.995  -1.056  -2.802  1.00  0.00    -0.352 N 
ATOM     34  C   UNL     1     -12.197  -0.460  -3.138  1.00  0.00     0.251 C 
ATOM     35  H   UNL     1     -10.861  -1.232  -1.842  1.00  0.00     0.163 HD
ATOM     36  O   UNL     1     -12.894   0.004  -2.239  1.00  0.00    -0.269 OA
BRANCH  34  37
ATOM     37  C   UNL     1     -12.687  -0.521  -4.539  1.00  0.00     0.039 A 
ATOM     38  C   UNL     1     -14.025  -0.881  -4.740  1.00  0.00     0.014 A 
ATOM     39  C   UNL     1     -11.810  -0.497  -5.619  1.00  0.00     0.014 A 
ATOM     40  C   UNL     1     -14.402  -1.488  -5.934  1.00  0.00     0.010 A 
ATOM     41  C   UNL     1     -12.142  -1.192  -6.755  1.00  0.00     0.010 A 
ATOM     42  C   UNL     1     -13.415  -1.752  -6.873  1.00  0.00    -0.014 A 
BRANCH  42  43
ATOM     43  C   UNL     1     -13.567  -2.617  -8.024  1.00  0.00     0.031 A 
ATOM     44  C   UNL     1     -13.970  -2.045  -9.313  1.00  0.00     0.074 A 
ATOM     45  C   UNL     1     -13.044  -3.860  -7.942  1.00  0.00     0.049 A 
ATOM     46  N   UNL     1     -14.365  -2.745 -10.317  1.00  0.00    -0.248 NA
ATOM     47  C   UNL     1     -13.929  -0.610  -9.568  1.00  0.00     0.031 C 
ATOM     48  C   UNL     1     -12.652  -4.740  -9.034  1.00  0.00     0.029 A 
ATOM     49  N   UNL     1     -12.918  -4.661  -6.803  1.00  0.00    -0.354 N 
ATOM     50  C   UNL     1     -14.323  -1.916 -11.414  1.00  0.00     0.074 A 
ATOM     51  C   UNL     1     -14.133  -0.583 -10.888  1.00  0.00     0.031 C 
ATOM     52  C   UNL     1     -12.603  -6.000  -8.573  1.00  0.00     0.029 A 
ATOM     53  C   UNL     1     -13.166  -5.977  -7.234  1.00  0.00     0.049 A 
ATOM     54  H   UNL     1     -12.702  -4.365  -5.889  1.00  0.00     0.167 HD
ATOM     55  C   UNL     1     -14.261  -2.463 -12.660  1.00  0.00     0.034 A 
ATOM     56  C   UNL     1     -14.260  -6.688  -6.822  1.00  0.00     0.034 A 
ATOM     57  C   UNL     1     -14.273  -3.933 -12.600  1.00  0.00     0.049 A 
ATOM     58  C   UNL     1     -15.193  -7.072  -7.970  1.00  0.00     0.074 A 
ATOM     59  C   UNL     1     -13.295  -4.913 -12.678  1.00  0.00     0.029 A 
ATOM     60  N   UNL     1     -15.396  -4.567 -12.091  1.00  0.00    -0.354 N 
ATOM     61  N   UNL     1     -14.967  -6.842  -9.237  1.00  0.00    -0.248 NA
ATOM     62  C   UNL     1     -16.514  -7.657  -7.749  1.00  0.00     0.031 C 
ATOM     63  C   UNL     1     -13.843  -6.138 -12.189  1.00  0.00     0.029 A 
ATOM     64  C   UNL     1     -15.161  -5.912 -11.839  1.00  0.00     0.049 A 
ATOM     65  H   UNL     1     -16.256  -4.118 -11.927  1.00  0.00     0.167 HD
ATOM     66  C   UNL     1     -16.116  -7.060  -9.961  1.00  0.00     0.074 A 
ATOM     67  C   UNL     1     -17.045  -7.603  -8.981  1.00  0.00     0.031 C 
ATOM     68  C   UNL     1     -16.249  -6.710 -11.283  1.00  0.00     0.034 A 
BRANCH  55  69
ATOM     69  C   UNL     1     -13.842  -1.652 -13.868  1.00  0.00     0.023 A 
ATOM     70  C   UNL     1     -13.061  -2.290 -14.854  1.00  0.00     0.012 A 
ATOM     71  C   UNL     1     -14.104  -0.276 -14.067  1.00  0.00     0.148 A 
ATOM     72  C   UNL     1     -12.475  -1.588 -15.912  1.00  0.00     0.002 A 
ATOM     73  C   UNL     1     -13.451   0.442 -15.073  1.00  0.00     0.091 A 
ATOM     74  F   UNL     1     -15.033   0.334 -13.316  1.00  0.00    -0.205 F 
ATOM     75  C   UNL     1     -12.633  -0.213 -15.998  1.00  0.00     0.022 A 
BRANCH  73  76
ATOM     76  S   UNL     1     -13.491   2.243 -15.147  1.00  0.00     0.127 S 
ATOM     77  O   UNL     1     -12.094   2.576 -15.441  1.00  0.00    -0.237 OA
ATOM     78  O   UNL     1     -14.416   2.497 -16.247  1.00  0.00    -0.237 OA
ATOM     79  O   UNL     1     -13.930   2.677 -13.826  1.00  0.00    -0.744 OA
ENDBRANCH  73  76
ENDBRANCH  55  69
BRANCH  56  80
ATOM     80  C   UNL     1     -14.702  -6.315  -5.438  1.00  0.00     0.023 A 
ATOM     81  C   UNL     1     -13.766  -6.508  -4.392  1.00  0.00     0.012 A 
ATOM     82  C   UNL     1     -15.776  -5.433  -5.225  1.00  0.00     0.148 A 
ATOM     83  C   UNL     1     -13.799  -5.711  -3.245  1.00  0.00     0.002 A 
ATOM     84  C   UNL     1     -15.815  -4.659  -4.067  1.00  0.00     0.091 A 
ATOM     85  F   UNL     1     -16.700  -5.294  -6.182  1.00  0.00    -0.205 F 
ATOM     86  C   UNL     1     -14.799  -4.755  -3.104  1.00  0.00     0.022 A 
BRANCH  84  87
ATOM     87  S   UNL     1     -17.106  -3.431  -3.826  1.00  0.00     0.127 S 
ATOM     88  O   UNL     1     -18.125  -4.214  -3.135  1.00  0.00    -0.237 OA
ATOM     89  O   UNL     1     -16.441  -2.423  -3.002  1.00  0.00    -0.237 OA
ATOM     90  O   UNL     1     -17.436  -2.979  -5.170  1.00  0.00    -0.744 OA
ENDBRANCH  84  87
ENDBRANCH  56  80
BRANCH  68  91
ATOM     91  C   UNL     1     -17.468  -7.016 -12.152  1.00  0.00     0.023 A 
ATOM     92  C   UNL     1     -18.354  -8.066 -11.839  1.00  0.00     0.012 A 
ATOM     93  C   UNL     1     -17.725  -6.336 -13.376  1.00  0.00     0.148 A 
ATOM     94  C   UNL     1     -19.506  -8.321 -12.592  1.00  0.00     0.002 A 
ATOM     95  C   UNL     1     -18.855  -6.608 -14.143  1.00  0.00     0.091 A 
ATOM     96  F   UNL     1     -16.846  -5.447 -13.848  1.00  0.00    -0.205 F 
ATOM     97  C   UNL     1     -19.769  -7.578 -13.733  1.00  0.00     0.022 A 
BRANCH  95  98
ATOM     98  S   UNL     1     -19.188  -5.780 -15.706  1.00  0.00     0.127 S 
ATOM     99  O   UNL     1     -19.051  -6.884 -16.656  1.00  0.00    -0.237 OA
ATOM    100  O   UNL     1     -20.560  -5.311 -15.510  1.00  0.00    -0.237 OA
ATOM    101  O   UNL     1     -18.195  -4.725 -15.835  1.00  0.00    -0.744 OA
ENDBRANCH  95  98
ENDBRANCH  68  91
ENDBRANCH  42  43
ENDBRANCH  34  37
ENDBRANCH  32  33
ENDBRANCH   1  32
TORSDOF 15
