REMARK SMILES COc1ccc(OC)c(/C=N/[NH+]=C2/NC(=O)[C@@H](CC(=O)NCCCNC(=O)c3ccc(-c4c5nc(c(-c6cccc(S(=O)(=O)[O-])c6F)c6ccc([nH]6)c(-c6cccc(S(=O)(=O)[O-])c6F)c6nc(c(-c7cccc(S(=O)(=O)[O-])c7F)c7ccc4[nH]7)C=C6)C=C5)cc3)S2)c1
REMARK SMILES IDX 22 1 21 2 19 3 20 4 18 6 17 7 12 8 13 9 14 11 91 12 15 13
REMARK SMILES IDX 16 15 11 16 10 17 9 18 3 19 4 20 92 21 5 22 6 23 2 24 1 25
REMARK SMILES IDX 7 26 8 27 23 28 24 29 25 30 26 31 27 33 28 34 29 35 90 36
REMARK SMILES IDX 30 37 89 38 31 39 32 40 33 41 83 42 34 43 88 44 82 45 84 46
REMARK SMILES IDX 35 47 87 48 81 49 80 50 36 52 68 53 48 54 67 55 49 56 52 57
REMARK SMILES IDX 66 58 85 59 50 60 51 61 65 63 86 64 53 65 37 66 38 67 46 68
REMARK SMILES IDX 39 69 41 70 47 71 40 72 42 73 43 74 44 75 45 76 69 77 70 78
REMARK SMILES IDX 78 79 71 80 73 81 79 82 72 83 74 84 75 85 76 86 77 87 54 88
REMARK SMILES IDX 55 89 63 90 56 91 58 92 64 93 57 94 59 95 60 96 61 97 62 98
REMARK H PARENT 21 5 12 10 14 14 25 32 84 51 52 62
REMARK Flexibility Score: inf
ROOT
ATOM      1  C   UNL     1       8.969  -3.867   1.453  1.00  0.00     0.117 C 
ENDROOT
BRANCH   1   2
ATOM      2  N   UNL     1       7.954  -2.912   1.035  1.00  0.00    -0.356 N 
ATOM      3  C   UNL     1       7.844  -1.570   1.211  1.00  0.00     0.221 C 
ATOM      4  O   UNL     1       6.907  -1.001   0.645  1.00  0.00    -0.275 OA
ATOM      5  H   UNL     1       7.210  -3.313   0.530  1.00  0.00     0.163 HD
BRANCH   3   6
ATOM      6  C   UNL     1       8.832  -0.788   2.055  1.00  0.00     0.127 C 
BRANCH   6   7
ATOM      7  C   UNL     1       8.513  -0.669   3.546  1.00  0.00     0.183 C 
ATOM      8  N   UNL     1       5.827  -3.110   4.651  1.00  0.00    -0.142 N 
ATOM      9  C   UNL     1       6.788  -2.263   4.532  1.00  0.00     0.337 C 
ATOM     10  H   UNL     1       5.987  -4.063   4.841  1.00  0.00     0.343 HD
ATOM     11  N   UNL     1       8.060  -2.642   4.789  1.00  0.00    -0.202 N 
ATOM     12  S   UNL     1       6.745  -0.616   3.981  1.00  0.00    -0.020 SA
ATOM     13  C   UNL     1       9.063  -1.858   4.305  1.00  0.00     0.322 C 
ATOM     14  H   UNL     1       8.254  -3.456   5.307  1.00  0.00     0.316 HD
ATOM     15  O   UNL     1      10.247  -2.143   4.383  1.00  0.00    -0.246 OA
BRANCH   8  16
ATOM     16  N   UNL     1       4.550  -2.591   4.495  1.00  0.00    -0.093 NA
ATOM     17  C   UNL     1       3.983  -2.911   3.378  1.00  0.00     0.170 C 
BRANCH  17  18
ATOM     18  C   UNL     1       2.559  -2.610   3.186  1.00  0.00     0.042 A 
ATOM     19  C   UNL     1       0.930  -1.227   2.035  1.00  0.00     0.119 A 
ATOM     20  C   UNL     1      -0.047  -1.682   2.917  1.00  0.00     0.050 A 
ATOM     21  C   UNL     1       2.240  -1.695   2.161  1.00  0.00     0.060 A 
ATOM     22  C   UNL     1       0.267  -2.623   3.898  1.00  0.00     0.051 A 
ATOM     23  C   UNL     1       1.570  -3.110   4.044  1.00  0.00     0.128 A 
BRANCH  19  24
ATOM     24  O   UNL     1       0.498  -0.267   1.162  1.00  0.00    -0.497 OA
ATOM     25  C   UNL     1       1.186  -0.180  -0.077  1.00  0.00     0.278 C 
ENDBRANCH  19  24
BRANCH  23  26
ATOM     26  O   UNL     1       1.662  -4.012   5.065  1.00  0.00    -0.496 OA
ATOM     27  C   UNL     1       2.753  -4.918   5.142  1.00  0.00     0.278 C 
ENDBRANCH  23  26
ENDBRANCH  17  18
ENDBRANCH   8  16
ENDBRANCH   6   7
ENDBRANCH   3   6
ENDBRANCH   1   2
BRANCH   1  28
ATOM     28  C   UNL     1       8.406  -4.959   2.361  1.00  0.00     0.042 C 
BRANCH  28  29
ATOM     29  C   UNL     1       7.316  -5.828   1.743  1.00  0.00     0.118 C 
BRANCH  29  30
ATOM     30  N   UNL     1       7.870  -6.855   0.882  1.00  0.00    -0.352 N 
ATOM     31  C   UNL     1       7.860  -8.221   1.028  1.00  0.00     0.251 C 
ATOM     32  H   UNL     1       8.320  -6.523   0.071  1.00  0.00     0.163 HD
ATOM     33  O   UNL     1       8.626  -8.887   0.333  1.00  0.00    -0.269 OA
BRANCH  31  34
ATOM     34  C   UNL     1       6.957  -8.902   1.992  1.00  0.00     0.039 A 
ATOM     35  C   UNL     1       7.413 -10.072   2.608  1.00  0.00     0.014 A 
ATOM     36  C   UNL     1       5.649  -8.469   2.235  1.00  0.00     0.014 A 
ATOM     37  C   UNL     1       6.572 -10.790   3.463  1.00  0.00     0.010 A 
ATOM     38  C   UNL     1       4.839  -9.142   3.156  1.00  0.00     0.010 A 
ATOM     39  C   UNL     1       5.279 -10.328   3.759  1.00  0.00    -0.014 A 
BRANCH  39  40
ATOM     40  C   UNL     1       4.403 -11.099   4.686  1.00  0.00     0.031 A 
ATOM     41  C   UNL     1       3.108 -11.711   4.213  1.00  0.00     0.074 A 
ATOM     42  C   UNL     1       4.775 -11.249   5.974  1.00  0.00     0.049 A 
ATOM     43  N   UNL     1       2.283 -12.495   4.861  1.00  0.00    -0.248 NA
ATOM     44  C   UNL     1       2.670 -11.389   2.846  1.00  0.00     0.031 C 
ATOM     45  C   UNL     1       5.956 -10.636   6.587  1.00  0.00     0.029 A 
ATOM     46  N   UNL     1       4.202 -11.961   6.999  1.00  0.00    -0.354 N 
ATOM     47  C   UNL     1       1.224 -12.741   3.994  1.00  0.00     0.074 A 
ATOM     48  C   UNL     1       1.490 -11.990   2.787  1.00  0.00     0.031 C 
ATOM     49  C   UNL     1       6.036 -11.022   7.870  1.00  0.00     0.029 A 
ATOM     50  C   UNL     1       4.903 -11.888   8.180  1.00  0.00     0.049 A 
ATOM     51  H   UNL     1       3.368 -12.474   6.898  1.00  0.00     0.167 HD
ATOM     52  C   UNL     1       0.143 -13.541   4.170  1.00  0.00     0.034 A 
ATOM     53  C   UNL     1       4.670 -12.462   9.377  1.00  0.00     0.034 A 
ATOM     54  C   UNL     1      -0.109 -14.310   5.361  1.00  0.00     0.049 A 
ATOM     55  C   UNL     1       3.494 -13.388   9.529  1.00  0.00     0.074 A 
ATOM     56  C   UNL     1      -1.132 -15.210   5.605  1.00  0.00     0.029 A 
ATOM     57  N   UNL     1       0.660 -14.261   6.514  1.00  0.00    -0.354 N 
ATOM     58  N   UNL     1       2.598 -13.739   8.639  1.00  0.00    -0.248 NA
ATOM     59  C   UNL     1       3.326 -14.034  10.838  1.00  0.00     0.031 C 
ATOM     60  C   UNL     1      -1.000 -15.681   6.917  1.00  0.00     0.029 A 
ATOM     61  C   UNL     1       0.130 -15.106   7.476  1.00  0.00     0.049 A 
ATOM     62  H   UNL     1       1.465 -13.707   6.632  1.00  0.00     0.167 HD
ATOM     63  C   UNL     1       1.781 -14.672   9.268  1.00  0.00     0.074 A 
ATOM     64  C   UNL     1       2.311 -14.854  10.605  1.00  0.00     0.031 C 
ATOM     65  C   UNL     1       0.684 -15.310   8.789  1.00  0.00     0.034 A 
BRANCH  52  66
ATOM     66  C   UNL     1      -0.833 -13.666   3.025  1.00  0.00     0.023 A 
ATOM     67  C   UNL     1      -0.450 -14.353   1.853  1.00  0.00     0.012 A 
ATOM     68  C   UNL     1      -2.146 -13.166   3.129  1.00  0.00     0.148 A 
ATOM     69  C   UNL     1      -1.342 -14.506   0.792  1.00  0.00     0.002 A 
ATOM     70  C   UNL     1      -3.045 -13.365   2.087  1.00  0.00     0.091 A 
ATOM     71  F   UNL     1      -2.491 -12.502   4.241  1.00  0.00    -0.205 F 
ATOM     72  C   UNL     1      -2.641 -14.022   0.913  1.00  0.00     0.022 A 
BRANCH  70  73
ATOM     73  S   UNL     1      -4.766 -12.855   2.176  1.00  0.00     0.127 S 
ATOM     74  O   UNL     1      -4.800 -11.762   1.205  1.00  0.00    -0.237 OA
ATOM     75  O   UNL     1      -5.467 -14.068   1.752  1.00  0.00    -0.237 OA
ATOM     76  O   UNL     1      -5.000 -12.469   3.560  1.00  0.00    -0.744 OA
ENDBRANCH  70  73
ENDBRANCH  52  66
BRANCH  53  77
ATOM     77  C   UNL     1       5.614 -12.234  10.508  1.00  0.00     0.023 A 
ATOM     78  C   UNL     1       6.422 -13.293  10.967  1.00  0.00     0.012 A 
ATOM     79  C   UNL     1       5.731 -10.969  11.114  1.00  0.00     0.148 A 
ATOM     80  C   UNL     1       7.302 -13.105  12.034  1.00  0.00     0.002 A 
ATOM     81  C   UNL     1       6.654 -10.773  12.134  1.00  0.00     0.091 A 
ATOM     82  F   UNL     1       4.946  -9.978  10.670  1.00  0.00    -0.205 F 
ATOM     83  C   UNL     1       7.426 -11.844  12.610  1.00  0.00     0.022 A 
BRANCH  81  84
ATOM     84  S   UNL     1       6.981  -9.152  12.835  1.00  0.00     0.127 S 
ATOM     85  O   UNL     1       6.420  -9.288  14.177  1.00  0.00    -0.237 OA
ATOM     86  O   UNL     1       8.442  -9.090  12.780  1.00  0.00    -0.237 OA
ATOM     87  O   UNL     1       6.308  -8.202  11.960  1.00  0.00    -0.744 OA
ENDBRANCH  81  84
ENDBRANCH  53  77
BRANCH  65  88
ATOM     88  C   UNL     1       0.002 -16.296   9.705  1.00  0.00     0.023 A 
ATOM     89  C   UNL     1      -0.686 -15.841  10.848  1.00  0.00     0.012 A 
ATOM     90  C   UNL     1       0.022 -17.675   9.417  1.00  0.00     0.148 A 
ATOM     91  C   UNL     1      -1.294 -16.746  11.718  1.00  0.00     0.002 A 
ATOM     92  C   UNL     1      -0.634 -18.566  10.259  1.00  0.00     0.091 A 
ATOM     93  F   UNL     1       0.696 -18.096   8.336  1.00  0.00    -0.205 F 
ATOM     94  C   UNL     1      -1.276 -18.105  11.419  1.00  0.00     0.022 A 
BRANCH  92  95
ATOM     95  S   UNL     1      -0.744 -20.322   9.897  1.00  0.00     0.127 S 
ATOM     96  O   UNL     1       0.229 -20.882  10.833  1.00  0.00    -0.237 OA
ATOM     97  O   UNL     1      -2.141 -20.620  10.218  1.00  0.00    -0.237 OA
ATOM     98  O   UNL     1      -0.410 -20.459   8.485  1.00  0.00    -0.744 OA
ENDBRANCH  92  95
ENDBRANCH  65  88
ENDBRANCH  39  40
ENDBRANCH  31  34
ENDBRANCH  29  30
ENDBRANCH  28  29
ENDBRANCH   1  28
TORSDOF 18
