REMARK SMILES CCC(CC)(CC)NC(=O)NC[C@@H]1CC[C@H](C(=O)NCCCNC(=O)c2ccc(-c3c4nc(c(-c5cccc(S(=O)(=O)[O-])c5F)c5ccc([nH]5)c(-c5cccc(S(=O)(=O)[O-])c5F)c5nc(c(-c6cccc(S(=O)(=O)[O-])c6F)c6ccc3[nH]6)C=C5)C=C4)cc2)O1
REMARK SMILES IDX 20 1 19 2 17 3 18 4 16 6 13 7 14 8 89 9 15 10 12 11 11 12
REMARK SMILES IDX 8 13 9 14 10 16 3 18 2 19 1 20 4 21 5 22 6 23 7 24 21 25
REMARK SMILES IDX 22 26 23 27 24 28 25 30 26 31 27 32 88 33 28 34 87 35 29 36
REMARK SMILES IDX 30 37 31 38 81 39 32 40 86 41 80 42 82 43 33 44 85 45 79 46
REMARK SMILES IDX 78 47 34 49 66 50 46 51 65 52 47 53 50 54 64 55 83 56 48 57
REMARK SMILES IDX 49 58 63 60 84 61 51 62 35 63 36 64 44 65 37 66 39 67 45 68
REMARK SMILES IDX 38 69 40 70 41 71 42 72 43 73 67 74 68 75 76 76 69 77 71 78
REMARK SMILES IDX 77 79 70 80 72 81 73 82 74 83 75 84 52 85 53 86 61 87 54 88
REMARK SMILES IDX 56 89 62 90 55 91 57 92 58 93 59 94 60 95
REMARK H PARENT 19 5 8 15 11 17 23 29 82 48 50 59
REMARK Flexibility Score: inf
ROOT
ATOM      1  C   UNL     1       3.154   2.022  -3.247  1.00  0.00     0.117 C 
ENDROOT
BRANCH   1   2
ATOM      2  N   UNL     1       2.743   3.379  -2.964  1.00  0.00    -0.354 N 
ATOM      3  C   UNL     1       1.671   3.831  -2.251  1.00  0.00     0.249 C 
ATOM      4  O   UNL     1       1.550   5.052  -2.108  1.00  0.00    -0.272 OA
ATOM      5  H   UNL     1       3.322   4.080  -3.341  1.00  0.00     0.163 HD
BRANCH   3   6
ATOM      6  C   UNL     1       0.609   2.864  -1.692  1.00  0.00     0.207 C 
ATOM      7  C   UNL     1       0.203   0.571  -1.675  1.00  0.00     0.138 C 
ATOM      8  C   UNL     1      -0.527   1.106  -2.895  1.00  0.00     0.037 C 
ATOM      9  O   UNL     1       1.105   1.601  -1.264  1.00  0.00    -0.363 OA
ATOM     10  C   UNL     1      -0.531   2.604  -2.669  1.00  0.00     0.045 C 
BRANCH   7  11
ATOM     11  C   UNL     1       0.923  -0.791  -1.864  1.00  0.00     0.149 C 
BRANCH  11  12
ATOM     12  N   UNL     1       2.174  -0.994  -1.113  1.00  0.00    -0.336 N 
ATOM     13  N   UNL     1       2.023  -2.050   1.034  1.00  0.00    -0.333 N 
ATOM     14  C   UNL     1       2.670  -1.536  -0.008  1.00  0.00     0.315 C 
ATOM     15  H   UNL     1       2.667  -2.365   1.709  1.00  0.00     0.165 HD
ATOM     16  O   UNL     1       3.906  -1.553   0.075  1.00  0.00    -0.249 OA
ATOM     17  H   UNL     1       2.910  -0.573  -1.613  1.00  0.00     0.165 HD
BRANCH  13  18
ATOM     18  C   UNL     1       0.643  -2.298   1.500  1.00  0.00     0.041 C 
BRANCH  18  19
ATOM     19  C   UNL     1      -0.307  -1.154   1.113  1.00  0.00     0.025 C 
ATOM     20  C   UNL     1       0.199   0.231   1.543  1.00  0.00     0.006 C 
ENDBRANCH  18  19
BRANCH  18  21
ATOM     21  C   UNL     1       0.672  -2.356   3.078  1.00  0.00     0.025 C 
ATOM     22  C   UNL     1      -0.699  -2.274   3.757  1.00  0.00     0.006 C 
ENDBRANCH  18  21
BRANCH  18  23
ATOM     23  C   UNL     1       0.149  -3.697   1.007  1.00  0.00     0.025 C 
ATOM     24  C   UNL     1       0.665  -4.204  -0.335  1.00  0.00     0.006 C 
ENDBRANCH  18  23
ENDBRANCH  13  18
ENDBRANCH  11  12
ENDBRANCH   7  11
ENDBRANCH   3   6
ENDBRANCH   1   2
BRANCH   1  25
ATOM     25  C   UNL     1       2.497   1.480  -4.506  1.00  0.00     0.042 C 
BRANCH  25  26
ATOM     26  C   UNL     1       3.470   1.372  -5.659  1.00  0.00     0.118 C 
BRANCH  26  27
ATOM     27  N   UNL     1       4.494   0.365  -5.407  1.00  0.00    -0.352 N 
ATOM     28  C   UNL     1       4.953  -0.645  -6.220  1.00  0.00     0.251 C 
ATOM     29  H   UNL     1       4.921   0.415  -4.522  1.00  0.00     0.163 HD
ATOM     30  O   UNL     1       5.712  -1.488  -5.768  1.00  0.00    -0.269 OA
BRANCH  28  31
ATOM     31  C   UNL     1       4.499  -0.719  -7.626  1.00  0.00     0.039 A 
ATOM     32  C   UNL     1       4.248  -1.974  -8.187  1.00  0.00     0.014 A 
ATOM     33  C   UNL     1       4.306   0.438  -8.382  1.00  0.00     0.014 A 
ATOM     34  C   UNL     1       3.749  -2.058  -9.487  1.00  0.00     0.010 A 
ATOM     35  C   UNL     1       3.693   0.358  -9.623  1.00  0.00     0.010 A 
ATOM     36  C   UNL     1       3.433  -0.891 -10.200  1.00  0.00    -0.014 A 
BRANCH  36  37
ATOM     37  C   UNL     1       2.856  -0.945 -11.564  1.00  0.00     0.031 A 
ATOM     38  C   UNL     1       3.587  -0.299 -12.710  1.00  0.00     0.074 A 
ATOM     39  C   UNL     1       1.635  -1.485 -11.748  1.00  0.00     0.049 A 
ATOM     40  N   UNL     1       3.215  -0.169 -13.956  1.00  0.00    -0.248 NA
ATOM     41  C   UNL     1       4.893   0.318 -12.412  1.00  0.00     0.031 C 
ATOM     42  C   UNL     1       0.793  -2.057 -10.693  1.00  0.00     0.029 A 
ATOM     43  N   UNL     1       0.878  -1.617 -12.883  1.00  0.00    -0.354 N 
ATOM     44  C   UNL     1       4.210   0.579 -14.572  1.00  0.00     0.074 A 
ATOM     45  C   UNL     1       5.183   0.914 -13.558  1.00  0.00     0.031 C 
ATOM     46  C   UNL     1      -0.358  -2.486 -11.233  1.00  0.00     0.029 A 
ATOM     47  C   UNL     1      -0.353  -2.189 -12.661  1.00  0.00     0.049 A 
ATOM     48  H   UNL     1       1.186  -1.330 -13.773  1.00  0.00     0.167 HD
ATOM     49  C   UNL     1       4.322   0.928 -15.875  1.00  0.00     0.034 A 
ATOM     50  C   UNL     1      -1.367  -2.436 -13.513  1.00  0.00     0.034 A 
ATOM     51  C   UNL     1       3.379   0.542 -16.886  1.00  0.00     0.049 A 
ATOM     52  C   UNL     1      -1.189  -2.091 -14.966  1.00  0.00     0.074 A 
ATOM     53  C   UNL     1       3.449   0.750 -18.251  1.00  0.00     0.029 A 
ATOM     54  N   UNL     1       2.190  -0.127 -16.641  1.00  0.00    -0.354 N 
ATOM     55  N   UNL     1      -0.164  -1.530 -15.561  1.00  0.00    -0.248 NA
ATOM     56  C   UNL     1      -2.290  -2.447 -15.873  1.00  0.00     0.031 C 
ATOM     57  C   UNL     1       2.285   0.234 -18.829  1.00  0.00     0.029 A 
ATOM     58  C   UNL     1       1.508  -0.329 -17.828  1.00  0.00     0.049 A 
ATOM     59  H   UNL     1       1.876  -0.415 -15.753  1.00  0.00     0.167 HD
ATOM     60  C   UNL     1      -0.480  -1.498 -16.914  1.00  0.00     0.074 A 
ATOM     61  C   UNL     1      -1.782  -2.117 -17.052  1.00  0.00     0.031 C 
ATOM     62  C   UNL     1       0.236  -0.992 -17.948  1.00  0.00     0.034 A 
BRANCH  49  63
ATOM     63  C   UNL     1       5.531   1.727 -16.288  1.00  0.00     0.023 A 
ATOM     64  C   UNL     1       6.805   1.121 -16.288  1.00  0.00     0.012 A 
ATOM     65  C   UNL     1       5.400   3.057 -16.730  1.00  0.00     0.148 A 
ATOM     66  C   UNL     1       7.933   1.837 -16.686  1.00  0.00     0.002 A 
ATOM     67  C   UNL     1       6.521   3.748 -17.174  1.00  0.00     0.091 A 
ATOM     68  F   UNL     1       4.185   3.624 -16.701  1.00  0.00    -0.205 F 
ATOM     69  C   UNL     1       7.789   3.145 -17.140  1.00  0.00     0.022 A 
BRANCH  67  70
ATOM     70  S   UNL     1       6.431   5.407 -17.856  1.00  0.00     0.127 S 
ATOM     71  O   UNL     1       7.116   6.187 -16.826  1.00  0.00    -0.237 OA
ATOM     72  O   UNL     1       7.174   5.264 -19.108  1.00  0.00    -0.237 OA
ATOM     73  O   UNL     1       5.013   5.699 -18.019  1.00  0.00    -0.744 OA
ENDBRANCH  67  70
ENDBRANCH  49  63
BRANCH  50  74
ATOM     74  C   UNL     1      -2.610  -3.094 -13.022  1.00  0.00     0.023 A 
ATOM     75  C   UNL     1      -2.900  -4.415 -13.417  1.00  0.00     0.012 A 
ATOM     76  C   UNL     1      -3.491  -2.432 -12.146  1.00  0.00     0.148 A 
ATOM     77  C   UNL     1      -4.062  -5.050 -12.979  1.00  0.00     0.002 A 
ATOM     78  C   UNL     1      -4.617  -3.091 -11.666  1.00  0.00     0.091 A 
ATOM     79  F   UNL     1      -3.202  -1.173 -11.786  1.00  0.00    -0.205 F 
ATOM     80  C   UNL     1      -4.916  -4.393 -12.098  1.00  0.00     0.022 A 
BRANCH  78  81
ATOM     81  S   UNL     1      -5.695  -2.372 -10.422  1.00  0.00     0.127 S 
ATOM     82  O   UNL     1      -6.903  -2.096 -11.195  1.00  0.00    -0.237 OA
ATOM     83  O   UNL     1      -5.816  -3.467  -9.459  1.00  0.00    -0.237 OA
ATOM     84  O   UNL     1      -4.987  -1.205  -9.914  1.00  0.00    -0.744 OA
ENDBRANCH  78  81
ENDBRANCH  50  74
BRANCH  62  85
ATOM     85  C   UNL     1      -0.349  -1.119 -19.330  1.00  0.00     0.023 A 
ATOM     86  C   UNL     1      -1.454  -0.330 -19.702  1.00  0.00     0.012 A 
ATOM     87  C   UNL     1       0.252  -1.967 -20.282  1.00  0.00     0.148 A 
ATOM     88  C   UNL     1      -1.976  -0.409 -20.992  1.00  0.00     0.002 A 
ATOM     89  C   UNL     1      -0.240  -1.999 -21.580  1.00  0.00     0.091 A 
ATOM     90  F   UNL     1       1.293  -2.721 -19.901  1.00  0.00    -0.205 F 
ATOM     91  C   UNL     1      -1.362  -1.232 -21.934  1.00  0.00     0.022 A 
BRANCH  89  92
ATOM     92  S   UNL     1       0.549  -2.950 -22.884  1.00  0.00     0.127 S 
ATOM     93  O   UNL     1      -0.419  -4.025 -23.095  1.00  0.00    -0.237 OA
ATOM     94  O   UNL     1       0.627  -1.976 -23.973  1.00  0.00    -0.237 OA
ATOM     95  O   UNL     1       1.840  -3.367 -22.353  1.00  0.00    -0.744 OA
ENDBRANCH  89  92
ENDBRANCH  62  85
ENDBRANCH  36  37
ENDBRANCH  28  31
ENDBRANCH  26  27
ENDBRANCH  25  26
ENDBRANCH   1  25
TORSDOF 19
