REMARK SMILES Cc1occc1C(=O)NN1C(=O)/C(=C\c2ccc(O[C@H](C)C(=O)NCCCNC(=O)c3ccc(-c4c5nc(c(-c6cccc(S(=O)(=O)[O-])c6F)c6ccc([nH]6)c(-c6cccc(S(=O)(=O)[O-])c6F)c6nc(c(-c7cccc(S(=O)(=O)[O-])c7F)c7ccc4[nH]7)C=C6)C=C5)cc3)cc2)SC1=S
REMARK SMILES IDX 25 1 24 2 22 3 23 4 20 6 21 7 19 8 18 9 15 10 16 11 95 12
REMARK SMILES IDX 17 13 94 14 14 15 10 16 11 17 97 18 12 19 13 20 96 21 98 22
REMARK SMILES IDX 9 23 7 24 8 25 6 27 1 28 2 29 3 30 4 31 5 32 26 33 27 34
REMARK SMILES IDX 28 35 29 36 30 38 31 39 32 40 93 41 33 42 92 43 34 44 35 45
REMARK SMILES IDX 36 46 86 47 37 48 91 49 85 50 87 51 38 52 90 53 84 54 83 55
REMARK SMILES IDX 39 57 71 58 51 59 70 60 52 61 55 62 69 63 88 64 53 65 54 66
REMARK SMILES IDX 68 68 89 69 56 70 40 71 41 72 49 73 42 74 44 75 50 76 43 77
REMARK SMILES IDX 45 78 46 79 47 80 48 81 72 82 73 83 81 84 74 85 76 86 82 87
REMARK SMILES IDX 75 88 77 89 78 90 79 91 80 92 57 93 58 94 66 95 59 96 61 97
REMARK SMILES IDX 67 98 60 99 62 100 63 101 64 102 65 103
REMARK H PARENT 24 5 9 26 28 37 87 56 55 67
REMARK Flexibility Score: inf
ROOT
ATOM      1  C   UNL     1       4.657  -2.423  -5.832  1.00  0.00     0.118 C 
ENDROOT
BRANCH   1   2
ATOM      2  N   UNL     1       5.393  -2.820  -7.010  1.00  0.00    -0.353 N 
ATOM      3  C   UNL     1       5.950  -4.010  -7.356  1.00  0.00     0.260 C 
ATOM      4  O   UNL     1       6.347  -4.100  -8.527  1.00  0.00    -0.271 OA
ATOM      5  H   UNL     1       5.510  -2.105  -7.677  1.00  0.00     0.163 HD
BRANCH   3   6
ATOM      6  C   UNL     1       6.206  -5.181  -6.367  1.00  0.00     0.258 C 
ATOM      7  C   UNL     1       7.633  -5.080  -5.830  1.00  0.00     0.064 C 
BRANCH   6   8
ATOM      8  O   UNL     1       5.185  -5.664  -5.506  1.00  0.00    -0.481 OA
BRANCH   8   9
ATOM      9  C   UNL     1       4.954  -5.269  -4.228  1.00  0.00     0.120 A 
ATOM     10  C   UNL     1       4.128  -4.453  -1.659  1.00  0.00    -0.024 A 
ATOM     11  C   UNL     1       5.455  -4.309  -2.067  1.00  0.00     0.012 A 
ATOM     12  C   UNL     1       3.204  -5.013  -2.542  1.00  0.00     0.012 A 
ATOM     13  C   UNL     1       5.865  -4.723  -3.336  1.00  0.00     0.047 A 
ATOM     14  C   UNL     1       3.626  -5.437  -3.808  1.00  0.00     0.047 A 
BRANCH  10  15
ATOM     15  C   UNL     1       3.816  -4.072  -0.281  1.00  0.00     0.029 C 
ATOM     16  N   UNL     1       3.214  -6.968   1.834  1.00  0.00    -0.198 N 
ATOM     17  C   UNL     1       3.479  -6.431   0.583  1.00  0.00     0.285 C 
ATOM     18  C   UNL     1       3.336  -6.156   2.940  1.00  0.00     0.168 C 
ATOM     19  O   UNL     1       3.568  -7.080  -0.442  1.00  0.00    -0.266 OA
ATOM     20  C   UNL     1       3.621  -4.951   0.712  1.00  0.00     0.082 C 
ATOM     21  S   UNL     1       3.546  -4.494   2.383  1.00  0.00    -0.052 SA
ATOM     22  S   UNL     1       3.296  -6.596   4.546  1.00  0.00    -0.050 S 
BRANCH  16  23
ATOM     23  N   UNL     1       3.046  -8.345   1.889  1.00  0.00    -0.254 N 
ATOM     24  C   UNL     1       1.859  -9.032   1.981  1.00  0.00     0.273 C 
ATOM     25  O   UNL     1       1.896 -10.243   1.747  1.00  0.00    -0.267 OA
ATOM     26  H   UNL     1       3.867  -8.889   1.860  1.00  0.00     0.192 HD
BRANCH  24  27
ATOM     27  C   UNL     1       0.622  -8.428   2.467  1.00  0.00     0.082 A 
ATOM     28  C   UNL     1       0.224  -6.007   1.414  1.00  0.00     0.088 C 
ATOM     29  C   UNL     1      -0.004  -7.209   2.240  1.00  0.00     0.113 A 
ATOM     30  O   UNL     1      -1.174  -7.141   2.947  1.00  0.00    -0.469 OA
ATOM     31  C   UNL     1      -1.346  -8.320   3.579  1.00  0.00     0.196 A 
ATOM     32  C   UNL     1      -0.296  -9.153   3.303  1.00  0.00     0.056 A 
ENDBRANCH  24  27
ENDBRANCH  16  23
ENDBRANCH  10  15
ENDBRANCH   8   9
ENDBRANCH   6   8
ENDBRANCH   3   6
ENDBRANCH   1   2
BRANCH   1  33
ATOM     33  C   UNL     1       5.495  -1.635  -4.831  1.00  0.00     0.042 C 
BRANCH  33  34
ATOM     34  C   UNL     1       5.518  -0.136  -5.117  1.00  0.00     0.118 C 
BRANCH  34  35
ATOM     35  N   UNL     1       4.201   0.471  -4.945  1.00  0.00    -0.352 N 
ATOM     36  C   UNL     1       3.802   1.542  -4.186  1.00  0.00     0.251 C 
ATOM     37  H   UNL     1       3.481   0.041  -5.459  1.00  0.00     0.163 HD
ATOM     38  O   UNL     1       2.599   1.748  -4.035  1.00  0.00    -0.269 OA
BRANCH  36  39
ATOM     39  C   UNL     1       4.790   2.437  -3.547  1.00  0.00     0.039 A 
ATOM     40  C   UNL     1       4.507   2.953  -2.278  1.00  0.00     0.014 A 
ATOM     41  C   UNL     1       5.964   2.810  -4.206  1.00  0.00     0.014 A 
ATOM     42  C   UNL     1       5.423   3.800  -1.650  1.00  0.00     0.010 A 
ATOM     43  C   UNL     1       6.909   3.593  -3.550  1.00  0.00     0.010 A 
ATOM     44  C   UNL     1       6.644   4.105  -2.271  1.00  0.00    -0.014 A 
BRANCH  44  45
ATOM     45  C   UNL     1       7.660   4.957  -1.605  1.00  0.00     0.031 A 
ATOM     46  C   UNL     1       8.054   6.277  -2.210  1.00  0.00     0.074 A 
ATOM     47  C   UNL     1       8.293   4.498  -0.507  1.00  0.00     0.049 A 
ATOM     48  N   UNL     1       8.974   7.121  -1.822  1.00  0.00    -0.248 NA
ATOM     49  C   UNL     1       7.340   6.689  -3.431  1.00  0.00     0.031 C 
ATOM     50  C   UNL     1       8.048   3.202   0.129  1.00  0.00     0.029 A 
ATOM     51  N   UNL     1       9.289   5.058   0.251  1.00  0.00    -0.354 N 
ATOM     52  C   UNL     1       8.977   8.141  -2.766  1.00  0.00     0.074 A 
ATOM     53  C   UNL     1       7.992   7.793  -3.767  1.00  0.00     0.031 C 
ATOM     54  C   UNL     1       8.867   3.069   1.185  1.00  0.00     0.029 A 
ATOM     55  C   UNL     1       9.712   4.254   1.284  1.00  0.00     0.049 A 
ATOM     56  H   UNL     1       9.666   5.950   0.073  1.00  0.00     0.167 HD
ATOM     57  C   UNL     1       9.708   9.281  -2.782  1.00  0.00     0.034 A 
ATOM     58  C   UNL     1      10.675   4.451   2.206  1.00  0.00     0.034 A 
ATOM     59  C   UNL     1      10.648   9.645  -1.757  1.00  0.00     0.049 A 
ATOM     60  C   UNL     1      11.443   5.744   2.192  1.00  0.00     0.074 A 
ATOM     61  C   UNL     1      11.379  10.813  -1.634  1.00  0.00     0.029 A 
ATOM     62  N   UNL     1      10.986   8.846  -0.676  1.00  0.00    -0.354 N 
ATOM     63  N   UNL     1      11.326   6.763   1.375  1.00  0.00    -0.248 NA
ATOM     64  C   UNL     1      12.450   5.931   3.246  1.00  0.00     0.031 C 
ATOM     65  C   UNL     1      12.168  10.714  -0.482  1.00  0.00     0.029 A 
ATOM     66  C   UNL     1      11.917   9.491   0.119  1.00  0.00     0.049 A 
ATOM     67  H   UNL     1      10.618   7.950  -0.499  1.00  0.00     0.167 HD
ATOM     68  C   UNL     1      12.217   7.726   1.836  1.00  0.00     0.074 A 
ATOM     69  C   UNL     1      12.851   7.174   3.017  1.00  0.00     0.031 C 
ATOM     70  C   UNL     1      12.496   8.949   1.322  1.00  0.00     0.034 A 
BRANCH  57  71
ATOM     71  C   UNL     1       9.467  10.246  -3.914  1.00  0.00     0.023 A 
ATOM     72  C   UNL     1       8.260  10.974  -3.957  1.00  0.00     0.012 A 
ATOM     73  C   UNL     1      10.439  10.463  -4.910  1.00  0.00     0.148 A 
ATOM     74  C   UNL     1       8.006  11.872  -4.992  1.00  0.00     0.002 A 
ATOM     75  C   UNL     1      10.196  11.393  -5.917  1.00  0.00     0.091 A 
ATOM     76  F   UNL     1      11.571   9.746  -4.870  1.00  0.00    -0.205 F 
ATOM     77  C   UNL     1       8.976  12.088  -5.966  1.00  0.00     0.022 A 
BRANCH  75  78
ATOM     78  S   UNL     1      11.415  11.795  -7.173  1.00  0.00     0.127 S 
ATOM     79  O   UNL     1      10.874  11.102  -8.342  1.00  0.00    -0.237 OA
ATOM     80  O   UNL     1      11.327  13.254  -7.236  1.00  0.00    -0.237 OA
ATOM     81  O   UNL     1      12.685  11.287  -6.672  1.00  0.00    -0.744 OA
ENDBRANCH  75  78
ENDBRANCH  57  71
BRANCH  58  82
ATOM     82  C   UNL     1      10.900   3.433   3.271  1.00  0.00     0.023 A 
ATOM     83  C   UNL     1      10.510   3.727   4.592  1.00  0.00     0.012 A 
ATOM     84  C   UNL     1      11.449   2.169   2.982  1.00  0.00     0.148 A 
ATOM     85  C   UNL     1      10.687   2.791   5.612  1.00  0.00     0.002 A 
ATOM     86  C   UNL     1      11.572   1.221   3.993  1.00  0.00     0.091 A 
ATOM     87  F   UNL     1      11.824   1.911   1.721  1.00  0.00    -0.205 F 
ATOM     88  C   UNL     1      11.207   1.536   5.311  1.00  0.00     0.022 A 
BRANCH  86  89
ATOM     89  S   UNL     1      12.100  -0.466   3.669  1.00  0.00     0.127 S 
ATOM     90  O   UNL     1      13.440  -0.477   4.250  1.00  0.00    -0.237 OA
ATOM     91  O   UNL     1      11.101  -1.244   4.404  1.00  0.00    -0.237 OA
ATOM     92  O   UNL     1      12.034  -0.626   2.222  1.00  0.00    -0.744 OA
ENDBRANCH  86  89
ENDBRANCH  58  82
BRANCH  70  93
ATOM     93  C   UNL     1      13.511   9.793   2.046  1.00  0.00     0.023 A 
ATOM     94  C   UNL     1      14.879   9.468   1.956  1.00  0.00     0.012 A 
ATOM     95  C   UNL     1      13.117  10.947   2.750  1.00  0.00     0.148 A 
ATOM     96  C   UNL     1      15.838  10.265   2.580  1.00  0.00     0.002 A 
ATOM     97  C   UNL     1      14.082  11.762   3.331  1.00  0.00     0.091 A 
ATOM     98  F   UNL     1      11.809  11.226   2.842  1.00  0.00    -0.205 F 
ATOM     99  C   UNL     1      15.441  11.416   3.256  1.00  0.00     0.022 A 
BRANCH  97 100
ATOM    100  S   UNL     1      13.669  13.312   4.140  1.00  0.00     0.127 S 
ATOM    101  O   UNL     1      13.820  12.961   5.551  1.00  0.00    -0.237 OA
ATOM    102  O   UNL     1      14.696  14.217   3.623  1.00  0.00    -0.237 OA
ATOM    103  O   UNL     1      12.314  13.634   3.714  1.00  0.00    -0.744 OA
ENDBRANCH  97 100
ENDBRANCH  70  93
ENDBRANCH  44  45
ENDBRANCH  36  39
ENDBRANCH  34  35
ENDBRANCH  33  34
ENDBRANCH   1  33
TORSDOF 18
