REMARK SMILES C#CC[C@@]1(C(=O)NCCCNC(=O)c2ccc(-c3c4nc(c(-c5cccc(S(=O)(=O)[O-])c5F)c5ccc([nH]5)c(-c5cccc(S(=O)(=O)[O-])c5F)c5nc(c(-c6cccc(S(=O)(=O)[O-])c6F)c6ccc3[nH]6)C=C5)C=C4)cc2)CCCN1C(=O)OC(C)(C)C
REMARK SMILES IDX 9 1 8 2 7 3 5 4 6 5 4 7 77 8 80 9 78 10 79 11 3 12 2 13 1 14
REMARK SMILES IDX 81 15 82 16 83 17 84 18 85 19 86 20 87 21 10 22 11 23 12 24
REMARK SMILES IDX 13 26 14 27 15 28 76 29 16 30 75 31 17 32 18 33 19 34 69 35
REMARK SMILES IDX 20 36 74 37 68 38 70 39 21 40 73 41 67 42 66 43 22 45 54 46
REMARK SMILES IDX 34 47 53 48 35 49 38 50 52 51 71 52 36 53 37 54 51 56 72 57
REMARK SMILES IDX 39 58 23 59 24 60 32 61 25 62 27 63 33 64 26 65 28 66 29 67
REMARK SMILES IDX 30 68 31 69 55 70 56 71 64 72 57 73 59 74 65 75 58 76 60 77
REMARK SMILES IDX 61 78 62 79 63 80 40 81 41 82 49 83 42 84 44 85 50 86 43 87
REMARK SMILES IDX 45 88 46 89 47 90 48 91
REMARK H PARENT 7 6 11 25 70 44 38 55
REMARK Flexibility Score: inf
ROOT
ATOM      1  C   UNL     1      -2.761  -3.095   2.210  1.00  0.00     0.042 C 
ENDROOT
BRANCH   1   2
ATOM      2  C   UNL     1      -2.028  -1.869   1.711  1.00  0.00     0.117 C 
BRANCH   2   3
ATOM      3  N   UNL     1      -2.137  -1.438   0.346  1.00  0.00    -0.354 N 
ATOM      4  C   UNL     1      -1.953  -0.137  -0.068  1.00  0.00     0.247 C 
ATOM      5  O   UNL     1      -1.597   0.024  -1.241  1.00  0.00    -0.272 OA
ATOM      6  H   UNL     1      -2.356  -2.113  -0.337  1.00  0.00     0.163 HD
BRANCH   4   7
ATOM      7  C   UNL     1      -2.300   1.075   0.881  1.00  0.00     0.136 C 
ATOM      8  C   UNL     1      -2.093   2.362  -0.011  1.00  0.00     0.042 C 
ATOM      9  N   UNL     1      -1.417   1.556   2.030  1.00  0.00    -0.292 N 
ATOM     10  C   UNL     1      -2.207   3.533   0.959  1.00  0.00     0.025 C 
ATOM     11  C   UNL     1      -1.608   2.986   2.240  1.00  0.00     0.124 C 
BRANCH   7  12
ATOM     12  C   UNL     1      -3.838   1.091   1.263  1.00  0.00     0.128 C 
BRANCH  12  13
ATOM     13  C   UNL     1      -4.637  -0.133   1.065  1.00  0.00    -0.104 C 
ATOM     14  C   UNL     1      -5.326  -1.100   0.907  1.00  0.00     0.004 C 
ENDBRANCH  12  13
ENDBRANCH   7  12
BRANCH   9  15
ATOM     15  C   UNL     1      -0.614   0.948   2.986  1.00  0.00     0.411 C 
ATOM     16  O   UNL     1      -0.328   1.515   4.037  1.00  0.00    -0.224 OA
BRANCH  15  17
ATOM     17  O   UNL     1      -0.067  -0.243   2.632  1.00  0.00    -0.444 OA
BRANCH  17  18
ATOM     18  C   UNL     1       0.781  -0.978   3.583  1.00  0.00     0.106 C 
ATOM     19  C   UNL     1       2.130  -0.294   3.800  1.00  0.00     0.056 C 
ATOM     20  C   UNL     1       0.035  -1.256   4.900  1.00  0.00     0.056 C 
ATOM     21  C   UNL     1       1.099  -2.339   2.950  1.00  0.00     0.056 C 
ENDBRANCH  17  18
ENDBRANCH  15  17
ENDBRANCH   9  15
ENDBRANCH   4   7
ENDBRANCH   2   3
ENDBRANCH   1   2
BRANCH   1  22
ATOM     22  C   UNL     1      -2.311  -4.419   1.611  1.00  0.00     0.118 C 
BRANCH  22  23
ATOM     23  N   UNL     1      -0.918  -4.781   1.898  1.00  0.00    -0.352 N 
ATOM     24  C   UNL     1      -0.356  -5.541   2.906  1.00  0.00     0.251 C 
ATOM     25  H   UNL     1      -0.266  -4.417   1.256  1.00  0.00     0.163 HD
ATOM     26  O   UNL     1       0.858  -5.534   3.090  1.00  0.00    -0.269 OA
BRANCH  24  27
ATOM     27  C   UNL     1      -1.215  -6.367   3.770  1.00  0.00     0.039 A 
ATOM     28  C   UNL     1      -0.993  -6.455   5.150  1.00  0.00     0.014 A 
ATOM     29  C   UNL     1      -2.253  -7.074   3.178  1.00  0.00     0.014 A 
ATOM     30  C   UNL     1      -1.890  -7.178   5.943  1.00  0.00     0.010 A 
ATOM     31  C   UNL     1      -3.214  -7.661   3.972  1.00  0.00     0.010 A 
ATOM     32  C   UNL     1      -3.037  -7.736   5.360  1.00  0.00    -0.014 A 
BRANCH  32  33
ATOM     33  C   UNL     1      -4.106  -8.412   6.128  1.00  0.00     0.031 A 
ATOM     34  C   UNL     1      -4.493  -9.816   5.748  1.00  0.00     0.074 A 
ATOM     35  C   UNL     1      -4.849  -7.693   6.991  1.00  0.00     0.049 A 
ATOM     36  N   UNL     1      -5.554 -10.500   6.082  1.00  0.00    -0.248 NA
ATOM     37  C   UNL     1      -3.596 -10.521   4.812  1.00  0.00     0.031 C 
ATOM     38  C   UNL     1      -4.606  -6.295   7.359  1.00  0.00     0.029 A 
ATOM     39  N   UNL     1      -5.995  -8.019   7.669  1.00  0.00    -0.354 N 
ATOM     40  C   UNL     1      -5.483 -11.682   5.355  1.00  0.00     0.074 A 
ATOM     41  C   UNL     1      -4.300 -11.607   4.529  1.00  0.00     0.031 C 
ATOM     42  C   UNL     1      -5.576  -5.882   8.188  1.00  0.00     0.029 A 
ATOM     43  C   UNL     1      -6.538  -6.963   8.365  1.00  0.00     0.049 A 
ATOM     44  H   UNL     1      -6.392  -8.920   7.659  1.00  0.00     0.167 HD
ATOM     45  C   UNL     1      -6.320 -12.744   5.391  1.00  0.00     0.034 A 
ATOM     46  C   UNL     1      -7.700  -6.868   9.039  1.00  0.00     0.034 A 
ATOM     47  C   UNL     1      -7.471 -12.807   6.247  1.00  0.00     0.049 A 
ATOM     48  C   UNL     1      -8.598  -8.073   9.088  1.00  0.00     0.074 A 
ATOM     49  C   UNL     1      -8.333 -13.868   6.453  1.00  0.00     0.029 A 
ATOM     50  N   UNL     1      -7.932 -11.755   7.025  1.00  0.00    -0.354 N 
ATOM     51  N   UNL     1      -8.433  -9.246   8.525  1.00  0.00    -0.248 NA
ATOM     52  C   UNL     1      -9.827  -7.953   9.883  1.00  0.00     0.031 C 
ATOM     53  C   UNL     1      -9.343 -13.441   7.319  1.00  0.00     0.029 A 
ATOM     54  C   UNL     1      -9.083 -12.131   7.691  1.00  0.00     0.049 A 
ATOM     55  H   UNL     1      -7.502 -10.872   7.092  1.00  0.00     0.167 HD
ATOM     56  C   UNL     1      -9.522 -10.013   8.917  1.00  0.00     0.074 A 
ATOM     57  C   UNL     1     -10.326  -9.178   9.789  1.00  0.00     0.031 C 
ATOM     58  C   UNL     1      -9.841 -11.287   8.579  1.00  0.00     0.034 A 
BRANCH  45  59
ATOM     59  C   UNL     1      -6.003 -13.925   4.510  1.00  0.00     0.023 A 
ATOM     60  C   UNL     1      -4.856 -14.706   4.764  1.00  0.00     0.012 A 
ATOM     61  C   UNL     1      -6.865 -14.291   3.458  1.00  0.00     0.148 A 
ATOM     62  C   UNL     1      -4.549 -15.804   3.961  1.00  0.00     0.002 A 
ATOM     63  C   UNL     1      -6.582 -15.418   2.696  1.00  0.00     0.091 A 
ATOM     64  F   UNL     1      -7.939 -13.527   3.216  1.00  0.00    -0.205 F 
ATOM     65  C   UNL     1      -5.417 -16.166   2.936  1.00  0.00     0.022 A 
BRANCH  63  66
ATOM     66  S   UNL     1      -7.675 -16.018   1.404  1.00  0.00     0.127 S 
ATOM     67  O   UNL     1      -6.856 -15.820   0.209  1.00  0.00    -0.237 OA
ATOM     68  O   UNL     1      -7.862 -17.417   1.790  1.00  0.00    -0.237 OA
ATOM     69  O   UNL     1      -8.876 -15.197   1.476  1.00  0.00    -0.744 OA
ENDBRANCH  63  66
ENDBRANCH  45  59
BRANCH  46  70
ATOM     70  C   UNL     1      -8.056  -5.605   9.744  1.00  0.00     0.023 A 
ATOM     71  C   UNL     1      -8.063  -5.580  11.152  1.00  0.00     0.012 A 
ATOM     72  C   UNL     1      -8.351  -4.423   9.036  1.00  0.00     0.148 A 
ATOM     73  C   UNL     1      -8.390  -4.412  11.842  1.00  0.00     0.002 A 
ATOM     74  C   UNL     1      -8.620  -3.249   9.729  1.00  0.00     0.091 A 
ATOM     75  F   UNL     1      -8.340  -4.468   7.696  1.00  0.00    -0.205 F 
ATOM     76  C   UNL     1      -8.659  -3.245  11.132  1.00  0.00     0.022 A 
BRANCH  74  77
ATOM     77  S   UNL     1      -8.853  -1.671   8.903  1.00  0.00     0.127 S 
ATOM     78  O   UNL     1     -10.259  -1.392   9.182  1.00  0.00    -0.237 OA
ATOM     79  O   UNL     1      -7.901  -0.817   9.615  1.00  0.00    -0.237 OA
ATOM     80  O   UNL     1      -8.523  -1.904   7.504  1.00  0.00    -0.744 OA
ENDBRANCH  74  77
ENDBRANCH  46  70
BRANCH  58  81
ATOM     81  C   UNL     1     -11.098 -11.867   9.168  1.00  0.00     0.023 A 
ATOM     82  C   UNL     1     -12.355 -11.426   8.712  1.00  0.00     0.012 A 
ATOM     83  C   UNL     1     -11.026 -12.915  10.106  1.00  0.00     0.148 A 
ATOM     84  C   UNL     1     -13.525 -12.002   9.203  1.00  0.00     0.002 A 
ATOM     85  C   UNL     1     -12.193 -13.522  10.548  1.00  0.00     0.091 A 
ATOM     86  F   UNL     1      -9.817 -13.309  10.531  1.00  0.00    -0.205 F 
ATOM     87  C   UNL     1     -13.444 -13.058  10.109  1.00  0.00     0.022 A 
BRANCH  85  88
ATOM     88  S   UNL     1     -12.187 -14.951  11.634  1.00  0.00     0.127 S 
ATOM     89  O   UNL     1     -12.825 -14.413  12.835  1.00  0.00    -0.237 OA
ATOM     90  O   UNL     1     -13.002 -15.907  10.886  1.00  0.00    -0.237 OA
ATOM     91  O   UNL     1     -10.791 -15.334  11.795  1.00  0.00    -0.744 OA
ENDBRANCH  85  88
ENDBRANCH  58  81
ENDBRANCH  32  33
ENDBRANCH  24  27
ENDBRANCH  22  23
ENDBRANCH   1  22
TORSDOF 18
