REMARK SMILES CC1=C(C)C[C@H](C(=O)N[C@@H](C)CCc2ccccc2)[C@@H](C(=O)NCCCNC(=O)c2ccc(-c3c4nc(c(-c5cccc(S(=O)(=O)[O-])c5F)c5ccc([nH]5)c(-c5cccc(S(=O)(=O)[O-])c5F)c5nc(c(-c6cccc(S(=O)(=O)[O-])c6F)c6ccc3[nH]6)C=C5)C=C4)cc2)C1
REMARK SMILES IDX 24 1 23 2 21 3 22 4 20 6 1 7 2 8 3 9 93 10 4 11 5 12 6 13
REMARK SMILES IDX 7 14 8 15 9 16 10 18 11 19 12 20 13 21 14 22 15 23 19 24
REMARK SMILES IDX 16 25 18 26 17 27 25 28 26 29 27 30 28 31 29 33 30 34 31 35
REMARK SMILES IDX 92 36 32 37 91 38 33 39 34 40 35 41 85 42 36 43 90 44 84 45
REMARK SMILES IDX 86 46 37 47 89 48 83 49 82 50 38 52 70 53 50 54 69 55 51 56
REMARK SMILES IDX 54 57 68 58 87 59 52 60 53 61 67 63 88 64 55 65 39 66 40 67
REMARK SMILES IDX 48 68 41 69 43 70 49 71 42 72 44 73 45 74 46 75 47 76 71 77
REMARK SMILES IDX 72 78 80 79 73 80 75 81 81 82 74 83 76 84 77 85 78 86 79 87
REMARK SMILES IDX 56 88 57 89 65 90 58 91 60 92 66 93 59 94 61 95 62 96 63 97
REMARK SMILES IDX 64 98
REMARK H PARENT 23 5 9 17 27 32 86 51 54 62
REMARK Flexibility Score: inf
ROOT
ATOM      1  C   UNL     1      -1.821   2.750  -2.855  1.00  0.00     0.117 C 
ENDROOT
BRANCH   1   2
ATOM      2  N   UNL     1      -2.486   1.739  -3.666  1.00  0.00    -0.356 N 
ATOM      3  C   UNL     1      -2.071   0.461  -3.976  1.00  0.00     0.224 C 
ATOM      4  O   UNL     1      -2.917  -0.309  -4.436  1.00  0.00    -0.275 OA
ATOM      5  H   UNL     1      -3.354   2.006  -4.047  1.00  0.00     0.163 HD
BRANCH   3   6
ATOM      6  C   UNL     1      -0.591   0.057  -3.794  1.00  0.00     0.095 C 
ATOM      7  C   UNL     1       1.975   0.544   0.331  1.00  0.00     0.039 C 
ATOM      8  C   UNL     1       0.767  -0.390  -1.197  1.00  0.00    -0.074 C 
ATOM      9  C   UNL     1       0.353  -1.763  -1.554  1.00  0.00    -0.074 C 
ATOM     10  C   UNL     1      -0.121   0.426  -2.382  1.00  0.00     0.045 C 
ATOM     11  C   UNL     1       0.539  -3.174  -0.899  1.00  0.00     0.039 C 
ATOM     12  C   UNL     1      -0.371  -2.194  -2.873  1.00  0.00     0.045 C 
ATOM     13  C   UNL     1      -0.282  -1.373  -4.131  1.00  0.00     0.095 C 
BRANCH  13  14
ATOM     14  C   UNL     1       0.903  -1.477  -5.109  1.00  0.00     0.224 C 
ATOM     15  O   UNL     1       0.689  -1.252  -6.311  1.00  0.00    -0.275 OA
ATOM     16  N   UNL     1       2.203  -1.712  -4.806  1.00  0.00    -0.353 N 
ATOM     17  H   UNL     1       2.823  -1.491  -5.538  1.00  0.00     0.163 HD
BRANCH  16  18
ATOM     18  C   UNL     1       2.864  -2.224  -3.619  1.00  0.00     0.079 C 
ATOM     19  C   UNL     1       3.225  -3.696  -3.802  1.00  0.00     0.031 C 
BRANCH  18  20
ATOM     20  C   UNL     1       4.103  -1.415  -3.201  1.00  0.00     0.029 C 
BRANCH  20  21
ATOM     21  C   UNL     1       3.792  -0.020  -2.666  1.00  0.00     0.037 C 
BRANCH  21  22
ATOM     22  C   UNL     1       2.847   0.049  -1.496  1.00  0.00    -0.048 A 
ATOM     23  C   UNL     1       1.857   1.566  -1.426  1.00  0.00     0.004 A 
ATOM     24  C   UNL     1       2.504  -1.295  -0.318  1.00  0.00     0.004 A 
ATOM     25  C   UNL     1       0.395   1.667  -0.357  1.00  0.00     0.000 A 
ATOM     26  C   UNL     1       1.027  -1.171   0.802  1.00  0.00     0.000 A 
ATOM     27  C   UNL     1      -0.044   0.282   0.718  1.00  0.00     0.000 A 
ENDBRANCH  21  22
ENDBRANCH  20  21
ENDBRANCH  18  20
ENDBRANCH  16  18
ENDBRANCH  13  14
ENDBRANCH   3   6
ENDBRANCH   1   2
BRANCH   1  28
ATOM     28  C   UNL     1      -1.991   4.184  -3.269  1.00  0.00     0.042 C 
BRANCH  28  29
ATOM     29  C   UNL     1      -3.411   4.671  -3.170  1.00  0.00     0.118 C 
BRANCH  29  30
ATOM     30  N   UNL     1      -3.899   4.745  -1.795  1.00  0.00    -0.352 N 
ATOM     31  C   UNL     1      -4.209   5.844  -1.026  1.00  0.00     0.251 C 
ATOM     32  H   UNL     1      -4.025   3.876  -1.350  1.00  0.00     0.163 HD
ATOM     33  O   UNL     1      -4.468   5.705   0.166  1.00  0.00    -0.269 OA
BRANCH  31  34
ATOM     34  C   UNL     1      -4.179   7.194  -1.630  1.00  0.00     0.039 A 
ATOM     35  C   UNL     1      -3.579   8.240  -0.928  1.00  0.00     0.014 A 
ATOM     36  C   UNL     1      -4.669   7.407  -2.919  1.00  0.00     0.014 A 
ATOM     37  C   UNL     1      -3.364   9.461  -1.569  1.00  0.00     0.010 A 
ATOM     38  C   UNL     1      -4.327   8.567  -3.599  1.00  0.00     0.010 A 
ATOM     39  C   UNL     1      -3.667   9.607  -2.933  1.00  0.00    -0.014 A 
BRANCH  39  40
ATOM     40  C   UNL     1      -3.267  10.820  -3.691  1.00  0.00     0.031 A 
ATOM     41  C   UNL     1      -4.303  11.649  -4.398  1.00  0.00     0.074 A 
ATOM     42  C   UNL     1      -1.957  11.117  -3.820  1.00  0.00     0.049 A 
ATOM     43  N   UNL     1      -4.134  12.698  -5.160  1.00  0.00    -0.248 NA
ATOM     44  C   UNL     1      -5.710  11.238  -4.251  1.00  0.00     0.031 C 
ATOM     45  C   UNL     1      -0.852  10.343  -3.248  1.00  0.00     0.029 A 
ATOM     46  N   UNL     1      -1.329  12.133  -4.497  1.00  0.00    -0.354 N 
ATOM     47  C   UNL     1      -5.401  13.048  -5.610  1.00  0.00     0.074 A 
ATOM     48  C   UNL     1      -6.328  12.085  -5.061  1.00  0.00     0.031 C 
ATOM     49  C   UNL     1       0.312  10.916  -3.588  1.00  0.00     0.029 A 
ATOM     50  C   UNL     1       0.044  12.062  -4.449  1.00  0.00     0.049 A 
ATOM     51  H   UNL     1      -1.816  12.845  -4.972  1.00  0.00     0.167 HD
ATOM     52  C   UNL     1      -5.761  14.089  -6.395  1.00  0.00     0.034 A 
ATOM     53  C   UNL     1       0.985  12.812  -5.056  1.00  0.00     0.034 A 
ATOM     54  C   UNL     1      -4.838  15.056  -6.923  1.00  0.00     0.049 A 
ATOM     55  C   UNL     1       0.551  13.961  -5.925  1.00  0.00     0.074 A 
ATOM     56  C   UNL     1      -5.118  16.197  -7.653  1.00  0.00     0.029 A 
ATOM     57  N   UNL     1      -3.459  14.982  -6.809  1.00  0.00    -0.354 N 
ATOM     58  N   UNL     1      -0.661  14.375  -6.200  1.00  0.00    -0.248 NA
ATOM     59  C   UNL     1       1.615  14.762  -6.548  1.00  0.00     0.031 C 
ATOM     60  C   UNL     1      -3.907  16.780  -8.033  1.00  0.00     0.029 A 
ATOM     61  C   UNL     1      -2.873  16.037  -7.486  1.00  0.00     0.049 A 
ATOM     62  H   UNL     1      -2.969  14.284  -6.318  1.00  0.00     0.167 HD
ATOM     63  C   UNL     1      -0.506  15.498  -7.005  1.00  0.00     0.074 A 
ATOM     64  C   UNL     1       0.918  15.719  -7.144  1.00  0.00     0.031 C 
ATOM     65  C   UNL     1      -1.456  16.267  -7.590  1.00  0.00     0.034 A 
BRANCH  52  66
ATOM     66  C   UNL     1      -7.220  14.255  -6.726  1.00  0.00     0.023 A 
ATOM     67  C   UNL     1      -8.130  14.659  -5.727  1.00  0.00     0.012 A 
ATOM     68  C   UNL     1      -7.672  14.096  -8.050  1.00  0.00     0.148 A 
ATOM     69  C   UNL     1      -9.472  14.877  -6.037  1.00  0.00     0.002 A 
ATOM     70  C   UNL     1      -8.998  14.365  -8.361  1.00  0.00     0.091 A 
ATOM     71  F   UNL     1      -6.794  13.693  -8.980  1.00  0.00    -0.205 F 
ATOM     72  C   UNL     1      -9.902  14.744  -7.355  1.00  0.00     0.022 A 
BRANCH  70  73
ATOM     73  S   UNL     1      -9.632  14.305 -10.040  1.00  0.00     0.127 S 
ATOM     74  O   UNL     1     -10.587  13.201  -9.954  1.00  0.00    -0.237 OA
ATOM     75  O   UNL     1     -10.239  15.628 -10.183  1.00  0.00    -0.237 OA
ATOM     76  O   UNL     1      -8.482  14.062 -10.899  1.00  0.00    -0.744 OA
ENDBRANCH  70  73
ENDBRANCH  52  66
BRANCH  53  77
ATOM     77  C   UNL     1       2.431  12.502  -4.870  1.00  0.00     0.023 A 
ATOM     78  C   UNL     1       3.266  13.417  -4.198  1.00  0.00     0.012 A 
ATOM     79  C   UNL     1       2.985  11.306  -5.367  1.00  0.00     0.148 A 
ATOM     80  C   UNL     1       4.633  13.168  -4.067  1.00  0.00     0.002 A 
ATOM     81  C   UNL     1       4.333  11.034  -5.177  1.00  0.00     0.091 A 
ATOM     82  F   UNL     1       2.176  10.452  -6.010  1.00  0.00    -0.205 F 
ATOM     83  C   UNL     1       5.165  11.974  -4.549  1.00  0.00     0.022 A 
BRANCH  81  84
ATOM     84  S   UNL     1       5.074   9.467  -5.646  1.00  0.00     0.127 S 
ATOM     85  O   UNL     1       5.960   9.870  -6.734  1.00  0.00    -0.237 OA
ATOM     86  O   UNL     1       5.751   9.075  -4.410  1.00  0.00    -0.237 OA
ATOM     87  O   UNL     1       3.964   8.602  -6.022  1.00  0.00    -0.744 OA
ENDBRANCH  81  84
ENDBRANCH  53  77
BRANCH  65  88
ATOM     88  C   UNL     1      -0.995  17.442  -8.413  1.00  0.00     0.023 A 
ATOM     89  C   UNL     1      -0.354  17.230  -9.650  1.00  0.00     0.012 A 
ATOM     90  C   UNL     1      -1.263  18.759  -7.989  1.00  0.00     0.148 A 
ATOM     91  C   UNL     1       0.049  18.311 -10.433  1.00  0.00     0.002 A 
ATOM     92  C   UNL     1      -0.910  19.829  -8.801  1.00  0.00     0.091 A 
ATOM     93  F   UNL     1      -1.865  18.939  -6.805  1.00  0.00    -0.205 F 
ATOM     94  C   UNL     1      -0.240  19.608 -10.015  1.00  0.00     0.022 A 
BRANCH  92  95
ATOM     95  S   UNL     1      -1.322  21.529  -8.394  1.00  0.00     0.127 S 
ATOM     96  O   UNL     1       0.003  22.114  -8.188  1.00  0.00    -0.237 OA
ATOM     97  O   UNL     1      -2.006  21.978  -9.607  1.00  0.00    -0.237 OA
ATOM     98  O   UNL     1      -2.163  21.471  -7.207  1.00  0.00    -0.744 OA
ENDBRANCH  92  95
ENDBRANCH  65  88
ENDBRANCH  39  40
ENDBRANCH  31  34
ENDBRANCH  29  30
ENDBRANCH  28  29
ENDBRANCH   1  28
TORSDOF 18
