REMARK SMILES O=C(NCCCNC(=O)[C@H](F)Sc1cc2ccccc2[nH]1)c1ccc(-c2c3nc(c(-c4cccc(S(=O)(=O)[O-])c4F)c4ccc([nH]4)c(-c4cccc(S(=O)(=O)[O-])c4F)c4nc(c(-c5cccc(S(=O)(=O)[O-])c5F)c5ccc2[nH]5)C=C4)C=C3)cc1
REMARK SMILES IDX 4 1 3 2 1 3 2 4 22 6 23 7 84 8 24 9 83 10 25 11 26 12 27 13
REMARK SMILES IDX 77 14 28 15 82 16 76 17 78 18 29 19 81 20 75 21 74 22 30 24
REMARK SMILES IDX 62 25 42 26 61 27 43 28 46 29 60 30 79 31 44 32 45 33 59 35
REMARK SMILES IDX 80 36 47 37 31 38 32 39 40 40 33 41 35 42 41 43 34 44 36 45
REMARK SMILES IDX 37 46 38 47 39 48 63 49 64 50 72 51 65 52 67 53 73 54 66 55
REMARK SMILES IDX 68 56 69 57 70 58 71 59 48 60 49 61 57 62 50 63 52 64 58 65
REMARK SMILES IDX 51 66 53 67 54 68 55 69 56 70 5 71 6 72 7 73 8 74 9 76 10 77
REMARK SMILES IDX 11 78 12 79 13 80 14 81 21 82 15 83 20 84 16 86 19 87 17 88
REMARK SMILES IDX 18 89
REMARK H PARENT 3 5 78 23 46 34 7 75 21 85
REMARK Flexibility Score: inf
ROOT
ATOM      1  C   UNL     1       5.294  -3.470   2.578  1.00  0.00     0.118 C 
ENDROOT
BRANCH   1   2
ATOM      2  N   UNL     1       4.980  -2.061   2.800  1.00  0.00    -0.352 N 
ATOM      3  O   UNL     1       3.821  -0.204   3.241  1.00  0.00    -0.269 OA
ATOM      4  C   UNL     1       3.929  -1.420   3.417  1.00  0.00     0.251 C 
ATOM      5  H   UNL     1       5.655  -1.445   2.434  1.00  0.00     0.163 HD
BRANCH   4   6
ATOM      6  C   UNL     1       2.924  -2.125   4.258  1.00  0.00     0.039 A 
ATOM      7  C   UNL     1       3.220  -3.291   4.955  1.00  0.00     0.014 A 
ATOM      8  C   UNL     1       1.649  -1.560   4.418  1.00  0.00     0.014 A 
ATOM      9  C   UNL     1       2.217  -3.997   5.613  1.00  0.00     0.010 A 
ATOM     10  C   UNL     1       0.673  -2.201   5.198  1.00  0.00     0.010 A 
ATOM     11  C   UNL     1       0.933  -3.455   5.763  1.00  0.00    -0.014 A 
BRANCH  11  12
ATOM     12  C   UNL     1      -0.063  -4.195   6.588  1.00  0.00     0.031 A 
ATOM     13  C   UNL     1      -1.359  -4.697   6.008  1.00  0.00     0.074 A 
ATOM     14  C   UNL     1       0.237  -4.458   7.877  1.00  0.00     0.049 A 
ATOM     15  N   UNL     1      -2.263  -5.472   6.551  1.00  0.00    -0.248 NA
ATOM     16  C   UNL     1      -1.690  -4.273   4.642  1.00  0.00     0.031 C 
ATOM     17  C   UNL     1       1.437  -3.986   8.573  1.00  0.00     0.029 A 
ATOM     18  N   UNL     1      -0.425  -5.196   8.824  1.00  0.00    -0.354 N 
ATOM     19  C   UNL     1      -3.278  -5.601   5.609  1.00  0.00     0.074 A 
ATOM     20  C   UNL     1      -2.884  -4.820   4.458  1.00  0.00     0.031 C 
ATOM     21  C   UNL     1       1.452  -4.486   9.816  1.00  0.00     0.029 A 
ATOM     22  C   UNL     1       0.237  -5.262  10.028  1.00  0.00     0.049 A 
ATOM     23  H   UNL     1      -1.290  -5.635   8.658  1.00  0.00     0.167 HD
ATOM     24  C   UNL     1      -4.431  -6.308   5.690  1.00  0.00     0.034 A 
ATOM     25  C   UNL     1      -0.098  -5.871  11.181  1.00  0.00     0.034 A 
ATOM     26  C   UNL     1      -4.819  -7.084   6.838  1.00  0.00     0.049 A 
ATOM     27  C   UNL     1      -1.373  -6.660  11.237  1.00  0.00     0.074 A 
ATOM     28  C   UNL     1      -5.941  -7.878   7.002  1.00  0.00     0.029 A 
ATOM     29  N   UNL     1      -4.110  -7.144   8.028  1.00  0.00    -0.354 N 
ATOM     30  N   UNL     1      -2.247  -6.886  10.286  1.00  0.00    -0.248 NA
ATOM     31  C   UNL     1      -1.694  -7.306  12.517  1.00  0.00     0.031 C 
ATOM     32  C   UNL     1      -5.929  -8.386   8.306  1.00  0.00     0.029 A 
ATOM     33  C   UNL     1      -4.777  -7.946   8.938  1.00  0.00     0.049 A 
ATOM     34  H   UNL     1      -3.258  -6.683   8.201  1.00  0.00     0.167 HD
ATOM     35  C   UNL     1      -3.201  -7.729  10.840  1.00  0.00     0.074 A 
ATOM     36  C   UNL     1      -2.785  -7.991  12.203  1.00  0.00     0.031 C 
ATOM     37  C   UNL     1      -4.325  -8.235  10.275  1.00  0.00     0.034 A 
BRANCH  24  38
ATOM     38  C   UNL     1      -5.361  -6.283   4.501  1.00  0.00     0.023 A 
ATOM     39  C   UNL     1      -5.012  -6.972   3.321  1.00  0.00     0.012 A 
ATOM     40  C   UNL     1      -6.606  -5.628   4.574  1.00  0.00     0.148 A 
ATOM     41  C   UNL     1      -5.873  -6.981   2.223  1.00  0.00     0.002 A 
ATOM     42  C   UNL     1      -7.477  -5.679   3.491  1.00  0.00     0.091 A 
ATOM     43  F   UNL     1      -6.912  -4.960   5.695  1.00  0.00    -0.205 F 
ATOM     44  C   UNL     1      -7.107  -6.344   2.311  1.00  0.00     0.022 A 
BRANCH  42  45
ATOM     45  S   UNL     1      -9.122  -4.957   3.538  1.00  0.00     0.127 S 
ATOM     46  O   UNL     1      -8.970  -3.821   2.628  1.00  0.00    -0.237 OA
ATOM     47  O   UNL     1      -9.950  -6.046   3.016  1.00  0.00    -0.237 OA
ATOM     48  O   UNL     1      -9.373  -4.615   4.928  1.00  0.00    -0.744 OA
ENDBRANCH  42  45
ENDBRANCH  24  38
BRANCH  25  49
ATOM     49  C   UNL     1       0.817  -5.793  12.354  1.00  0.00     0.023 A 
ATOM     50  C   UNL     1       1.487  -6.951  12.793  1.00  0.00     0.012 A 
ATOM     51  C   UNL     1       1.056  -4.570  13.009  1.00  0.00     0.148 A 
ATOM     52  C   UNL     1       2.355  -6.897  13.884  1.00  0.00     0.002 A 
ATOM     53  C   UNL     1       1.968  -4.511  14.055  1.00  0.00     0.091 A 
ATOM     54  F   UNL     1       0.399  -3.482  12.582  1.00  0.00    -0.205 F 
ATOM     55  C   UNL     1       2.605  -5.677  14.507  1.00  0.00     0.022 A 
BRANCH  53  56
ATOM     56  S   UNL     1       2.454  -2.961  14.819  1.00  0.00     0.127 S 
ATOM     57  O   UNL     1       1.832  -3.068  16.135  1.00  0.00    -0.237 OA
ATOM     58  O   UNL     1       3.913  -3.067  14.815  1.00  0.00    -0.237 OA
ATOM     59  O   UNL     1       1.928  -1.914  13.952  1.00  0.00    -0.744 OA
ENDBRANCH  53  56
ENDBRANCH  25  49
BRANCH  37  60
ATOM     60  C   UNL     1      -5.161  -9.167  11.111  1.00  0.00     0.023 A 
ATOM     61  C   UNL     1      -5.905  -8.671  12.199  1.00  0.00     0.012 A 
ATOM     62  C   UNL     1      -5.246 -10.534  10.780  1.00  0.00     0.148 A 
ATOM     63  C   UNL     1      -6.688  -9.529  12.971  1.00  0.00     0.002 A 
ATOM     64  C   UNL     1      -6.071 -11.371  11.518  1.00  0.00     0.091 A 
ATOM     65  F   UNL     1      -4.512 -10.992   9.754  1.00  0.00    -0.205 F 
ATOM     66  C   UNL     1      -6.780 -10.875  12.624  1.00  0.00     0.022 A 
BRANCH  64  67
ATOM     67  S   UNL     1      -6.327 -13.093  11.076  1.00  0.00     0.127 S 
ATOM     68  O   UNL     1      -5.540 -13.783  12.097  1.00  0.00    -0.237 OA
ATOM     69  O   UNL     1      -7.776 -13.239  11.221  1.00  0.00    -0.237 OA
ATOM     70  O   UNL     1      -5.842 -13.231   9.710  1.00  0.00    -0.744 OA
ENDBRANCH  64  67
ENDBRANCH  37  60
ENDBRANCH  11  12
ENDBRANCH   4   6
ENDBRANCH   1   2
BRANCH   1  71
ATOM     71  C   UNL     1       4.866  -3.937   1.197  1.00  0.00     0.042 C 
BRANCH  71  72
ATOM     72  C   UNL     1       5.813  -3.504   0.083  1.00  0.00     0.118 C 
BRANCH  72  73
ATOM     73  N   UNL     1       6.811  -4.529  -0.167  1.00  0.00    -0.353 N 
ATOM     74  C   UNL     1       6.813  -5.522  -1.110  1.00  0.00     0.265 C 
ATOM     75  H   UNL     1       7.598  -4.506   0.424  1.00  0.00     0.163 HD
ATOM     76  O   UNL     1       7.695  -6.385  -1.003  1.00  0.00    -0.271 OA
BRANCH  74  77
ATOM     77  C   UNL     1       5.806  -5.563  -2.270  1.00  0.00     0.319 C 
ATOM     78  F   UNL     1       5.532  -4.335  -2.794  1.00  0.00    -0.224 F 
BRANCH  77  79
ATOM     79  S   UNL     1       4.303  -6.512  -1.882  1.00  0.00    -0.061 SA
BRANCH  79  80
ATOM     80  C   UNL     1       3.118  -5.330  -1.450  1.00  0.00     0.076 A 
ATOM     81  C   UNL     1       2.902  -4.025  -1.821  1.00  0.00     0.043 A 
ATOM     82  N   UNL     1       2.168  -5.659  -0.519  1.00  0.00    -0.350 N 
ATOM     83  C   UNL     1       2.022  -3.462  -0.857  1.00  0.00     0.001 A 
ATOM     84  C   UNL     1       1.556  -4.511  -0.061  1.00  0.00     0.046 A 
ATOM     85  H   UNL     1       1.955  -6.574  -0.223  1.00  0.00     0.167 HD
ATOM     86  C   UNL     1       1.655  -2.142  -0.533  1.00  0.00     0.010 A 
ATOM     87  C   UNL     1       0.689  -4.311   1.017  1.00  0.00     0.027 A 
ATOM     88  C   UNL     1       0.844  -1.918   0.581  1.00  0.00     0.001 A 
ATOM     89  C   UNL     1       0.355  -2.988   1.325  1.00  0.00     0.002 A 
ENDBRANCH  79  80
ENDBRANCH  77  79
ENDBRANCH  74  77
ENDBRANCH  72  73
ENDBRANCH  71  72
ENDBRANCH   1  71
TORSDOF 15
