REMARK SMILES CCCC[N@H+](CC)[C@H]1CCC[C@]([NH3+])(C(=O)NCCCNC(=O)c2ccc(-c3c4nc(c(-c5cccc(S(=O)(=O)[O-])c5F)c5ccc([nH]5)c(-c5cccc(S(=O)(=O)[O-])c5F)c5nc(c(-c6cccc(S(=O)(=O)[O-])c6F)c6ccc3[nH]6)C=C5)C=C4)cc2)C1
REMARK SMILES IDX 17 1 16 2 14 3 15 4 12 6 8 7 9 8 86 9 10 10 11 11 5 12 4 14
REMARK SMILES IDX 3 15 2 16 1 17 6 18 7 19 13 20 18 24 19 25 20 26 21 27 22 29
REMARK SMILES IDX 23 30 24 31 85 32 25 33 84 34 26 35 27 36 28 37 78 38 29 39
REMARK SMILES IDX 83 40 77 41 79 42 30 43 82 44 76 45 75 46 31 48 63 49 43 50
REMARK SMILES IDX 62 51 44 52 47 53 61 54 80 55 45 56 46 57 60 59 81 60 48 61
REMARK SMILES IDX 32 62 33 63 41 64 34 65 36 66 42 67 35 68 37 69 38 70 39 71
REMARK SMILES IDX 40 72 64 73 65 74 73 75 66 76 68 77 74 78 67 79 69 80 70 81
REMARK SMILES IDX 71 82 72 83 49 84 50 85 58 86 51 87 53 88 59 89 52 90 54 91
REMARK SMILES IDX 55 92 56 93 57 94
REMARK H PARENT 16 5 5 13 13 21 13 22 13 23 20 28 79 47 47 58
REMARK Flexibility Score: inf
ROOT
ATOM      1  C   UNL     1      -4.197  -3.264  -2.836  1.00  0.00     0.118 C 
ENDROOT
BRANCH   1   2
ATOM      2  N   UNL     1      -3.564  -4.537  -3.124  1.00  0.00    -0.351 N 
ATOM      3  C   UNL     1      -3.172  -5.577  -2.341  1.00  0.00     0.281 C 
ATOM      4  O   UNL     1      -2.707  -6.548  -2.949  1.00  0.00    -0.268 OA
ATOM      5  H   UNL     1      -3.381  -4.676  -4.081  1.00  0.00     0.163 HD
BRANCH   3   6
ATOM      6  C   UNL     1      -3.392  -5.612  -0.788  1.00  0.00     0.179 C 
ATOM      7  C   UNL     1      -1.282  -4.313  -0.086  1.00  0.00     0.190 C 
ATOM      8  C   UNL     1      -0.648  -5.622   0.431  1.00  0.00     0.065 C 
ATOM      9  C   UNL     1      -2.826  -4.404  -0.021  1.00  0.00     0.144 C 
ATOM     10  C   UNL     1      -1.230  -6.867  -0.234  1.00  0.00     0.013 C 
ATOM     11  C   UNL     1      -2.758  -6.893  -0.197  1.00  0.00     0.079 C 
BRANCH   7  12
ATOM     12  N   UNL     1      -0.777  -3.067   0.533  1.00  0.00    -0.333 N 
ATOM     13  H   UNL     1      -1.234  -2.413  -0.102  1.00  0.00     0.348 HD
BRANCH  12  14
ATOM     14  C   UNL     1       0.669  -2.834   0.412  1.00  0.00     0.262 C 
BRANCH  14  15
ATOM     15  C   UNL     1       1.060  -2.235  -0.946  1.00  0.00     0.061 C 
BRANCH  15  16
ATOM     16  C   UNL     1       0.507  -0.829  -1.211  1.00  0.00     0.002 C 
ATOM     17  C   UNL     1       1.013   0.219  -0.229  1.00  0.00     0.004 C 
ENDBRANCH  15  16
ENDBRANCH  14  15
ENDBRANCH  12  14
BRANCH  12  18
ATOM     18  C   UNL     1      -1.311  -2.650   1.833  1.00  0.00     0.258 C 
ATOM     19  C   UNL     1      -0.980  -3.534   3.026  1.00  0.00     0.071 C 
ENDBRANCH  12  18
ENDBRANCH   7  12
BRANCH   6  20
ATOM     20  N   UNL     1      -4.856  -5.732  -0.542  1.00  0.00    -0.345 N 
ATOM     21  H   UNL     1      -5.031  -5.757   0.462  1.00  0.00     0.345 HD
ATOM     22  H   UNL     1      -5.203  -6.590  -0.970  1.00  0.00     0.345 HD
ATOM     23  H   UNL     1      -5.336  -4.930  -0.951  1.00  0.00     0.345 HD
ENDBRANCH   6  20
ENDBRANCH   3   6
ENDBRANCH   1   2
BRANCH   1  24
ATOM     24  C   UNL     1      -3.218  -2.097  -2.906  1.00  0.00     0.042 C 
BRANCH  24  25
ATOM     25  C   UNL     1      -2.586  -1.885  -4.279  1.00  0.00     0.118 C 
BRANCH  25  26
ATOM     26  N   UNL     1      -3.575  -1.620  -5.315  1.00  0.00    -0.352 N 
ATOM     27  C   UNL     1      -3.759  -0.520  -6.114  1.00  0.00     0.251 C 
ATOM     28  H   UNL     1      -4.218  -2.350  -5.466  1.00  0.00     0.163 HD
ATOM     29  O   UNL     1      -4.794  -0.433  -6.771  1.00  0.00    -0.269 OA
BRANCH  27  30
ATOM     30  C   UNL     1      -2.741   0.552  -6.197  1.00  0.00     0.039 A 
ATOM     31  C   UNL     1      -3.174   1.876  -6.322  1.00  0.00     0.014 A 
ATOM     32  C   UNL     1      -1.373   0.265  -6.224  1.00  0.00     0.014 A 
ATOM     33  C   UNL     1      -2.239   2.908  -6.438  1.00  0.00     0.010 A 
ATOM     34  C   UNL     1      -0.441   1.302  -6.259  1.00  0.00     0.010 A 
ATOM     35  C   UNL     1      -0.863   2.632  -6.389  1.00  0.00    -0.014 A 
BRANCH  35  36
ATOM     36  C   UNL     1       0.137   3.728  -6.486  1.00  0.00     0.031 A 
ATOM     37  C   UNL     1       1.091   3.793  -7.649  1.00  0.00     0.074 A 
ATOM     38  C   UNL     1       0.222   4.637  -5.495  1.00  0.00     0.049 A 
ATOM     39  N   UNL     1       2.018   4.681  -7.905  1.00  0.00    -0.248 NA
ATOM     40  C   UNL     1       1.014   2.709  -8.642  1.00  0.00     0.031 C 
ATOM     41  C   UNL     1      -0.582   4.632  -4.271  1.00  0.00     0.029 A 
ATOM     42  N   UNL     1       1.037   5.732  -5.352  1.00  0.00    -0.354 N 
ATOM     43  C   UNL     1       2.653   4.248  -9.064  1.00  0.00     0.074 A 
ATOM     44  C   UNL     1       2.032   2.997  -9.441  1.00  0.00     0.031 C 
ATOM     45  C   UNL     1      -0.230   5.679  -3.509  1.00  0.00     0.029 A 
ATOM     46  C   UNL     1       0.835   6.420  -4.178  1.00  0.00     0.049 A 
ATOM     47  H   UNL     1       1.703   6.000  -6.025  1.00  0.00     0.167 HD
ATOM     48  C   UNL     1       3.640   4.850  -9.770  1.00  0.00     0.034 A 
ATOM     49  C   UNL     1       1.433   7.528  -3.699  1.00  0.00     0.034 A 
ATOM     50  C   UNL     1       4.224   6.117  -9.420  1.00  0.00     0.049 A 
ATOM     51  C   UNL     1       2.476   8.216  -4.539  1.00  0.00     0.074 A 
ATOM     52  C   UNL     1       5.167   6.854 -10.115  1.00  0.00     0.029 A 
ATOM     53  N   UNL     1       3.923   6.836  -8.273  1.00  0.00    -0.354 N 
ATOM     54  N   UNL     1       2.941   7.880  -5.717  1.00  0.00    -0.248 NA
ATOM     55  C   UNL     1       3.041   9.462  -4.003  1.00  0.00     0.031 C 
ATOM     56  C   UNL     1       5.447   8.012  -9.381  1.00  0.00     0.029 A 
ATOM     57  C   UNL     1       4.662   8.007  -8.239  1.00  0.00     0.049 A 
ATOM     58  H   UNL     1       3.278   6.556  -7.585  1.00  0.00     0.167 HD
ATOM     59  C   UNL     1       3.827   8.889  -6.079  1.00  0.00     0.074 A 
ATOM     60  C   UNL     1       3.810   9.862  -5.006  1.00  0.00     0.031 C 
ATOM     61  C   UNL     1       4.598   8.992  -7.190  1.00  0.00     0.034 A 
BRANCH  48  62
ATOM     62  C   UNL     1       4.108   4.173 -11.034  1.00  0.00     0.023 A 
ATOM     63  C   UNL     1       3.263   4.151 -12.162  1.00  0.00     0.012 A 
ATOM     64  C   UNL     1       5.396   3.609 -11.126  1.00  0.00     0.148 A 
ATOM     65  C   UNL     1       3.675   3.547 -13.350  1.00  0.00     0.002 A 
ATOM     66  C   UNL     1       5.816   3.048 -12.327  1.00  0.00     0.091 A 
ATOM     67  F   UNL     1       6.179   3.619 -10.038  1.00  0.00    -0.205 F 
ATOM     68  C   UNL     1       4.954   3.006 -13.435  1.00  0.00     0.022 A 
BRANCH  66  69
ATOM     69  S   UNL     1       7.473   2.394 -12.564  1.00  0.00     0.127 S 
ATOM     70  O   UNL     1       7.218   0.955 -12.613  1.00  0.00    -0.237 OA
ATOM     71  O   UNL     1       7.859   2.988 -13.845  1.00  0.00    -0.237 OA
ATOM     72  O   UNL     1       8.252   2.854 -11.423  1.00  0.00    -0.744 OA
ENDBRANCH  66  69
ENDBRANCH  48  62
BRANCH  49  73
ATOM     73  C   UNL     1       0.995   8.105  -2.397  1.00  0.00     0.023 A 
ATOM     74  C   UNL     1       0.278   9.318  -2.386  1.00  0.00     0.012 A 
ATOM     75  C   UNL     1       1.255   7.450  -1.179  1.00  0.00     0.148 A 
ATOM     76  C   UNL     1      -0.140   9.887  -1.183  1.00  0.00     0.002 A 
ATOM     77  C   UNL     1       0.787   7.994   0.012  1.00  0.00     0.091 A 
ATOM     78  F   UNL     1       1.948   6.303  -1.209  1.00  0.00    -0.205 F 
ATOM     79  C   UNL     1       0.104   9.220   0.014  1.00  0.00     0.022 A 
BRANCH  77  80
ATOM     80  S   UNL     1       0.940   7.140   1.585  1.00  0.00     0.127 S 
ATOM     81  O   UNL     1       1.963   7.933   2.259  1.00  0.00    -0.237 OA
ATOM     82  O   UNL     1      -0.408   7.274   2.136  1.00  0.00    -0.237 OA
ATOM     83  O   UNL     1       1.315   5.771   1.251  1.00  0.00    -0.744 OA
ENDBRANCH  77  80
ENDBRANCH  49  73
BRANCH  61  84
ATOM     84  C   UNL     1       5.467  10.216  -7.319  1.00  0.00     0.023 A 
ATOM     85  C   UNL     1       6.599  10.362  -6.492  1.00  0.00     0.012 A 
ATOM     86  C   UNL     1       5.192  11.198  -8.291  1.00  0.00     0.148 A 
ATOM     87  C   UNL     1       7.417  11.486  -6.600  1.00  0.00     0.002 A 
ATOM     88  C   UNL     1       6.040  12.291  -8.427  1.00  0.00     0.091 A 
ATOM     89  F   UNL     1       4.100  11.056  -9.056  1.00  0.00    -0.205 F 
ATOM     90  C   UNL     1       7.145  12.444  -7.573  1.00  0.00     0.022 A 
BRANCH  88  91
ATOM     91  S   UNL     1       5.813  13.519  -9.718  1.00  0.00     0.127 S 
ATOM     92  O   UNL     1       5.185  14.614  -8.982  1.00  0.00    -0.237 OA
ATOM     93  O   UNL     1       7.188  13.783 -10.147  1.00  0.00    -0.237 OA
ATOM     94  O   UNL     1       4.983  12.879 -10.730  1.00  0.00    -0.744 OA
ENDBRANCH  88  91
ENDBRANCH  61  84
ENDBRANCH  35  36
ENDBRANCH  27  30
ENDBRANCH  25  26
ENDBRANCH  24  25
ENDBRANCH   1  24
TORSDOF 19
