REMARK SMILES CCC[C@H]1CC[C@H](C(=O)NCCCNC(=O)c2ccc(-c3c4nc(c(-c5cccc(S(=O)(=O)[O-])c5F)c5ccc([nH]5)c(-c5cccc(S(=O)(=O)[O-])c5F)c5nc(c(-c6cccc(S(=O)(=O)[O-])c6F)c6ccc3[nH]6)C=C5)C=C4)cc2)[C@H](Sc2ccncc2)C1
REMARK SMILES IDX 12 1 11 2 10 3 8 4 9 5 7 7 4 8 5 9 88 10 6 11 80 12 3 13
REMARK SMILES IDX 2 14 1 15 81 16 82 17 83 18 87 19 84 20 86 21 85 22 13 23
REMARK SMILES IDX 14 24 15 25 16 27 17 28 18 29 79 30 19 31 78 32 20 33 21 34
REMARK SMILES IDX 22 35 72 36 23 37 77 38 71 39 73 40 24 41 76 42 70 43 69 44
REMARK SMILES IDX 25 46 57 47 37 48 56 49 38 50 41 51 55 52 74 53 39 54 40 55
REMARK SMILES IDX 54 57 75 58 42 59 26 60 27 61 35 62 28 63 30 64 36 65 29 66
REMARK SMILES IDX 31 67 32 68 33 69 34 70 58 71 59 72 67 73 60 74 62 75 68 76
REMARK SMILES IDX 61 77 63 78 64 79 65 80 66 81 43 82 44 83 52 84 45 85 47 86
REMARK SMILES IDX 53 87 46 88 48 89 49 90 50 91 51 92
REMARK H PARENT 10 6 14 26 73 45 41 56
REMARK Flexibility Score: inf
ROOT
ATOM      1  C   UNL     1       3.593  -1.625  -1.133  1.00  0.00     0.042 C 
ENDROOT
BRANCH   1   2
ATOM      2  C   UNL     1       3.416  -2.918  -1.906  1.00  0.00     0.117 C 
BRANCH   2   3
ATOM      3  N   UNL     1       3.501  -4.070  -1.042  1.00  0.00    -0.356 N 
ATOM      4  C   UNL     1       2.591  -4.990  -0.656  1.00  0.00     0.224 C 
ATOM      5  O   UNL     1       3.023  -5.887   0.083  1.00  0.00    -0.275 OA
ATOM      6  H   UNL     1       4.396  -4.212  -0.658  1.00  0.00     0.163 HD
BRANCH   4   7
ATOM      7  C   UNL     1       1.098  -4.979  -0.992  1.00  0.00     0.092 C 
ATOM      8  C   UNL     1      -0.266  -2.420  -1.942  1.00  0.00    -0.010 C 
ATOM      9  C   UNL     1       0.304  -2.604  -0.538  1.00  0.00     0.004 C 
ATOM     10  C   UNL     1       0.131  -3.515  -2.971  1.00  0.00     0.019 C 
ATOM     11  C   UNL     1       0.358  -4.036  -0.039  1.00  0.00     0.015 C 
ATOM     12  C   UNL     1       0.512  -4.898  -2.410  1.00  0.00     0.064 C 
BRANCH   8  13
ATOM     13  C   UNL     1      -1.770  -2.052  -1.955  1.00  0.00     0.003 C 
BRANCH  13  14
ATOM     14  C   UNL     1      -2.733  -2.806  -1.031  1.00  0.00    -0.003 C 
ATOM     15  C   UNL     1      -2.767  -2.301   0.411  1.00  0.00     0.004 C 
ENDBRANCH  13  14
ENDBRANCH   8  13
BRANCH  12  16
ATOM     16  S   UNL     1       1.123  -6.054  -3.743  1.00  0.00    -0.122 SA
BRANCH  16  17
ATOM     17  C   UNL     1       2.898  -5.928  -3.753  1.00  0.00     0.011 A 
ATOM     18  C   UNL     1       3.663  -6.699  -2.879  1.00  0.00     0.035 A 
ATOM     19  C   UNL     1       3.558  -5.166  -4.715  1.00  0.00     0.035 A 
ATOM     20  C   UNL     1       5.042  -6.576  -2.913  1.00  0.00     0.112 A 
ATOM     21  C   UNL     1       4.946  -5.140  -4.701  1.00  0.00     0.112 A 
ATOM     22  N   UNL     1       5.701  -5.805  -3.802  1.00  0.00    -0.265 NA
ENDBRANCH  16  17
ENDBRANCH  12  16
ENDBRANCH   4   7
ENDBRANCH   2   3
ENDBRANCH   1   2
BRANCH   1  23
ATOM     23  C   UNL     1       5.042  -1.224  -1.008  1.00  0.00     0.118 C 
BRANCH  23  24
ATOM     24  N   UNL     1       5.572  -0.721  -2.266  1.00  0.00    -0.352 N 
ATOM     25  C   UNL     1       6.035   0.534  -2.576  1.00  0.00     0.251 C 
ATOM     26  H   UNL     1       5.604  -1.375  -3.001  1.00  0.00     0.163 HD
ATOM     27  O   UNL     1       6.209   0.837  -3.752  1.00  0.00    -0.269 OA
BRANCH  25  28
ATOM     28  C   UNL     1       6.314   1.511  -1.498  1.00  0.00     0.039 A 
ATOM     29  C   UNL     1       6.117   2.871  -1.740  1.00  0.00     0.014 A 
ATOM     30  C   UNL     1       6.795   1.091  -0.256  1.00  0.00     0.014 A 
ATOM     31  C   UNL     1       6.393   3.796  -0.732  1.00  0.00     0.010 A 
ATOM     32  C   UNL     1       6.910   1.992   0.790  1.00  0.00     0.010 A 
ATOM     33  C   UNL     1       6.783   3.361   0.546  1.00  0.00    -0.014 A 
BRANCH  33  34
ATOM     34  C   UNL     1       7.164   4.322   1.608  1.00  0.00     0.031 A 
ATOM     35  C   UNL     1       8.556   4.279   2.191  1.00  0.00     0.074 A 
ATOM     36  C   UNL     1       6.254   5.198   2.075  1.00  0.00     0.049 A 
ATOM     37  N   UNL     1       9.088   5.039   3.113  1.00  0.00    -0.248 NA
ATOM     38  C   UNL     1       9.461   3.219   1.709  1.00  0.00     0.031 C 
ATOM     39  C   UNL     1       4.849   5.263   1.662  1.00  0.00     0.029 A 
ATOM     40  N   UNL     1       6.373   6.198   3.003  1.00  0.00    -0.354 N 
ATOM     41  C   UNL     1      10.358   4.523   3.345  1.00  0.00     0.074 A 
ATOM     42  C   UNL     1      10.499   3.348   2.519  1.00  0.00     0.031 C 
ATOM     43  C   UNL     1       4.247   6.273   2.310  1.00  0.00     0.029 A 
ATOM     44  C   UNL     1       5.213   6.910   3.198  1.00  0.00     0.049 A 
ATOM     45  H   UNL     1       7.210   6.388   3.486  1.00  0.00     0.167 HD
ATOM     46  C   UNL     1      11.344   5.009   4.135  1.00  0.00     0.034 A 
ATOM     47  C   UNL     1       4.967   7.969   3.993  1.00  0.00     0.034 A 
ATOM     48  C   UNL     1      11.217   6.216   4.901  1.00  0.00     0.049 A 
ATOM     49  C   UNL     1       6.103   8.546   4.793  1.00  0.00     0.074 A 
ATOM     50  C   UNL     1      12.173   6.855   5.669  1.00  0.00     0.029 A 
ATOM     51  N   UNL     1      10.058   6.971   4.991  1.00  0.00    -0.354 N 
ATOM     52  N   UNL     1       7.346   8.136   4.879  1.00  0.00    -0.248 NA
ATOM     53  C   UNL     1       5.816   9.762   5.565  1.00  0.00     0.031 C 
ATOM     54  C   UNL     1      11.583   7.987   6.241  1.00  0.00     0.029 A 
ATOM     55  C   UNL     1      10.272   8.071   5.799  1.00  0.00     0.049 A 
ATOM     56  H   UNL     1       9.207   6.754   4.545  1.00  0.00     0.167 HD
ATOM     57  C   UNL     1       8.000   9.066   5.677  1.00  0.00     0.074 A 
ATOM     58  C   UNL     1       7.019  10.072   6.030  1.00  0.00     0.031 C 
ATOM     59  C   UNL     1       9.292   9.085   6.091  1.00  0.00     0.034 A 
BRANCH  46  60
ATOM     60  C   UNL     1      12.655   4.265   4.159  1.00  0.00     0.023 A 
ATOM     61  C   UNL     1      13.477   4.255   3.011  1.00  0.00     0.012 A 
ATOM     62  C   UNL     1      13.092   3.605   5.323  1.00  0.00     0.148 A 
ATOM     63  C   UNL     1      14.688   3.565   3.007  1.00  0.00     0.002 A 
ATOM     64  C   UNL     1      14.326   2.963   5.328  1.00  0.00     0.091 A 
ATOM     65  F   UNL     1      12.290   3.603   6.397  1.00  0.00    -0.205 F 
ATOM     66  C   UNL     1      15.117   2.929   4.168  1.00  0.00     0.022 A 
BRANCH  64  67
ATOM     67  S   UNL     1      15.009   2.187   6.797  1.00  0.00     0.127 S 
ATOM     68  O   UNL     1      14.950   0.771   6.437  1.00  0.00    -0.237 OA
ATOM     69  O   UNL     1      16.359   2.749   6.840  1.00  0.00    -0.237 OA
ATOM     70  O   UNL     1      14.148   2.587   7.901  1.00  0.00    -0.744 OA
ENDBRANCH  64  67
ENDBRANCH  46  60
BRANCH  47  71
ATOM     71  C   UNL     1       3.619   8.605   3.992  1.00  0.00     0.023 A 
ATOM     72  C   UNL     1       3.453   9.880   3.418  1.00  0.00     0.012 A 
ATOM     73  C   UNL     1       2.498   7.942   4.528  1.00  0.00     0.148 A 
ATOM     74  C   UNL     1       2.203  10.502   3.413  1.00  0.00     0.002 A 
ATOM     75  C   UNL     1       1.246   8.542   4.469  1.00  0.00     0.091 A 
ATOM     76  F   UNL     1       2.678   6.731   5.073  1.00  0.00    -0.205 F 
ATOM     77  C   UNL     1       1.099   9.830   3.930  1.00  0.00     0.022 A 
BRANCH  75  78
ATOM     78  S   UNL     1      -0.251   7.696   4.986  1.00  0.00     0.127 S 
ATOM     79  O   UNL     1      -0.601   8.424   6.203  1.00  0.00    -0.237 OA
ATOM     80  O   UNL     1      -1.140   7.932   3.848  1.00  0.00    -0.237 OA
ATOM     81  O   UNL     1       0.129   6.302   5.169  1.00  0.00    -0.744 OA
ENDBRANCH  75  78
ENDBRANCH  47  71
BRANCH  59  82
ATOM     82  C   UNL     1       9.733  10.257   6.927  1.00  0.00     0.023 A 
ATOM     83  C   UNL     1       9.275  10.393   8.252  1.00  0.00     0.012 A 
ATOM     84  C   UNL     1      10.646  11.195   6.408  1.00  0.00     0.148 A 
ATOM     85  C   UNL     1       9.683  11.474   9.032  1.00  0.00     0.002 A 
ATOM     86  C   UNL     1      11.091  12.238   7.210  1.00  0.00     0.091 A 
ATOM     87  F   UNL     1      11.056  11.059   5.139  1.00  0.00    -0.205 F 
ATOM     88  C   UNL     1      10.598  12.389   8.516  1.00  0.00     0.022 A 
BRANCH  86  89
ATOM     89  S   UNL     1      12.348  13.395   6.658  1.00  0.00     0.127 S 
ATOM     90  O   UNL     1      11.547  14.577   6.343  1.00  0.00    -0.237 OA
ATOM     91  O   UNL     1      13.192  13.530   7.846  1.00  0.00    -0.237 OA
ATOM     92  O   UNL     1      13.004  12.758   5.524  1.00  0.00    -0.744 OA
ENDBRANCH  86  89
ENDBRANCH  59  82
ENDBRANCH  33  34
ENDBRANCH  25  28
ENDBRANCH  23  24
ENDBRANCH   1  23
TORSDOF 17
