REMARK SMILES COC(=O)[C@@H]1[C@@H](NC(=O)COCC(=O)NCCCNC(=O)c2ccc(-c3c4nc(c(-c5cccc(S(=O)(=O)[O-])c5F)c5ccc([nH]5)c(-c5cccc(S(=O)(=O)[O-])c5F)c5nc(c(-c6cccc(S(=O)(=O)[O-])c6F)c6ccc3[nH]6)C=C5)C=C4)cc2)CCN1C(C)=O
REMARK SMILES IDX 13 1 14 2 15 3 12 5 11 6 10 7 8 8 7 9 9 11 6 12 5 13 87 14
REMARK SMILES IDX 85 15 86 16 3 17 4 18 2 19 1 20 88 21 89 22 90 23 16 24
REMARK SMILES IDX 17 25 18 26 19 27 20 28 21 30 22 31 23 32 84 33 24 34 83 35
REMARK SMILES IDX 25 36 26 37 27 38 77 39 28 40 82 41 76 42 78 43 29 44 81 45
REMARK SMILES IDX 75 46 74 47 30 49 62 50 42 51 61 52 43 53 46 54 60 55 79 56
REMARK SMILES IDX 44 57 45 58 59 60 80 61 47 62 31 63 32 64 40 65 33 66 35 67
REMARK SMILES IDX 41 68 34 69 36 70 37 71 38 72 39 73 63 74 64 75 72 76 65 77
REMARK SMILES IDX 67 78 73 79 66 80 68 81 69 82 70 83 71 84 48 85 49 86 57 87
REMARK SMILES IDX 50 88 52 89 58 90 51 91 53 92 54 93 55 94 56 95
REMARK H PARENT 15 4 7 10 19 29 78 48 46 59
REMARK Flexibility Score: inf
ROOT
ATOM      1  C   UNL     1       4.491   0.159  -1.807  1.00  0.00     0.246 C 
ATOM      2  O   UNL     1       5.718   0.251  -1.735  1.00  0.00    -0.272 OA
ATOM      3  N   UNL     1       3.921  -1.084  -1.799  1.00  0.00    -0.354 N 
ATOM      4  H   UNL     1       4.551  -1.840  -1.764  1.00  0.00     0.163 HD
ENDROOT
BRANCH   1   5
ATOM      5  C   UNL     1       3.597   1.395  -1.831  1.00  0.00     0.260 C 
BRANCH   5   6
ATOM      6  O   UNL     1       2.628   1.332  -2.862  1.00  0.00    -0.362 OA
BRANCH   6   7
ATOM      7  C   UNL     1       2.836   2.227  -3.940  1.00  0.00     0.260 C 
BRANCH   7   8
ATOM      8  C   UNL     1       2.611   3.691  -3.575  1.00  0.00     0.246 C 
ATOM      9  N   UNL     1       1.413   4.135  -3.104  1.00  0.00    -0.349 N 
ATOM     10  H   UNL     1       1.461   5.054  -2.754  1.00  0.00     0.163 HD
ATOM     11  O   UNL     1       3.526   4.514  -3.674  1.00  0.00    -0.272 OA
BRANCH   9  12
ATOM     12  C   UNL     1       0.067   3.562  -2.998  1.00  0.00     0.118 C 
ATOM     13  C   UNL     1      -0.158   2.087  -2.596  1.00  0.00     0.217 C 
ATOM     14  N   UNL     1      -1.488   1.768  -3.148  1.00  0.00    -0.327 N 
ATOM     15  C   UNL     1      -0.710   3.695  -4.302  1.00  0.00     0.049 C 
ATOM     16  C   UNL     1      -1.914   2.784  -4.100  1.00  0.00     0.122 C 
BRANCH  13  17
ATOM     17  C   UNL     1       0.097   1.933  -1.081  1.00  0.00     0.330 C 
ATOM     18  O   UNL     1       0.763   2.720  -0.412  1.00  0.00    -0.250 OA
BRANCH  17  19
ATOM     19  O   UNL     1      -0.327   0.735  -0.600  1.00  0.00    -0.467 OA
ATOM     20  C   UNL     1       0.241   0.353   0.654  1.00  0.00     0.282 C 
ENDBRANCH  17  19
ENDBRANCH  13  17
BRANCH  14  21
ATOM     21  C   UNL     1      -1.973   0.472  -3.160  1.00  0.00     0.220 C 
ATOM     22  C   UNL     1      -3.401   0.277  -3.614  1.00  0.00     0.114 C 
ATOM     23  O   UNL     1      -1.316  -0.483  -2.749  1.00  0.00    -0.275 OA
ENDBRANCH  14  21
ENDBRANCH   9  12
ENDBRANCH   7   8
ENDBRANCH   6   7
ENDBRANCH   5   6
ENDBRANCH   1   5
BRANCH   3  24
ATOM     24  C   UNL     1       2.512  -1.443  -1.835  1.00  0.00     0.117 C 
BRANCH  24  25
ATOM     25  C   UNL     1       2.051  -1.938  -3.200  1.00  0.00     0.042 C 
BRANCH  25  26
ATOM     26  C   UNL     1       2.861  -3.102  -3.760  1.00  0.00     0.118 C 
BRANCH  26  27
ATOM     27  N   UNL     1       2.893  -4.266  -2.884  1.00  0.00    -0.352 N 
ATOM     28  C   UNL     1       2.724  -5.597  -3.183  1.00  0.00     0.251 C 
ATOM     29  H   UNL     1       3.062  -4.069  -1.935  1.00  0.00     0.163 HD
ATOM     30  O   UNL     1       2.681  -6.420  -2.277  1.00  0.00    -0.269 OA
BRANCH  28  31
ATOM     31  C   UNL     1       2.566  -6.032  -4.589  1.00  0.00     0.039 A 
ATOM     32  C   UNL     1       1.593  -6.989  -4.888  1.00  0.00     0.014 A 
ATOM     33  C   UNL     1       3.362  -5.503  -5.607  1.00  0.00     0.014 A 
ATOM     34  C   UNL     1       1.375  -7.366  -6.215  1.00  0.00     0.010 A 
ATOM     35  C   UNL     1       3.085  -5.814  -6.935  1.00  0.00     0.010 A 
ATOM     36  C   UNL     1       2.092  -6.752  -7.255  1.00  0.00    -0.014 A 
BRANCH  36  37
ATOM     37  C   UNL     1       1.807  -7.065  -8.679  1.00  0.00     0.031 A 
ATOM     38  C   UNL     1       2.876  -7.649  -9.561  1.00  0.00     0.074 A 
ATOM     39  C   UNL     1       0.612  -6.732  -9.205  1.00  0.00     0.049 A 
ATOM     40  N   UNL     1       2.830  -7.930 -10.838  1.00  0.00    -0.248 NA
ATOM     41  C   UNL     1       4.179  -7.923  -8.934  1.00  0.00     0.031 C 
ATOM     42  C   UNL     1      -0.477  -6.077  -8.478  1.00  0.00     0.029 A 
ATOM     43  N   UNL     1       0.125  -6.868 -10.481  1.00  0.00    -0.354 N 
ATOM     44  C   UNL     1       4.102  -8.377 -11.175  1.00  0.00     0.074 A 
ATOM     45  C   UNL     1       4.909  -8.289  -9.977  1.00  0.00     0.031 C 
ATOM     46  C   UNL     1      -1.502  -5.866  -9.318  1.00  0.00     0.029 A 
ATOM     47  C   UNL     1      -1.132  -6.337 -10.649  1.00  0.00     0.049 A 
ATOM     48  H   UNL     1       0.627  -7.304 -11.207  1.00  0.00     0.167 HD
ATOM     49  C   UNL     1       4.553  -8.847 -12.363  1.00  0.00     0.034 A 
ATOM     50  C   UNL     1      -1.898  -6.223 -11.752  1.00  0.00     0.034 A 
ATOM     51  C   UNL     1       3.740  -8.955 -13.545  1.00  0.00     0.049 A 
ATOM     52  C   UNL     1      -1.396  -6.785 -13.053  1.00  0.00     0.074 A 
ATOM     53  C   UNL     1       4.072  -9.502 -14.771  1.00  0.00     0.029 A 
ATOM     54  N   UNL     1       2.438  -8.489 -13.655  1.00  0.00    -0.354 N 
ATOM     55  N   UNL     1      -0.247  -7.359 -13.313  1.00  0.00    -0.248 NA
ATOM     56  C   UNL     1      -2.309  -6.719 -14.202  1.00  0.00     0.031 C 
ATOM     57  C   UNL     1       2.983  -9.332 -15.635  1.00  0.00     0.029 A 
ATOM     58  C   UNL     1       1.957  -8.718 -14.934  1.00  0.00     0.049 A 
ATOM     59  H   UNL     1       1.929  -8.059 -12.931  1.00  0.00     0.167 HD
ATOM     60  C   UNL     1      -0.307  -7.748 -14.647  1.00  0.00     0.074 A 
ATOM     61  C   UNL     1      -1.616  -7.363 -15.133  1.00  0.00     0.031 C 
ATOM     62  C   UNL     1       0.640  -8.360 -15.400  1.00  0.00     0.034 A 
BRANCH  49  63
ATOM     63  C   UNL     1       5.988  -9.309 -12.425  1.00  0.00     0.023 A 
ATOM     64  C   UNL     1       6.385 -10.459 -11.711  1.00  0.00     0.012 A 
ATOM     65  C   UNL     1       6.939  -8.619 -13.201  1.00  0.00     0.148 A 
ATOM     66  C   UNL     1       7.714 -10.882 -11.721  1.00  0.00     0.002 A 
ATOM     67  C   UNL     1       8.252  -9.078 -13.249  1.00  0.00     0.091 A 
ATOM     68  F   UNL     1       6.554  -7.517 -13.860  1.00  0.00    -0.205 F 
ATOM     69  C   UNL     1       8.644 -10.196 -12.496  1.00  0.00     0.022 A 
BRANCH  67  70
ATOM     70  S   UNL     1       9.504  -8.314 -14.286  1.00  0.00     0.127 S 
ATOM     71  O   UNL     1      10.325  -7.621 -13.296  1.00  0.00    -0.237 OA
ATOM     72  O   UNL     1      10.144  -9.477 -14.903  1.00  0.00    -0.237 OA
ATOM     73  O   UNL     1       8.783  -7.457 -15.217  1.00  0.00    -0.744 OA
ENDBRANCH  67  70
ENDBRANCH  49  63
BRANCH  50  74
ATOM     74  C   UNL     1      -3.244  -5.593 -11.644  1.00  0.00     0.023 A 
ATOM     75  C   UNL     1      -4.398  -6.394 -11.734  1.00  0.00     0.012 A 
ATOM     76  C   UNL     1      -3.380  -4.215 -11.382  1.00  0.00     0.148 A 
ATOM     77  C   UNL     1      -5.666  -5.830 -11.585  1.00  0.00     0.002 A 
ATOM     78  C   UNL     1      -4.642  -3.671 -11.177  1.00  0.00     0.091 A 
ATOM     79  F   UNL     1      -2.267  -3.471 -11.306  1.00  0.00    -0.205 F 
ATOM     80  C   UNL     1      -5.787  -4.473 -11.294  1.00  0.00     0.022 A 
BRANCH  78  81
ATOM     81  S   UNL     1      -4.888  -1.967 -10.661  1.00  0.00     0.127 S 
ATOM     82  O   UNL     1      -5.588  -1.403 -11.812  1.00  0.00    -0.237 OA
ATOM     83  O   UNL     1      -5.709  -2.132  -9.461  1.00  0.00    -0.237 OA
ATOM     84  O   UNL     1      -3.558  -1.428 -10.410  1.00  0.00    -0.744 OA
ENDBRANCH  78  81
ENDBRANCH  50  74
BRANCH  62  85
ATOM     85  C   UNL     1       0.294  -8.683 -16.832  1.00  0.00     0.023 A 
ATOM     86  C   UNL     1       0.185  -7.648 -17.782  1.00  0.00     0.012 A 
ATOM     87  C   UNL     1       0.148 -10.021 -17.249  1.00  0.00     0.148 A 
ATOM     88  C   UNL     1      -0.097  -7.937 -19.117  1.00  0.00     0.002 A 
ATOM     89  C   UNL     1      -0.082 -10.305 -18.590  1.00  0.00     0.091 A 
ATOM     90  F   UNL     1       0.237 -10.991 -16.328  1.00  0.00    -0.205 F 
ATOM     91  C   UNL     1      -0.218  -9.264 -19.523  1.00  0.00     0.022 A 
BRANCH  89  92
ATOM     92  S   UNL     1      -0.155 -11.985 -19.222  1.00  0.00     0.127 S 
ATOM     93  O   UNL     1      -1.573 -12.117 -19.550  1.00  0.00    -0.237 OA
ATOM     94  O   UNL     1       0.736 -11.918 -20.381  1.00  0.00    -0.237 OA
ATOM     95  O   UNL     1       0.318 -12.842 -18.144  1.00  0.00    -0.744 OA
ENDBRANCH  89  92
ENDBRANCH  62  85
ENDBRANCH  36  37
ENDBRANCH  28  31
ENDBRANCH  26  27
ENDBRANCH  25  26
ENDBRANCH  24  25
ENDBRANCH   3  24
TORSDOF 20
