REMARK SMILES O=C(NCCCNC(=O)c1cccc2c1ccn2Cc1ccncc1)c1ccc(-c2c3nc(c(-c4cccc(S(=O)(=O)[O-])c4F)c4ccc([nH]4)c(-c4cccc(S(=O)(=O)[O-])c4F)c4nc(c(-c5cccc(S(=O)(=O)[O-])c5F)c5ccc2[nH]5)C=C4)C=C3)cc1
REMARK SMILES IDX 4 1 3 2 1 3 2 4 26 6 27 7 88 8 28 9 87 10 29 11 30 12 31 13
REMARK SMILES IDX 81 14 32 15 86 16 80 17 82 18 33 19 85 20 79 21 78 22 34 24
REMARK SMILES IDX 66 25 46 26 65 27 47 28 50 29 64 30 83 31 48 32 49 33 63 35
REMARK SMILES IDX 84 36 51 37 35 38 36 39 44 40 37 41 39 42 45 43 38 44 40 45
REMARK SMILES IDX 41 46 42 47 43 48 67 49 68 50 76 51 69 52 71 53 77 54 70 55
REMARK SMILES IDX 72 56 73 57 74 58 75 59 52 60 53 61 61 62 54 63 56 64 62 65
REMARK SMILES IDX 55 66 57 67 58 68 59 69 60 70 5 71 6 72 7 73 8 74 9 76 10 77
REMARK SMILES IDX 11 78 15 79 12 80 14 81 16 82 13 83 18 84 17 85 19 86 20 87
REMARK SMILES IDX 21 88 25 89 22 90 24 91 23 92
REMARK H PARENT 3 5 82 23 50 34 7 75
REMARK Flexibility Score: inf
ROOT
ATOM      1  C   UNL     1       4.544  -0.179   1.529  1.00  0.00     0.118 C 
ENDROOT
BRANCH   1   2
ATOM      2  N   UNL     1       3.092  -0.012   1.329  1.00  0.00    -0.352 N 
ATOM      3  O   UNL     1       1.236   0.411   0.073  1.00  0.00    -0.269 OA
ATOM      4  C   UNL     1       2.387  -0.032   0.134  1.00  0.00     0.251 C 
ATOM      5  H   UNL     1       2.558   0.133   2.143  1.00  0.00     0.163 HD
BRANCH   4   6
ATOM      6  C   UNL     1       3.039  -0.602  -1.057  1.00  0.00     0.039 A 
ATOM      7  C   UNL     1       2.842  -0.154  -2.361  1.00  0.00     0.014 A 
ATOM      8  C   UNL     1       3.951  -1.613  -0.811  1.00  0.00     0.014 A 
ATOM      9  C   UNL     1       3.594  -0.760  -3.365  1.00  0.00     0.010 A 
ATOM     10  C   UNL     1       4.970  -1.800  -1.679  1.00  0.00     0.010 A 
ATOM     11  C   UNL     1       4.657  -1.607  -2.996  1.00  0.00    -0.014 A 
BRANCH  11  12
ATOM     12  C   UNL     1       5.505  -2.307  -3.940  1.00  0.00     0.031 A 
ATOM     13  C   UNL     1       6.076  -1.402  -4.945  1.00  0.00     0.074 A 
ATOM     14  C   UNL     1       5.849  -3.613  -3.829  1.00  0.00     0.049 A 
ATOM     15  N   UNL     1       5.607  -1.197  -6.128  1.00  0.00    -0.248 NA
ATOM     16  C   UNL     1       7.107  -0.446  -4.522  1.00  0.00     0.031 C 
ATOM     17  C   UNL     1       5.615  -4.560  -2.724  1.00  0.00     0.029 A 
ATOM     18  N   UNL     1       6.587  -4.362  -4.688  1.00  0.00    -0.354 N 
ATOM     19  C   UNL     1       6.479  -0.288  -6.700  1.00  0.00     0.074 A 
ATOM     20  C   UNL     1       7.213   0.313  -5.616  1.00  0.00     0.031 C 
ATOM     21  C   UNL     1       6.387  -5.660  -2.888  1.00  0.00     0.029 A 
ATOM     22  C   UNL     1       7.024  -5.586  -4.186  1.00  0.00     0.049 A 
ATOM     23  H   UNL     1       6.799  -4.061  -5.601  1.00  0.00     0.167 HD
ATOM     24  C   UNL     1       6.735  -0.335  -8.033  1.00  0.00     0.034 A 
ATOM     25  C   UNL     1       7.862  -6.451  -4.811  1.00  0.00     0.034 A 
ATOM     26  C   UNL     1       5.795  -1.181  -8.726  1.00  0.00     0.049 A 
ATOM     27  C   UNL     1       7.748  -6.144  -6.258  1.00  0.00     0.074 A 
ATOM     28  C   UNL     1       4.423  -1.186  -8.887  1.00  0.00     0.029 A 
ATOM     29  N   UNL     1       6.218  -2.462  -8.990  1.00  0.00    -0.354 N 
ATOM     30  N   UNL     1       6.654  -6.310  -6.948  1.00  0.00    -0.248 NA
ATOM     31  C   UNL     1       8.727  -5.238  -6.834  1.00  0.00     0.031 C 
ATOM     32  C   UNL     1       4.046  -2.559  -8.800  1.00  0.00     0.029 A 
ATOM     33  C   UNL     1       5.205  -3.326  -8.664  1.00  0.00     0.049 A 
ATOM     34  H   UNL     1       7.098  -2.716  -9.351  1.00  0.00     0.167 HD
ATOM     35  C   UNL     1       6.607  -5.201  -7.783  1.00  0.00     0.074 A 
ATOM     36  C   UNL     1       7.956  -4.639  -7.745  1.00  0.00     0.031 C 
ATOM     37  C   UNL     1       5.414  -4.680  -8.192  1.00  0.00     0.034 A 
BRANCH  24  38
ATOM     38  C   UNL     1       8.058   0.041  -8.634  1.00  0.00     0.023 A 
ATOM     39  C   UNL     1       8.108   0.255 -10.024  1.00  0.00     0.012 A 
ATOM     40  C   UNL     1       9.289  -0.058  -7.944  1.00  0.00     0.148 A 
ATOM     41  C   UNL     1       9.329   0.362 -10.697  1.00  0.00     0.002 A 
ATOM     42  C   UNL     1      10.495   0.131  -8.601  1.00  0.00     0.091 A 
ATOM     43  F   UNL     1       9.309  -0.474  -6.673  1.00  0.00    -0.205 F 
ATOM     44  C   UNL     1      10.523   0.318  -9.984  1.00  0.00     0.022 A 
BRANCH  42  45
ATOM     45  S   UNL     1      12.058   0.112  -7.718  1.00  0.00     0.127 S 
ATOM     46  O   UNL     1      12.617  -1.168  -8.145  1.00  0.00    -0.237 OA
ATOM     47  O   UNL     1      12.723   1.295  -8.265  1.00  0.00    -0.237 OA
ATOM     48  O   UNL     1      11.709   0.223  -6.308  1.00  0.00    -0.744 OA
ENDBRANCH  42  45
ENDBRANCH  24  38
BRANCH  25  49
ATOM     49  C   UNL     1       8.986  -7.273  -4.283  1.00  0.00     0.023 A 
ATOM     50  C   UNL     1       9.623  -8.186  -5.155  1.00  0.00     0.012 A 
ATOM     51  C   UNL     1       9.649  -6.939  -3.082  1.00  0.00     0.148 A 
ATOM     52  C   UNL     1      10.908  -8.675  -4.888  1.00  0.00     0.002 A 
ATOM     53  C   UNL     1      10.926  -7.435  -2.817  1.00  0.00     0.091 A 
ATOM     54  F   UNL     1       9.076  -6.062  -2.248  1.00  0.00    -0.205 F 
ATOM     55  C   UNL     1      11.567  -8.284  -3.728  1.00  0.00     0.022 A 
BRANCH  53  56
ATOM     56  S   UNL     1      11.853  -6.971  -1.346  1.00  0.00     0.127 S 
ATOM     57  O   UNL     1      12.360  -8.264  -0.884  1.00  0.00    -0.237 OA
ATOM     58  O   UNL     1      12.869  -6.078  -1.896  1.00  0.00    -0.237 OA
ATOM     59  O   UNL     1      10.885  -6.353  -0.448  1.00  0.00    -0.744 OA
ENDBRANCH  53  56
ENDBRANCH  25  49
BRANCH  37  60
ATOM     60  C   UNL     1       4.168  -5.495  -7.948  1.00  0.00     0.023 A 
ATOM     61  C   UNL     1       3.612  -5.679  -6.664  1.00  0.00     0.012 A 
ATOM     62  C   UNL     1       3.443  -5.919  -9.073  1.00  0.00     0.148 A 
ATOM     63  C   UNL     1       2.352  -6.270  -6.511  1.00  0.00     0.002 A 
ATOM     64  C   UNL     1       2.178  -6.472  -8.920  1.00  0.00     0.091 A 
ATOM     65  F   UNL     1       3.990  -5.726 -10.282  1.00  0.00    -0.205 F 
ATOM     66  C   UNL     1       1.629  -6.652  -7.640  1.00  0.00     0.022 A 
BRANCH  64  67
ATOM     67  S   UNL     1       1.155  -6.891 -10.332  1.00  0.00     0.127 S 
ATOM     68  O   UNL     1       1.059  -8.345 -10.220  1.00  0.00    -0.237 OA
ATOM     69  O   UNL     1      -0.085  -6.170 -10.040  1.00  0.00    -0.237 OA
ATOM     70  O   UNL     1       1.867  -6.408 -11.509  1.00  0.00    -0.744 OA
ENDBRANCH  64  67
ENDBRANCH  37  60
ENDBRANCH  11  12
ENDBRANCH   4   6
ENDBRANCH   1   2
BRANCH   1  71
ATOM     71  C   UNL     1       5.015   0.045   2.945  1.00  0.00     0.042 C 
BRANCH  71  72
ATOM     72  C   UNL     1       4.449  -0.988   3.914  1.00  0.00     0.118 C 
BRANCH  72  73
ATOM     73  N   UNL     1       4.933  -2.349   3.707  1.00  0.00    -0.352 N 
ATOM     74  C   UNL     1       5.688  -3.153   4.529  1.00  0.00     0.251 C 
ATOM     75  H   UNL     1       4.681  -2.754   2.845  1.00  0.00     0.163 HD
ATOM     76  O   UNL     1       6.001  -4.282   4.168  1.00  0.00    -0.269 OA
BRANCH  74  77
ATOM     77  C   UNL     1       6.109  -2.653   5.850  1.00  0.00     0.049 A 
ATOM     78  C   UNL     1       5.159  -2.138   6.744  1.00  0.00     0.014 A 
ATOM     79  C   UNL     1       7.472  -2.688   6.216  1.00  0.00     0.012 A 
ATOM     80  C   UNL     1       5.562  -1.534   7.928  1.00  0.00     0.003 A 
ATOM     81  C   UNL     1       7.848  -2.137   7.450  1.00  0.00     0.049 A 
ATOM     82  C   UNL     1       8.661  -3.147   5.583  1.00  0.00     0.029 A 
ATOM     83  C   UNL     1       6.910  -1.519   8.298  1.00  0.00     0.027 A 
ATOM     84  N   UNL     1       9.210  -2.342   7.583  1.00  0.00    -0.343 N 
ATOM     85  C   UNL     1       9.715  -2.868   6.419  1.00  0.00     0.087 A 
BRANCH  84  86
ATOM     86  C   UNL     1      10.025  -2.000   8.745  1.00  0.00     0.157 C 
BRANCH  86  87
ATOM     87  C   UNL     1      10.380  -3.202   9.591  1.00  0.00    -0.025 A 
ATOM     88  C   UNL     1      11.214  -4.216   9.104  1.00  0.00     0.025 A 
ATOM     89  C   UNL     1       9.917  -3.318  10.906  1.00  0.00     0.025 A 
ATOM     90  C   UNL     1      11.537  -5.283   9.929  1.00  0.00     0.111 A 
ATOM     91  C   UNL     1      10.308  -4.417  11.660  1.00  0.00     0.111 A 
ATOM     92  N   UNL     1      11.111  -5.399  11.204  1.00  0.00    -0.265 NA
ENDBRANCH  86  87
ENDBRANCH  84  86
ENDBRANCH  74  77
ENDBRANCH  72  73
ENDBRANCH  71  72
ENDBRANCH   1  71
TORSDOF 15
