REMARK SMILES CC[C@@H](C)[C@H](C(=O)NCCCNC(=O)c1ccc(-c2c3nc(c(-c4cccc(S(=O)(=O)[O-])c4F)c4ccc([nH]4)c(-c4cccc(S(=O)(=O)[O-])c4F)c4nc(c(-c5cccc(S(=O)(=O)[O-])c5F)c5ccc2[nH]5)C=C4)C=C3)cc1)S(=O)(=O)c1cccc(OC)c1
REMARK SMILES IDX 10 1 9 2 8 3 6 4 7 5 5 7 3 8 4 9 2 10 1 11 78 12 79 13 80 14
REMARK SMILES IDX 81 15 82 16 88 17 83 18 85 19 84 20 86 21 87 22 11 23 12 24
REMARK SMILES IDX 13 25 14 27 15 28 16 29 77 30 17 31 76 32 18 33 19 34 20 35
REMARK SMILES IDX 70 36 21 37 75 38 69 39 71 40 22 41 74 42 68 43 67 44 23 46
REMARK SMILES IDX 55 47 35 48 54 49 36 50 39 51 53 52 72 53 37 54 38 55 52 57
REMARK SMILES IDX 73 58 40 59 24 60 25 61 33 62 26 63 28 64 34 65 27 66 29 67
REMARK SMILES IDX 30 68 31 69 32 70 56 71 57 72 65 73 58 74 60 75 66 76 59 77
REMARK SMILES IDX 61 78 62 79 63 80 64 81 41 82 42 83 50 84 43 85 45 86 51 87
REMARK SMILES IDX 44 88 46 89 47 90 48 91 49 92
REMARK H PARENT 8 6 12 26 71 45 39 56
REMARK Flexibility Score: inf
ROOT
ATOM      1  C   UNL     1       2.938  -0.086  -3.107  1.00  0.00     0.042 C 
ENDROOT
BRANCH   1   2
ATOM      2  C   UNL     1       2.782  -1.483  -2.535  1.00  0.00     0.117 C 
BRANCH   2   3
ATOM      3  N   UNL     1       1.908  -1.509  -1.376  1.00  0.00    -0.355 N 
ATOM      4  C   UNL     1       0.969  -2.375  -0.928  1.00  0.00     0.239 C 
ATOM      5  O   UNL     1       0.461  -2.048   0.152  1.00  0.00    -0.274 OA
ATOM      6  H   UNL     1       2.024  -0.728  -0.788  1.00  0.00     0.163 HD
BRANCH   4   7
ATOM      7  C   UNL     1       0.530  -3.659  -1.611  1.00  0.00     0.205 C 
BRANCH   7   8
ATOM      8  C   UNL     1       0.491  -3.810  -3.159  1.00  0.00     0.014 C 
ATOM      9  C   UNL     1       1.770  -4.383  -3.792  1.00  0.00     0.009 C 
BRANCH   8  10
ATOM     10  C   UNL     1      -0.145  -2.549  -3.821  1.00  0.00     0.002 C 
ATOM     11  C   UNL     1       0.233  -2.241  -5.262  1.00  0.00     0.004 C 
ENDBRANCH   8  10
ENDBRANCH   7   8
BRANCH   7  12
ATOM     12  S   UNL     1       1.107  -5.077  -0.682  1.00  0.00     0.190 S 
ATOM     13  O   UNL     1       0.717  -4.960   0.710  1.00  0.00    -0.223 OA
ATOM     14  O   UNL     1       0.694  -6.264  -1.418  1.00  0.00    -0.223 OA
BRANCH  12  15
ATOM     15  C   UNL     1       2.893  -5.089  -0.672  1.00  0.00     0.071 A 
ATOM     16  C   UNL     1       3.564  -6.210  -1.173  1.00  0.00     0.020 A 
ATOM     17  C   UNL     1       3.611  -4.029  -0.102  1.00  0.00     0.066 A 
ATOM     18  C   UNL     1       4.956  -6.245  -1.158  1.00  0.00     0.005 A 
ATOM     19  C   UNL     1       5.007  -4.040  -0.143  1.00  0.00     0.120 A 
ATOM     20  C   UNL     1       5.670  -5.154  -0.666  1.00  0.00     0.046 A 
BRANCH  19  21
ATOM     21  O   UNL     1       5.836  -3.042   0.286  1.00  0.00    -0.497 OA
ATOM     22  C   UNL     1       5.238  -1.846   0.768  1.00  0.00     0.278 C 
ENDBRANCH  19  21
ENDBRANCH  12  15
ENDBRANCH   7  12
ENDBRANCH   4   7
ENDBRANCH   2   3
ENDBRANCH   1   2
BRANCH   1  23
ATOM     23  C   UNL     1       3.791   0.819  -2.237  1.00  0.00     0.118 C 
BRANCH  23  24
ATOM     24  N   UNL     1       5.201   0.445  -2.251  1.00  0.00    -0.352 N 
ATOM     25  C   UNL     1       6.279   1.029  -2.873  1.00  0.00     0.251 C 
ATOM     26  H   UNL     1       5.417  -0.360  -1.727  1.00  0.00     0.163 HD
ATOM     27  O   UNL     1       7.360   0.444  -2.876  1.00  0.00    -0.269 OA
BRANCH  25  28
ATOM     28  C   UNL     1       6.135   2.324  -3.569  1.00  0.00     0.039 A 
ATOM     29  C   UNL     1       6.769   2.509  -4.800  1.00  0.00     0.014 A 
ATOM     30  C   UNL     1       5.365   3.350  -3.023  1.00  0.00     0.014 A 
ATOM     31  C   UNL     1       6.555   3.688  -5.519  1.00  0.00     0.010 A 
ATOM     32  C   UNL     1       5.047   4.458  -3.795  1.00  0.00     0.010 A 
ATOM     33  C   UNL     1       5.651   4.652  -5.045  1.00  0.00    -0.014 A 
BRANCH  33  34
ATOM     34  C   UNL     1       5.333   5.881  -5.816  1.00  0.00     0.031 A 
ATOM     35  C   UNL     1       5.556   7.234  -5.191  1.00  0.00     0.074 A 
ATOM     36  C   UNL     1       4.739   5.781  -7.023  1.00  0.00     0.049 A 
ATOM     37  N   UNL     1       5.228   8.416  -5.642  1.00  0.00    -0.248 NA
ATOM     38  C   UNL     1       6.185   7.260  -3.858  1.00  0.00     0.031 C 
ATOM     39  C   UNL     1       4.375   4.529  -7.690  1.00  0.00     0.029 A 
ATOM     40  N   UNL     1       4.313   6.753  -7.893  1.00  0.00    -0.354 N 
ATOM     41  C   UNL     1       5.548   9.311  -4.627  1.00  0.00     0.074 A 
ATOM     42  C   UNL     1       6.055   8.534  -3.519  1.00  0.00     0.031 C 
ATOM     43  C   UNL     1       3.799   4.808  -8.871  1.00  0.00     0.029 A 
ATOM     44  C   UNL     1       3.727   6.255  -9.034  1.00  0.00     0.049 A 
ATOM     45  H   UNL     1       4.417   7.716  -7.717  1.00  0.00     0.167 HD
ATOM     46  C   UNL     1       5.470  10.662  -4.629  1.00  0.00     0.034 A 
ATOM     47  C   UNL     1       3.198   6.896 -10.095  1.00  0.00     0.034 A 
ATOM     48  C   UNL     1       5.064  11.433  -5.771  1.00  0.00     0.049 A 
ATOM     49  C   UNL     1       3.236   8.400 -10.124  1.00  0.00     0.074 A 
ATOM     50  C   UNL     1       5.058  12.808  -5.924  1.00  0.00     0.029 A 
ATOM     51  N   UNL     1       4.612  10.893  -6.964  1.00  0.00    -0.354 N 
ATOM     52  N   UNL     1       3.689   9.230  -9.215  1.00  0.00    -0.248 NA
ATOM     53  C   UNL     1       2.729   9.057 -11.338  1.00  0.00     0.031 C 
ATOM     54  C   UNL     1       4.605  13.098  -7.216  1.00  0.00     0.029 A 
ATOM     55  C   UNL     1       4.334  11.903  -7.865  1.00  0.00     0.049 A 
ATOM     56  H   UNL     1       4.504   9.931  -7.144  1.00  0.00     0.167 HD
ATOM     57  C   UNL     1       3.555  10.502  -9.760  1.00  0.00     0.074 A 
ATOM     58  C   UNL     1       2.998  10.331 -11.086  1.00  0.00     0.031 C 
ATOM     59  C   UNL     1       3.846  11.705  -9.206  1.00  0.00     0.034 A 
BRANCH  46  60
ATOM     60  C   UNL     1       5.913  11.389  -3.387  1.00  0.00     0.023 A 
ATOM     61  C   UNL     1       7.285  11.430  -3.061  1.00  0.00     0.012 A 
ATOM     62  C   UNL     1       4.989  12.057  -2.562  1.00  0.00     0.148 A 
ATOM     63  C   UNL     1       7.726  12.085  -1.913  1.00  0.00     0.002 A 
ATOM     64  C   UNL     1       5.441  12.747  -1.441  1.00  0.00     0.091 A 
ATOM     65  F   UNL     1       3.686  11.990  -2.872  1.00  0.00    -0.205 F 
ATOM     66  C   UNL     1       6.805  12.751  -1.109  1.00  0.00     0.022 A 
BRANCH  64  67
ATOM     67  S   UNL     1       4.343  13.698  -0.384  1.00  0.00     0.127 S 
ATOM     68  O   UNL     1       4.259  12.843   0.799  1.00  0.00    -0.237 OA
ATOM     69  O   UNL     1       5.098  14.937  -0.188  1.00  0.00    -0.237 OA
ATOM     70  O   UNL     1       3.106  13.857  -1.134  1.00  0.00    -0.744 OA
ENDBRANCH  64  67
ENDBRANCH  46  60
BRANCH  47  71
ATOM     71  C   UNL     1       2.686   6.115 -11.257  1.00  0.00     0.023 A 
ATOM     72  C   UNL     1       3.425   6.112 -12.457  1.00  0.00     0.012 A 
ATOM     73  C   UNL     1       1.509   5.347 -11.176  1.00  0.00     0.148 A 
ATOM     74  C   UNL     1       2.986   5.384 -13.564  1.00  0.00     0.002 A 
ATOM     75  C   UNL     1       1.105   4.582 -12.265  1.00  0.00     0.091 A 
ATOM     76  F   UNL     1       0.812   5.370 -10.031  1.00  0.00    -0.205 F 
ATOM     77  C   UNL     1       1.833   4.612 -13.465  1.00  0.00     0.022 A 
BRANCH  75  78
ATOM     78  S   UNL     1      -0.291   3.454 -12.176  1.00  0.00     0.127 S 
ATOM     79  O   UNL     1      -1.320   4.192 -12.903  1.00  0.00    -0.237 OA
ATOM     80  O   UNL     1       0.224   2.272 -12.867  1.00  0.00    -0.237 OA
ATOM     81  O   UNL     1      -0.533   3.252 -10.754  1.00  0.00    -0.744 OA
ENDBRANCH  75  78
ENDBRANCH  47  71
BRANCH  59  82
ATOM     82  C   UNL     1       3.604  12.933 -10.038  1.00  0.00     0.023 A 
ATOM     83  C   UNL     1       2.287  13.395 -10.227  1.00  0.00     0.012 A 
ATOM     84  C   UNL     1       4.683  13.680 -10.549  1.00  0.00     0.148 A 
ATOM     85  C   UNL     1       2.046  14.572 -10.934  1.00  0.00     0.002 A 
ATOM     86  C   UNL     1       4.438  14.874 -11.214  1.00  0.00     0.091 A 
ATOM     87  F   UNL     1       5.927  13.210 -10.375  1.00  0.00    -0.205 F 
ATOM     88  C   UNL     1       3.120  15.317 -11.415  1.00  0.00     0.022 A 
BRANCH  86  89
ATOM     89  S   UNL     1       5.767  15.942 -11.781  1.00  0.00     0.127 S 
ATOM     90  O   UNL     1       5.782  15.663 -13.216  1.00  0.00    -0.237 OA
ATOM     91  O   UNL     1       5.275  17.273 -11.423  1.00  0.00    -0.237 OA
ATOM     92  O   UNL     1       6.952  15.523 -11.045  1.00  0.00    -0.744 OA
ENDBRANCH  86  89
ENDBRANCH  59  82
ENDBRANCH  33  34
ENDBRANCH  25  28
ENDBRANCH  23  24
ENDBRANCH   1  23
TORSDOF 18
