REMARK SMILES C[C@H](NC(=O)CCN1C(=O)/C(=C/c2ccc([N+](=O)[O-])cc2)SC1=S)C(=O)NCCCNC(=O)c1ccc(-c2c3nc(c(-c4cccc(S(=O)(=O)[O-])c4F)c4ccc([nH]4)c(-c4cccc(S(=O)(=O)[O-])c4F)c4nc(c(-c5cccc(S(=O)(=O)[O-])c5F)c5ccc2[nH]5)C=C4)C=C3)cc1
REMARK SMILES IDX 25 1 26 2 27 3 2 5 1 6 3 7 4 8 5 10 6 11 7 12 8 13 9 14
REMARK SMILES IDX 23 15 10 16 11 17 22 18 24 19 12 20 13 21 14 22 21 23 15 24
REMARK SMILES IDX 20 25 16 26 17 27 18 28 19 29 28 30 29 31 30 32 31 33 32 34
REMARK SMILES IDX 33 36 34 37 35 38 96 39 36 40 95 41 37 42 38 43 39 44 89 45
REMARK SMILES IDX 40 46 94 47 88 48 90 49 41 50 93 51 87 52 86 53 42 55 74 56
REMARK SMILES IDX 54 57 73 58 55 59 58 60 72 61 91 62 56 63 57 64 71 66 92 67
REMARK SMILES IDX 59 68 43 69 44 70 52 71 45 72 47 73 53 74 46 75 48 76 49 77
REMARK SMILES IDX 50 78 51 79 75 80 76 81 84 82 77 83 79 84 85 85 78 86 80 87
REMARK SMILES IDX 81 88 82 89 83 90 60 91 61 92 69 93 62 94 64 95 70 96 63 97
REMARK SMILES IDX 65 98 66 99 67 100 68 101
REMARK H PARENT 27 4 3 9 31 35 90 54 58 65
REMARK Flexibility Score: inf
ROOT
ATOM      1  C   UNL     1      -0.346  -0.756   0.470  1.00  0.00     0.242 C 
ATOM      2  O   UNL     1      -0.804  -1.400   1.427  1.00  0.00    -0.273 OA
ATOM      3  N   UNL     1      -1.256  -0.367  -0.480  1.00  0.00    -0.354 N 
ATOM      4  H   UNL     1      -2.046  -0.946  -0.572  1.00  0.00     0.163 HD
ENDROOT
BRANCH   1   5
ATOM      5  C   UNL     1       1.210  -0.462   0.396  1.00  0.00     0.168 C 
ATOM      6  C   UNL     1       1.815  -0.045   1.746  1.00  0.00     0.041 C 
BRANCH   5   7
ATOM      7  N   UNL     1       1.788   0.197  -0.793  1.00  0.00    -0.345 N 
ATOM      8  C   UNL     1       2.053   1.465  -1.208  1.00  0.00     0.222 C 
ATOM      9  H   UNL     1       2.054  -0.464  -1.473  1.00  0.00     0.164 HD
ATOM     10  O   UNL     1       2.179   1.613  -2.431  1.00  0.00    -0.275 OA
BRANCH   8  11
ATOM     11  C   UNL     1       2.249   2.691  -0.317  1.00  0.00     0.122 C 
BRANCH  11  12
ATOM     12  C   UNL     1       1.125   3.770  -0.348  1.00  0.00     0.137 C 
BRANCH  12  13
ATOM     13  N   UNL     1       0.372   3.925   0.929  1.00  0.00    -0.292 N 
ATOM     14  C   UNL     1      -0.183   2.799   1.429  1.00  0.00     0.266 C 
ATOM     15  C   UNL     1      -0.036   5.059   1.586  1.00  0.00     0.148 C 
ATOM     16  O   UNL     1      -0.139   1.738   0.851  1.00  0.00    -0.268 OA
ATOM     17  C   UNL     1      -0.906   2.961   2.691  1.00  0.00     0.081 C 
ATOM     18  S   UNL     1      -1.014   4.619   3.034  1.00  0.00    -0.054 SA
ATOM     19  S   UNL     1       0.265   6.641   1.164  1.00  0.00    -0.052 S 
ATOM     20  C   UNL     1      -1.307   1.821   3.269  1.00  0.00     0.029 C 
BRANCH  20  21
ATOM     21  C   UNL     1      -2.096   1.466   4.443  1.00  0.00    -0.024 A 
ATOM     22  C   UNL     1      -1.575   0.484   5.305  1.00  0.00     0.015 A 
ATOM     23  C   UNL     1      -3.428   1.860   4.571  1.00  0.00     0.015 A 
ATOM     24  C   UNL     1      -2.359  -0.064   6.320  1.00  0.00     0.086 A 
ATOM     25  C   UNL     1      -4.226   1.310   5.581  1.00  0.00     0.086 A 
ATOM     26  C   UNL     1      -3.683   0.362   6.462  1.00  0.00     0.269 A 
BRANCH  26  27
ATOM     27  N   UNL     1      -4.508  -0.187   7.544  1.00  0.00     0.062 N 
ATOM     28  O   UNL     1      -3.994  -1.031   8.293  1.00  0.00    -0.258 OA
ATOM     29  O   UNL     1      -5.664   0.244   7.664  1.00  0.00    -0.258 OA
ENDBRANCH  26  27
ENDBRANCH  20  21
ENDBRANCH  12  13
ENDBRANCH  11  12
ENDBRANCH   8  11
ENDBRANCH   5   7
ENDBRANCH   1   5
BRANCH   3  30
ATOM     30  C   UNL     1      -1.214   0.783  -1.372  1.00  0.00     0.117 C 
BRANCH  30  31
ATOM     31  C   UNL     1      -1.791   0.528  -2.742  1.00  0.00     0.042 C 
BRANCH  31  32
ATOM     32  C   UNL     1      -3.278   0.831  -2.756  1.00  0.00     0.118 C 
BRANCH  32  33
ATOM     33  N   UNL     1      -3.572   2.251  -2.987  1.00  0.00    -0.352 N 
ATOM     34  C   UNL     1      -4.094   2.864  -4.109  1.00  0.00     0.251 C 
ATOM     35  H   UNL     1      -3.367   2.852  -2.234  1.00  0.00     0.163 HD
ATOM     36  O   UNL     1      -4.152   4.087  -4.188  1.00  0.00    -0.269 OA
BRANCH  34  37
ATOM     37  C   UNL     1      -4.545   2.014  -5.228  1.00  0.00     0.039 A 
ATOM     38  C   UNL     1      -4.063   2.244  -6.518  1.00  0.00     0.014 A 
ATOM     39  C   UNL     1      -5.329   0.897  -4.953  1.00  0.00     0.014 A 
ATOM     40  C   UNL     1      -4.259   1.270  -7.503  1.00  0.00     0.010 A 
ATOM     41  C   UNL     1      -5.382  -0.129  -5.881  1.00  0.00     0.010 A 
ATOM     42  C   UNL     1      -4.855   0.043  -7.171  1.00  0.00    -0.014 A 
BRANCH  42  43
ATOM     43  C   UNL     1      -4.958  -1.091  -8.128  1.00  0.00     0.031 A 
ATOM     44  C   UNL     1      -6.309  -1.710  -8.386  1.00  0.00     0.074 A 
ATOM     45  C   UNL     1      -3.846  -1.655  -8.644  1.00  0.00     0.049 A 
ATOM     46  N   UNL     1      -6.605  -2.814  -9.017  1.00  0.00    -0.248 NA
ATOM     47  C   UNL     1      -7.477  -1.023  -7.806  1.00  0.00     0.031 C 
ATOM     48  C   UNL     1      -2.471  -1.206  -8.406  1.00  0.00     0.029 A 
ATOM     49  N   UNL     1      -3.694  -2.758  -9.449  1.00  0.00    -0.354 N 
ATOM     50  C   UNL     1      -7.975  -2.985  -8.854  1.00  0.00     0.074 A 
ATOM     51  C   UNL     1      -8.443  -1.901  -8.021  1.00  0.00     0.031 C 
ATOM     52  C   UNL     1      -1.621  -2.016  -9.059  1.00  0.00     0.029 A 
ATOM     53  C   UNL     1      -2.381  -3.071  -9.720  1.00  0.00     0.049 A 
ATOM     54  H   UNL     1      -4.454  -3.276  -9.800  1.00  0.00     0.167 HD
ATOM     55  C   UNL     1      -8.781  -3.936  -9.377  1.00  0.00     0.034 A 
ATOM     56  C   UNL     1      -1.848  -4.101 -10.409  1.00  0.00     0.034 A 
ATOM     57  C   UNL     1      -8.322  -4.968 -10.263  1.00  0.00     0.049 A 
ATOM     58  C   UNL     1      -2.771  -5.116 -11.030  1.00  0.00     0.074 A 
ATOM     59  C   UNL     1      -9.069  -5.920 -10.932  1.00  0.00     0.029 A 
ATOM     60  N   UNL     1      -6.996  -5.182 -10.604  1.00  0.00    -0.354 N 
ATOM     61  N   UNL     1      -4.079  -5.182 -10.977  1.00  0.00    -0.248 NA
ATOM     62  C   UNL     1      -2.150  -6.181 -11.832  1.00  0.00     0.031 C 
ATOM     63  C   UNL     1      -8.189  -6.729 -11.656  1.00  0.00     0.029 A 
ATOM     64  C   UNL     1      -6.901  -6.253 -11.471  1.00  0.00     0.049 A 
ATOM     65  H   UNL     1      -6.235  -4.650 -10.276  1.00  0.00     0.167 HD
ATOM     66  C   UNL     1      -4.441  -6.260 -11.777  1.00  0.00     0.074 A 
ATOM     67  C   UNL     1      -3.213  -6.816 -12.308  1.00  0.00     0.031 C 
ATOM     68  C   UNL     1      -5.676  -6.748 -12.044  1.00  0.00     0.034 A 
BRANCH  55  69
ATOM     69  C   UNL     1     -10.250  -3.871  -9.048  1.00  0.00     0.023 A 
ATOM     70  C   UNL     1     -11.037  -2.817  -9.558  1.00  0.00     0.012 A 
ATOM     71  C   UNL     1     -10.860  -4.875  -8.273  1.00  0.00     0.148 A 
ATOM     72  C   UNL     1     -12.397  -2.738  -9.264  1.00  0.00     0.002 A 
ATOM     73  C   UNL     1     -12.227  -4.819  -8.029  1.00  0.00     0.091 A 
ATOM     74  F   UNL     1     -10.093  -5.857  -7.779  1.00  0.00    -0.205 F 
ATOM     75  C   UNL     1     -12.993  -3.745  -8.509  1.00  0.00     0.022 A 
BRANCH  73  76
ATOM     76  S   UNL     1     -13.106  -6.111  -7.144  1.00  0.00     0.127 S 
ATOM     77  O   UNL     1     -13.471  -5.423  -5.905  1.00  0.00    -0.237 OA
ATOM     78  O   UNL     1     -14.229  -6.386  -8.041  1.00  0.00    -0.237 OA
ATOM     79  O   UNL     1     -12.164  -7.210  -6.992  1.00  0.00    -0.744 OA
ENDBRANCH  73  76
ENDBRANCH  55  69
BRANCH  56  80
ATOM     80  C   UNL     1      -0.372  -4.194 -10.602  1.00  0.00     0.023 A 
ATOM     81  C   UNL     1       0.172  -3.978 -11.885  1.00  0.00     0.012 A 
ATOM     82  C   UNL     1       0.496  -4.478  -9.530  1.00  0.00     0.148 A 
ATOM     83  C   UNL     1       1.546  -4.081 -12.104  1.00  0.00     0.002 A 
ATOM     84  C   UNL     1       1.869  -4.526  -9.744  1.00  0.00     0.091 A 
ATOM     85  F   UNL     1      -0.039  -4.686  -8.319  1.00  0.00    -0.205 F 
ATOM     86  C   UNL     1       2.395  -4.346 -11.033  1.00  0.00     0.022 A 
BRANCH  84  87
ATOM     87  S   UNL     1       3.050  -4.741  -8.407  1.00  0.00     0.127 S 
ATOM     88  O   UNL     1       3.590  -6.067  -8.696  1.00  0.00    -0.237 OA
ATOM     89  O   UNL     1       3.976  -3.633  -8.643  1.00  0.00    -0.237 OA
ATOM     90  O   UNL     1       2.278  -4.629  -7.177  1.00  0.00    -0.744 OA
ENDBRANCH  84  87
ENDBRANCH  56  80
BRANCH  68  91
ATOM     91  C   UNL     1      -5.792  -7.896 -13.010  1.00  0.00     0.023 A 
ATOM     92  C   UNL     1      -5.413  -9.194 -12.619  1.00  0.00     0.012 A 
ATOM     93  C   UNL     1      -6.392  -7.696 -14.270  1.00  0.00     0.148 A 
ATOM     94  C   UNL     1      -5.613 -10.275 -13.478  1.00  0.00     0.002 A 
ATOM     95  C   UNL     1      -6.637  -8.784 -15.096  1.00  0.00     0.091 A 
ATOM     96  F   UNL     1      -6.729  -6.447 -14.625  1.00  0.00    -0.205 F 
ATOM     97  C   UNL     1      -6.238 -10.073 -14.707  1.00  0.00     0.022 A 
BRANCH  95  98
ATOM     98  S   UNL     1      -7.532  -8.634 -16.646  1.00  0.00     0.127 S 
ATOM     99  O   UNL     1      -6.484  -8.922 -17.624  1.00  0.00    -0.237 OA
ATOM    100  O   UNL     1      -8.549  -9.678 -16.516  1.00  0.00    -0.237 OA
ATOM    101  O   UNL     1      -8.057  -7.276 -16.681  1.00  0.00    -0.744 OA
ENDBRANCH  95  98
ENDBRANCH  68  91
ENDBRANCH  42  43
ENDBRANCH  34  37
ENDBRANCH  32  33
ENDBRANCH  31  32
ENDBRANCH  30  31
ENDBRANCH   3  30
TORSDOF 19
