REMARK SMILES Cc1cccc(-c2cc(OCC(=O)NCCCNC(=O)c3ccc(-c4c5nc(c(-c6cccc(S(=O)(=O)[O-])c6F)c6ccc([nH]6)c(-c6cccc(S(=O)(=O)[O-])c6F)c6nc(c(-c7cccc(S(=O)(=O)[O-])c7F)c7ccc4[nH]7)C=C6)C=C5)cc3)nc(Nc3ccccc3C)n2)c1
REMARK SMILES IDX 15 1 14 2 12 3 13 4 11 6 10 7 9 8 7 9 8 10 94 11 85 12 84 13
REMARK SMILES IDX 6 14 1 15 2 16 3 17 95 18 4 19 5 20 86 21 87 23 88 24 92 25
REMARK SMILES IDX 89 26 91 27 93 28 90 29 16 30 17 31 18 32 19 33 20 35 21 36
REMARK SMILES IDX 22 37 83 38 23 39 82 40 24 41 25 42 26 43 76 44 27 45 81 46
REMARK SMILES IDX 75 47 77 48 28 49 80 50 74 51 73 52 29 54 61 55 41 56 60 57
REMARK SMILES IDX 42 58 45 59 59 60 78 61 43 62 44 63 58 65 79 66 46 67 30 68
REMARK SMILES IDX 31 69 39 70 32 71 34 72 40 73 33 74 35 75 36 76 37 77 38 78
REMARK SMILES IDX 62 79 63 80 71 81 64 82 66 83 72 84 65 85 67 86 68 87 69 88
REMARK SMILES IDX 70 89 47 90 48 91 56 92 49 93 51 94 57 95 50 96 52 97 53 98
REMARK SMILES IDX 54 99 55 100
REMARK H PARENT 14 5 86 22 18 34 77 53 45 64
REMARK Flexibility Score: inf
ROOT
ATOM      1  C   UNL     1      -0.183   7.652  -2.201  1.00  0.00     0.117 C 
ENDROOT
BRANCH   1   2
ATOM      2  N   UNL     1       0.507   6.389  -2.392  1.00  0.00    -0.353 N 
ATOM      3  C   UNL     1      -0.002   5.218  -2.872  1.00  0.00     0.258 C 
ATOM      4  O   UNL     1       0.747   4.252  -3.026  1.00  0.00    -0.271 OA
ATOM      5  H   UNL     1       1.460   6.377  -2.145  1.00  0.00     0.163 HD
BRANCH   3   6
ATOM      6  C   UNL     1      -1.493   5.125  -3.230  1.00  0.00     0.331 C 
BRANCH   6   7
ATOM      7  O   UNL     1      -2.423   5.270  -2.169  1.00  0.00    -0.467 OA
BRANCH   7   8
ATOM      8  C   UNL     1      -2.442   4.306  -1.196  1.00  0.00     0.219 A 
ATOM      9  C   UNL     1      -1.858   2.304  -0.155  1.00  0.00     0.080 A 
ATOM     10  C   UNL     1      -1.731   3.135  -1.242  1.00  0.00     0.097 A 
ATOM     11  N   UNL     1      -2.657   2.597   0.879  1.00  0.00    -0.212 NA
ATOM     12  C   UNL     1      -3.303   3.768   0.866  1.00  0.00     0.231 A 
ATOM     13  N   UNL     1      -3.240   4.631  -0.159  1.00  0.00    -0.177 NA
BRANCH   9  14
ATOM     14  C   UNL     1      -1.111   1.050  -0.054  1.00  0.00     0.001 A 
ATOM     15  C   UNL     1       2.524  -0.117  -0.007  1.00  0.00     0.044 C 
ATOM     16  C   UNL     1       1.024  -0.139  -0.001  1.00  0.00    -0.050 A 
ATOM     17  C   UNL     1       0.335  -1.353   0.089  1.00  0.00     0.003 A 
ATOM     18  C   UNL     1       0.294   1.053  -0.081  1.00  0.00     0.013 A 
ATOM     19  C   UNL     1      -1.059  -1.373   0.127  1.00  0.00     0.001 A 
ATOM     20  C   UNL     1      -1.777  -0.177   0.068  1.00  0.00     0.010 A 
ENDBRANCH   9  14
BRANCH  12  21
ATOM     21  N   UNL     1      -4.126   4.104   1.941  1.00  0.00    -0.324 N 
ATOM     22  H   UNL     1      -4.562   4.986   1.906  1.00  0.00     0.170 HD
BRANCH  21  23
ATOM     23  C   UNL     1      -4.395   3.313   3.068  1.00  0.00     0.044 A 
ATOM     24  C   UNL     1      -5.681   2.768   3.212  1.00  0.00     0.026 A 
ATOM     25  C   UNL     1      -3.397   2.955   3.999  1.00  0.00    -0.027 A 
ATOM     26  C   UNL     1      -5.965   1.847   4.223  1.00  0.00     0.002 A 
ATOM     27  C   UNL     1      -3.693   2.019   5.005  1.00  0.00     0.005 A 
ATOM     28  C   UNL     1      -2.022   3.570   3.969  1.00  0.00     0.046 C 
ATOM     29  C   UNL     1      -4.966   1.462   5.110  1.00  0.00     0.000 A 
ENDBRANCH  21  23
ENDBRANCH  12  21
ENDBRANCH   7   8
ENDBRANCH   6   7
ENDBRANCH   3   6
ENDBRANCH   1   2
BRANCH   1  30
ATOM     30  C   UNL     1      -0.810   7.778  -0.820  1.00  0.00     0.042 C 
BRANCH  30  31
ATOM     31  C   UNL     1       0.207   8.061   0.270  1.00  0.00     0.118 C 
BRANCH  31  32
ATOM     32  N   UNL     1       0.541   9.469   0.380  1.00  0.00    -0.352 N 
ATOM     33  C   UNL     1       1.310  10.139   1.308  1.00  0.00     0.251 C 
ATOM     34  H   UNL     1       0.156  10.040  -0.324  1.00  0.00     0.163 HD
ATOM     35  O   UNL     1       1.247  11.369   1.308  1.00  0.00    -0.269 OA
BRANCH  33  36
ATOM     36  C   UNL     1       2.295   9.425   2.164  1.00  0.00     0.039 A 
ATOM     37  C   UNL     1       3.487  10.097   2.482  1.00  0.00     0.014 A 
ATOM     38  C   UNL     1       2.173   8.073   2.471  1.00  0.00     0.014 A 
ATOM     39  C   UNL     1       4.618   9.375   2.857  1.00  0.00     0.010 A 
ATOM     40  C   UNL     1       3.302   7.344   2.756  1.00  0.00     0.010 A 
ATOM     41  C   UNL     1       4.535   7.989   2.876  1.00  0.00    -0.014 A 
BRANCH  41  42
ATOM     42  C   UNL     1       5.666   7.082   2.925  1.00  0.00     0.031 A 
ATOM     43  C   UNL     1       6.042   6.433   4.190  1.00  0.00     0.074 A 
ATOM     44  C   UNL     1       6.135   6.635   1.739  1.00  0.00     0.049 A 
ATOM     45  N   UNL     1       7.132   5.773   4.371  1.00  0.00    -0.248 NA
ATOM     46  C   UNL     1       5.187   6.489   5.368  1.00  0.00     0.031 C 
ATOM     47  C   UNL     1       6.884   5.414   1.475  1.00  0.00     0.029 A 
ATOM     48  N   UNL     1       6.190   7.339   0.531  1.00  0.00    -0.354 N 
ATOM     49  C   UNL     1       6.998   5.085   5.558  1.00  0.00     0.074 A 
ATOM     50  C   UNL     1       5.804   5.618   6.171  1.00  0.00     0.031 C 
ATOM     51  C   UNL     1       7.555   5.566   0.322  1.00  0.00     0.029 A 
ATOM     52  C   UNL     1       7.399   6.958  -0.072  1.00  0.00     0.049 A 
ATOM     53  H   UNL     1       5.521   7.970   0.178  1.00  0.00     0.167 HD
ATOM     54  C   UNL     1       7.821   4.025   5.804  1.00  0.00     0.034 A 
ATOM     55  C   UNL     1       8.424   7.831  -0.303  1.00  0.00     0.034 A 
ATOM     56  C   UNL     1       8.809   3.869   4.728  1.00  0.00     0.049 A 
ATOM     57  C   UNL     1       9.717   7.414   0.375  1.00  0.00     0.074 A 
ATOM     58  C   UNL     1       8.851   3.062   3.601  1.00  0.00     0.029 A 
ATOM     59  N   UNL     1       9.795   4.834   4.555  1.00  0.00    -0.354 N 
ATOM     60  N   UNL     1       9.802   6.489   1.291  1.00  0.00    -0.248 NA
ATOM     61  C   UNL     1      11.014   8.013   0.077  1.00  0.00     0.031 C 
ATOM     62  C   UNL     1       9.815   3.602   2.709  1.00  0.00     0.029 A 
ATOM     63  C   UNL     1      10.377   4.721   3.302  1.00  0.00     0.049 A 
ATOM     64  H   UNL     1      10.046   5.505   5.231  1.00  0.00     0.167 HD
ATOM     65  C   UNL     1      11.081   6.429   1.782  1.00  0.00     0.074 A 
ATOM     66  C   UNL     1      11.815   7.355   0.934  1.00  0.00     0.031 C 
ATOM     67  C   UNL     1      11.405   5.664   2.872  1.00  0.00     0.034 A 
BRANCH  54  68
ATOM     68  C   UNL     1       7.512   2.932   6.815  1.00  0.00     0.023 A 
ATOM     69  C   UNL     1       8.016   1.639   6.547  1.00  0.00     0.012 A 
ATOM     70  C   UNL     1       6.704   3.052   7.968  1.00  0.00     0.148 A 
ATOM     71  C   UNL     1       7.648   0.515   7.294  1.00  0.00     0.002 A 
ATOM     72  C   UNL     1       6.271   1.920   8.669  1.00  0.00     0.091 A 
ATOM     73  F   UNL     1       6.419   4.264   8.454  1.00  0.00    -0.205 F 
ATOM     74  C   UNL     1       6.739   0.648   8.330  1.00  0.00     0.022 A 
BRANCH  72  75
ATOM     75  S   UNL     1       5.016   2.008   9.959  1.00  0.00     0.127 S 
ATOM     76  O   UNL     1       4.107   0.921   9.583  1.00  0.00    -0.237 OA
ATOM     77  O   UNL     1       5.790   1.757  11.171  1.00  0.00    -0.237 OA
ATOM     78  O   UNL     1       4.424   3.336   9.847  1.00  0.00    -0.744 OA
ENDBRANCH  72  75
ENDBRANCH  54  68
BRANCH  55  79
ATOM     79  C   UNL     1       7.976   9.239  -0.528  1.00  0.00     0.023 A 
ATOM     80  C   UNL     1       7.151   9.473  -1.655  1.00  0.00     0.012 A 
ATOM     81  C   UNL     1       8.003  10.199   0.500  1.00  0.00     0.148 A 
ATOM     82  C   UNL     1       6.275  10.560  -1.694  1.00  0.00     0.002 A 
ATOM     83  C   UNL     1       7.129  11.287   0.450  1.00  0.00     0.091 A 
ATOM     84  F   UNL     1       8.817   9.999   1.544  1.00  0.00    -0.205 F 
ATOM     85  C   UNL     1       6.239  11.446  -0.625  1.00  0.00     0.022 A 
BRANCH  83  86
ATOM     86  S   UNL     1       6.999  12.459   1.809  1.00  0.00     0.127 S 
ATOM     87  O   UNL     1       7.877  13.532   1.353  1.00  0.00    -0.237 OA
ATOM     88  O   UNL     1       5.573  12.788   1.807  1.00  0.00    -0.237 OA
ATOM     89  O   UNL     1       7.435  11.718   2.982  1.00  0.00    -0.744 OA
ENDBRANCH  83  86
ENDBRANCH  55  79
BRANCH  67  90
ATOM     90  C   UNL     1      12.715   5.728   3.644  1.00  0.00     0.023 A 
ATOM     91  C   UNL     1      13.585   6.831   3.561  1.00  0.00     0.012 A 
ATOM     92  C   UNL     1      13.046   4.736   4.607  1.00  0.00     0.148 A 
ATOM     93  C   UNL     1      14.747   6.925   4.337  1.00  0.00     0.002 A 
ATOM     94  C   UNL     1      14.140   4.891   5.457  1.00  0.00     0.091 A 
ATOM     95  F   UNL     1      12.313   3.617   4.699  1.00  0.00    -0.205 F 
ATOM     96  C   UNL     1      15.012   5.967   5.304  1.00  0.00     0.022 A 
BRANCH  94  97
ATOM     97  S   UNL     1      14.364   3.804   6.874  1.00  0.00     0.127 S 
ATOM     98  O   UNL     1      15.197   2.741   6.317  1.00  0.00    -0.237 OA
ATOM     99  O   UNL     1      15.048   4.671   7.836  1.00  0.00    -0.237 OA
ATOM    100  O   UNL     1      13.014   3.428   7.271  1.00  0.00    -0.744 OA
ENDBRANCH  94  97
ENDBRANCH  67  90
ENDBRANCH  41  42
ENDBRANCH  33  36
ENDBRANCH  31  32
ENDBRANCH  30  31
ENDBRANCH   1  30
TORSDOF 18
