REMARK SMILES COC[C@@H](C)CC(=O)N1[C@@H](C2CC2)SC[C@H]1C(=O)NCCCNC(=O)c1ccc(-c2c3nc(c(-c4cccc(S(=O)(=O)[O-])c4F)c4ccc([nH]4)c(-c4cccc(S(=O)(=O)[O-])c4F)c4nc(c(-c5cccc(S(=O)(=O)[O-])c5F)c5ccc2[nH]5)C=C4)C=C3)cc1
REMARK SMILES IDX 20 1 19 2 17 3 18 4 16 6 9 7 10 8 14 9 15 10 7 11 8 12 6 13
REMARK SMILES IDX 4 14 5 15 3 16 2 17 1 18 11 19 12 20 13 21 21 22 22 23 23 24
REMARK SMILES IDX 24 25 25 27 26 28 27 29 88 30 28 31 87 32 29 33 30 34 31 35
REMARK SMILES IDX 81 36 32 37 86 38 80 39 82 40 33 41 85 42 79 43 78 44 34 46
REMARK SMILES IDX 66 47 46 48 65 49 47 50 50 51 64 52 83 53 48 54 49 55 63 57
REMARK SMILES IDX 84 58 51 59 35 60 36 61 44 62 37 63 39 64 45 65 38 66 40 67
REMARK SMILES IDX 41 68 42 69 43 70 67 71 68 72 76 73 69 74 71 75 77 76 70 77
REMARK SMILES IDX 72 78 73 79 74 80 75 81 52 82 53 83 61 84 54 85 56 86 62 87
REMARK SMILES IDX 55 88 57 89 58 90 59 91 60 92
REMARK H PARENT 19 5 23 26 82 45 50 56
REMARK Flexibility Score: inf
ROOT
ATOM      1  C   UNL     1      -1.620   4.382  -5.306  1.00  0.00     0.117 C 
ENDROOT
BRANCH   1   2
ATOM      2  N   UNL     1      -1.083   5.691  -5.032  1.00  0.00    -0.354 N 
ATOM      3  C   UNL     1       0.169   6.037  -4.623  1.00  0.00     0.243 C 
ATOM      4  O   UNL     1       0.511   7.211  -4.816  1.00  0.00    -0.273 OA
ATOM      5  H   UNL     1      -1.709   6.440  -5.158  1.00  0.00     0.163 HD
BRANCH   3   6
ATOM      6  C   UNL     1       1.218   5.000  -4.165  1.00  0.00     0.185 C 
ATOM      7  N   UNL     1       0.839   3.941  -3.212  1.00  0.00    -0.318 N 
ATOM      8  C   UNL     1       1.303   2.599  -3.558  1.00  0.00     0.147 C 
ATOM      9  S   UNL     1       2.528   2.796  -4.859  1.00  0.00    -0.134 SA
ATOM     10  C   UNL     1       1.866   4.382  -5.403  1.00  0.00     0.107 C 
BRANCH   7  11
ATOM     11  C   UNL     1       0.452   4.373  -1.951  1.00  0.00     0.224 C 
ATOM     12  O   UNL     1      -0.272   5.364  -1.830  1.00  0.00    -0.275 OA
BRANCH  11  13
ATOM     13  C   UNL     1       1.114   3.780  -0.707  1.00  0.00     0.106 C 
BRANCH  13  14
ATOM     14  C   UNL     1       0.352   2.709   0.089  1.00  0.00     0.021 C 
ATOM     15  C   UNL     1       0.857   2.691   1.543  1.00  0.00     0.010 C 
BRANCH  14  16
ATOM     16  C   UNL     1       0.535   1.320  -0.528  1.00  0.00     0.163 C 
BRANCH  16  17
ATOM     17  O   UNL     1      -0.043   0.313   0.281  1.00  0.00    -0.384 OA
ATOM     18  C   UNL     1       0.846  -0.731   0.649  1.00  0.00     0.194 C 
ENDBRANCH  16  17
ENDBRANCH  14  16
ENDBRANCH  13  14
ENDBRANCH  11  13
ENDBRANCH   7  11
BRANCH   8  19
ATOM     19  C   UNL     1       0.109   1.745  -3.916  1.00  0.00     0.022 C 
ATOM     20  C   UNL     1      -0.241   1.185  -5.284  1.00  0.00     0.007 C 
ATOM     21  C   UNL     1       0.219   0.262  -4.196  1.00  0.00     0.007 C 
ENDBRANCH   8  19
ENDBRANCH   3   6
ENDBRANCH   1   2
BRANCH   1  22
ATOM     22  C   UNL     1      -2.643   3.920  -4.282  1.00  0.00     0.042 C 
BRANCH  22  23
ATOM     23  C   UNL     1      -4.048   3.809  -4.848  1.00  0.00     0.118 C 
BRANCH  23  24
ATOM     24  N   UNL     1      -4.149   2.853  -5.952  1.00  0.00    -0.352 N 
ATOM     25  C   UNL     1      -5.012   1.807  -6.169  1.00  0.00     0.251 C 
ATOM     26  H   UNL     1      -3.481   2.982  -6.663  1.00  0.00     0.163 HD
ATOM     27  O   UNL     1      -4.819   1.075  -7.141  1.00  0.00    -0.269 OA
BRANCH  25  28
ATOM     28  C   UNL     1      -6.137   1.530  -5.247  1.00  0.00     0.039 A 
ATOM     29  C   UNL     1      -6.532   0.204  -5.037  1.00  0.00     0.014 A 
ATOM     30  C   UNL     1      -6.808   2.557  -4.586  1.00  0.00     0.014 A 
ATOM     31  C   UNL     1      -7.537  -0.087  -4.109  1.00  0.00     0.010 A 
ATOM     32  C   UNL     1      -7.707   2.260  -3.571  1.00  0.00     0.010 A 
ATOM     33  C   UNL     1      -8.099   0.937  -3.331  1.00  0.00    -0.014 A 
BRANCH  33  34
ATOM     34  C   UNL     1      -9.108   0.667  -2.273  1.00  0.00     0.031 A 
ATOM     35  C   UNL     1     -10.454   1.347  -2.329  1.00  0.00     0.074 A 
ATOM     36  C   UNL     1      -8.780  -0.100  -1.214  1.00  0.00     0.049 A 
ATOM     37  N   UNL     1     -11.419   1.342  -1.447  1.00  0.00    -0.248 NA
ATOM     38  C   UNL     1     -10.738   2.175  -3.516  1.00  0.00     0.031 C 
ATOM     39  C   UNL     1      -7.483  -0.749  -1.002  1.00  0.00     0.029 A 
ATOM     40  N   UNL     1      -9.502  -0.441  -0.097  1.00  0.00    -0.354 N 
ATOM     41  C   UNL     1     -12.398   2.193  -1.949  1.00  0.00     0.074 A 
ATOM     42  C   UNL     1     -11.889   2.739  -3.187  1.00  0.00     0.031 C 
ATOM     43  C   UNL     1      -7.508  -1.420   0.160  1.00  0.00     0.029 A 
ATOM     44  C   UNL     1      -8.802  -1.216   0.799  1.00  0.00     0.049 A 
ATOM     45  H   UNL     1     -10.434  -0.158   0.048  1.00  0.00     0.167 HD
ATOM     46  C   UNL     1     -13.626   2.467  -1.450  1.00  0.00     0.034 A 
ATOM     47  C   UNL     1      -9.161  -1.698   2.006  1.00  0.00     0.034 A 
ATOM     48  C   UNL     1     -14.147   1.881  -0.246  1.00  0.00     0.049 A 
ATOM     49  C   UNL     1     -10.544  -1.401   2.523  1.00  0.00     0.074 A 
ATOM     50  C   UNL     1     -15.405   2.031   0.310  1.00  0.00     0.029 A 
ATOM     51  N   UNL     1     -13.440   1.029   0.588  1.00  0.00    -0.354 N 
ATOM     52  N   UNL     1     -11.504  -0.705   1.964  1.00  0.00    -0.248 NA
ATOM     53  C   UNL     1     -10.905  -1.987   3.821  1.00  0.00     0.031 C 
ATOM     54  C   UNL     1     -15.450   1.287   1.493  1.00  0.00     0.029 A 
ATOM     55  C   UNL     1     -14.233   0.645   1.654  1.00  0.00     0.049 A 
ATOM     56  H   UNL     1     -12.510   0.739   0.442  1.00  0.00     0.167 HD
ATOM     57  C   UNL     1     -12.596  -0.807   2.819  1.00  0.00     0.074 A 
ATOM     58  C   UNL     1     -12.183  -1.649   3.922  1.00  0.00     0.031 C 
ATOM     59  C   UNL     1     -13.824  -0.244   2.710  1.00  0.00     0.034 A 
BRANCH  46  60
ATOM     60  C   UNL     1     -14.516   3.393  -2.240  1.00  0.00     0.023 A 
ATOM     61  C   UNL     1     -15.043   2.962  -3.475  1.00  0.00     0.012 A 
ATOM     62  C   UNL     1     -14.878   4.659  -1.739  1.00  0.00     0.148 A 
ATOM     63  C   UNL     1     -15.885   3.789  -4.218  1.00  0.00     0.002 A 
ATOM     64  C   UNL     1     -15.758   5.457  -2.462  1.00  0.00     0.091 A 
ATOM     65  F   UNL     1     -14.354   5.060  -0.573  1.00  0.00    -0.205 F 
ATOM     66  C   UNL     1     -16.251   5.030  -3.706  1.00  0.00     0.022 A 
BRANCH  64  67
ATOM     67  S   UNL     1     -16.360   7.038  -1.856  1.00  0.00     0.127 S 
ATOM     68  O   UNL     1     -15.748   7.969  -2.803  1.00  0.00    -0.237 OA
ATOM     69  O   UNL     1     -17.808   6.888  -1.998  1.00  0.00    -0.237 OA
ATOM     70  O   UNL     1     -15.890   7.150  -0.483  1.00  0.00    -0.744 OA
ENDBRANCH  64  67
ENDBRANCH  46  60
BRANCH  47  71
ATOM     71  C   UNL     1      -8.229  -2.566   2.782  1.00  0.00     0.023 A 
ATOM     72  C   UNL     1      -8.546  -3.927   2.964  1.00  0.00     0.012 A 
ATOM     73  C   UNL     1      -7.041  -2.059   3.344  1.00  0.00     0.148 A 
ATOM     74  C   UNL     1      -7.725  -4.755   3.729  1.00  0.00     0.002 A 
ATOM     75  C   UNL     1      -6.197  -2.904   4.057  1.00  0.00     0.091 A 
ATOM     76  F   UNL     1      -6.758  -0.761   3.168  1.00  0.00    -0.205 F 
ATOM     77  C   UNL     1      -6.548  -4.247   4.269  1.00  0.00     0.022 A 
BRANCH  75  78
ATOM     78  S   UNL     1      -4.602  -2.370   4.686  1.00  0.00     0.127 S 
ATOM     79  O   UNL     1      -4.843  -2.341   6.127  1.00  0.00    -0.237 OA
ATOM     80  O   UNL     1      -3.721  -3.447   4.231  1.00  0.00    -0.237 OA
ATOM     81  O   UNL     1      -4.346  -1.080   4.061  1.00  0.00    -0.744 OA
ENDBRANCH  75  78
ENDBRANCH  47  71
BRANCH  59  82
ATOM     82  C   UNL     1     -14.836  -0.566   3.778  1.00  0.00     0.023 A 
ATOM     83  C   UNL     1     -14.694  -0.029   5.072  1.00  0.00     0.012 A 
ATOM     84  C   UNL     1     -15.969  -1.347   3.473  1.00  0.00     0.148 A 
ATOM     85  C   UNL     1     -15.643  -0.296   6.057  1.00  0.00     0.002 A 
ATOM     86  C   UNL     1     -16.938  -1.563   4.444  1.00  0.00     0.091 A 
ATOM     87  F   UNL     1     -16.078  -1.862   2.239  1.00  0.00    -0.205 F 
ATOM     88  C   UNL     1     -16.770  -1.051   5.740  1.00  0.00     0.022 A 
BRANCH  86  89
ATOM     89  S   UNL     1     -18.469  -2.436   4.099  1.00  0.00     0.127 S 
ATOM     90  O   UNL     1     -18.274  -3.683   4.838  1.00  0.00    -0.237 OA
ATOM     91  O   UNL     1     -19.472  -1.538   4.672  1.00  0.00    -0.237 OA
ATOM     92  O   UNL     1     -18.538  -2.575   2.651  1.00  0.00    -0.744 OA
ENDBRANCH  86  89
ENDBRANCH  59  82
ENDBRANCH  33  34
ENDBRANCH  25  28
ENDBRANCH  23  24
ENDBRANCH  22  23
ENDBRANCH   1  22
TORSDOF 19
