REMARK SMILES Cn1cc(NC(=O)N2Cc3nc[nH]c3C[C@@H]2C(=O)NCCCNC(=O)c2ccc(-c3c4nc(c(-c5cccc(S(=O)(=O)[O-])c5F)c5ccc([nH]5)c(-c5cccc(S(=O)(=O)[O-])c5F)c5nc(c(-c6cccc(S(=O)(=O)[O-])c6F)c6ccc3[nH]6)C=C5)C=C4)cc2)cn1
REMARK SMILES IDX 21 1 20 2 19 3 17 4 18 5 16 7 8 8 9 9 10 10 15 11 11 12
REMARK SMILES IDX 14 13 12 14 13 15 6 17 5 18 7 20 4 21 1 22 2 23 3 24 90 25
REMARK SMILES IDX 89 26 22 27 23 28 24 29 25 31 26 32 27 33 88 34 28 35 87 36
REMARK SMILES IDX 29 37 30 38 31 39 81 40 32 41 86 42 80 43 82 44 33 45 85 46
REMARK SMILES IDX 79 47 78 48 34 50 66 51 46 52 65 53 47 54 50 55 64 56 83 57
REMARK SMILES IDX 48 58 49 59 63 61 84 62 51 63 35 64 36 65 44 66 37 67 39 68
REMARK SMILES IDX 45 69 38 70 40 71 41 72 42 73 43 74 67 75 68 76 76 77 69 78
REMARK SMILES IDX 71 79 77 80 70 81 72 82 73 83 74 84 75 85 52 86 53 87 61 88
REMARK SMILES IDX 54 89 56 90 62 91 55 92 57 93 58 94 59 95 60 96
REMARK H PARENT 19 6 13 16 5 19 23 30 82 49 50 60
REMARK Flexibility Score: inf
ROOT
ATOM      1  C   UNL     1       3.682   3.401   4.321  1.00  0.00     0.042 C 
ENDROOT
BRANCH   1   2
ATOM      2  C   UNL     1       4.680   2.387   3.763  1.00  0.00     0.117 C 
BRANCH   2   3
ATOM      3  N   UNL     1       4.079   1.152   3.290  1.00  0.00    -0.354 N 
ATOM      4  C   UNL     1       3.755   0.635   2.071  1.00  0.00     0.243 C 
ATOM      5  O   UNL     1       3.606  -0.595   2.101  1.00  0.00    -0.273 OA
ATOM      6  H   UNL     1       3.851   0.541   4.027  1.00  0.00     0.163 HD
BRANCH   4   7
ATOM      7  C   UNL     1       3.422   1.464   0.773  1.00  0.00     0.182 C 
ATOM      8  N   UNL     1       3.764   0.699  -0.510  1.00  0.00    -0.306 N 
ATOM      9  C   UNL     1       4.348   1.337  -1.708  1.00  0.00     0.180 C 
ATOM     10  C   UNL     1       4.224   2.811  -1.663  1.00  0.00     0.081 A 
ATOM     11  C   UNL     1       4.048   2.876   0.822  1.00  0.00     0.091 C 
ATOM     12  N   UNL     1       4.322   3.675  -2.722  1.00  0.00    -0.240 NA
ATOM     13  C   UNL     1       4.064   3.508  -0.500  1.00  0.00     0.042 A 
ATOM     14  C   UNL     1       4.219   4.877  -2.192  1.00  0.00     0.197 A 
ATOM     15  N   UNL     1       4.050   4.826  -0.833  1.00  0.00    -0.348 N 
ATOM     16  H   UNL     1       3.941   5.589  -0.221  1.00  0.00     0.167 HD
BRANCH   8  17
ATOM     17  C   UNL     1       3.494  -0.640  -0.698  1.00  0.00     0.322 C 
ATOM     18  N   UNL     1       2.304  -1.147  -0.287  1.00  0.00    -0.305 N 
ATOM     19  H   UNL     1       2.329  -2.033   0.140  1.00  0.00     0.171 HD
ATOM     20  O   UNL     1       4.314  -1.378  -1.252  1.00  0.00    -0.248 OA
BRANCH  18  21
ATOM     21  C   UNL     1       1.064  -0.556  -0.402  1.00  0.00     0.081 A 
ATOM     22  C   UNL     1      -2.492  -0.390   0.100  1.00  0.00     0.173 C 
ATOM     23  N   UNL     1      -1.097  -0.252  -0.241  1.00  0.00    -0.274 N 
ATOM     24  C   UNL     1      -0.098  -1.134   0.049  1.00  0.00     0.134 A 
ATOM     25  N   UNL     1      -0.673   0.841  -0.909  1.00  0.00    -0.180 NA
ATOM     26  C   UNL     1       0.645   0.644  -1.014  1.00  0.00     0.161 A 
ENDBRANCH  18  21
ENDBRANCH   8  17
ENDBRANCH   4   7
ENDBRANCH   2   3
ENDBRANCH   1   2
BRANCH   1  27
ATOM     27  C   UNL     1       3.505   3.256   5.828  1.00  0.00     0.118 C 
BRANCH  27  28
ATOM     28  N   UNL     1       4.763   3.483   6.543  1.00  0.00    -0.352 N 
ATOM     29  C   UNL     1       5.105   3.156   7.835  1.00  0.00     0.251 C 
ATOM     30  H   UNL     1       5.467   3.936   6.024  1.00  0.00     0.163 HD
ATOM     31  O   UNL     1       6.139   3.596   8.334  1.00  0.00    -0.269 OA
BRANCH  29  32
ATOM     32  C   UNL     1       4.184   2.328   8.626  1.00  0.00     0.039 A 
ATOM     33  C   UNL     1       3.748   2.791   9.867  1.00  0.00     0.014 A 
ATOM     34  C   UNL     1       3.667   1.158   8.073  1.00  0.00     0.014 A 
ATOM     35  C   UNL     1       2.692   2.138  10.494  1.00  0.00     0.010 A 
ATOM     36  C   UNL     1       2.548   0.581   8.642  1.00  0.00     0.010 A 
ATOM     37  C   UNL     1       2.053   1.061   9.856  1.00  0.00    -0.014 A 
BRANCH  37  38
ATOM     38  C   UNL     1       0.786   0.562  10.403  1.00  0.00     0.031 A 
ATOM     39  C   UNL     1      -0.237   1.605  10.711  1.00  0.00     0.074 A 
ATOM     40  C   UNL     1       0.424  -0.737  10.466  1.00  0.00     0.049 A 
ATOM     41  N   UNL     1      -0.692   1.942  11.874  1.00  0.00    -0.248 NA
ATOM     42  C   UNL     1      -0.749   2.431   9.608  1.00  0.00     0.031 C 
ATOM     43  C   UNL     1       1.141  -1.889   9.910  1.00  0.00     0.029 A 
ATOM     44  N   UNL     1      -0.739  -1.291  10.928  1.00  0.00    -0.354 N 
ATOM     45  C   UNL     1      -1.716   2.857  11.629  1.00  0.00     0.074 A 
ATOM     46  C   UNL     1      -1.587   3.249  10.250  1.00  0.00     0.031 C 
ATOM     47  C   UNL     1       0.297  -2.938   9.821  1.00  0.00     0.029 A 
ATOM     48  C   UNL     1      -0.938  -2.595  10.499  1.00  0.00     0.049 A 
ATOM     49  H   UNL     1      -1.373  -0.810  11.509  1.00  0.00     0.167 HD
ATOM     50  C   UNL     1      -2.743   3.017  12.508  1.00  0.00     0.034 A 
ATOM     51  C   UNL     1      -2.030  -3.369  10.679  1.00  0.00     0.034 A 
ATOM     52  C   UNL     1      -2.483   2.347  13.755  1.00  0.00     0.049 A 
ATOM     53  C   UNL     1      -2.752  -2.883  11.871  1.00  0.00     0.074 A 
ATOM     54  C   UNL     1      -1.751   2.561  14.899  1.00  0.00     0.029 A 
ATOM     55  N   UNL     1      -2.885   1.040  13.760  1.00  0.00    -0.354 N 
ATOM     56  N   UNL     1      -2.259  -2.941  13.078  1.00  0.00    -0.248 NA
ATOM     57  C   UNL     1      -3.961  -2.082  11.728  1.00  0.00     0.031 C 
ATOM     58  C   UNL     1      -1.589   1.281  15.512  1.00  0.00     0.029 A 
ATOM     59  C   UNL     1      -2.226   0.326  14.722  1.00  0.00     0.049 A 
ATOM     60  H   UNL     1      -3.560   0.662  13.150  1.00  0.00     0.167 HD
ATOM     61  C   UNL     1      -2.816  -1.852  13.718  1.00  0.00     0.074 A 
ATOM     62  C   UNL     1      -3.988  -1.500  12.930  1.00  0.00     0.031 C 
ATOM     63  C   UNL     1      -2.092  -1.111  14.604  1.00  0.00     0.034 A 
BRANCH  50  64
ATOM     64  C   UNL     1      -4.175   3.382  12.159  1.00  0.00     0.023 A 
ATOM     65  C   UNL     1      -5.056   3.631  13.240  1.00  0.00     0.012 A 
ATOM     66  C   UNL     1      -4.766   3.195  10.891  1.00  0.00     0.148 A 
ATOM     67  C   UNL     1      -6.446   3.645  13.077  1.00  0.00     0.002 A 
ATOM     68  C   UNL     1      -6.146   3.285  10.720  1.00  0.00     0.091 A 
ATOM     69  F   UNL     1      -4.022   2.784   9.860  1.00  0.00    -0.205 F 
ATOM     70  C   UNL     1      -6.993   3.480  11.812  1.00  0.00     0.022 A 
BRANCH  68  71
ATOM     71  S   UNL     1      -6.893   3.129   9.093  1.00  0.00     0.127 S 
ATOM     72  O   UNL     1      -7.354   1.745   9.113  1.00  0.00    -0.237 OA
ATOM     73  O   UNL     1      -7.952   4.137   9.145  1.00  0.00    -0.237 OA
ATOM     74  O   UNL     1      -5.822   3.442   8.154  1.00  0.00    -0.744 OA
ENDBRANCH  68  71
ENDBRANCH  50  64
BRANCH  51  75
ATOM     75  C   UNL     1      -2.521  -4.496   9.865  1.00  0.00     0.023 A 
ATOM     76  C   UNL     1      -3.249  -5.536  10.471  1.00  0.00     0.012 A 
ATOM     77  C   UNL     1      -2.485  -4.427   8.454  1.00  0.00     0.148 A 
ATOM     78  C   UNL     1      -3.952  -6.463   9.695  1.00  0.00     0.002 A 
ATOM     79  C   UNL     1      -3.187  -5.351   7.687  1.00  0.00     0.091 A 
ATOM     80  F   UNL     1      -1.831  -3.409   7.877  1.00  0.00    -0.205 F 
ATOM     81  C   UNL     1      -3.931  -6.364   8.306  1.00  0.00     0.022 A 
BRANCH  79  82
ATOM     82  S   UNL     1      -3.235  -5.273   5.891  1.00  0.00     0.127 S 
ATOM     83  O   UNL     1      -2.925  -6.654   5.519  1.00  0.00    -0.237 OA
ATOM     84  O   UNL     1      -4.616  -4.868   5.643  1.00  0.00    -0.237 OA
ATOM     85  O   UNL     1      -2.216  -4.306   5.505  1.00  0.00    -0.744 OA
ENDBRANCH  79  82
ENDBRANCH  51  75
BRANCH  63  86
ATOM     86  C   UNL     1      -0.927  -1.767  15.287  1.00  0.00     0.023 A 
ATOM     87  C   UNL     1       0.216  -2.194  14.584  1.00  0.00     0.012 A 
ATOM     88  C   UNL     1      -0.944  -1.872  16.688  1.00  0.00     0.148 A 
ATOM     89  C   UNL     1       1.308  -2.741  15.262  1.00  0.00     0.002 A 
ATOM     90  C   UNL     1       0.161  -2.375  17.363  1.00  0.00     0.091 A 
ATOM     91  F   UNL     1      -2.044  -1.467  17.343  1.00  0.00    -0.205 F 
ATOM     92  C   UNL     1       1.285  -2.821  16.653  1.00  0.00     0.022 A 
BRANCH  90  93
ATOM     93  S   UNL     1       0.230  -2.387  19.156  1.00  0.00     0.127 S 
ATOM     94  O   UNL     1      -0.099  -3.776  19.467  1.00  0.00    -0.237 OA
ATOM     95  O   UNL     1       1.620  -2.014  19.423  1.00  0.00    -0.237 OA
ATOM     96  O   UNL     1      -0.742  -1.393  19.593  1.00  0.00    -0.744 OA
ENDBRANCH  90  93
ENDBRANCH  63  86
ENDBRANCH  37  38
ENDBRANCH  29  32
ENDBRANCH  27  28
ENDBRANCH   1  27
TORSDOF 15
