REMARK SMILES CC[C@](C)(NC(=O)CCSc1ccccc1Cl)C(=O)NCCCNC(=O)c1ccc(-c2c3nc(c(-c4cccc(S(=O)(=O)[O-])c4F)c4ccc([nH]4)c(-c4cccc(S(=O)(=O)[O-])c4F)c4nc(c(-c5cccc(S(=O)(=O)[O-])c5F)c5ccc2[nH]5)C=C4)C=C3)cc1
REMARK SMILES IDX 21 1 20 2 18 3 19 4 3 6 4 7 2 8 1 9 5 10 6 11 7 13 8 14 9 15
REMARK SMILES IDX 10 16 11 17 12 18 16 19 13 20 15 21 17 22 14 23 22 24 23 25
REMARK SMILES IDX 24 26 25 27 26 29 27 30 28 31 89 32 29 33 88 34 30 35 31 36
REMARK SMILES IDX 32 37 82 38 33 39 87 40 81 41 83 42 34 43 86 44 80 45 79 46
REMARK SMILES IDX 35 48 67 49 47 50 66 51 48 52 51 53 65 54 84 55 49 56 50 57
REMARK SMILES IDX 64 59 85 60 52 61 36 62 37 63 45 64 38 65 40 66 46 67 39 68
REMARK SMILES IDX 41 69 42 70 43 71 44 72 68 73 69 74 77 75 70 76 72 77 78 78
REMARK SMILES IDX 71 79 73 80 74 81 75 82 76 83 53 84 54 85 62 86 55 87 57 88
REMARK SMILES IDX 63 89 56 90 58 91 59 92 60 93 61 94
REMARK H PARENT 20 5 5 12 24 28 83 47 51 58
REMARK Flexibility Score: inf
ROOT
ATOM      1  C   UNL     1       2.671  -4.692   2.430  1.00  0.00     0.117 C 
ENDROOT
BRANCH   1   2
ATOM      2  N   UNL     1       3.356  -3.492   1.970  1.00  0.00    -0.354 N 
ATOM      3  C   UNL     1       2.924  -2.380   1.312  1.00  0.00     0.245 C 
ATOM      4  O   UNL     1       3.774  -1.513   1.084  1.00  0.00    -0.272 OA
ATOM      5  H   UNL     1       4.319  -3.482   2.174  1.00  0.00     0.163 HD
BRANCH   3   6
ATOM      6  C   UNL     1       1.430  -2.155   0.957  1.00  0.00     0.116 C 
ATOM      7  C   UNL     1       1.238  -0.858   0.162  1.00  0.00     0.045 C 
BRANCH   6   8
ATOM      8  C   UNL     1       0.600  -1.991   2.272  1.00  0.00     0.035 C 
ATOM      9  C   UNL     1       1.068  -0.886   3.211  1.00  0.00     0.007 C 
ENDBRANCH   6   8
BRANCH   6  10
ATOM     10  N   UNL     1       0.893  -3.332   0.244  1.00  0.00    -0.342 N 
ATOM     11  C   UNL     1       1.275  -4.077  -0.818  1.00  0.00     0.221 C 
ATOM     12  H   UNL     1       0.050  -3.652   0.639  1.00  0.00     0.164 HD
ATOM     13  O   UNL     1       0.584  -5.083  -1.010  1.00  0.00    -0.275 OA
BRANCH  11  14
ATOM     14  C   UNL     1       2.523  -3.855  -1.644  1.00  0.00     0.111 C 
BRANCH  14  15
ATOM     15  C   UNL     1       2.549  -2.743  -2.685  1.00  0.00     0.085 C 
BRANCH  15  16
ATOM     16  S   UNL     1       1.331  -2.755  -4.057  1.00  0.00    -0.124 SA
BRANCH  16  17
ATOM     17  C   UNL     1      -0.234  -2.623  -3.198  1.00  0.00     0.026 A 
ATOM     18  C   UNL     1      -0.612  -1.389  -2.648  1.00  0.00     0.016 A 
ATOM     19  C   UNL     1      -1.119  -3.708  -3.076  1.00  0.00     0.054 A 
ATOM     20  C   UNL     1      -1.798  -1.264  -1.914  1.00  0.00     0.001 A 
ATOM     21  C   UNL     1      -2.281  -3.590  -2.305  1.00  0.00     0.022 A 
ATOM     22  Cl  UNL     1      -0.837  -5.226  -3.859  1.00  0.00    -0.083 Cl
ATOM     23  C   UNL     1      -2.615  -2.373  -1.715  1.00  0.00     0.002 A 
ENDBRANCH  16  17
ENDBRANCH  15  16
ENDBRANCH  14  15
ENDBRANCH  11  14
ENDBRANCH   6  10
ENDBRANCH   3   6
ENDBRANCH   1   2
BRANCH   1  24
ATOM     24  C   UNL     1       3.062  -5.947   1.659  1.00  0.00     0.042 C 
BRANCH  24  25
ATOM     25  C   UNL     1       4.560  -6.130   1.468  1.00  0.00     0.118 C 
BRANCH  25  26
ATOM     26  N   UNL     1       5.269  -6.239   2.735  1.00  0.00    -0.352 N 
ATOM     27  C   UNL     1       5.813  -7.345   3.341  1.00  0.00     0.251 C 
ATOM     28  H   UNL     1       5.375  -5.395   3.231  1.00  0.00     0.163 HD
ATOM     29  O   UNL     1       6.160  -7.285   4.516  1.00  0.00    -0.269 OA
BRANCH  27  30
ATOM     30  C   UNL     1       5.962  -8.605   2.582  1.00  0.00     0.039 A 
ATOM     31  C   UNL     1       5.594  -9.809   3.187  1.00  0.00     0.014 A 
ATOM     32  C   UNL     1       6.477  -8.598   1.284  1.00  0.00     0.014 A 
ATOM     33  C   UNL     1       5.684 -11.001   2.463  1.00  0.00     0.010 A 
ATOM     34  C   UNL     1       6.488  -9.772   0.538  1.00  0.00     0.010 A 
ATOM     35  C   UNL     1       6.102 -10.988   1.122  1.00  0.00    -0.014 A 
BRANCH  35  36
ATOM     36  C   UNL     1       6.143 -12.229   0.310  1.00  0.00     0.031 A 
ATOM     37  C   UNL     1       7.452 -12.730  -0.239  1.00  0.00     0.074 A 
ATOM     38  C   UNL     1       4.992 -12.851  -0.014  1.00  0.00     0.049 A 
ATOM     39  N   UNL     1       7.680 -13.748  -1.027  1.00  0.00    -0.248 NA
ATOM     40  C   UNL     1       8.661 -11.970   0.122  1.00  0.00     0.031 C 
ATOM     41  C   UNL     1       3.653 -12.417   0.389  1.00  0.00     0.029 A 
ATOM     42  N   UNL     1       4.761 -13.964  -0.784  1.00  0.00    -0.354 N 
ATOM     43  C   UNL     1       9.045 -13.729  -1.287  1.00  0.00     0.074 A 
ATOM     44  C   UNL     1       9.591 -12.580  -0.599  1.00  0.00     0.031 C 
ATOM     45  C   UNL     1       2.742 -13.252  -0.136  1.00  0.00     0.029 A 
ATOM     46  C   UNL     1       3.427 -14.262  -0.936  1.00  0.00     0.049 A 
ATOM     47  H   UNL     1       5.483 -14.498  -1.189  1.00  0.00     0.167 HD
ATOM     48  C   UNL     1       9.784 -14.606  -2.008  1.00  0.00     0.034 A 
ATOM     49  C   UNL     1       2.823 -15.234  -1.648  1.00  0.00     0.034 A 
ATOM     50  C   UNL     1       9.246 -15.775  -2.649  1.00  0.00     0.049 A 
ATOM     51  C   UNL     1       3.672 -16.216  -2.410  1.00  0.00     0.074 A 
ATOM     52  C   UNL     1       9.924 -16.779  -3.316  1.00  0.00     0.029 A 
ATOM     53  N   UNL     1       7.898 -16.093  -2.710  1.00  0.00    -0.354 N 
ATOM     54  N   UNL     1       4.978 -16.282  -2.502  1.00  0.00    -0.248 NA
ATOM     55  C   UNL     1       2.965 -17.279  -3.140  1.00  0.00     0.031 C 
ATOM     56  C   UNL     1       8.984 -17.695  -3.799  1.00  0.00     0.029 A 
ATOM     57  C   UNL     1       7.721 -17.271  -3.416  1.00  0.00     0.049 A 
ATOM     58  H   UNL     1       7.173 -15.560  -2.311  1.00  0.00     0.167 HD
ATOM     59  C   UNL     1       5.250 -17.405  -3.274  1.00  0.00     0.074 A 
ATOM     60  C   UNL     1       3.973 -18.005  -3.602  1.00  0.00     0.031 C 
ATOM     61  C   UNL     1       6.448 -17.885  -3.692  1.00  0.00     0.034 A 
BRANCH  48  62
ATOM     62  C   UNL     1      11.269 -14.367  -2.091  1.00  0.00     0.023 A 
ATOM     63  C   UNL     1      12.071 -14.589  -0.952  1.00  0.00     0.012 A 
ATOM     64  C   UNL     1      11.879 -13.982  -3.300  1.00  0.00     0.148 A 
ATOM     65  C   UNL     1      13.451 -14.399  -1.005  1.00  0.00     0.002 A 
ATOM     66  C   UNL     1      13.261 -13.836  -3.357  1.00  0.00     0.091 A 
ATOM     67  F   UNL     1      11.099 -13.754  -4.366  1.00  0.00    -0.205 F 
ATOM     68  C   UNL     1      14.046 -14.033  -2.209  1.00  0.00     0.022 A 
BRANCH  66  69
ATOM     69  S   UNL     1      14.132 -13.441  -4.878  1.00  0.00     0.127 S 
ATOM     70  O   UNL     1      14.547 -12.061  -4.630  1.00  0.00    -0.237 OA
ATOM     71  O   UNL     1      15.224 -14.415  -4.870  1.00  0.00    -0.237 OA
ATOM     72  O   UNL     1      13.166 -13.621  -5.952  1.00  0.00    -0.744 OA
ENDBRANCH  66  69
ENDBRANCH  48  62
BRANCH  49  73
ATOM     73  C   UNL     1       1.339 -15.366  -1.619  1.00  0.00     0.023 A 
ATOM     74  C   UNL     1       0.758 -16.455  -0.942  1.00  0.00     0.012 A 
ATOM     75  C   UNL     1       0.502 -14.411  -2.228  1.00  0.00     0.148 A 
ATOM     76  C   UNL     1      -0.628 -16.609  -0.896  1.00  0.00     0.002 A 
ATOM     77  C   UNL     1      -0.879 -14.541  -2.133  1.00  0.00     0.091 A 
ATOM     78  F   UNL     1       1.074 -13.388  -2.880  1.00  0.00    -0.205 F 
ATOM     79  C   UNL     1      -1.446 -15.648  -1.482  1.00  0.00     0.022 A 
BRANCH  77  80
ATOM     80  S   UNL     1      -2.012 -13.288  -2.745  1.00  0.00     0.127 S 
ATOM     81  O   UNL     1      -2.602 -13.957  -3.901  1.00  0.00    -0.237 OA
ATOM     82  O   UNL     1      -2.913 -13.114  -1.606  1.00  0.00    -0.237 OA
ATOM     83  O   UNL     1      -1.184 -12.125  -3.038  1.00  0.00    -0.744 OA
ENDBRANCH  77  80
ENDBRANCH  49  73
BRANCH  61  84
ATOM     84  C   UNL     1       6.443 -19.133  -4.535  1.00  0.00     0.023 A 
ATOM     85  C   UNL     1       6.011 -19.067  -5.874  1.00  0.00     0.012 A 
ATOM     86  C   UNL     1       6.936 -20.351  -4.026  1.00  0.00     0.148 A 
ATOM     87  C   UNL     1       6.040 -20.201  -6.685  1.00  0.00     0.002 A 
ATOM     88  C   UNL     1       7.008 -21.465  -4.854  1.00  0.00     0.091 A 
ATOM     89  F   UNL     1       7.326 -20.398  -2.743  1.00  0.00    -0.205 F 
ATOM     90  C   UNL     1       6.550 -21.395  -6.179  1.00  0.00     0.022 A 
BRANCH  88  91
ATOM     91  S   UNL     1       7.735 -23.018  -4.318  1.00  0.00     0.127 S 
ATOM     92  O   UNL     1       6.553 -23.865  -4.170  1.00  0.00    -0.237 OA
ATOM     93  O   UNL     1       8.596 -23.365  -5.449  1.00  0.00    -0.237 OA
ATOM     94  O   UNL     1       8.451 -22.721  -3.085  1.00  0.00    -0.744 OA
ENDBRANCH  88  91
ENDBRANCH  61  84
ENDBRANCH  35  36
ENDBRANCH  27  30
ENDBRANCH  25  26
ENDBRANCH  24  25
ENDBRANCH   1  24
TORSDOF 19
