REMARK SMILES O=C(NCCCNC(=O)[C@H]1CCCCN1S(=O)(=O)c1cc[nH]c1)c1ccc(-c2c3nc(c(-c4cccc(S(=O)(=O)[O-])c4F)c4ccc([nH]4)c(-c4cccc(S(=O)(=O)[O-])c4F)c4nc(c(-c5cccc(S(=O)(=O)[O-])c5F)c5ccc2[nH]5)C=C4)C=C3)cc1
REMARK SMILES IDX 4 1 3 2 1 3 2 4 24 6 25 7 86 8 26 9 85 10 27 11 28 12 29 13
REMARK SMILES IDX 79 14 30 15 84 16 78 17 80 18 31 19 83 20 77 21 76 22 32 24
REMARK SMILES IDX 64 25 44 26 63 27 45 28 48 29 62 30 81 31 46 32 47 33 61 35
REMARK SMILES IDX 82 36 49 37 33 38 34 39 42 40 35 41 37 42 43 43 36 44 38 45
REMARK SMILES IDX 39 46 40 47 41 48 65 49 66 50 74 51 67 52 69 53 75 54 68 55
REMARK SMILES IDX 70 56 71 57 72 58 73 59 50 60 51 61 59 62 52 63 54 64 60 65
REMARK SMILES IDX 53 66 55 67 56 68 57 69 58 70 5 71 6 72 7 73 8 74 9 76 10 77
REMARK SMILES IDX 11 78 15 79 12 80 14 81 13 82 16 83 17 84 18 85 19 86 20 87
REMARK SMILES IDX 23 88 21 89 22 90
REMARK H PARENT 3 5 80 23 48 34 7 75 22 91
REMARK Flexibility Score: inf
ROOT
ATOM      1  C   UNL     1       8.233   2.706  -3.233  1.00  0.00     0.118 C 
ENDROOT
BRANCH   1   2
ATOM      2  N   UNL     1       8.825   3.334  -4.403  1.00  0.00    -0.352 N 
ATOM      3  O   UNL     1      10.211   3.969  -6.008  1.00  0.00    -0.269 OA
ATOM      4  C   UNL     1      10.098   3.413  -4.914  1.00  0.00     0.251 C 
ATOM      5  H   UNL     1       8.164   3.811  -4.954  1.00  0.00     0.163 HD
BRANCH   4   6
ATOM      6  C   UNL     1      11.317   2.954  -4.194  1.00  0.00     0.039 A 
ATOM      7  C   UNL     1      11.311   1.991  -3.186  1.00  0.00     0.014 A 
ATOM      8  C   UNL     1      12.546   3.533  -4.566  1.00  0.00     0.014 A 
ATOM      9  C   UNL     1      12.470   1.708  -2.474  1.00  0.00     0.010 A 
ATOM     10  C   UNL     1      13.727   3.217  -3.888  1.00  0.00     0.010 A 
ATOM     11  C   UNL     1      13.681   2.317  -2.824  1.00  0.00    -0.014 A 
BRANCH  11  12
ATOM     12  C   UNL     1      14.900   1.758  -2.190  1.00  0.00     0.031 A 
ATOM     13  C   UNL     1      15.219   0.373  -2.822  1.00  0.00     0.074 A 
ATOM     14  C   UNL     1      15.416   2.443  -1.119  1.00  0.00     0.049 A 
ATOM     15  N   UNL     1      15.574  -0.749  -2.266  1.00  0.00    -0.248 NA
ATOM     16  C   UNL     1      14.947   0.170  -4.276  1.00  0.00     0.031 C 
ATOM     17  C   UNL     1      15.025   3.814  -0.709  1.00  0.00     0.029 A 
ATOM     18  N   UNL     1      16.360   2.150  -0.151  1.00  0.00    -0.354 N 
ATOM     19  C   UNL     1      15.812  -1.682  -3.313  1.00  0.00     0.074 A 
ATOM     20  C   UNL     1      15.241  -1.115  -4.492  1.00  0.00     0.031 C 
ATOM     21  C   UNL     1      15.640   4.181   0.442  1.00  0.00     0.029 A 
ATOM     22  C   UNL     1      16.498   3.102   0.901  1.00  0.00     0.049 A 
ATOM     23  H   UNL     1      16.905   1.331  -0.187  1.00  0.00     0.167 HD
ATOM     24  C   UNL     1      16.614  -2.783  -3.174  1.00  0.00     0.034 A 
ATOM     25  C   UNL     1      17.216   3.002   2.072  1.00  0.00     0.034 A 
ATOM     26  C   UNL     1      17.153  -2.794  -1.855  1.00  0.00     0.049 A 
ATOM     27  C   UNL     1      17.963   1.749   1.938  1.00  0.00     0.074 A 
ATOM     28  C   UNL     1      16.610  -3.080  -0.632  1.00  0.00     0.029 A 
ATOM     29  N   UNL     1      18.318  -2.082  -1.698  1.00  0.00    -0.354 N 
ATOM     30  N   UNL     1      18.989   1.590   1.159  1.00  0.00    -0.248 NA
ATOM     31  C   UNL     1      17.474   0.555   2.637  1.00  0.00     0.031 C 
ATOM     32  C   UNL     1      17.203  -2.114   0.202  1.00  0.00     0.029 A 
ATOM     33  C   UNL     1      18.248  -1.470  -0.476  1.00  0.00     0.049 A 
ATOM     34  H   UNL     1      19.061  -2.023  -2.341  1.00  0.00     0.167 HD
ATOM     35  C   UNL     1      19.003   0.230   0.994  1.00  0.00     0.074 A 
ATOM     36  C   UNL     1      18.334  -0.332   2.147  1.00  0.00     0.031 C 
ATOM     37  C   UNL     1      19.045  -0.288  -0.262  1.00  0.00     0.034 A 
BRANCH  24  38
ATOM     38  C   UNL     1      17.234  -3.780  -4.132  1.00  0.00     0.023 A 
ATOM     39  C   UNL     1      17.765  -4.960  -3.528  1.00  0.00     0.012 A 
ATOM     40  C   UNL     1      17.598  -3.529  -5.465  1.00  0.00     0.148 A 
ATOM     41  C   UNL     1      18.704  -5.774  -4.159  1.00  0.00     0.002 A 
ATOM     42  C   UNL     1      18.505  -4.377  -6.112  1.00  0.00     0.091 A 
ATOM     43  F   UNL     1      17.134  -2.435  -6.077  1.00  0.00    -0.205 F 
ATOM     44  C   UNL     1      19.087  -5.471  -5.450  1.00  0.00     0.022 A 
BRANCH  42  45
ATOM     45  S   UNL     1      19.029  -4.140  -7.816  1.00  0.00     0.127 S 
ATOM     46  O   UNL     1      20.417  -3.715  -7.650  1.00  0.00    -0.237 OA
ATOM     47  O   UNL     1      18.871  -5.489  -8.366  1.00  0.00    -0.237 OA
ATOM     48  O   UNL     1      18.114  -3.158  -8.379  1.00  0.00    -0.744 OA
ENDBRANCH  42  45
ENDBRANCH  24  38
BRANCH  25  49
ATOM     49  C   UNL     1      17.378   3.716   3.409  1.00  0.00     0.023 A 
ATOM     50  C   UNL     1      16.895   5.000   3.692  1.00  0.00     0.012 A 
ATOM     51  C   UNL     1      17.991   3.035   4.517  1.00  0.00     0.148 A 
ATOM     52  C   UNL     1      16.936   5.525   5.006  1.00  0.00     0.002 A 
ATOM     53  C   UNL     1      17.915   3.497   5.827  1.00  0.00     0.091 A 
ATOM     54  F   UNL     1      18.704   1.924   4.305  1.00  0.00    -0.205 F 
ATOM     55  C   UNL     1      17.397   4.760   6.079  1.00  0.00     0.022 A 
BRANCH  53  56
ATOM     56  S   UNL     1      18.335   2.446   7.239  1.00  0.00     0.127 S 
ATOM     57  O   UNL     1      19.237   3.300   8.010  1.00  0.00    -0.237 OA
ATOM     58  O   UNL     1      17.021   2.237   7.846  1.00  0.00    -0.237 OA
ATOM     59  O   UNL     1      18.948   1.242   6.692  1.00  0.00    -0.744 OA
ENDBRANCH  53  56
ENDBRANCH  25  49
BRANCH  37  60
ATOM     60  C   UNL     1      19.652   0.639  -1.322  1.00  0.00     0.023 A 
ATOM     61  C   UNL     1      20.965   1.099  -1.097  1.00  0.00     0.012 A 
ATOM     62  C   UNL     1      18.973   1.178  -2.443  1.00  0.00     0.148 A 
ATOM     63  C   UNL     1      21.567   2.056  -1.921  1.00  0.00     0.002 A 
ATOM     64  C   UNL     1      19.563   2.153  -3.257  1.00  0.00     0.091 A 
ATOM     65  F   UNL     1      17.751   0.737  -2.720  1.00  0.00    -0.205 F 
ATOM     66  C   UNL     1      20.867   2.587  -2.998  1.00  0.00     0.022 A 
BRANCH  64  67
ATOM     67  S   UNL     1      18.706   2.982  -4.618  1.00  0.00     0.127 S 
ATOM     68  O   UNL     1      18.975   4.397  -4.346  1.00  0.00    -0.237 OA
ATOM     69  O   UNL     1      19.407   2.458  -5.787  1.00  0.00    -0.237 OA
ATOM     70  O   UNL     1      17.298   2.619  -4.508  1.00  0.00    -0.744 OA
ENDBRANCH  64  67
ENDBRANCH  37  60
ENDBRANCH  11  12
ENDBRANCH   4   6
ENDBRANCH   1   2
BRANCH   1  71
ATOM     71  C   UNL     1       8.601   3.337  -1.892  1.00  0.00     0.042 C 
BRANCH  71  72
ATOM     72  C   UNL     1       8.133   4.778  -1.734  1.00  0.00     0.117 C 
BRANCH  72  73
ATOM     73  N   UNL     1       6.699   4.869  -1.506  1.00  0.00    -0.355 N 
ATOM     74  C   UNL     1       5.884   5.318  -0.522  1.00  0.00     0.238 C 
ATOM     75  H   UNL     1       6.187   4.510  -2.266  1.00  0.00     0.163 HD
ATOM     76  O   UNL     1       4.694   5.035  -0.719  1.00  0.00    -0.273 OA
BRANCH  74  77
ATOM     77  C   UNL     1       6.282   6.106   0.754  1.00  0.00     0.162 C 
ATOM     78  C   UNL     1       7.744   6.503   0.979  1.00  0.00     0.030 C 
ATOM     79  N   UNL     1       5.476   7.376   0.948  1.00  0.00    -0.185 NA
ATOM     80  C   UNL     1       8.198   7.614   0.027  1.00  0.00     0.004 C 
ATOM     81  C   UNL     1       5.817   8.412  -0.053  1.00  0.00     0.103 C 
ATOM     82  C   UNL     1       7.276   8.819   0.127  1.00  0.00     0.017 C 
BRANCH  79  83
ATOM     83  S   UNL     1       3.819   7.181   1.294  1.00  0.00     0.245 S 
ATOM     84  O   UNL     1       3.059   7.113   0.073  1.00  0.00    -0.207 OA
ATOM     85  O   UNL     1       3.682   6.213   2.371  1.00  0.00    -0.207 OA
BRANCH  83  86
ATOM     86  C   UNL     1       3.236   8.665   2.004  1.00  0.00     0.100 A 
ATOM     87  C   UNL     1       2.926   9.845   1.272  1.00  0.00     0.041 A 
ATOM     88  C   UNL     1       2.937   8.921   3.328  1.00  0.00     0.104 A 
ATOM     89  C   UNL     1       2.495  10.792   2.173  1.00  0.00     0.083 A 
ATOM     90  N   UNL     1       2.488  10.215   3.417  1.00  0.00    -0.366 N 
ATOM     91  H   UNL     1       2.203  10.661   4.247  1.00  0.00     0.165 HD
ENDBRANCH  83  86
ENDBRANCH  79  83
ENDBRANCH  74  77
ENDBRANCH  72  73
ENDBRANCH  71  72
ENDBRANCH   1  71
TORSDOF 15
