REMARK SMILES Cc1cccc(-n2ncc(C(=O)Nc3cccc(C(=O)NCCCNC(=O)c4ccc(-c5c6nc(c(-c7cccc(S(=O)(=O)[O-])c7F)c7ccc([nH]7)c(-c7cccc(S(=O)(=O)[O-])c7F)c7nc(c(-c8cccc(S(=O)(=O)[O-])c8F)c8ccc5[nH]8)C=C7)C=C6)cc4)c3C)c2C)c1
REMARK SMILES IDX 23 1 22 2 21 3 19 4 20 5 18 7 14 8 15 9 91 10 16 11 92 12
REMARK SMILES IDX 17 13 13 14 11 15 12 16 10 18 7 19 8 20 93 21 9 22 94 23
REMARK SMILES IDX 6 24 1 25 2 26 3 27 95 28 4 29 5 30 24 31 25 32 26 33 27 35
REMARK SMILES IDX 28 36 29 37 90 38 30 39 89 40 31 41 32 42 33 43 83 44 34 45
REMARK SMILES IDX 88 46 82 47 84 48 35 49 87 50 81 51 80 52 36 54 68 55 48 56
REMARK SMILES IDX 67 57 49 58 52 59 66 60 85 61 50 62 51 63 65 65 86 66 53 67
REMARK SMILES IDX 37 68 38 69 46 70 39 71 41 72 47 73 40 74 42 75 43 76 44 77
REMARK SMILES IDX 45 78 69 79 70 80 78 81 71 82 73 83 79 84 72 85 74 86 75 87
REMARK SMILES IDX 76 88 77 89 54 90 55 91 63 92 56 93 58 94 64 95 57 96 59 97
REMARK SMILES IDX 60 98 61 99 62 100
REMARK H PARENT 21 6 13 17 25 34 84 53 52 64
REMARK Flexibility Score: inf
ROOT
ATOM      1  C   UNL     1      -1.976   9.248  -4.917  1.00  0.00     0.042 C 
ENDROOT
BRANCH   1   2
ATOM      2  C   UNL     1      -1.006   9.080  -3.751  1.00  0.00     0.118 C 
BRANCH   2   3
ATOM      3  N   UNL     1      -1.457   9.804  -2.574  1.00  0.00    -0.352 N 
ATOM      4  C   UNL     1      -2.325   9.526  -1.543  1.00  0.00     0.251 C 
ATOM      5  O   UNL     1      -2.373  10.392  -0.670  1.00  0.00    -0.269 OA
ATOM      6  H   UNL     1      -1.049  10.697  -2.498  1.00  0.00     0.163 HD
BRANCH   4   7
ATOM      7  C   UNL     1      -3.149   8.261  -1.410  1.00  0.00     0.044 A 
ATOM      8  C   UNL     1      -4.245   6.559  -0.051  1.00  0.00     0.045 A 
ATOM      9  C   UNL     1      -4.467   5.764  -1.180  1.00  0.00     0.026 A 
ATOM     10  C   UNL     1      -3.705   7.865  -0.159  1.00  0.00    -0.015 A 
ATOM     11  C   UNL     1      -4.057   6.208  -2.417  1.00  0.00     0.003 A 
ATOM     12  C   UNL     1      -3.623   8.722   1.083  1.00  0.00     0.047 C 
ATOM     13  C   UNL     1      -3.378   7.420  -2.512  1.00  0.00     0.014 A 
BRANCH   8  14
ATOM     14  N   UNL     1      -4.512   6.005   1.210  1.00  0.00    -0.322 N 
ATOM     15  C   UNL     1      -4.183   4.747   1.673  1.00  0.00     0.259 C 
ATOM     16  O   UNL     1      -4.768   4.329   2.673  1.00  0.00    -0.269 OA
ATOM     17  H   UNL     1      -4.993   6.585   1.843  1.00  0.00     0.170 HD
BRANCH  15  18
ATOM     18  C   UNL     1      -3.086   3.996   1.051  1.00  0.00     0.081 A 
ATOM     19  N   UNL     1      -1.669   2.361   0.488  1.00  0.00    -0.237 N 
ATOM     20  N   UNL     1      -1.149   3.481  -0.064  1.00  0.00    -0.175 NA
ATOM     21  C   UNL     1      -2.776   2.656   1.276  1.00  0.00     0.054 A 
ATOM     22  C   UNL     1      -2.012   4.442   0.249  1.00  0.00     0.149 A 
ATOM     23  C   UNL     1      -3.379   1.728   2.273  1.00  0.00     0.068 C 
BRANCH  19  24
ATOM     24  C   UNL     1      -1.024   1.115   0.260  1.00  0.00     0.065 A 
ATOM     25  C   UNL     1       2.545  -0.129  -0.216  1.00  0.00     0.044 C 
ATOM     26  C   UNL     1       1.050  -0.108  -0.092  1.00  0.00    -0.049 A 
ATOM     27  C   UNL     1       0.328  -1.307  -0.067  1.00  0.00     0.003 A 
ATOM     28  C   UNL     1       0.362   1.104   0.040  1.00  0.00     0.031 A 
ATOM     29  C   UNL     1      -1.060  -1.295   0.087  1.00  0.00     0.002 A 
ATOM     30  C   UNL     1      -1.738  -0.087   0.255  1.00  0.00     0.028 A 
ENDBRANCH  19  24
ENDBRANCH  15  18
ENDBRANCH   8  14
ENDBRANCH   4   7
ENDBRANCH   2   3
ENDBRANCH   1   2
BRANCH   1  31
ATOM     31  C   UNL     1      -1.682  10.435  -5.814  1.00  0.00     0.118 C 
BRANCH  31  32
ATOM     32  N   UNL     1      -1.037  10.044  -7.060  1.00  0.00    -0.352 N 
ATOM     33  C   UNL     1      -0.781  10.804  -8.186  1.00  0.00     0.251 C 
ATOM     34  H   UNL     1      -0.741   9.107  -7.107  1.00  0.00     0.163 HD
ATOM     35  O   UNL     1      -0.315  10.264  -9.185  1.00  0.00    -0.269 OA
BRANCH  33  36
ATOM     36  C   UNL     1      -0.943  12.273  -8.108  1.00  0.00     0.039 A 
ATOM     37  C   UNL     1       0.183  13.056  -8.392  1.00  0.00     0.014 A 
ATOM     38  C   UNL     1      -2.061  12.834  -7.497  1.00  0.00     0.014 A 
ATOM     39  C   UNL     1       0.298  14.317  -7.817  1.00  0.00     0.010 A 
ATOM     40  C   UNL     1      -1.913  14.042  -6.851  1.00  0.00     0.010 A 
ATOM     41  C   UNL     1      -0.700  14.737  -6.944  1.00  0.00    -0.014 A 
BRANCH  41  42
ATOM     42  C   UNL     1      -0.532  15.801  -5.967  1.00  0.00     0.031 A 
ATOM     43  C   UNL     1      -1.161  17.117  -6.171  1.00  0.00     0.074 A 
ATOM     44  C   UNL     1       0.010  15.478  -4.771  1.00  0.00     0.049 A 
ATOM     45  N   UNL     1      -0.955  18.133  -5.404  1.00  0.00    -0.248 NA
ATOM     46  C   UNL     1      -2.029  17.413  -7.307  1.00  0.00     0.031 C 
ATOM     47  C   UNL     1      -0.164  16.175  -3.501  1.00  0.00     0.029 A 
ATOM     48  N   UNL     1       1.047  14.569  -4.522  1.00  0.00    -0.354 N 
ATOM     49  C   UNL     1      -1.895  19.080  -5.734  1.00  0.00     0.074 A 
ATOM     50  C   UNL     1      -2.417  18.657  -7.008  1.00  0.00     0.031 C 
ATOM     51  C   UNL     1       0.880  15.893  -2.710  1.00  0.00     0.029 A 
ATOM     52  C   UNL     1       1.837  15.161  -3.519  1.00  0.00     0.049 A 
ATOM     53  H   UNL     1       1.192  13.699  -4.959  1.00  0.00     0.167 HD
ATOM     54  C   UNL     1      -2.232  20.010  -4.800  1.00  0.00     0.034 A 
ATOM     55  C   UNL     1       3.150  15.495  -3.681  1.00  0.00     0.034 A 
ATOM     56  C   UNL     1      -1.238  20.050  -3.717  1.00  0.00     0.049 A 
ATOM     57  C   UNL     1       3.448  16.957  -3.398  1.00  0.00     0.074 A 
ATOM     58  C   UNL     1      -1.229  19.630  -2.398  1.00  0.00     0.029 A 
ATOM     59  N   UNL     1       0.076  20.386  -4.028  1.00  0.00    -0.354 N 
ATOM     60  N   UNL     1       2.542  17.865  -3.160  1.00  0.00    -0.248 NA
ATOM     61  C   UNL     1       4.797  17.517  -3.394  1.00  0.00     0.031 C 
ATOM     62  C   UNL     1       0.125  19.612  -1.955  1.00  0.00     0.029 A 
ATOM     63  C   UNL     1       0.931  20.062  -2.989  1.00  0.00     0.049 A 
ATOM     64  H   UNL     1       0.360  20.799  -4.875  1.00  0.00     0.167 HD
ATOM     65  C   UNL     1       3.121  19.109  -3.132  1.00  0.00     0.074 A 
ATOM     66  C   UNL     1       4.545  18.822  -3.184  1.00  0.00     0.031 C 
ATOM     67  C   UNL     1       2.372  20.258  -3.144  1.00  0.00     0.034 A 
BRANCH  54  68
ATOM     68  C   UNL     1      -3.555  20.761  -4.736  1.00  0.00     0.023 A 
ATOM     69  C   UNL     1      -3.740  21.646  -3.648  1.00  0.00     0.012 A 
ATOM     70  C   UNL     1      -4.682  20.577  -5.577  1.00  0.00     0.148 A 
ATOM     71  C   UNL     1      -4.962  22.285  -3.396  1.00  0.00     0.002 A 
ATOM     72  C   UNL     1      -5.883  21.262  -5.362  1.00  0.00     0.091 A 
ATOM     73  F   UNL     1      -4.658  19.669  -6.551  1.00  0.00    -0.205 F 
ATOM     74  C   UNL     1      -6.032  22.103  -4.260  1.00  0.00     0.022 A 
BRANCH  72  75
ATOM     75  S   UNL     1      -7.297  21.099  -6.471  1.00  0.00     0.127 S 
ATOM     76  O   UNL     1      -8.253  20.365  -5.643  1.00  0.00    -0.237 OA
ATOM     77  O   UNL     1      -7.658  22.493  -6.727  1.00  0.00    -0.237 OA
ATOM     78  O   UNL     1      -6.817  20.380  -7.646  1.00  0.00    -0.744 OA
ENDBRANCH  72  75
ENDBRANCH  54  68
BRANCH  55  79
ATOM     79  C   UNL     1       3.876  14.638  -4.662  1.00  0.00     0.023 A 
ATOM     80  C   UNL     1       4.030  13.272  -4.328  1.00  0.00     0.012 A 
ATOM     81  C   UNL     1       4.045  15.033  -6.001  1.00  0.00     0.148 A 
ATOM     82  C   UNL     1       4.230  12.308  -5.316  1.00  0.00     0.002 A 
ATOM     83  C   UNL     1       4.239  14.062  -6.984  1.00  0.00     0.091 A 
ATOM     84  F   UNL     1       3.928  16.331  -6.306  1.00  0.00    -0.205 F 
ATOM     85  C   UNL     1       4.301  12.700  -6.647  1.00  0.00     0.022 A 
BRANCH  83  86
ATOM     86  S   UNL     1       4.257  14.474  -8.736  1.00  0.00     0.127 S 
ATOM     87  O   UNL     1       5.689  14.496  -9.016  1.00  0.00    -0.237 OA
ATOM     88  O   UNL     1       3.529  13.350  -9.325  1.00  0.00    -0.237 OA
ATOM     89  O   UNL     1       3.560  15.748  -8.828  1.00  0.00    -0.744 OA
ENDBRANCH  83  86
ENDBRANCH  55  79
BRANCH  67  90
ATOM     90  C   UNL     1       2.905  21.672  -3.356  1.00  0.00     0.023 A 
ATOM     91  C   UNL     1       4.172  21.936  -3.910  1.00  0.00     0.012 A 
ATOM     92  C   UNL     1       2.074  22.805  -3.132  1.00  0.00     0.148 A 
ATOM     93  C   UNL     1       4.619  23.237  -4.176  1.00  0.00     0.002 A 
ATOM     94  C   UNL     1       2.480  24.088  -3.501  1.00  0.00     0.091 A 
ATOM     95  F   UNL     1       0.881  22.655  -2.539  1.00  0.00    -0.205 F 
ATOM     96  C   UNL     1       3.764  24.313  -3.995  1.00  0.00     0.022 A 
BRANCH  94  97
ATOM     97  S   UNL     1       1.308  25.454  -3.501  1.00  0.00     0.127 S 
ATOM     98  O   UNL     1       1.437  25.971  -2.142  1.00  0.00    -0.237 OA
ATOM     99  O   UNL     1       1.845  26.338  -4.539  1.00  0.00    -0.237 OA
ATOM    100  O   UNL     1       0.032  24.843  -3.847  1.00  0.00    -0.744 OA
ENDBRANCH  94  97
ENDBRANCH  67  90
ENDBRANCH  41  42
ENDBRANCH  33  36
ENDBRANCH  31  32
ENDBRANCH   1  31
TORSDOF 16
