REMARK SMILES O=C(NCCCNC(=O)c1ccc2c(c1)[C@@H]1C=CC[C@@H]1[C@H](c1ccncc1)N2)c1ccc(-c2c3nc(c(-c4cccc(S(=O)(=O)[O-])c4F)c4ccc([nH]4)c(-c4cccc(S(=O)(=O)[O-])c4F)c4nc(c(-c5cccc(S(=O)(=O)[O-])c5F)c5ccc2[nH]5)C=C4)C=C3)cc1
REMARK SMILES IDX 4 1 3 2 1 3 2 4 29 6 30 7 91 8 31 9 90 10 32 11 33 12 34 13
REMARK SMILES IDX 84 14 35 15 89 16 83 17 85 18 36 19 88 20 82 21 81 22 37 24
REMARK SMILES IDX 69 25 49 26 68 27 50 28 53 29 67 30 86 31 51 32 52 33 66 35
REMARK SMILES IDX 87 36 54 37 38 38 39 39 47 40 40 41 42 42 48 43 41 44 43 45
REMARK SMILES IDX 44 46 45 47 46 48 70 49 71 50 79 51 72 52 74 53 80 54 73 55
REMARK SMILES IDX 75 56 76 57 77 58 78 59 55 60 56 61 64 62 57 63 59 64 65 65
REMARK SMILES IDX 58 66 60 67 61 68 62 69 63 70 5 71 6 72 7 73 8 74 9 76 10 77
REMARK SMILES IDX 11 78 15 79 12 80 14 81 13 82 16 83 28 84 17 85 20 86 21 87
REMARK SMILES IDX 18 89 19 90 22 91 23 92 27 93 24 94 26 95 25 96
REMARK H PARENT 3 5 85 23 53 34 7 75 28 88
REMARK Flexibility Score: inf
ROOT
ATOM      1  C   UNL     1       4.524   1.456   0.424  1.00  0.00     0.118 C 
ENDROOT
BRANCH   1   2
ATOM      2  N   UNL     1       3.096   1.168   0.478  1.00  0.00    -0.352 N 
ATOM      3  O   UNL     1       1.174   0.098   0.040  1.00  0.00    -0.269 OA
ATOM      4  C   UNL     1       2.398   0.039   0.123  1.00  0.00     0.251 C 
ATOM      5  H   UNL     1       2.542   1.903   0.827  1.00  0.00     0.163 HD
BRANCH   4   6
ATOM      6  C   UNL     1       3.107  -1.226  -0.172  1.00  0.00     0.039 A 
ATOM      7  C   UNL     1       4.212  -1.623   0.583  1.00  0.00     0.014 A 
ATOM      8  C   UNL     1       2.631  -2.057  -1.192  1.00  0.00     0.014 A 
ATOM      9  C   UNL     1       4.932  -2.755   0.222  1.00  0.00     0.010 A 
ATOM     10  C   UNL     1       3.296  -3.252  -1.488  1.00  0.00     0.010 A 
ATOM     11  C   UNL     1       4.471  -3.596  -0.803  1.00  0.00    -0.014 A 
BRANCH  11  12
ATOM     12  C   UNL     1       5.185  -4.871  -1.063  1.00  0.00     0.031 A 
ATOM     13  C   UNL     1       5.851  -5.144  -2.383  1.00  0.00     0.074 A 
ATOM     14  C   UNL     1       5.234  -5.789  -0.077  1.00  0.00     0.049 A 
ATOM     15  N   UNL     1       6.549  -6.190  -2.745  1.00  0.00    -0.248 NA
ATOM     16  C   UNL     1       5.712  -4.126  -3.436  1.00  0.00     0.031 C 
ATOM     17  C   UNL     1       4.576  -5.656   1.227  1.00  0.00     0.029 A 
ATOM     18  N   UNL     1       5.860  -7.006  -0.007  1.00  0.00    -0.354 N 
ATOM     19  C   UNL     1       6.898  -5.978  -4.074  1.00  0.00     0.074 A 
ATOM     20  C   UNL     1       6.332  -4.703  -4.458  1.00  0.00     0.031 C 
ATOM     21  C   UNL     1       4.859  -6.730   1.977  1.00  0.00     0.029 A 
ATOM     22  C   UNL     1       5.675  -7.651   1.194  1.00  0.00     0.049 A 
ATOM     23  H   UNL     1       6.391  -7.383  -0.745  1.00  0.00     0.167 HD
ATOM     24  C   UNL     1       7.637  -6.767  -4.889  1.00  0.00     0.034 A 
ATOM     25  C   UNL     1       6.103  -8.855   1.619  1.00  0.00     0.034 A 
ATOM     26  C   UNL     1       8.239  -8.010  -4.484  1.00  0.00     0.049 A 
ATOM     27  C   UNL     1       6.957  -9.683   0.705  1.00  0.00     0.074 A 
ATOM     28  C   UNL     1       9.070  -8.841  -5.217  1.00  0.00     0.029 A 
ATOM     29  N   UNL     1       8.075  -8.605  -3.243  1.00  0.00    -0.354 N 
ATOM     30  N   UNL     1       7.395  -9.395  -0.497  1.00  0.00    -0.248 NA
ATOM     31  C   UNL     1       7.399 -10.989   1.212  1.00  0.00     0.031 C 
ATOM     32  C   UNL     1       9.398  -9.944  -4.422  1.00  0.00     0.029 A 
ATOM     33  C   UNL     1       8.780  -9.796  -3.191  1.00  0.00     0.049 A 
ATOM     34  H   UNL     1       7.536  -8.235  -2.507  1.00  0.00     0.167 HD
ATOM     35  C   UNL     1       8.178 -10.474  -0.884  1.00  0.00     0.074 A 
ATOM     36  C   UNL     1       8.182 -11.406   0.226  1.00  0.00     0.031 C 
ATOM     37  C   UNL     1       8.815 -10.687  -2.061  1.00  0.00     0.034 A 
BRANCH  24  38
ATOM     38  C   UNL     1       7.889  -6.295  -6.297  1.00  0.00     0.023 A 
ATOM     39  C   UNL     1       8.844  -5.285  -6.527  1.00  0.00     0.012 A 
ATOM     40  C   UNL     1       7.260  -6.917  -7.394  1.00  0.00     0.148 A 
ATOM     41  C   UNL     1       9.159  -4.889  -7.826  1.00  0.00     0.002 A 
ATOM     42  C   UNL     1       7.605  -6.540  -8.688  1.00  0.00     0.091 A 
ATOM     43  F   UNL     1       6.341  -7.862  -7.153  1.00  0.00    -0.205 F 
ATOM     44  C   UNL     1       8.550  -5.524  -8.905  1.00  0.00     0.022 A 
BRANCH  42  45
ATOM     45  S   UNL     1       6.929  -7.345 -10.146  1.00  0.00     0.127 S 
ATOM     46  O   UNL     1       6.050  -6.304 -10.676  1.00  0.00    -0.237 OA
ATOM     47  O   UNL     1       8.129  -7.595 -10.945  1.00  0.00    -0.237 OA
ATOM     48  O   UNL     1       6.258  -8.546  -9.666  1.00  0.00    -0.744 OA
ENDBRANCH  42  45
ENDBRANCH  24  38
BRANCH  25  49
ATOM     49  C   UNL     1       5.766  -9.315   2.995  1.00  0.00     0.023 A 
ATOM     50  C   UNL     1       6.782  -9.402   3.965  1.00  0.00     0.012 A 
ATOM     51  C   UNL     1       4.439  -9.614   3.361  1.00  0.00     0.148 A 
ATOM     52  C   UNL     1       6.486  -9.801   5.269  1.00  0.00     0.002 A 
ATOM     53  C   UNL     1       4.143  -9.952   4.676  1.00  0.00     0.091 A 
ATOM     54  F   UNL     1       3.486  -9.548   2.420  1.00  0.00    -0.205 F 
ATOM     55  C   UNL     1       5.166 -10.062   5.629  1.00  0.00     0.022 A 
BRANCH  53  56
ATOM     56  S   UNL     1       2.446 -10.147   5.234  1.00  0.00     0.127 S 
ATOM     57  O   UNL     1       2.272 -11.594   5.168  1.00  0.00    -0.237 OA
ATOM     58  O   UNL     1       2.496  -9.593   6.588  1.00  0.00    -0.237 OA
ATOM     59  O   UNL     1       1.650  -9.358   4.302  1.00  0.00    -0.744 OA
ENDBRANCH  53  56
ENDBRANCH  25  49
BRANCH  37  60
ATOM     60  C   UNL     1       9.579 -11.974  -2.208  1.00  0.00     0.023 A 
ATOM     61  C   UNL     1       8.873 -13.178  -2.401  1.00  0.00     0.012 A 
ATOM     62  C   UNL     1      10.986 -11.985  -2.218  1.00  0.00     0.148 A 
ATOM     63  C   UNL     1       9.558 -14.380  -2.572  1.00  0.00     0.002 A 
ATOM     64  C   UNL     1      11.662 -13.181  -2.432  1.00  0.00     0.091 A 
ATOM     65  F   UNL     1      11.638 -10.832  -2.009  1.00  0.00    -0.205 F 
ATOM     66  C   UNL     1      10.950 -14.380  -2.599  1.00  0.00     0.022 A 
BRANCH  64  67
ATOM     67  S   UNL     1      13.452 -13.254  -2.567  1.00  0.00     0.127 S 
ATOM     68  O   UNL     1      13.830 -13.773  -1.254  1.00  0.00    -0.237 OA
ATOM     69  O   UNL     1      13.646 -14.192  -3.674  1.00  0.00    -0.237 OA
ATOM     70  O   UNL     1      13.883 -11.892  -2.854  1.00  0.00    -0.744 OA
ENDBRANCH  64  67
ENDBRANCH  37  60
ENDBRANCH  11  12
ENDBRANCH   4   6
ENDBRANCH   1   2
BRANCH   1  71
ATOM     71  C   UNL     1       4.869   2.475  -0.650  1.00  0.00     0.042 C 
BRANCH  71  72
ATOM     72  C   UNL     1       4.255   3.844  -0.406  1.00  0.00     0.118 C 
BRANCH  72  73
ATOM     73  N   UNL     1       4.783   4.492   0.791  1.00  0.00    -0.352 N 
ATOM     74  C   UNL     1       5.685   5.521   0.908  1.00  0.00     0.251 C 
ATOM     75  H   UNL     1       4.440   4.137   1.643  1.00  0.00     0.163 HD
ATOM     76  O   UNL     1       6.157   5.814   2.003  1.00  0.00    -0.269 OA
BRANCH  74  77
ATOM     77  C   UNL     1       6.099   6.273  -0.293  1.00  0.00     0.040 A 
ATOM     78  C   UNL     1       7.453   6.476  -0.544  1.00  0.00     0.016 A 
ATOM     79  C   UNL     1       5.142   6.746  -1.190  1.00  0.00     0.020 A 
ATOM     80  C   UNL     1       7.842   7.111  -1.726  1.00  0.00     0.027 A 
ATOM     81  C   UNL     1       5.534   7.279  -2.425  1.00  0.00    -0.017 A 
ATOM     82  C   UNL     1       6.893   7.529  -2.671  1.00  0.00     0.038 A 
ATOM     83  C   UNL     1       4.487   7.521  -3.488  1.00  0.00     0.049 C 
ATOM     84  N   UNL     1       7.322   8.086  -3.869  1.00  0.00    -0.378 N 
ATOM     85  C   UNL     1       3.708   6.269  -3.824  1.00  0.00    -0.023 C 
ATOM     86  C   UNL     1       5.078   7.854  -4.868  1.00  0.00     0.031 C 
ATOM     87  C   UNL     1       6.346   8.702  -4.757  1.00  0.00     0.114 C 
ATOM     88  H   UNL     1       8.274   8.064  -4.115  1.00  0.00     0.161 HD
ATOM     89  C   UNL     1       4.122   5.709  -4.967  1.00  0.00    -0.030 C 
ATOM     90  C   UNL     1       5.226   6.503  -5.589  1.00  0.00     0.034 C 
BRANCH  87  91
ATOM     91  C   UNL     1       6.933   9.031  -6.121  1.00  0.00    -0.022 A 
ATOM     92  C   UNL     1       6.223   9.881  -6.983  1.00  0.00     0.026 A 
ATOM     93  C   UNL     1       8.148   8.511  -6.582  1.00  0.00     0.026 A 
ATOM     94  C   UNL     1       6.753  10.175  -8.230  1.00  0.00     0.111 A 
ATOM     95  C   UNL     1       8.603   8.877  -7.840  1.00  0.00     0.111 A 
ATOM     96  N   UNL     1       7.934   9.702  -8.672  1.00  0.00    -0.265 NA
ENDBRANCH  87  91
ENDBRANCH  74  77
ENDBRANCH  72  73
ENDBRANCH  71  72
ENDBRANCH   1  71
TORSDOF 14
