REMARK SMILES O=C(C[C@@H](C(=O)NCCCNC(=O)c1ccc(-c2c3nc(c(-c4cccc(S(=O)(=O)[O-])c4F)c4ccc([nH]4)c(-c4cccc(S(=O)(=O)[O-])c4F)c4nc(c(-c5cccc(S(=O)(=O)[O-])c5F)c5ccc2[nH]5)C=C4)C=C3)cc1)c1ccccc1)Nc1cc(C(F)(F)F)ccc1-n1cncn1
REMARK SMILES IDX 8 1 7 2 5 3 6 4 4 6 3 7 2 8 1 9 83 10 84 12 85 13 93 14
REMARK SMILES IDX 86 15 92 16 91 17 94 18 95 19 98 20 96 21 97 22 87 23 88 24
REMARK SMILES IDX 89 25 90 26 77 27 78 28 82 29 79 30 81 31 80 32 9 33 10 34
REMARK SMILES IDX 11 35 12 36 13 38 14 39 15 40 76 41 16 42 75 43 17 44 18 45
REMARK SMILES IDX 19 46 69 47 20 48 74 49 68 50 70 51 21 52 73 53 67 54 66 55
REMARK SMILES IDX 22 57 54 58 34 59 53 60 35 61 38 62 52 63 71 64 36 65 37 66
REMARK SMILES IDX 51 68 72 69 39 70 23 71 24 72 32 73 25 74 27 75 33 76 26 77
REMARK SMILES IDX 28 78 29 79 30 80 31 81 55 82 56 83 64 84 57 85 59 86 65 87
REMARK SMILES IDX 58 88 60 89 61 90 62 91 63 92 40 93 41 94 49 95 42 96 44 97
REMARK SMILES IDX 50 98 43 99 45 100 46 101 47 102 48 103
REMARK H PARENT 7 5 83 11 11 37 70 56 38 67
REMARK Flexibility Score: inf
ROOT
ATOM      1  C   UNL     1       3.980   0.665   3.354  1.00  0.00     0.117 C 
ENDROOT
BRANCH   1   2
ATOM      2  N   UNL     1       5.082   0.869   2.375  1.00  0.00    -0.355 N 
ATOM      3  C   UNL     1       5.085   1.103   1.020  1.00  0.00     0.228 C 
ATOM      4  O   UNL     1       5.986   0.536   0.387  1.00  0.00    -0.274 OA
ATOM      5  H   UNL     1       5.981   0.828   2.774  1.00  0.00     0.163 HD
BRANCH   3   6
ATOM      6  C   UNL     1       4.083   2.041   0.293  1.00  0.00     0.118 C 
BRANCH   6   7
ATOM      7  C   UNL     1       3.333   1.333  -0.848  1.00  0.00     0.118 C 
BRANCH   7   8
ATOM      8  C   UNL     1       2.491   0.209  -0.341  1.00  0.00     0.225 C 
ATOM      9  O   UNL     1       1.525   0.392   0.405  1.00  0.00    -0.275 OA
ATOM     10  N   UNL     1       3.007  -1.007  -0.716  1.00  0.00    -0.324 N 
ATOM     11  H   UNL     1       3.784  -1.019  -1.320  1.00  0.00     0.170 HD
BRANCH  10  12
ATOM     12  C   UNL     1       2.486  -2.224  -0.286  1.00  0.00     0.067 A 
ATOM     13  C   UNL     1       3.307  -2.840   0.619  1.00  0.00     0.041 A 
ATOM     14  C   UNL     1       1.224  -2.752  -0.458  1.00  0.00     0.090 A 
ATOM     15  C   UNL     1       3.237  -4.173   0.912  1.00  0.00     0.058 A 
ATOM     16  C   UNL     1       0.909  -3.956   0.178  1.00  0.00     0.031 A 
ATOM     17  C   UNL     1       1.953  -4.699   0.784  1.00  0.00     0.015 A 
BRANCH  14  18
ATOM     18  N   UNL     1       0.361  -2.170  -1.390  1.00  0.00    -0.219 N 
ATOM     19  C   UNL     1       0.725  -1.681  -2.618  1.00  0.00     0.226 A 
ATOM     20  N   UNL     1      -0.927  -1.868  -1.130  1.00  0.00    -0.155 NA
ATOM     21  N   UNL     1      -0.219  -0.911  -3.096  1.00  0.00    -0.223 NA
ATOM     22  C   UNL     1      -1.212  -1.076  -2.172  1.00  0.00     0.246 A 
ENDBRANCH  14  18
BRANCH  15  23
ATOM     23  C   UNL     1       4.528  -4.659   1.517  1.00  0.00     0.416 C 
ATOM     24  F   UNL     1       5.616  -4.003   1.004  1.00  0.00    -0.166 F 
ATOM     25  F   UNL     1       4.630  -4.386   2.848  1.00  0.00    -0.166 F 
ATOM     26  F   UNL     1       4.791  -5.974   1.365  1.00  0.00    -0.166 F 
ENDBRANCH  15  23
ENDBRANCH  10  12
ENDBRANCH   7   8
ENDBRANCH   6   7
BRANCH   6  27
ATOM     27  C   UNL     1       4.798   3.219  -0.408  1.00  0.00    -0.035 A 
ATOM     28  C   UNL     1       5.851   3.008  -1.324  1.00  0.00     0.004 A 
ATOM     29  C   UNL     1       4.307   4.525  -0.270  1.00  0.00     0.004 A 
ATOM     30  C   UNL     1       6.419   4.064  -2.040  1.00  0.00     0.000 A 
ATOM     31  C   UNL     1       4.878   5.584  -0.988  1.00  0.00     0.000 A 
ATOM     32  C   UNL     1       5.938   5.356  -1.864  1.00  0.00     0.000 A 
ENDBRANCH   6  27
ENDBRANCH   3   6
ENDBRANCH   1   2
BRANCH   1  33
ATOM     33  C   UNL     1       3.339  -0.753   3.230  1.00  0.00     0.042 C 
BRANCH  33  34
ATOM     34  C   UNL     1       3.609  -1.993   4.197  1.00  0.00     0.118 C 
BRANCH  34  35
ATOM     35  N   UNL     1       2.391  -2.863   4.591  1.00  0.00    -0.352 N 
ATOM     36  C   UNL     1       1.725  -4.095   4.730  1.00  0.00     0.251 C 
ATOM     37  H   UNL     1       1.734  -2.206   4.917  1.00  0.00     0.163 HD
ATOM     38  O   UNL     1       0.791  -3.974   5.548  1.00  0.00    -0.269 OA
BRANCH  36  39
ATOM     39  C   UNL     1       1.759  -5.505   4.094  1.00  0.00     0.039 A 
ATOM     40  C   UNL     1       0.550  -6.267   4.078  1.00  0.00     0.014 A 
ATOM     41  C   UNL     1       2.812  -6.212   3.546  1.00  0.00     0.014 A 
ATOM     42  C   UNL     1       0.361  -7.492   3.337  1.00  0.00     0.010 A 
ATOM     43  C   UNL     1       2.606  -7.352   2.692  1.00  0.00     0.010 A 
ATOM     44  C   UNL     1       1.369  -7.997   2.512  1.00  0.00    -0.014 A 
BRANCH  44  45
ATOM     45  C   UNL     1       1.224  -9.099   1.452  1.00  0.00     0.031 A 
ATOM     46  C   UNL     1       2.236 -10.249   1.368  1.00  0.00     0.074 A 
ATOM     47  C   UNL     1       0.392  -8.968   0.382  1.00  0.00     0.049 A 
ATOM     48  N   UNL     1       2.394 -11.178   0.451  1.00  0.00    -0.248 NA
ATOM     49  C   UNL     1       3.258 -10.299   2.424  1.00  0.00     0.031 C 
ATOM     50  C   UNL     1      -0.524  -7.851   0.149  1.00  0.00     0.029 A 
ATOM     51  N   UNL     1       0.241  -9.738  -0.765  1.00  0.00    -0.354 N 
ATOM     52  C   UNL     1       3.564 -11.866   0.786  1.00  0.00     0.074 A 
ATOM     53  C   UNL     1       4.111 -11.188   1.940  1.00  0.00     0.031 C 
ATOM     54  C   UNL     1      -1.095  -7.978  -1.064  1.00  0.00     0.029 A 
ATOM     55  C   UNL     1      -0.622  -9.202  -1.705  1.00  0.00     0.049 A 
ATOM     56  H   UNL     1       0.710 -10.594  -0.897  1.00  0.00     0.167 HD
ATOM     57  C   UNL     1       4.127 -12.978   0.240  1.00  0.00     0.034 A 
ATOM     58  C   UNL     1      -1.011  -9.637  -2.929  1.00  0.00     0.034 A 
ATOM     59  C   UNL     1       3.581 -13.689  -0.886  1.00  0.00     0.049 A 
ATOM     60  C   UNL     1      -0.489 -10.953  -3.466  1.00  0.00     0.074 A 
ATOM     61  C   UNL     1       3.958 -14.917  -1.404  1.00  0.00     0.029 A 
ATOM     62  N   UNL     1       2.550 -13.223  -1.682  1.00  0.00    -0.354 N 
ATOM     63  N   UNL     1       0.433 -11.738  -2.966  1.00  0.00    -0.248 NA
ATOM     64  C   UNL     1      -1.105 -11.476  -4.700  1.00  0.00     0.031 C 
ATOM     65  C   UNL     1       3.169 -15.180  -2.530  1.00  0.00     0.029 A 
ATOM     66  C   UNL     1       2.275 -14.134  -2.686  1.00  0.00     0.049 A 
ATOM     67  H   UNL     1       2.080 -12.367  -1.553  1.00  0.00     0.167 HD
ATOM     68  C   UNL     1       0.461 -12.868  -3.780  1.00  0.00     0.074 A 
ATOM     69  C   UNL     1      -0.535 -12.669  -4.810  1.00  0.00     0.031 C 
ATOM     70  C   UNL     1       1.242 -13.971  -3.675  1.00  0.00     0.034 A 
BRANCH  57  71
ATOM     71  C   UNL     1       5.346 -13.569   0.930  1.00  0.00     0.023 A 
ATOM     72  C   UNL     1       5.212 -14.057   2.249  1.00  0.00     0.012 A 
ATOM     73  C   UNL     1       6.592 -13.708   0.280  1.00  0.00     0.148 A 
ATOM     74  C   UNL     1       6.299 -14.598   2.933  1.00  0.00     0.002 A 
ATOM     75  C   UNL     1       7.660 -14.302   0.952  1.00  0.00     0.091 A 
ATOM     76  F   UNL     1       6.718 -13.252  -0.974  1.00  0.00    -0.205 F 
ATOM     77  C   UNL     1       7.519 -14.728   2.283  1.00  0.00     0.022 A 
BRANCH  75  78
ATOM     78  S   UNL     1       9.257 -14.612   0.184  1.00  0.00     0.127 S 
ATOM     79  O   UNL     1      10.118 -13.675   0.906  1.00  0.00    -0.237 OA
ATOM     80  O   UNL     1       9.487 -16.020   0.511  1.00  0.00    -0.237 OA
ATOM     81  O   UNL     1       9.085 -14.336  -1.234  1.00  0.00    -0.744 OA
ENDBRANCH  75  78
ENDBRANCH  57  71
BRANCH  58  82
ATOM     82  C   UNL     1      -2.083  -8.909  -3.687  1.00  0.00     0.023 A 
ATOM     83  C   UNL     1      -3.378  -9.470  -3.726  1.00  0.00     0.012 A 
ATOM     84  C   UNL     1      -1.853  -7.689  -4.352  1.00  0.00     0.148 A 
ATOM     85  C   UNL     1      -4.413  -8.851  -4.429  1.00  0.00     0.002 A 
ATOM     86  C   UNL     1      -2.903  -7.052  -5.014  1.00  0.00     0.091 A 
ATOM     87  F   UNL     1      -0.617  -7.173  -4.322  1.00  0.00    -0.205 F 
ATOM     88  C   UNL     1      -4.178  -7.637  -5.064  1.00  0.00     0.022 A 
BRANCH  86  89
ATOM     89  S   UNL     1      -2.736  -5.431  -5.777  1.00  0.00     0.127 S 
ATOM     90  O   UNL     1      -2.913  -5.748  -7.194  1.00  0.00    -0.237 OA
ATOM     91  O   UNL     1      -3.850  -4.700  -5.170  1.00  0.00    -0.237 OA
ATOM     92  O   UNL     1      -1.416  -4.955  -5.398  1.00  0.00    -0.744 OA
ENDBRANCH  86  89
ENDBRANCH  58  82
BRANCH  70  93
ATOM     93  C   UNL     1       1.021 -15.107  -4.641  1.00  0.00     0.023 A 
ATOM     94  C   UNL     1       1.420 -14.991  -5.987  1.00  0.00     0.012 A 
ATOM     95  C   UNL     1       0.504 -16.335  -4.178  1.00  0.00     0.148 A 
ATOM     96  C   UNL     1       1.285 -16.071  -6.861  1.00  0.00     0.002 A 
ATOM     97  C   UNL     1       0.422 -17.421  -5.040  1.00  0.00     0.091 A 
ATOM     98  F   UNL     1       0.112 -16.420  -2.898  1.00  0.00    -0.205 F 
ATOM     99  C   UNL     1       0.800 -17.288  -6.385  1.00  0.00     0.022 A 
BRANCH  97 100
ATOM    100  S   UNL     1      -0.090 -19.053  -4.489  1.00  0.00     0.127 S 
ATOM    101  O   UNL     1      -1.385 -19.199  -5.152  1.00  0.00    -0.237 OA
ATOM    102  O   UNL     1       0.970 -19.907  -5.027  1.00  0.00    -0.237 OA
ATOM    103  O   UNL     1      -0.139 -18.992  -3.035  1.00  0.00    -0.744 OA
ENDBRANCH  97 100
ENDBRANCH  70  93
ENDBRANCH  44  45
ENDBRANCH  36  39
ENDBRANCH  34  35
ENDBRANCH  33  34
ENDBRANCH   1  33
TORSDOF 19
