REMARK SMILES CS(=O)(=O)c1ccc(/C=C(/C(=O)NCCCNC(=O)c2ccc(-c3c4nc(c(-c5cccc(S(=O)(=O)[O-])c5F)c5ccc([nH]5)c(-c5cccc(S(=O)(=O)[O-])c5F)c5nc(c(-c6cccc(S(=O)(=O)[O-])c6F)c6ccc3[nH]6)C=C5)C=C4)cc2)c2ccc(F)cc2)cc1
REMARK SMILES IDX 15 1 14 2 13 3 11 4 12 5 10 7 9 8 8 9 5 10 6 11 91 12 7 13
REMARK SMILES IDX 90 14 2 15 1 16 3 17 4 18 83 19 84 20 89 21 85 22 88 23
REMARK SMILES IDX 86 24 87 25 16 26 17 27 18 28 19 30 20 31 21 32 82 33 22 34
REMARK SMILES IDX 81 35 23 36 24 37 25 38 75 39 26 40 80 41 74 42 76 43 27 44
REMARK SMILES IDX 79 45 73 46 72 47 28 49 60 50 40 51 59 52 41 53 44 54 58 55
REMARK SMILES IDX 77 56 42 57 43 58 57 60 78 61 45 62 29 63 30 64 38 65 31 66
REMARK SMILES IDX 33 67 39 68 32 69 34 70 35 71 36 72 37 73 61 74 62 75 70 76
REMARK SMILES IDX 63 77 65 78 71 79 64 80 66 81 67 82 68 83 69 84 46 85 47 86
REMARK SMILES IDX 55 87 48 88 50 89 56 90 49 91 51 92 52 93 53 94 54 95
REMARK H PARENT 13 6 17 29 76 48 44 59
REMARK Flexibility Score: inf
ROOT
ATOM      1  C   UNL     1       1.622   7.501  -5.483  1.00  0.00     0.042 C 
ENDROOT
BRANCH   1   2
ATOM      2  C   UNL     1       1.208   6.453  -6.516  1.00  0.00     0.118 C 
BRANCH   2   3
ATOM      3  N   UNL     1       2.350   6.041  -7.311  1.00  0.00    -0.352 N 
ATOM      4  C   UNL     1       3.165   4.955  -7.301  1.00  0.00     0.251 C 
ATOM      5  O   UNL     1       4.071   4.953  -8.138  1.00  0.00    -0.269 OA
ATOM      6  H   UNL     1       2.586   6.692  -8.011  1.00  0.00     0.163 HD
BRANCH   4   7
ATOM      7  C   UNL     1       2.948   3.754  -6.407  1.00  0.00     0.047 C 
ATOM      8  C   UNL     1       2.435   3.867  -5.160  1.00  0.00     0.022 C 
BRANCH   8   9
ATOM      9  C   UNL     1       2.006   2.816  -4.208  1.00  0.00    -0.025 A 
ATOM     10  C   UNL     1       0.932   0.833  -2.538  1.00  0.00     0.067 A 
ATOM     11  C   UNL     1       2.151   0.615  -3.180  1.00  0.00     0.021 A 
ATOM     12  C   UNL     1       0.258   2.043  -2.687  1.00  0.00     0.021 A 
ATOM     13  C   UNL     1       2.700   1.623  -3.978  1.00  0.00     0.009 A 
ATOM     14  C   UNL     1       0.798   3.029  -3.518  1.00  0.00     0.009 A 
BRANCH  10  15
ATOM     15  S   UNL     1       0.216  -0.463  -1.558  1.00  0.00     0.175 S 
ATOM     16  C   UNL     1       0.869  -0.145   0.059  1.00  0.00     0.163 C 
ATOM     17  O   UNL     1       0.757  -1.722  -2.029  1.00  0.00    -0.224 OA
ATOM     18  O   UNL     1      -1.220  -0.244  -1.522  1.00  0.00    -0.224 OA
ENDBRANCH  10  15
ENDBRANCH   8   9
BRANCH   7  19
ATOM     19  C   UNL     1       3.496   2.462  -6.892  1.00  0.00    -0.013 A 
ATOM     20  C   UNL     1       4.895   2.329  -6.988  1.00  0.00     0.012 A 
ATOM     21  C   UNL     1       2.687   1.347  -7.156  1.00  0.00     0.012 A 
ATOM     22  C   UNL     1       5.477   1.102  -7.298  1.00  0.00     0.040 A 
ATOM     23  C   UNL     1       3.275   0.111  -7.444  1.00  0.00     0.040 A 
ATOM     24  C   UNL     1       4.661  -0.000  -7.505  1.00  0.00     0.123 A 
ATOM     25  F   UNL     1       5.218  -1.193  -7.749  1.00  0.00    -0.207 F 
ENDBRANCH   7  19
ENDBRANCH   4   7
ENDBRANCH   2   3
ENDBRANCH   1   2
BRANCH   1  26
ATOM     26  C   UNL     1       1.977   8.851  -6.102  1.00  0.00     0.118 C 
BRANCH  26  27
ATOM     27  N   UNL     1       0.825   9.477  -6.734  1.00  0.00    -0.352 N 
ATOM     28  C   UNL     1       0.229  10.686  -6.485  1.00  0.00     0.251 C 
ATOM     29  H   UNL     1       0.408   8.949  -7.454  1.00  0.00     0.163 HD
ATOM     30  O   UNL     1      -0.885  10.908  -6.951  1.00  0.00    -0.269 OA
BRANCH  28  31
ATOM     31  C   UNL     1       0.915  11.717  -5.676  1.00  0.00     0.039 A 
ATOM     32  C   UNL     1       0.148  12.536  -4.841  1.00  0.00     0.014 A 
ATOM     33  C   UNL     1       2.291  11.934  -5.790  1.00  0.00     0.014 A 
ATOM     34  C   UNL     1       0.762  13.558  -4.115  1.00  0.00     0.010 A 
ATOM     35  C   UNL     1       2.914  12.895  -4.999  1.00  0.00     0.010 A 
ATOM     36  C   UNL     1       2.153  13.741  -4.181  1.00  0.00    -0.014 A 
BRANCH  36  37
ATOM     37  C   UNL     1       2.817  14.848  -3.445  1.00  0.00     0.031 A 
ATOM     38  C   UNL     1       3.544  15.928  -4.206  1.00  0.00     0.074 A 
ATOM     39  C   UNL     1       2.813  14.854  -2.097  1.00  0.00     0.049 A 
ATOM     40  N   UNL     1       4.215  16.952  -3.746  1.00  0.00    -0.248 NA
ATOM     41  C   UNL     1       3.543  15.832  -5.677  1.00  0.00     0.031 C 
ATOM     42  C   UNL     1       2.206  13.828  -1.246  1.00  0.00     0.029 A 
ATOM     43  N   UNL     1       3.358  15.743  -1.204  1.00  0.00    -0.354 N 
ATOM     44  C   UNL     1       4.748  17.591  -4.859  1.00  0.00     0.074 A 
ATOM     45  C   UNL     1       4.351  16.826  -6.019  1.00  0.00     0.031 C 
ATOM     46  C   UNL     1       2.407  14.148   0.042  1.00  0.00     0.029 A 
ATOM     47  C   UNL     1       3.184  15.381   0.112  1.00  0.00     0.049 A 
ATOM     48  H   UNL     1       3.829  16.563  -1.479  1.00  0.00     0.167 HD
ATOM     49  C   UNL     1       5.480  18.729  -4.916  1.00  0.00     0.034 A 
ATOM     50  C   UNL     1       3.611  15.972   1.245  1.00  0.00     0.034 A 
ATOM     51  C   UNL     1       5.827  19.516  -3.765  1.00  0.00     0.049 A 
ATOM     52  C   UNL     1       4.376  17.265   1.147  1.00  0.00     0.074 A 
ATOM     53  C   UNL     1       6.488  20.732  -3.724  1.00  0.00     0.029 A 
ATOM     54  N   UNL     1       5.549  19.166  -2.454  1.00  0.00    -0.354 N 
ATOM     55  N   UNL     1       4.740  17.931   0.078  1.00  0.00    -0.248 NA
ATOM     56  C   UNL     1       4.750  17.913   2.412  1.00  0.00     0.031 C 
ATOM     57  C   UNL     1       6.640  21.100  -2.384  1.00  0.00     0.029 A 
ATOM     58  C   UNL     1       6.028  20.139  -1.595  1.00  0.00     0.049 A 
ATOM     59  H   UNL     1       5.080  18.347  -2.175  1.00  0.00     0.167 HD
ATOM     60  C   UNL     1       5.334  19.100   0.542  1.00  0.00     0.074 A 
ATOM     61  C   UNL     1       5.267  19.057   1.987  1.00  0.00     0.031 C 
ATOM     62  C   UNL     1       5.893  20.114  -0.163  1.00  0.00     0.034 A 
BRANCH  49  63
ATOM     63  C   UNL     1       5.926  19.223  -6.267  1.00  0.00     0.023 A 
ATOM     64  C   UNL     1       4.984  19.767  -7.163  1.00  0.00     0.012 A 
ATOM     65  C   UNL     1       7.293  19.236  -6.609  1.00  0.00     0.148 A 
ATOM     66  C   UNL     1       5.391  20.294  -8.388  1.00  0.00     0.002 A 
ATOM     67  C   UNL     1       7.697  19.808  -7.809  1.00  0.00     0.091 A 
ATOM     68  F   UNL     1       8.171  18.696  -5.752  1.00  0.00    -0.205 F 
ATOM     69  C   UNL     1       6.747  20.327  -8.705  1.00  0.00     0.022 A 
BRANCH  67  70
ATOM     70  S   UNL     1       9.424  19.980  -8.271  1.00  0.00     0.127 S 
ATOM     71  O   UNL     1       9.503  19.111  -9.445  1.00  0.00    -0.237 OA
ATOM     72  O   UNL     1       9.519  21.410  -8.563  1.00  0.00    -0.237 OA
ATOM     73  O   UNL     1      10.197  19.537  -7.120  1.00  0.00    -0.744 OA
ENDBRANCH  67  70
ENDBRANCH  49  63
BRANCH  50  74
ATOM     74  C   UNL     1       3.289  15.381   2.576  1.00  0.00     0.023 A 
ATOM     75  C   UNL     1       2.421  16.063   3.451  1.00  0.00     0.012 A 
ATOM     76  C   UNL     1       3.854  14.159   2.986  1.00  0.00     0.148 A 
ATOM     77  C   UNL     1       2.168  15.569   4.732  1.00  0.00     0.002 A 
ATOM     78  C   UNL     1       3.549  13.641   4.239  1.00  0.00     0.091 A 
ATOM     79  F   UNL     1       4.683  13.526   2.144  1.00  0.00    -0.205 F 
ATOM     80  C   UNL     1       2.726  14.355   5.123  1.00  0.00     0.022 A 
BRANCH  78  81
ATOM     81  S   UNL     1       4.117  12.022   4.771  1.00  0.00     0.127 S 
ATOM     82  O   UNL     1       5.134  12.371   5.758  1.00  0.00    -0.237 OA
ATOM     83  O   UNL     1       2.894  11.439   5.324  1.00  0.00    -0.237 OA
ATOM     84  O   UNL     1       4.600  11.362   3.565  1.00  0.00    -0.744 OA
ENDBRANCH  78  81
ENDBRANCH  50  74
BRANCH  62  85
ATOM     85  C   UNL     1       6.402  21.305   0.606  1.00  0.00     0.023 A 
ATOM     86  C   UNL     1       7.554  21.198   1.409  1.00  0.00     0.012 A 
ATOM     87  C   UNL     1       5.759  22.552   0.478  1.00  0.00     0.148 A 
ATOM     88  C   UNL     1       8.030  22.305   2.111  1.00  0.00     0.002 A 
ATOM     89  C   UNL     1       6.274  23.663   1.133  1.00  0.00     0.091 A 
ATOM     90  F   UNL     1       4.653  22.629  -0.277  1.00  0.00    -0.205 F 
ATOM     91  C   UNL     1       7.399  23.538   1.964  1.00  0.00     0.022 A 
BRANCH  89  92
ATOM     92  S   UNL     1       5.587  25.308   0.914  1.00  0.00     0.127 S 
ATOM     93  O   UNL     1       4.906  25.518   2.191  1.00  0.00    -0.237 OA
ATOM     94  O   UNL     1       6.787  26.122   0.722  1.00  0.00    -0.237 OA
ATOM     95  O   UNL     1       4.719  25.228  -0.253  1.00  0.00    -0.744 OA
ENDBRANCH  89  92
ENDBRANCH  62  85
ENDBRANCH  36  37
ENDBRANCH  28  31
ENDBRANCH  26  27
ENDBRANCH   1  26
TORSDOF 16
