REMARK SMILES C[C@@H]1[C@H](C(=O)NCCCNC(=O)c2ccc(-c3c4nc(c(-c5cccc(S(=O)(=O)[O-])c5F)c5ccc([nH]5)c(-c5cccc(S(=O)(=O)[O-])c5F)c5nc(c(-c6cccc(S(=O)(=O)[O-])c6F)c6ccc3[nH]6)C=C5)C=C4)cc2)CCN1C(=O)COc1ccccc1O
REMARK SMILES IDX 7 1 6 2 4 3 5 4 3 6 1 7 2 8 78 9 76 10 77 11 79 12 80 13
REMARK SMILES IDX 81 14 82 15 83 16 84 17 88 18 85 19 87 20 86 21 89 22 8 24
REMARK SMILES IDX 9 25 10 26 11 27 12 29 13 30 14 31 75 32 15 33 74 34 16 35
REMARK SMILES IDX 17 36 18 37 68 38 19 39 73 40 67 41 69 42 20 43 72 44 66 45
REMARK SMILES IDX 65 46 21 48 53 49 33 50 52 51 34 52 37 53 51 54 70 55 35 56
REMARK SMILES IDX 36 57 50 59 71 60 38 61 22 62 23 63 31 64 24 65 26 66 32 67
REMARK SMILES IDX 25 68 27 69 28 70 29 71 30 72 54 73 55 74 63 75 56 76 58 77
REMARK SMILES IDX 64 78 57 79 59 80 60 81 61 82 62 83 39 84 40 85 48 86 41 87
REMARK SMILES IDX 43 88 49 89 42 90 44 91 45 92 46 93 47 94
REMARK H PARENT 6 5 89 23 10 28 69 47 37 58
REMARK Flexibility Score: inf
ROOT
ATOM      1  C   UNL     1       1.231   1.722   2.366  1.00  0.00     0.117 C 
ENDROOT
BRANCH   1   2
ATOM      2  N   UNL     1       1.202   2.519   1.149  1.00  0.00    -0.356 N 
ATOM      3  C   UNL     1       0.674   2.296  -0.080  1.00  0.00     0.225 C 
ATOM      4  O   UNL     1       0.858   3.172  -0.931  1.00  0.00    -0.275 OA
ATOM      5  H   UNL     1       1.653   3.390   1.235  1.00  0.00     0.163 HD
BRANCH   3   6
ATOM      6  C   UNL     1      -0.113   1.052  -0.443  1.00  0.00     0.102 C 
ATOM      7  C   UNL     1       2.073  -0.356  -0.128  1.00  0.00     0.032 C 
ATOM      8  C   UNL     1       0.666  -0.248  -0.698  1.00  0.00     0.094 C 
ATOM      9  N   UNL     1      -0.211  -1.313  -0.183  1.00  0.00    -0.336 N 
ATOM     10  C   UNL     1      -1.288   0.722   0.472  1.00  0.00     0.037 C 
ATOM     11  C   UNL     1      -1.323  -0.790   0.587  1.00  0.00     0.121 C 
BRANCH   9  12
ATOM     12  C   UNL     1      -0.039  -2.692  -0.249  1.00  0.00     0.260 C 
ATOM     13  O   UNL     1      -0.717  -3.445   0.456  1.00  0.00    -0.271 OA
BRANCH  12  14
ATOM     14  C   UNL     1       0.966  -3.271  -1.256  1.00  0.00     0.329 C 
BRANCH  14  15
ATOM     15  O   UNL     1       1.248  -2.478  -2.402  1.00  0.00    -0.480 OA
BRANCH  15  16
ATOM     16  C   UNL     1       0.527  -2.764  -3.525  1.00  0.00     0.161 A 
ATOM     17  C   UNL     1       1.282  -3.005  -4.675  1.00  0.00     0.050 A 
ATOM     18  C   UNL     1      -0.864  -2.704  -3.628  1.00  0.00     0.157 A 
ATOM     19  C   UNL     1       0.650  -3.235  -5.898  1.00  0.00     0.004 A 
ATOM     20  C   UNL     1      -1.500  -2.969  -4.838  1.00  0.00     0.050 A 
ATOM     21  C   UNL     1      -0.742  -3.230  -5.977  1.00  0.00     0.004 A 
BRANCH  18  22
ATOM     22  O   UNL     1      -1.682  -2.305  -2.612  1.00  0.00    -0.504 OA
ATOM     23  H   UNL     1      -1.321  -2.110  -1.770  1.00  0.00     0.293 HD
ENDBRANCH  18  22
ENDBRANCH  15  16
ENDBRANCH  14  15
ENDBRANCH  12  14
ENDBRANCH   9  12
ENDBRANCH   3   6
ENDBRANCH   1   2
BRANCH   1  24
ATOM     24  C   UNL     1       2.650   1.377   2.806  1.00  0.00     0.042 C 
BRANCH  24  25
ATOM     25  C   UNL     1       3.514   2.579   3.150  1.00  0.00     0.118 C 
BRANCH  25  26
ATOM     26  N   UNL     1       3.206   3.122   4.461  1.00  0.00    -0.352 N 
ATOM     27  C   UNL     1       3.904   3.014   5.641  1.00  0.00     0.251 C 
ATOM     28  H   UNL     1       2.374   3.646   4.513  1.00  0.00     0.163 HD
ATOM     29  O   UNL     1       3.361   3.353   6.690  1.00  0.00    -0.269 OA
BRANCH  27  30
ATOM     30  C   UNL     1       5.287   2.478   5.662  1.00  0.00     0.039 A 
ATOM     31  C   UNL     1       5.671   1.635   6.709  1.00  0.00     0.014 A 
ATOM     32  C   UNL     1       6.219   2.828   4.682  1.00  0.00     0.014 A 
ATOM     33  C   UNL     1       6.967   1.110   6.744  1.00  0.00     0.010 A 
ATOM     34  C   UNL     1       7.474   2.224   4.662  1.00  0.00     0.010 A 
ATOM     35  C   UNL     1       7.873   1.378   5.705  1.00  0.00    -0.014 A 
BRANCH  35  36
ATOM     36  C   UNL     1       9.250   0.814   5.705  1.00  0.00     0.031 A 
ATOM     37  C   UNL     1      10.445   1.734   5.722  1.00  0.00     0.074 A 
ATOM     38  C   UNL     1       9.432  -0.519   5.607  1.00  0.00     0.049 A 
ATOM     39  N   UNL     1      11.717   1.437   5.659  1.00  0.00    -0.248 NA
ATOM     40  C   UNL     1      10.174   3.180   5.788  1.00  0.00     0.031 C 
ATOM     41  C   UNL     1       8.363  -1.514   5.502  1.00  0.00     0.029 A 
ATOM     42  N   UNL     1      10.584  -1.264   5.555  1.00  0.00    -0.354 N 
ATOM     43  C   UNL     1      12.392   2.652   5.633  1.00  0.00     0.074 A 
ATOM     44  C   UNL     1      11.388   3.692   5.649  1.00  0.00     0.031 C 
ATOM     45  C   UNL     1       8.908  -2.738   5.407  1.00  0.00     0.029 A 
ATOM     46  C   UNL     1      10.363  -2.615   5.416  1.00  0.00     0.049 A 
ATOM     47  H   UNL     1      11.484  -0.869   5.612  1.00  0.00     0.167 HD
ATOM     48  C   UNL     1      13.726   2.887   5.634  1.00  0.00     0.034 A 
ATOM     49  C   UNL     1      11.232  -3.639   5.306  1.00  0.00     0.034 A 
ATOM     50  C   UNL     1      14.724   1.853   5.683  1.00  0.00     0.049 A 
ATOM     51  C   UNL     1      12.710  -3.355   5.366  1.00  0.00     0.074 A 
ATOM     52  C   UNL     1      16.097   1.988   5.783  1.00  0.00     0.029 A 
ATOM     53  N   UNL     1      14.457   0.494   5.639  1.00  0.00    -0.354 N 
ATOM     54  N   UNL     1      13.324  -2.205   5.500  1.00  0.00    -0.248 NA
ATOM     55  C   UNL     1      13.613  -4.514   5.297  1.00  0.00     0.031 C 
ATOM     56  C   UNL     1      16.663   0.709   5.784  1.00  0.00     0.029 A 
ATOM     57  C   UNL     1      15.639  -0.222   5.705  1.00  0.00     0.049 A 
ATOM     58  H   UNL     1      13.559   0.097   5.571  1.00  0.00     0.167 HD
ATOM     59  C   UNL     1      14.680  -2.503   5.569  1.00  0.00     0.074 A 
ATOM     60  C   UNL     1      14.796  -3.944   5.483  1.00  0.00     0.031 C 
ATOM     61  C   UNL     1      15.736  -1.659   5.678  1.00  0.00     0.034 A 
BRANCH  48  62
ATOM     62  C   UNL     1      14.185   4.322   5.648  1.00  0.00     0.023 A 
ATOM     63  C   UNL     1      14.016   5.092   6.818  1.00  0.00     0.012 A 
ATOM     64  C   UNL     1      14.831   4.893   4.534  1.00  0.00     0.148 A 
ATOM     65  C   UNL     1      14.447   6.417   6.866  1.00  0.00     0.002 A 
ATOM     66  C   UNL     1      15.299   6.200   4.606  1.00  0.00     0.091 A 
ATOM     67  F   UNL     1      14.965   4.154   3.424  1.00  0.00    -0.205 F 
ATOM     68  C   UNL     1      15.098   6.967   5.766  1.00  0.00     0.022 A 
BRANCH  66  69
ATOM     69  S   UNL     1      16.219   6.975   3.271  1.00  0.00     0.127 S 
ATOM     70  O   UNL     1      15.241   7.931   2.755  1.00  0.00    -0.237 OA
ATOM     71  O   UNL     1      17.345   7.579   3.982  1.00  0.00    -0.237 OA
ATOM     72  O   UNL     1      16.584   5.899   2.359  1.00  0.00    -0.744 OA
ENDBRANCH  66  69
ENDBRANCH  48  62
BRANCH  49  73
ATOM     73  C   UNL     1      10.726  -5.037   5.207  1.00  0.00     0.023 A 
ATOM     74  C   UNL     1      10.896  -5.910   6.300  1.00  0.00     0.012 A 
ATOM     75  C   UNL     1      10.054  -5.498   4.059  1.00  0.00     0.148 A 
ATOM     76  C   UNL     1      10.433  -7.225   6.239  1.00  0.00     0.002 A 
ATOM     77  C   UNL     1       9.547  -6.792   4.026  1.00  0.00     0.091 A 
ATOM     78  F   UNL     1       9.915  -4.657   3.024  1.00  0.00    -0.205 F 
ATOM     79  C   UNL     1       9.750  -7.663   5.108  1.00  0.00     0.022 A 
BRANCH  77  80
ATOM     80  S   UNL     1       8.542  -7.396   2.665  1.00  0.00     0.127 S 
ATOM     81  O   UNL     1       9.459  -8.316   1.999  1.00  0.00    -0.237 OA
ATOM     82  O   UNL     1       7.429  -8.035   3.370  1.00  0.00    -0.237 OA
ATOM     83  O   UNL     1       8.164  -6.212   1.904  1.00  0.00    -0.744 OA
ENDBRANCH  77  80
ENDBRANCH  49  73
BRANCH  61  84
ATOM     84  C   UNL     1      17.113  -2.264   5.747  1.00  0.00     0.023 A 
ATOM     85  C   UNL     1      17.694  -2.814   4.587  1.00  0.00     0.012 A 
ATOM     86  C   UNL     1      17.861  -2.215   6.939  1.00  0.00     0.148 A 
ATOM     87  C   UNL     1      18.988  -3.333   4.621  1.00  0.00     0.002 A 
ATOM     88  C   UNL     1      19.167  -2.690   6.954  1.00  0.00     0.091 A 
ATOM     89  F   UNL     1      17.283  -1.704   8.037  1.00  0.00    -0.205 F 
ATOM     90  C   UNL     1      19.728  -3.260   5.799  1.00  0.00     0.022 A 
BRANCH  88  91
ATOM     91  S   UNL     1      20.226  -2.549   8.398  1.00  0.00     0.127 S 
ATOM     92  O   UNL     1      20.262  -3.929   8.877  1.00  0.00    -0.237 OA
ATOM     93  O   UNL     1      21.481  -2.071   7.819  1.00  0.00    -0.237 OA
ATOM     94  O   UNL     1      19.569  -1.596   9.283  1.00  0.00    -0.744 OA
ENDBRANCH  88  91
ENDBRANCH  61  84
ENDBRANCH  35  36
ENDBRANCH  27  30
ENDBRANCH  25  26
ENDBRANCH  24  25
ENDBRANCH   1  24
TORSDOF 18
