REMARK SMILES O=C(CCc1ccc(S(=O)(=O)Nc2cccc(I)c2)cc1)NCCCNC(=O)c1ccc(-c2c3nc(c(-c4cccc(S(=O)(=O)[O-])c4F)c4ccc([nH]4)c(-c4cccc(S(=O)(=O)[O-])c4F)c4nc(c(-c5cccc(S(=O)(=O)[O-])c5F)c5ccc2[nH]5)C=C4)C=C3)cc1
REMARK SMILES IDX 23 1 22 2 1 3 2 4 3 6 4 7 5 8 6 9 21 10 7 11 20 12 8 13 9 14
REMARK SMILES IDX 10 15 11 16 12 17 13 19 14 20 19 21 15 22 17 23 16 24 18 25
REMARK SMILES IDX 24 26 25 27 26 28 27 29 28 31 29 32 30 33 91 34 31 35 90 36
REMARK SMILES IDX 32 37 33 38 34 39 84 40 35 41 89 42 83 43 85 44 36 45 88 46
REMARK SMILES IDX 82 47 81 48 37 50 69 51 49 52 68 53 50 54 53 55 67 56 86 57
REMARK SMILES IDX 51 58 52 59 66 61 87 62 54 63 38 64 39 65 47 66 40 67 42 68
REMARK SMILES IDX 48 69 41 70 43 71 44 72 45 73 46 74 70 75 71 76 79 77 72 78
REMARK SMILES IDX 74 79 80 80 73 81 75 82 76 83 77 84 78 85 55 86 56 87 64 88
REMARK SMILES IDX 57 89 59 90 65 91 58 92 60 93 61 94 62 95 63 96
REMARK H PARENT 22 5 12 18 26 30 85 49 53 60
REMARK Flexibility Score: inf
ROOT
ATOM      1  C   UNL     1       2.091   1.683   1.467  1.00  0.00     0.117 C 
ENDROOT
BRANCH   1   2
ATOM      2  N   UNL     1       2.765   0.511   0.951  1.00  0.00    -0.356 N 
ATOM      3  O   UNL     1       1.097  -0.083  -0.520  1.00  0.00    -0.275 OA
ATOM      4  C   UNL     1       2.210  -0.272  -0.039  1.00  0.00     0.220 C 
ATOM      5  H   UNL     1       3.645   0.266   1.317  1.00  0.00     0.163 HD
BRANCH   4   6
ATOM      6  C   UNL     1       3.107  -1.393  -0.526  1.00  0.00     0.105 C 
BRANCH   6   7
ATOM      7  C   UNL     1       3.992  -0.944  -1.693  1.00  0.00     0.045 C 
BRANCH   7   8
ATOM      8  C   UNL     1       4.999   0.123  -1.327  1.00  0.00    -0.047 A 
ATOM      9  C   UNL     1       5.880  -0.046  -0.250  1.00  0.00     0.005 A 
ATOM     10  C   UNL     1       5.052   1.316  -2.058  1.00  0.00     0.005 A 
ATOM     11  C   UNL     1       6.675   1.017   0.188  1.00  0.00     0.022 A 
ATOM     12  C   UNL     1       5.911   2.347  -1.674  1.00  0.00     0.022 A 
ATOM     13  C   UNL     1       6.651   2.237  -0.498  1.00  0.00     0.087 A 
BRANCH  13  14
ATOM     14  S   UNL     1       7.636   3.596   0.110  1.00  0.00     0.261 S 
ATOM     15  O   UNL     1       7.918   3.295   1.498  1.00  0.00    -0.201 OA
ATOM     16  O   UNL     1       8.709   3.782  -0.847  1.00  0.00    -0.201 OA
BRANCH  14  17
ATOM     17  N   UNL     1       6.704   4.990   0.171  1.00  0.00    -0.280 N 
ATOM     18  H   UNL     1       6.830   5.585   0.945  1.00  0.00     0.180 HD
BRANCH  17  19
ATOM     19  C   UNL     1       5.751   5.380  -0.801  1.00  0.00     0.050 A 
ATOM     20  C   UNL     1       6.064   6.295  -1.799  1.00  0.00     0.027 A 
ATOM     21  C   UNL     1       4.440   4.920  -0.662  1.00  0.00     0.041 A 
ATOM     22  C   UNL     1       5.052   6.761  -2.646  1.00  0.00     0.003 A 
ATOM     23  C   UNL     1       3.435   5.388  -1.500  1.00  0.00     0.015 A 
ATOM     24  C   UNL     1       3.736   6.312  -2.494  1.00  0.00     0.015 A 
ATOM     25  I   UNL     1       1.483   4.732  -1.249  1.00  0.00    -0.044 I 
ENDBRANCH  17  19
ENDBRANCH  14  17
ENDBRANCH  13  14
ENDBRANCH   7   8
ENDBRANCH   6   7
ENDBRANCH   4   6
ENDBRANCH   1   2
BRANCH   1  26
ATOM     26  C   UNL     1       2.347   1.928   2.951  1.00  0.00     0.042 C 
BRANCH  26  27
ATOM     27  C   UNL     1       3.739   2.455   3.287  1.00  0.00     0.118 C 
BRANCH  27  28
ATOM     28  N   UNL     1       4.012   3.777   2.744  1.00  0.00    -0.352 N 
ATOM     29  C   UNL     1       4.924   4.721   3.148  1.00  0.00     0.251 C 
ATOM     30  H   UNL     1       3.460   4.033   1.970  1.00  0.00     0.163 HD
ATOM     31  O   UNL     1       5.163   5.689   2.429  1.00  0.00    -0.269 OA
BRANCH  29  32
ATOM     32  C   UNL     1       5.542   4.639   4.482  1.00  0.00     0.039 A 
ATOM     33  C   UNL     1       5.453   5.773   5.296  1.00  0.00     0.014 A 
ATOM     34  C   UNL     1       6.110   3.462   4.965  1.00  0.00     0.014 A 
ATOM     35  C   UNL     1       5.841   5.696   6.630  1.00  0.00     0.010 A 
ATOM     36  C   UNL     1       6.416   3.362   6.319  1.00  0.00     0.010 A 
ATOM     37  C   UNL     1       6.269   4.472   7.167  1.00  0.00    -0.014 A 
BRANCH  37  38
ATOM     38  C   UNL     1       6.521   4.337   8.622  1.00  0.00     0.031 A 
ATOM     39  C   UNL     1       7.894   3.995   9.124  1.00  0.00     0.074 A 
ATOM     40  C   UNL     1       5.490   4.459   9.483  1.00  0.00     0.049 A 
ATOM     41  N   UNL     1       8.297   3.818  10.354  1.00  0.00    -0.248 NA
ATOM     42  C   UNL     1       8.946   3.802   8.113  1.00  0.00     0.031 C 
ATOM     43  C   UNL     1       4.097   4.714   9.104  1.00  0.00     0.029 A 
ATOM     44  N   UNL     1       5.447   4.368  10.851  1.00  0.00    -0.354 N 
ATOM     45  C   UNL     1       9.637   3.464  10.266  1.00  0.00     0.074 A 
ATOM     46  C   UNL     1       9.970   3.414   8.859  1.00  0.00     0.031 C 
ATOM     47  C   UNL     1       3.342   4.771  10.212  1.00  0.00     0.029 A 
ATOM     48  C   UNL     1       4.185   4.523  11.376  1.00  0.00     0.049 A 
ATOM     49  H   UNL     1       6.245   4.206  11.405  1.00  0.00     0.167 HD
ATOM     50  C   UNL     1      10.518   3.228  11.267  1.00  0.00     0.034 A 
ATOM     51  C   UNL     1       3.754   4.464  12.652  1.00  0.00     0.034 A 
ATOM     52  C   UNL     1      10.184   3.306  12.663  1.00  0.00     0.049 A 
ATOM     53  C   UNL     1       4.760   4.228  13.745  1.00  0.00     0.074 A 
ATOM     54  C   UNL     1      11.020   3.163  13.756  1.00  0.00     0.029 A 
ATOM     55  N   UNL     1       8.910   3.535  13.161  1.00  0.00    -0.354 N 
ATOM     56  N   UNL     1       6.055   4.049  13.650  1.00  0.00    -0.248 NA
ATOM     57  C   UNL     1       4.253   4.223  15.125  1.00  0.00     0.031 C 
ATOM     58  C   UNL     1      10.244   3.269  14.915  1.00  0.00     0.029 A 
ATOM     59  C   UNL     1       8.933   3.523  14.545  1.00  0.00     0.049 A 
ATOM     60  H   UNL     1       8.107   3.685  12.611  1.00  0.00     0.167 HD
ATOM     61  C   UNL     1       6.524   3.947  14.954  1.00  0.00     0.074 A 
ATOM     62  C   UNL     1       5.375   4.107  15.822  1.00  0.00     0.031 C 
ATOM     63  C   UNL     1       7.788   3.730  15.394  1.00  0.00     0.034 A 
BRANCH  50  64
ATOM     64  C   UNL     1      11.937   2.898  10.884  1.00  0.00     0.023 A 
ATOM     65  C   UNL     1      12.760   3.895  10.319  1.00  0.00     0.012 A 
ATOM     66  C   UNL     1      12.472   1.618  11.127  1.00  0.00     0.148 A 
ATOM     67  C   UNL     1      14.078   3.613   9.966  1.00  0.00     0.002 A 
ATOM     68  C   UNL     1      13.802   1.359  10.818  1.00  0.00     0.091 A 
ATOM     69  F   UNL     1      11.670   0.677  11.646  1.00  0.00    -0.205 F 
ATOM     70  C   UNL     1      14.602   2.349  10.225  1.00  0.00     0.022 A 
BRANCH  68  71
ATOM     71  S   UNL     1      14.596  -0.209  11.188  1.00  0.00     0.127 S 
ATOM     72  O   UNL     1      14.816  -0.752   9.848  1.00  0.00    -0.237 OA
ATOM     73  O   UNL     1      15.812   0.218  11.880  1.00  0.00    -0.237 OA
ATOM     74  O   UNL     1      13.655  -0.953  12.014  1.00  0.00    -0.744 OA
ENDBRANCH  68  71
ENDBRANCH  50  64
BRANCH  51  75
ATOM     75  C   UNL     1       2.314   4.687  12.968  1.00  0.00     0.023 A 
ATOM     76  C   UNL     1       1.925   5.853  13.656  1.00  0.00     0.012 A 
ATOM     77  C   UNL     1       1.328   3.760  12.577  1.00  0.00     0.148 A 
ATOM     78  C   UNL     1       0.586   6.075  13.981  1.00  0.00     0.002 A 
ATOM     79  C   UNL     1      -0.010   4.014  12.854  1.00  0.00     0.091 A 
ATOM     80  F   UNL     1       1.719   2.652  11.931  1.00  0.00    -0.205 F 
ATOM     81  C   UNL     1      -0.382   5.161  13.572  1.00  0.00     0.022 A 
BRANCH  79  82
ATOM     82  S   UNL     1      -1.335   2.961  12.255  1.00  0.00     0.127 S 
ATOM     83  O   UNL     1      -1.827   2.364  13.494  1.00  0.00    -0.237 OA
ATOM     84  O   UNL     1      -2.237   3.934  11.638  1.00  0.00    -0.237 OA
ATOM     85  O   UNL     1      -0.712   2.040  11.314  1.00  0.00    -0.744 OA
ENDBRANCH  79  82
ENDBRANCH  51  75
BRANCH  63  86
ATOM     86  C   UNL     1       8.010   3.695  16.884  1.00  0.00     0.023 A 
ATOM     87  C   UNL     1       7.540   2.605  17.643  1.00  0.00     0.012 A 
ATOM     88  C   UNL     1       8.749   4.713  17.518  1.00  0.00     0.148 A 
ATOM     89  C   UNL     1       7.770   2.549  19.018  1.00  0.00     0.002 A 
ATOM     90  C   UNL     1       9.021   4.622  18.877  1.00  0.00     0.091 A 
ATOM     91  F   UNL     1       9.172   5.750  16.781  1.00  0.00    -0.205 F 
ATOM     92  C   UNL     1       8.520   3.549  19.631  1.00  0.00     0.022 A 
BRANCH  90  93
ATOM     93  S   UNL     1      10.064   5.809  19.732  1.00  0.00     0.127 S 
ATOM     94  O   UNL     1       9.089   6.522  20.557  1.00  0.00    -0.237 OA
ATOM     95  O   UNL     1      10.975   4.940  20.477  1.00  0.00    -0.237 OA
ATOM     96  O   UNL     1      10.703   6.606  18.693  1.00  0.00    -0.744 OA
ENDBRANCH  90  93
ENDBRANCH  63  86
ENDBRANCH  37  38
ENDBRANCH  29  32
ENDBRANCH  27  28
ENDBRANCH  26  27
ENDBRANCH   1  26
TORSDOF 18
