REMARK SMILES C[NH2+][C@]1(C(=O)NCCCNC(=O)c2ccc(-c3c4nc(c(-c5cccc(S(=O)(=O)[O-])c5F)c5ccc([nH]5)c(-c5cccc(S(=O)(=O)[O-])c5F)c5nc(c(-c6cccc(S(=O)(=O)[O-])c6F)c6ccc3[nH]6)C=C5)C=C4)cc2)CCC[C@@H]1CCSc1cccc(Cl)c1
REMARK SMILES IDX 7 1 6 2 4 3 5 4 3 6 76 7 79 8 77 9 78 10 2 11 1 12 80 15
REMARK SMILES IDX 81 16 82 17 83 18 84 19 89 20 85 21 87 22 86 23 88 24 8 25
REMARK SMILES IDX 9 26 10 27 11 28 12 30 13 31 14 32 75 33 15 34 74 35 16 36
REMARK SMILES IDX 17 37 18 38 68 39 19 40 73 41 67 42 69 43 20 44 72 45 66 46
REMARK SMILES IDX 65 47 21 49 53 50 33 51 52 52 34 53 37 54 51 55 70 56 35 57
REMARK SMILES IDX 36 58 50 60 71 61 38 62 22 63 23 64 31 65 24 66 26 67 32 68
REMARK SMILES IDX 25 69 27 70 28 71 29 72 30 73 54 74 55 75 63 76 56 77 58 78
REMARK SMILES IDX 64 79 57 80 59 81 60 82 61 83 62 84 39 85 40 86 48 87 41 88
REMARK SMILES IDX 43 89 49 90 42 91 44 92 45 93 46 94 47 95
REMARK H PARENT 6 5 2 13 2 14 10 29 69 48 37 59
REMARK Flexibility Score: inf
ROOT
ATOM      1  C   UNL     1       0.768   1.848  -2.699  1.00  0.00     0.118 C 
ENDROOT
BRANCH   1   2
ATOM      2  N   UNL     1       1.142   1.697  -1.307  1.00  0.00    -0.351 N 
ATOM      3  C   UNL     1       0.412   1.454  -0.188  1.00  0.00     0.281 C 
ATOM      4  O   UNL     1       1.069   1.143   0.817  1.00  0.00    -0.268 OA
ATOM      5  H   UNL     1       2.108   1.789  -1.142  1.00  0.00     0.163 HD
BRANCH   3   6
ATOM      6  C   UNL     1      -1.155   1.469  -0.138  1.00  0.00     0.178 C 
ATOM      7  C   UNL     1      -1.851   2.645  -0.850  1.00  0.00     0.079 C 
ATOM      8  C   UNL     1      -1.727   0.259  -0.931  1.00  0.00     0.061 C 
ATOM      9  C   UNL     1      -3.263   2.155  -1.164  1.00  0.00     0.008 C 
ATOM     10  C   UNL     1      -3.194   0.629  -1.197  1.00  0.00     0.011 C 
BRANCH   6  11
ATOM     11  N   UNL     1      -1.598   1.366   1.292  1.00  0.00    -0.336 N 
ATOM     12  C   UNL     1      -1.342   2.579   2.072  1.00  0.00     0.331 C 
ATOM     13  H   UNL     1      -2.601   1.179   1.306  1.00  0.00     0.346 HD
ATOM     14  H   UNL     1      -1.058   0.615   1.720  1.00  0.00     0.346 HD
ENDBRANCH   6  11
BRANCH   8  15
ATOM     15  C   UNL     1      -1.551  -1.135  -0.311  1.00  0.00     0.022 C 
BRANCH  15  16
ATOM     16  C   UNL     1      -1.839  -2.289  -1.284  1.00  0.00     0.075 C 
BRANCH  16  17
ATOM     17  S   UNL     1      -0.403  -2.814  -2.301  1.00  0.00    -0.126 SA
BRANCH  17  18
ATOM     18  C   UNL     1      -0.330  -1.692  -3.689  1.00  0.00     0.009 A 
ATOM     19  C   UNL     1      -1.405  -0.951  -4.189  1.00  0.00     0.015 A 
ATOM     20  C   UNL     1       0.907  -1.583  -4.337  1.00  0.00     0.035 A 
ATOM     21  C   UNL     1      -1.227  -0.044  -5.242  1.00  0.00     0.003 A 
ATOM     22  C   UNL     1       1.069  -0.722  -5.422  1.00  0.00     0.042 A 
ATOM     23  C   UNL     1       0.017   0.077  -5.857  1.00  0.00     0.020 A 
ATOM     24  Cl  UNL     1       2.590  -0.659  -6.215  1.00  0.00    -0.084 Cl
ENDBRANCH  17  18
ENDBRANCH  16  17
ENDBRANCH  15  16
ENDBRANCH   8  15
ENDBRANCH   3   6
ENDBRANCH   1   2
BRANCH   1  25
ATOM     25  C   UNL     1       1.003   3.248  -3.235  1.00  0.00     0.042 C 
BRANCH  25  26
ATOM     26  C   UNL     1       2.466   3.536  -3.526  1.00  0.00     0.118 C 
BRANCH  26  27
ATOM     27  N   UNL     1       3.005   2.700  -4.596  1.00  0.00    -0.352 N 
ATOM     28  C   UNL     1       3.598   3.060  -5.779  1.00  0.00     0.251 C 
ATOM     29  H   UNL     1       2.931   1.730  -4.445  1.00  0.00     0.163 HD
ATOM     30  O   UNL     1       3.859   2.209  -6.627  1.00  0.00    -0.269 OA
BRANCH  28  31
ATOM     31  C   UNL     1       3.910   4.468  -6.059  1.00  0.00     0.039 A 
ATOM     32  C   UNL     1       3.665   4.964  -7.343  1.00  0.00     0.014 A 
ATOM     33  C   UNL     1       4.459   5.288  -5.072  1.00  0.00     0.014 A 
ATOM     34  C   UNL     1       3.917   6.304  -7.618  1.00  0.00     0.010 A 
ATOM     35  C   UNL     1       4.611   6.644  -5.317  1.00  0.00     0.010 A 
ATOM     36  C   UNL     1       4.357   7.159  -6.596  1.00  0.00    -0.014 A 
BRANCH  36  37
ATOM     37  C   UNL     1       4.570   8.601  -6.843  1.00  0.00     0.031 A 
ATOM     38  C   UNL     1       5.941   9.189  -6.672  1.00  0.00     0.074 A 
ATOM     39  C   UNL     1       3.510   9.379  -7.129  1.00  0.00     0.049 A 
ATOM     40  N   UNL     1       6.316  10.437  -6.757  1.00  0.00    -0.248 NA
ATOM     41  C   UNL     1       7.029   8.258  -6.324  1.00  0.00     0.031 C 
ATOM     42  C   UNL     1       2.125   8.913  -7.244  1.00  0.00     0.029 A 
ATOM     43  N   UNL     1       3.424  10.729  -7.348  1.00  0.00    -0.354 N 
ATOM     44  C   UNL     1       7.667  10.447  -6.432  1.00  0.00     0.074 A 
ATOM     45  C   UNL     1       8.038   9.088  -6.111  1.00  0.00     0.031 C 
ATOM     46  C   UNL     1       1.330   9.958  -7.520  1.00  0.00     0.029 A 
ATOM     47  C   UNL     1       2.140  11.170  -7.560  1.00  0.00     0.049 A 
ATOM     48  H   UNL     1       4.207  11.325  -7.352  1.00  0.00     0.167 HD
ATOM     49  C   UNL     1       8.525  11.493  -6.428  1.00  0.00     0.034 A 
ATOM     50  C   UNL     1       1.669  12.417  -7.751  1.00  0.00     0.034 A 
ATOM     51  C   UNL     1       8.144  12.832  -6.787  1.00  0.00     0.049 A 
ATOM     52  C   UNL     1       2.650  13.556  -7.778  1.00  0.00     0.074 A 
ATOM     53  C   UNL     1       8.944  13.953  -6.903  1.00  0.00     0.029 A 
ATOM     54  N   UNL     1       6.847  13.231  -7.077  1.00  0.00    -0.354 N 
ATOM     55  N   UNL     1       3.951  13.527  -7.613  1.00  0.00    -0.248 NA
ATOM     56  C   UNL     1       2.107  14.892  -8.050  1.00  0.00     0.031 C 
ATOM     57  C   UNL     1       8.125  15.038  -7.229  1.00  0.00     0.029 A 
ATOM     58  C   UNL     1       6.821  14.585  -7.358  1.00  0.00     0.049 A 
ATOM     59  H   UNL     1       6.062  12.638  -7.083  1.00  0.00     0.167 HD
ATOM     60  C   UNL     1       4.387  14.833  -7.796  1.00  0.00     0.074 A 
ATOM     61  C   UNL     1       3.212  15.623  -8.106  1.00  0.00     0.031 C 
ATOM     62  C   UNL     1       5.643  15.339  -7.705  1.00  0.00     0.034 A 
BRANCH  49  63
ATOM     63  C   UNL     1       9.959  11.222  -6.054  1.00  0.00     0.023 A 
ATOM     64  C   UNL     1      10.780  10.466  -6.918  1.00  0.00     0.012 A 
ATOM     65  C   UNL     1      10.507  11.746  -4.867  1.00  0.00     0.148 A 
ATOM     66  C   UNL     1      12.108  10.201  -6.587  1.00  0.00     0.002 A 
ATOM     67  C   UNL     1      11.846  11.520  -4.569  1.00  0.00     0.091 A 
ATOM     68  F   UNL     1       9.708  12.441  -4.046  1.00  0.00    -0.205 F 
ATOM     69  C   UNL     1      12.643  10.736  -5.420  1.00  0.00     0.022 A 
BRANCH  67  70
ATOM     70  S   UNL     1      12.653  12.233  -3.132  1.00  0.00     0.127 S 
ATOM     71  O   UNL     1      12.898  11.047  -2.312  1.00  0.00    -0.237 OA
ATOM     72  O   UNL     1      13.854  12.827  -3.719  1.00  0.00    -0.237 OA
ATOM     73  O   UNL     1      11.710  13.192  -2.575  1.00  0.00    -0.744 OA
ENDBRANCH  67  70
ENDBRANCH  49  63
BRANCH  50  74
ATOM     74  C   UNL     1       0.215  12.637  -7.988  1.00  0.00     0.023 A 
ATOM     75  C   UNL     1      -0.226  13.037  -9.264  1.00  0.00     0.012 A 
ATOM     76  C   UNL     1      -0.734  12.414  -6.972  1.00  0.00     0.148 A 
ATOM     77  C   UNL     1      -1.583  13.245  -9.515  1.00  0.00     0.002 A 
ATOM     78  C   UNL     1      -2.088  12.567  -7.244  1.00  0.00     0.091 A 
ATOM     79  F   UNL     1      -0.293  12.037  -5.763  1.00  0.00    -0.205 F 
ATOM     80  C   UNL     1      -2.514  13.001  -8.509  1.00  0.00     0.022 A 
BRANCH  78  81
ATOM     81  S   UNL     1      -3.365  12.145  -6.053  1.00  0.00     0.127 S 
ATOM     82  O   UNL     1      -3.917  13.458  -5.728  1.00  0.00    -0.237 OA
ATOM     83  O   UNL     1      -4.244  11.285  -6.846  1.00  0.00    -0.237 OA
ATOM     84  O   UNL     1      -2.679  11.461  -4.965  1.00  0.00    -0.744 OA
ENDBRANCH  78  81
ENDBRANCH  50  74
BRANCH  62  85
ATOM     85  C   UNL     1       5.819  16.808  -7.983  1.00  0.00     0.023 A 
ATOM     86  C   UNL     1       5.355  17.761  -7.056  1.00  0.00     0.012 A 
ATOM     87  C   UNL     1       6.512  17.236  -9.132  1.00  0.00     0.148 A 
ATOM     88  C   UNL     1       5.546  19.122  -7.287  1.00  0.00     0.002 A 
ATOM     89  C   UNL     1       6.748  18.590  -9.328  1.00  0.00     0.091 A 
ATOM     90  F   UNL     1       6.929  16.312 -10.009  1.00  0.00    -0.205 F 
ATOM     91  C   UNL     1       6.253  19.536  -8.414  1.00  0.00     0.022 A 
BRANCH  89  92
ATOM     92  S   UNL     1       7.736  19.208 -10.694  1.00  0.00     0.127 S 
ATOM     93  O   UNL     1       6.723  19.861 -11.522  1.00  0.00    -0.237 OA
ATOM     94  O   UNL     1       8.656  20.123 -10.020  1.00  0.00    -0.237 OA
ATOM     95  O   UNL     1       8.371  18.041 -11.291  1.00  0.00    -0.744 OA
ENDBRANCH  89  92
ENDBRANCH  62  85
ENDBRANCH  36  37
ENDBRANCH  28  31
ENDBRANCH  26  27
ENDBRANCH  25  26
ENDBRANCH   1  25
TORSDOF 18
