REMARK SMILES CC1=NN(c2ccccc2)C(=O)/C1=C\c1ccc(-c2cc(C(=O)NCCCNC(=O)c3ccc(-c4c5nc(c(-c6cccc(S(=O)(=O)[O-])c6F)c6ccc([nH]6)c(-c6cccc(S(=O)(=O)[O-])c6F)c6nc(c(-c7cccc(S(=O)(=O)[O-])c7F)c7ccc4[nH]7)C=C6)C=C5)cc3)ccc2Cl)o1
REMARK SMILES IDX 26 1 25 2 24 3 22 4 23 5 21 7 19 8 20 9 96 10 95 11 97 12
REMARK SMILES IDX 94 13 18 14 15 15 16 16 98 17 17 18 14 19 1 20 2 21 3 22
REMARK SMILES IDX 13 23 4 24 11 25 12 26 5 27 6 28 10 29 7 30 9 31 8 32 27 33
REMARK SMILES IDX 28 34 29 35 30 37 31 38 32 39 93 40 33 41 92 42 34 43 35 44
REMARK SMILES IDX 36 45 86 46 37 47 91 48 85 49 87 50 38 51 90 52 84 53 83 54
REMARK SMILES IDX 39 56 71 57 51 58 70 59 52 60 55 61 69 62 88 63 53 64 54 65
REMARK SMILES IDX 68 67 89 68 56 69 40 70 41 71 49 72 42 73 44 74 50 75 43 76
REMARK SMILES IDX 45 77 46 78 47 79 48 80 72 81 73 82 81 83 74 84 76 85 82 86
REMARK SMILES IDX 75 87 77 88 78 89 79 90 80 91 57 92 58 93 66 94 59 95 61 96
REMARK SMILES IDX 67 97 60 98 62 99 63 100 64 101 65 102
REMARK H PARENT 24 6 28 36 87 55 55 66
REMARK Flexibility Score: inf
ROOT
ATOM      1  C   UNL     1       5.573  -8.952  -5.507  1.00  0.00     0.042 C 
ENDROOT
BRANCH   1   2
ATOM      2  C   UNL     1       6.389  -7.817  -4.916  1.00  0.00     0.118 C 
BRANCH   2   3
ATOM      3  N   UNL     1       5.932  -6.484  -5.295  1.00  0.00    -0.352 N 
ATOM      4  C   UNL     1       5.475  -5.415  -4.555  1.00  0.00     0.251 C 
ATOM      5  O   UNL     1       5.125  -4.396  -5.148  1.00  0.00    -0.269 OA
ATOM      6  H   UNL     1       5.954  -6.316  -6.265  1.00  0.00     0.163 HD
BRANCH   4   7
ATOM      7  C   UNL     1       5.358  -5.468  -3.072  1.00  0.00     0.040 A 
ATOM      8  C   UNL     1       4.160  -4.827  -1.042  1.00  0.00     0.037 A 
ATOM      9  C   UNL     1       4.339  -4.736  -2.435  1.00  0.00     0.027 A 
ATOM     10  C   UNL     1       4.949  -5.747  -0.324  1.00  0.00     0.052 A 
ATOM     11  C   UNL     1       6.017  -6.393  -0.940  1.00  0.00     0.022 A 
ATOM     12  Cl  UNL     1       4.673  -6.133   1.343  1.00  0.00    -0.084 Cl
ATOM     13  C   UNL     1       6.267  -6.180  -2.289  1.00  0.00     0.015 A 
BRANCH   8  14
ATOM     14  C   UNL     1       3.313  -3.876  -0.331  1.00  0.00     0.136 A 
ATOM     15  C   UNL     1       1.502  -2.646   0.014  1.00  0.00     0.128 A 
ATOM     16  C   UNL     1       2.385  -2.413   1.063  1.00  0.00     0.051 A 
ATOM     17  O   UNL     1       2.074  -3.583  -0.825  1.00  0.00    -0.457 OA
ATOM     18  C   UNL     1       3.552  -3.142   0.810  1.00  0.00     0.051 A 
BRANCH  15  19
ATOM     19  C   UNL     1       0.225  -2.043  -0.165  1.00  0.00     0.063 C 
ATOM     20  C   UNL     1      -2.482  -0.490   0.069  1.00  0.00     0.069 C 
ATOM     21  C   UNL     1      -1.110   0.092   0.005  1.00  0.00     0.071 C 
ATOM     22  N   UNL     1      -0.850   1.366   0.162  1.00  0.00    -0.169 NA
ATOM     23  C   UNL     1       0.112  -0.708  -0.197  1.00  0.00     0.068 C 
ATOM     24  N   UNL     1       0.519   1.497  -0.045  1.00  0.00    -0.196 N 
ATOM     25  C   UNL     1       1.195   0.300  -0.309  1.00  0.00     0.280 C 
ATOM     26  O   UNL     1       2.365   0.101  -0.556  1.00  0.00    -0.267 OA
BRANCH  24  27
ATOM     27  C   UNL     1       1.107   2.776  -0.067  1.00  0.00     0.069 A 
ATOM     28  C   UNL     1       0.670   3.781   0.802  1.00  0.00     0.028 A 
ATOM     29  C   UNL     1       2.165   3.051  -0.945  1.00  0.00     0.028 A 
ATOM     30  C   UNL     1       1.312   5.023   0.819  1.00  0.00     0.002 A 
ATOM     31  C   UNL     1       2.771   4.307  -0.964  1.00  0.00     0.002 A 
ATOM     32  C   UNL     1       2.355   5.288  -0.070  1.00  0.00     0.000 A 
ENDBRANCH  24  27
ENDBRANCH  15  19
ENDBRANCH   8  14
ENDBRANCH   4   7
ENDBRANCH   2   3
ENDBRANCH   1   2
BRANCH   1  33
ATOM     33  C   UNL     1       5.678  -9.094  -7.014  1.00  0.00     0.118 C 
BRANCH  33  34
ATOM     34  N   UNL     1       7.036  -9.374  -7.470  1.00  0.00    -0.352 N 
ATOM     35  C   UNL     1       7.600 -10.518  -7.985  1.00  0.00     0.251 C 
ATOM     36  H   UNL     1       7.655  -8.612  -7.397  1.00  0.00     0.163 HD
ATOM     37  O   UNL     1       8.819 -10.568  -8.133  1.00  0.00    -0.269 OA
BRANCH  35  38
ATOM     38  C   UNL     1       6.766 -11.690  -8.338  1.00  0.00     0.039 A 
ATOM     39  C   UNL     1       7.258 -12.975  -8.087  1.00  0.00     0.014 A 
ATOM     40  C   UNL     1       5.513 -11.536  -8.932  1.00  0.00     0.014 A 
ATOM     41  C   UNL     1       6.460 -14.091  -8.355  1.00  0.00     0.010 A 
ATOM     42  C   UNL     1       4.678 -12.637  -9.090  1.00  0.00     0.010 A 
ATOM     43  C   UNL     1       5.143 -13.930  -8.815  1.00  0.00    -0.014 A 
BRANCH  43  44
ATOM     44  C   UNL     1       4.236 -15.092  -9.011  1.00  0.00     0.031 A 
ATOM     45  C   UNL     1       3.634 -15.368 -10.365  1.00  0.00     0.074 A 
ATOM     46  C   UNL     1       3.879 -15.844  -7.950  1.00  0.00     0.049 A 
ATOM     47  N   UNL     1       2.774 -16.290 -10.711  1.00  0.00    -0.248 NA
ATOM     48  C   UNL     1       4.024 -14.473 -11.468  1.00  0.00     0.031 C 
ATOM     49  C   UNL     1       4.325 -15.630  -6.571  1.00  0.00     0.029 A 
ATOM     50  N   UNL     1       3.038 -16.925  -7.860  1.00  0.00    -0.354 N 
ATOM     51  C   UNL     1       2.490 -16.063 -12.053  1.00  0.00     0.074 A 
ATOM     52  C   UNL     1       3.239 -14.891 -12.449  1.00  0.00     0.031 C 
ATOM     53  C   UNL     1       3.765 -16.555  -5.777  1.00  0.00     0.029 A 
ATOM     54  C   UNL     1       2.888 -17.402  -6.578  1.00  0.00     0.049 A 
ATOM     55  H   UNL     1       2.584 -17.322  -8.638  1.00  0.00     0.167 HD
ATOM     56  C   UNL     1       1.701 -16.778 -12.889  1.00  0.00     0.034 A 
ATOM     57  C   UNL     1       2.122 -18.401  -6.097  1.00  0.00     0.034 A 
ATOM     58  C   UNL     1       0.988 -17.965 -12.502  1.00  0.00     0.049 A 
ATOM     59  C   UNL     1       1.279 -19.201  -7.053  1.00  0.00     0.074 A 
ATOM     60  C   UNL     1       0.238 -18.815 -13.296  1.00  0.00     0.029 A 
ATOM     61  N   UNL     1       0.924 -18.464 -11.210  1.00  0.00    -0.354 N 
ATOM     62  N   UNL     1       1.150 -19.065  -8.351  1.00  0.00    -0.248 NA
ATOM     63  C   UNL     1       0.503 -20.312  -6.486  1.00  0.00     0.031 C 
ATOM     64  C   UNL     1      -0.312 -19.805 -12.476  1.00  0.00     0.029 A 
ATOM     65  C   UNL     1       0.133 -19.599 -11.181  1.00  0.00     0.049 A 
ATOM     66  H   UNL     1       1.374 -18.069 -10.429  1.00  0.00     0.167 HD
ATOM     67  C   UNL     1       0.311 -20.096  -8.760  1.00  0.00     0.074 A 
ATOM     68  C   UNL     1      -0.020 -20.859  -7.574  1.00  0.00     0.031 C 
ATOM     69  C   UNL     1      -0.152 -20.378 -10.002  1.00  0.00     0.034 A 
BRANCH  56  70
ATOM     70  C   UNL     1       1.598 -16.320 -14.322  1.00  0.00     0.023 A 
ATOM     71  C   UNL     1       2.712 -16.439 -15.179  1.00  0.00     0.012 A 
ATOM     72  C   UNL     1       0.383 -15.827 -14.836  1.00  0.00     0.148 A 
ATOM     73  C   UNL     1       2.631 -16.038 -16.512  1.00  0.00     0.002 A 
ATOM     74  C   UNL     1       0.295 -15.477 -16.179  1.00  0.00     0.091 A 
ATOM     75  F   UNL     1      -0.661 -15.702 -14.004  1.00  0.00    -0.205 F 
ATOM     76  C   UNL     1       1.421 -15.568 -17.014  1.00  0.00     0.022 A 
BRANCH  74  77
ATOM     77  S   UNL     1      -1.239 -14.941 -16.944  1.00  0.00     0.127 S 
ATOM     78  O   UNL     1      -0.952 -13.535 -17.227  1.00  0.00    -0.237 OA
ATOM     79  O   UNL     1      -1.307 -15.799 -18.127  1.00  0.00    -0.237 OA
ATOM     80  O   UNL     1      -2.285 -15.177 -15.959  1.00  0.00    -0.744 OA
ENDBRANCH  74  77
ENDBRANCH  56  70
BRANCH  57  81
ATOM     81  C   UNL     1       2.156 -18.737  -4.645  1.00  0.00     0.023 A 
ATOM     82  C   UNL     1       2.736 -19.951  -4.226  1.00  0.00     0.012 A 
ATOM     83  C   UNL     1       1.637 -17.855  -3.678  1.00  0.00     0.148 A 
ATOM     84  C   UNL     1       2.763 -20.297  -2.874  1.00  0.00     0.002 A 
ATOM     85  C   UNL     1       1.721 -18.179  -2.329  1.00  0.00     0.091 A 
ATOM     86  F   UNL     1       1.084 -16.708  -4.097  1.00  0.00    -0.205 F 
ATOM     87  C   UNL     1       2.265 -19.408  -1.926  1.00  0.00     0.022 A 
BRANCH  85  88
ATOM     88  S   UNL     1       1.226 -17.040  -1.031  1.00  0.00     0.127 S 
ATOM     89  O   UNL     1       0.054 -17.710  -0.476  1.00  0.00    -0.237 OA
ATOM     90  O   UNL     1       2.406 -17.042  -0.165  1.00  0.00    -0.237 OA
ATOM     91  O   UNL     1       0.972 -15.770  -1.696  1.00  0.00    -0.744 OA
ENDBRANCH  85  88
ENDBRANCH  57  81
BRANCH  69  92
ATOM     92  C   UNL     1      -1.033 -21.590 -10.162  1.00  0.00     0.023 A 
ATOM     93  C   UNL     1      -2.347 -21.582  -9.655  1.00  0.00     0.012 A 
ATOM     94  C   UNL     1      -0.576 -22.713 -10.881  1.00  0.00     0.148 A 
ATOM     95  C   UNL     1      -3.179 -22.688  -9.827  1.00  0.00     0.002 A 
ATOM     96  C   UNL     1      -1.428 -23.788 -11.096  1.00  0.00     0.091 A 
ATOM     97  F   UNL     1       0.684 -22.707 -11.342  1.00  0.00    -0.205 F 
ATOM     98  C   UNL     1      -2.725 -23.784 -10.557  1.00  0.00     0.022 A 
BRANCH  96  99
ATOM     99  S   UNL     1      -0.966 -25.197 -12.109  1.00  0.00     0.127 S 
ATOM    100  O   UNL     1      -0.842 -26.255 -11.107  1.00  0.00    -0.237 OA
ATOM    101  O   UNL     1      -2.121 -25.331 -12.997  1.00  0.00    -0.237 OA
ATOM    102  O   UNL     1       0.272 -24.825 -12.779  1.00  0.00    -0.744 OA
ENDBRANCH  96  99
ENDBRANCH  69  92
ENDBRANCH  43  44
ENDBRANCH  35  38
ENDBRANCH  33  34
ENDBRANCH   1  33
TORSDOF 16
