REMARK SMILES CC(C)n1c(CCC(=O)NCCCNC(=O)c2ccc(-c3c4nc(c(-c5cccc(S(=O)(=O)[O-])c5F)c5ccc([nH]5)c(-c5cccc(S(=O)(=O)[O-])c5F)c5nc(c(-c6cccc(S(=O)(=O)[O-])c6F)c6ccc3[nH]6)C=C5)C=C4)cc2)ccc1-c1ccc(F)cc1
REMARK SMILES IDX 12 1 11 2 10 3 8 4 9 5 7 7 6 8 5 9 4 10 82 11 80 12 81 13
REMARK SMILES IDX 2 14 1 15 3 16 83 17 84 18 89 19 85 20 88 21 86 22 87 23
REMARK SMILES IDX 13 24 14 25 15 26 16 28 17 29 18 30 79 31 19 32 78 33 20 34
REMARK SMILES IDX 21 35 22 36 72 37 23 38 77 39 71 40 73 41 24 42 76 43 70 44
REMARK SMILES IDX 69 45 25 47 57 48 37 49 56 50 38 51 41 52 55 53 74 54 39 55
REMARK SMILES IDX 40 56 54 58 75 59 42 60 26 61 27 62 35 63 28 64 30 65 36 66
REMARK SMILES IDX 29 67 31 68 32 69 33 70 34 71 58 72 59 73 67 74 60 75 62 76
REMARK SMILES IDX 68 77 61 78 63 79 64 80 65 81 66 82 43 83 44 84 52 85 45 86
REMARK SMILES IDX 47 87 53 88 46 89 48 90 49 91 50 92 51 93
REMARK H PARENT 10 6 14 27 73 46 41 57
REMARK Flexibility Score: inf
ROOT
ATOM      1  C   UNL     1      -0.315   1.055  -3.370  1.00  0.00     0.042 C 
ENDROOT
BRANCH   1   2
ATOM      2  C   UNL     1      -0.222  -0.311  -4.093  1.00  0.00     0.117 C 
BRANCH   2   3
ATOM      3  N   UNL     1       0.692  -1.275  -3.456  1.00  0.00    -0.356 N 
ATOM      4  C   UNL     1       0.540  -2.542  -2.958  1.00  0.00     0.220 C 
ATOM      5  O   UNL     1       1.570  -3.140  -2.631  1.00  0.00    -0.275 OA
ATOM      6  H   UNL     1       1.611  -0.934  -3.369  1.00  0.00     0.163 HD
BRANCH   4   7
ATOM      7  C   UNL     1      -0.796  -3.271  -2.881  1.00  0.00     0.106 C 
BRANCH   7   8
ATOM      8  C   UNL     1      -1.194  -3.829  -1.499  1.00  0.00     0.064 C 
BRANCH   8   9
ATOM      9  C   UNL     1      -1.830  -2.825  -0.587  1.00  0.00     0.019 A 
ATOM     10  N   UNL     1      -1.193  -1.988   0.341  1.00  0.00    -0.342 N 
ATOM     11  C   UNL     1      -2.144  -0.960   0.613  1.00  0.00     0.048 A 
ATOM     12  C   UNL     1      -3.188  -2.544  -0.563  1.00  0.00     0.024 A 
ATOM     13  C   UNL     1      -3.395  -1.407   0.228  1.00  0.00     0.029 A 
BRANCH  10  14
ATOM     14  C   UNL     1       0.276  -1.889   0.595  1.00  0.00     0.081 C 
ATOM     15  C   UNL     1       0.725  -1.066   1.831  1.00  0.00     0.031 C 
ATOM     16  C   UNL     1       1.118  -3.166   0.662  1.00  0.00     0.031 C 
ENDBRANCH  10  14
BRANCH  11  17
ATOM     17  C   UNL     1      -1.817   0.462   0.709  1.00  0.00    -0.002 A 
ATOM     18  C   UNL     1      -2.589   1.470   1.283  1.00  0.00     0.013 A 
ATOM     19  C   UNL     1      -0.741   0.834  -0.070  1.00  0.00     0.013 A 
ATOM     20  C   UNL     1      -2.317   2.799   0.945  1.00  0.00     0.040 A 
ATOM     21  C   UNL     1      -0.344   2.121  -0.235  1.00  0.00     0.040 A 
ATOM     22  C   UNL     1      -1.239   3.093   0.133  1.00  0.00     0.123 A 
ATOM     23  F   UNL     1      -1.193   4.300  -0.439  1.00  0.00    -0.207 F 
ENDBRANCH  11  17
ENDBRANCH   8   9
ENDBRANCH   7   8
ENDBRANCH   4   7
ENDBRANCH   2   3
ENDBRANCH   1   2
BRANCH   1  24
ATOM     24  C   UNL     1       0.506   2.317  -3.764  1.00  0.00     0.118 C 
BRANCH  24  25
ATOM     25  N   UNL     1      -0.309   3.565  -3.674  1.00  0.00    -0.352 N 
ATOM     26  C   UNL     1      -0.111   4.857  -3.186  1.00  0.00     0.251 C 
ATOM     27  H   UNL     1      -1.210   3.447  -4.052  1.00  0.00     0.163 HD
ATOM     28  O   UNL     1      -0.935   5.719  -3.499  1.00  0.00    -0.269 OA
BRANCH  26  29
ATOM     29  C   UNL     1       1.032   5.248  -2.314  1.00  0.00     0.039 A 
ATOM     30  C   UNL     1       1.443   6.560  -2.075  1.00  0.00     0.014 A 
ATOM     31  C   UNL     1       1.538   4.303  -1.447  1.00  0.00     0.014 A 
ATOM     32  C   UNL     1       2.462   6.800  -1.128  1.00  0.00     0.010 A 
ATOM     33  C   UNL     1       2.750   4.431  -0.820  1.00  0.00     0.010 A 
ATOM     34  C   UNL     1       3.125   5.715  -0.512  1.00  0.00    -0.014 A 
BRANCH  34  35
ATOM     35  C   UNL     1       4.239   5.851   0.445  1.00  0.00     0.031 A 
ATOM     36  C   UNL     1       3.816   5.593   1.934  1.00  0.00     0.074 A 
ATOM     37  C   UNL     1       5.424   6.158  -0.175  1.00  0.00     0.049 A 
ATOM     38  N   UNL     1       4.002   6.337   2.989  1.00  0.00    -0.248 NA
ATOM     39  C   UNL     1       2.960   4.424   2.300  1.00  0.00     0.031 C 
ATOM     40  C   UNL     1       5.639   6.135  -1.650  1.00  0.00     0.029 A 
ATOM     41  N   UNL     1       6.682   6.516   0.249  1.00  0.00    -0.354 N 
ATOM     42  C   UNL     1       3.546   5.604   4.128  1.00  0.00     0.074 A 
ATOM     43  C   UNL     1       2.734   4.550   3.614  1.00  0.00     0.031 C 
ATOM     44  C   UNL     1       6.869   6.587  -1.980  1.00  0.00     0.029 A 
ATOM     45  C   UNL     1       7.587   6.931  -0.770  1.00  0.00     0.049 A 
ATOM     46  H   UNL     1       6.941   6.488   1.199  1.00  0.00     0.167 HD
ATOM     47  C   UNL     1       4.093   5.745   5.382  1.00  0.00     0.034 A 
ATOM     48  C   UNL     1       8.800   7.557  -0.633  1.00  0.00     0.034 A 
ATOM     49  C   UNL     1       5.236   6.589   5.246  1.00  0.00     0.049 A 
ATOM     50  C   UNL     1       9.054   7.533   0.806  1.00  0.00     0.074 A 
ATOM     51  C   UNL     1       5.399   7.911   4.929  1.00  0.00     0.029 A 
ATOM     52  N   UNL     1       6.406   5.898   5.014  1.00  0.00    -0.354 N 
ATOM     53  N   UNL     1       9.414   6.475   1.464  1.00  0.00    -0.248 NA
ATOM     54  C   UNL     1       8.791   8.749   1.585  1.00  0.00     0.031 C 
ATOM     55  C   UNL     1       6.482   7.863   4.029  1.00  0.00     0.029 A 
ATOM     56  C   UNL     1       7.121   6.618   4.108  1.00  0.00     0.049 A 
ATOM     57  H   UNL     1       6.673   5.045   5.427  1.00  0.00     0.167 HD
ATOM     58  C   UNL     1       9.018   6.804   2.732  1.00  0.00     0.074 A 
ATOM     59  C   UNL     1       9.001   8.254   2.801  1.00  0.00     0.031 C 
ATOM     60  C   UNL     1       8.174   5.960   3.382  1.00  0.00     0.034 A 
BRANCH  47  61
ATOM     61  C   UNL     1       4.056   4.985   6.709  1.00  0.00     0.023 A 
ATOM     62  C   UNL     1       4.740   5.639   7.785  1.00  0.00     0.012 A 
ATOM     63  C   UNL     1       3.709   3.641   6.915  1.00  0.00     0.148 A 
ATOM     64  C   UNL     1       5.209   4.966   8.912  1.00  0.00     0.002 A 
ATOM     65  C   UNL     1       4.129   2.982   8.084  1.00  0.00     0.091 A 
ATOM     66  F   UNL     1       3.037   2.980   5.971  1.00  0.00    -0.205 F 
ATOM     67  C   UNL     1       4.917   3.627   9.051  1.00  0.00     0.022 A 
BRANCH  65  68
ATOM     68  S   UNL     1       3.708   1.270   8.446  1.00  0.00     0.127 S 
ATOM     69  O   UNL     1       5.011   0.605   8.296  1.00  0.00    -0.237 OA
ATOM     70  O   UNL     1       3.252   1.368   9.843  1.00  0.00    -0.237 OA
ATOM     71  O   UNL     1       2.682   0.902   7.508  1.00  0.00    -0.744 OA
ENDBRANCH  65  68
ENDBRANCH  47  61
BRANCH  48  72
ATOM     72  C   UNL     1       9.824   8.322  -1.447  1.00  0.00     0.023 A 
ATOM     73  C   UNL     1       9.808   8.462  -2.838  1.00  0.00     0.012 A 
ATOM     74  C   UNL     1      10.819   9.092  -0.756  1.00  0.00     0.148 A 
ATOM     75  C   UNL     1      10.662   9.389  -3.481  1.00  0.00     0.002 A 
ATOM     76  C   UNL     1      11.543  10.105  -1.367  1.00  0.00     0.091 A 
ATOM     77  F   UNL     1      11.096   8.827   0.526  1.00  0.00    -0.205 F 
ATOM     78  C   UNL     1      11.484  10.248  -2.746  1.00  0.00     0.022 A 
BRANCH  76  79
ATOM     79  S   UNL     1      12.421  11.355  -0.402  1.00  0.00     0.127 S 
ATOM     80  O   UNL     1      13.748  11.347  -1.012  1.00  0.00    -0.237 OA
ATOM     81  O   UNL     1      11.623  12.549  -0.681  1.00  0.00    -0.237 OA
ATOM     82  O   UNL     1      12.378  10.913   0.986  1.00  0.00    -0.744 OA
ENDBRANCH  76  79
ENDBRANCH  48  72
BRANCH  60  83
ATOM     83  C   UNL     1       8.263   4.485   2.964  1.00  0.00     0.023 A 
ATOM     84  C   UNL     1       9.547   3.896   2.979  1.00  0.00     0.012 A 
ATOM     85  C   UNL     1       7.207   3.692   2.449  1.00  0.00     0.148 A 
ATOM     86  C   UNL     1       9.785   2.608   2.489  1.00  0.00     0.002 A 
ATOM     87  C   UNL     1       7.444   2.402   1.945  1.00  0.00     0.091 A 
ATOM     88  F   UNL     1       5.975   4.197   2.439  1.00  0.00    -0.205 F 
ATOM     89  C   UNL     1       8.736   1.861   1.971  1.00  0.00     0.022 A 
BRANCH  87  90
ATOM     90  S   UNL     1       6.179   1.370   1.162  1.00  0.00     0.127 S 
ATOM     91  O   UNL     1       6.822   0.975  -0.095  1.00  0.00    -0.237 OA
ATOM     92  O   UNL     1       6.030   0.279   2.121  1.00  0.00    -0.237 OA
ATOM     93  O   UNL     1       5.002   2.212   0.982  1.00  0.00    -0.744 OA
ENDBRANCH  87  90
ENDBRANCH  60  83
ENDBRANCH  34  35
ENDBRANCH  26  29
ENDBRANCH  24  25
ENDBRANCH   1  24
TORSDOF 17
