REMARK SMILES Nc1ccc(O)c(C(=O)NCCCNC(=O)c2ccc(-c3c4nc(c(-c5cccc(S(=O)(=O)[O-])c5F)c5ccc([nH]5)c(-c5cccc(S(=O)(=O)[O-])c5F)c5nc(c(-c6cccc(S(=O)(=O)[O-])c6F)c6ccc3[nH]6)C=C5)C=C4)cc2)c1
REMARK SMILES IDX 13 1 12 2 11 3 10 4 8 5 9 6 7 8 2 9 3 10 80 11 4 12 5 13
REMARK SMILES IDX 1 14 6 17 14 19 15 20 16 22 17 23 18 24 79 25 19 26 78 27
REMARK SMILES IDX 20 28 21 29 22 30 72 31 23 32 77 33 71 34 73 35 24 36 76 37
REMARK SMILES IDX 70 38 69 39 25 41 57 42 37 43 56 44 38 45 41 46 55 47 74 48
REMARK SMILES IDX 39 49 40 50 54 52 75 53 42 54 26 55 27 56 35 57 28 58 30 59
REMARK SMILES IDX 36 60 29 61 31 62 32 63 33 64 34 65 58 66 59 67 67 68 60 69
REMARK SMILES IDX 62 70 68 71 61 72 63 73 64 74 65 75 66 76 43 77 44 78 52 79
REMARK SMILES IDX 45 80 47 81 53 82 46 83 48 84 49 85 50 86 51 87
REMARK H PARENT 10 7 1 15 1 16 6 18 14 21 73 40 41 51
REMARK Flexibility Score: inf
ROOT
ATOM      1  C   UNL     1      -0.880  -5.968  -1.026  1.00  0.00     0.118 C 
ENDROOT
BRANCH   1   2
ATOM      2  C   UNL     1      -1.342  -4.548  -0.701  1.00  0.00     0.042 C 
BRANCH   2   3
ATOM      3  C   UNL     1      -0.653  -3.972   0.536  1.00  0.00     0.118 C 
BRANCH   3   4
ATOM      4  N   UNL     1       0.702  -3.556   0.226  1.00  0.00    -0.352 N 
ATOM      5  C   UNL     1       1.277  -2.344  -0.048  1.00  0.00     0.255 C 
ATOM      6  O   UNL     1       2.500  -2.343  -0.230  1.00  0.00    -0.269 OA
ATOM      7  H   UNL     1       1.343  -4.302   0.210  1.00  0.00     0.163 HD
BRANCH   5   8
ATOM      8  C   UNL     1       0.564  -1.034  -0.073  1.00  0.00     0.083 A 
ATOM      9  C   UNL     1      -1.445   0.359  -0.173  1.00  0.00     0.032 A 
ATOM     10  C   UNL     1      -0.666   1.495   0.044  1.00  0.00     0.029 A 
ATOM     11  C   UNL     1      -0.819  -0.893  -0.245  1.00  0.00     0.043 A 
ATOM     12  C   UNL     1       0.720   1.393   0.135  1.00  0.00     0.049 A 
ATOM     13  C   UNL     1       1.326   0.140   0.079  1.00  0.00     0.128 A 
BRANCH   9  14
ATOM     14  N   UNL     1      -2.830   0.448  -0.167  1.00  0.00    -0.399 N 
ATOM     15  H   UNL     1      -3.266   1.329  -0.117  1.00  0.00     0.156 HD
ATOM     16  H   UNL     1      -3.376  -0.370  -0.212  1.00  0.00     0.156 HD
ENDBRANCH   9  14
BRANCH  13  17
ATOM     17  O   UNL     1       2.695   0.147   0.189  1.00  0.00    -0.507 OA
ATOM     18  H   UNL     1       3.153   0.958   0.288  1.00  0.00     0.293 HD
ENDBRANCH  13  17
ENDBRANCH   5   8
ENDBRANCH   3   4
ENDBRANCH   2   3
ENDBRANCH   1   2
BRANCH   1  19
ATOM     19  N   UNL     1      -1.313  -6.924  -0.011  1.00  0.00    -0.352 N 
ATOM     20  C   UNL     1      -2.127  -8.024  -0.131  1.00  0.00     0.251 C 
ATOM     21  H   UNL     1      -0.968  -6.756   0.895  1.00  0.00     0.163 HD
ATOM     22  O   UNL     1      -2.573  -8.564   0.875  1.00  0.00    -0.269 OA
BRANCH  20  23
ATOM     23  C   UNL     1      -2.466  -8.547  -1.470  1.00  0.00     0.039 A 
ATOM     24  C   UNL     1      -3.783  -8.929  -1.741  1.00  0.00     0.014 A 
ATOM     25  C   UNL     1      -1.479  -8.672  -2.450  1.00  0.00     0.014 A 
ATOM     26  C   UNL     1      -4.123  -9.373  -3.022  1.00  0.00     0.010 A 
ATOM     27  C   UNL     1      -1.835  -9.040  -3.743  1.00  0.00     0.010 A 
ATOM     28  C   UNL     1      -3.159  -9.396  -4.042  1.00  0.00    -0.014 A 
BRANCH  28  29
ATOM     29  C   UNL     1      -3.504  -9.768  -5.437  1.00  0.00     0.031 A 
ATOM     30  C   UNL     1      -2.844 -10.956  -6.082  1.00  0.00     0.074 A 
ATOM     31  C   UNL     1      -4.315  -8.968  -6.157  1.00  0.00     0.049 A 
ATOM     32  N   UNL     1      -2.909 -11.363  -7.322  1.00  0.00    -0.248 NA
ATOM     33  C   UNL     1      -1.969 -11.777  -5.227  1.00  0.00     0.031 C 
ATOM     34  C   UNL     1      -4.960  -7.751  -5.661  1.00  0.00     0.029 A 
ATOM     35  N   UNL     1      -4.704  -9.036  -7.472  1.00  0.00    -0.354 N 
ATOM     36  C   UNL     1      -2.054 -12.455  -7.409  1.00  0.00     0.074 A 
ATOM     37  C   UNL     1      -1.459 -12.631  -6.103  1.00  0.00     0.031 C 
ATOM     38  C   UNL     1      -5.658  -7.184  -6.657  1.00  0.00     0.029 A 
ATOM     39  C   UNL     1      -5.477  -7.971  -7.873  1.00  0.00     0.049 A 
ATOM     40  H   UNL     1      -4.454  -9.777  -8.071  1.00  0.00     0.167 HD
ATOM     41  C   UNL     1      -1.804 -13.252  -8.474  1.00  0.00     0.034 A 
ATOM     42  C   UNL     1      -5.964  -7.649  -9.088  1.00  0.00     0.034 A 
ATOM     43  C   UNL     1      -2.428 -13.093  -9.759  1.00  0.00     0.049 A 
ATOM     44  C   UNL     1      -5.688  -8.565 -10.250  1.00  0.00     0.074 A 
ATOM     45  C   UNL     1      -2.311 -13.900 -10.877  1.00  0.00     0.029 A 
ATOM     46  N   UNL     1      -3.275 -12.051 -10.104  1.00  0.00    -0.354 N 
ATOM     47  N   UNL     1      -4.995  -9.677 -10.276  1.00  0.00    -0.248 NA
ATOM     48  C   UNL     1      -6.286  -8.200 -11.542  1.00  0.00     0.031 C 
ATOM     49  C   UNL     1      -3.060 -13.326 -11.909  1.00  0.00     0.029 A 
ATOM     50  C   UNL     1      -3.677 -12.185 -11.421  1.00  0.00     0.049 A 
ATOM     51  H   UNL     1      -3.549 -11.323  -9.501  1.00  0.00     0.167 HD
ATOM     52  C   UNL     1      -5.108 -10.166 -11.572  1.00  0.00     0.074 A 
ATOM     53  C   UNL     1      -5.947  -9.236 -12.298  1.00  0.00     0.031 C 
ATOM     54  C   UNL     1      -4.558 -11.281 -12.114  1.00  0.00     0.034 A 
BRANCH  41  55
ATOM     55  C   UNL     1      -0.839 -14.395  -8.287  1.00  0.00     0.023 A 
ATOM     56  C   UNL     1      -1.207 -15.497  -7.487  1.00  0.00     0.012 A 
ATOM     57  C   UNL     1       0.404 -14.407  -8.949  1.00  0.00     0.148 A 
ATOM     58  C   UNL     1      -0.338 -16.574  -7.318  1.00  0.00     0.002 A 
ATOM     59  C   UNL     1       1.244 -15.507  -8.815  1.00  0.00     0.091 A 
ATOM     60  F   UNL     1       0.745 -13.343  -9.690  1.00  0.00    -0.205 F 
ATOM     61  C   UNL     1       0.881 -16.584  -7.990  1.00  0.00     0.022 A 
BRANCH  59  62
ATOM     62  S   UNL     1       2.798 -15.654  -9.704  1.00  0.00     0.127 S 
ATOM     63  O   UNL     1       3.771 -15.539  -8.619  1.00  0.00    -0.237 OA
ATOM     64  O   UNL     1       2.691 -16.992 -10.287  1.00  0.00    -0.237 OA
ATOM     65  O   UNL     1       2.813 -14.567 -10.673  1.00  0.00    -0.744 OA
ENDBRANCH  59  62
ENDBRANCH  41  55
BRANCH  42  66
ATOM     66  C   UNL     1      -6.801  -6.428  -9.257  1.00  0.00     0.023 A 
ATOM     67  C   UNL     1      -8.176  -6.564  -9.532  1.00  0.00     0.012 A 
ATOM     68  C   UNL     1      -6.253  -5.137  -9.122  1.00  0.00     0.148 A 
ATOM     69  C   UNL     1      -8.982  -5.438  -9.706  1.00  0.00     0.002 A 
ATOM     70  C   UNL     1      -7.073  -4.021  -9.239  1.00  0.00     0.091 A 
ATOM     71  F   UNL     1      -4.941  -5.029  -8.866  1.00  0.00    -0.205 F 
ATOM     72  C   UNL     1      -8.433  -4.168  -9.550  1.00  0.00     0.022 A 
BRANCH  70  73
ATOM     73  S   UNL     1      -6.483  -2.354  -8.922  1.00  0.00     0.127 S 
ATOM     74  O   UNL     1      -6.536  -1.760 -10.255  1.00  0.00    -0.237 OA
ATOM     75  O   UNL     1      -7.488  -1.853  -7.983  1.00  0.00    -0.237 OA
ATOM     76  O   UNL     1      -5.153  -2.507  -8.350  1.00  0.00    -0.744 OA
ENDBRANCH  70  73
ENDBRANCH  42  66
BRANCH  54  77
ATOM     77  C   UNL     1      -4.883 -11.600 -13.549  1.00  0.00     0.023 A 
ATOM     78  C   UNL     1      -4.314 -10.840 -14.589  1.00  0.00     0.012 A 
ATOM     79  C   UNL     1      -5.677 -12.722 -13.864  1.00  0.00     0.148 A 
ATOM     80  C   UNL     1      -4.550 -11.178 -15.922  1.00  0.00     0.002 A 
ATOM     81  C   UNL     1      -5.863 -13.083 -15.192  1.00  0.00     0.091 A 
ATOM     82  F   UNL     1      -6.222 -13.420 -12.858  1.00  0.00    -0.205 F 
ATOM     83  C   UNL     1      -5.311 -12.305 -16.222  1.00  0.00     0.022 A 
BRANCH  81  84
ATOM     84  S   UNL     1      -6.741 -14.574 -15.672  1.00  0.00     0.127 S 
ATOM     85  O   UNL     1      -7.936 -14.024 -16.311  1.00  0.00    -0.237 OA
ATOM     86  O   UNL     1      -5.794 -15.206 -16.591  1.00  0.00    -0.237 OA
ATOM     87  O   UNL     1      -6.982 -15.317 -14.443  1.00  0.00    -0.744 OA
ENDBRANCH  81  84
ENDBRANCH  54  77
ENDBRANCH  28  29
ENDBRANCH  20  23
ENDBRANCH   1  19
TORSDOF 15
