REMARK SMILES CSCC[C@@H](NS(=O)(=O)c1ccc(F)c(C)c1)C(=O)NCCCNC(=O)c1ccc(-c2c3nc(c(-c4cccc(S(=O)(=O)[O-])c4F)c4ccc([nH]4)c(-c4cccc(S(=O)(=O)[O-])c4F)c4nc(c(-c5cccc(S(=O)(=O)[O-])c5F)c5ccc2[nH]5)C=C4)C=C3)cc1
REMARK SMILES IDX 22 1 21 2 20 3 18 4 19 5 5 7 4 8 3 9 2 10 1 11 6 12 7 14
REMARK SMILES IDX 8 15 9 16 10 17 11 18 17 19 12 20 15 21 13 22 16 23 14 24
REMARK SMILES IDX 23 25 24 26 25 27 26 29 27 30 28 31 89 32 29 33 88 34 30 35
REMARK SMILES IDX 31 36 32 37 82 38 33 39 87 40 81 41 83 42 34 43 86 44 80 45
REMARK SMILES IDX 79 46 35 48 67 49 47 50 66 51 48 52 51 53 65 54 84 55 49 56
REMARK SMILES IDX 50 57 64 59 85 60 52 61 36 62 37 63 45 64 38 65 40 66 46 67
REMARK SMILES IDX 39 68 41 69 42 70 43 71 44 72 68 73 69 74 77 75 70 76 72 77
REMARK SMILES IDX 78 78 71 79 73 80 74 81 75 82 76 83 53 84 54 85 62 86 55 87
REMARK SMILES IDX 57 88 63 89 56 90 58 91 59 92 60 93 61 94
REMARK H PARENT 20 6 6 13 24 28 83 47 51 58
REMARK Flexibility Score: inf
ROOT
ATOM      1  C   UNL     1       1.357  -1.749   6.112  1.00  0.00     0.042 C 
ENDROOT
BRANCH   1   2
ATOM      2  C   UNL     1       1.651  -2.391   4.766  1.00  0.00     0.117 C 
BRANCH   2   3
ATOM      3  N   UNL     1       0.412  -2.775   4.106  1.00  0.00    -0.355 N 
ATOM      4  C   UNL     1      -0.103  -2.338   2.919  1.00  0.00     0.238 C 
ATOM      5  O   UNL     1      -1.232  -2.703   2.588  1.00  0.00    -0.273 OA
ATOM      6  H   UNL     1      -0.131  -3.443   4.582  1.00  0.00     0.163 HD
BRANCH   4   7
ATOM      7  C   UNL     1       0.717  -1.404   2.042  1.00  0.00     0.159 C 
BRANCH   7   8
ATOM      8  C   UNL     1       0.552  -0.021   2.704  1.00  0.00     0.041 C 
BRANCH   8   9
ATOM      9  C   UNL     1       1.187   1.191   2.045  1.00  0.00     0.071 C 
BRANCH   9  10
ATOM     10  S   UNL     1       0.359   1.759   0.531  1.00  0.00    -0.165 SA
ATOM     11  C   UNL     1       1.048   0.590  -0.664  1.00  0.00     0.085 C 
ENDBRANCH   9  10
ENDBRANCH   8   9
ENDBRANCH   7   8
BRANCH   7  12
ATOM     12  N   UNL     1       2.123  -1.869   1.928  1.00  0.00    -0.199 NA
ATOM     13  H   UNL     1       2.354  -2.282   2.832  1.00  0.00     0.142 HD
BRANCH  12  14
ATOM     14  S   UNL     1       2.642  -2.975   0.770  1.00  0.00     0.241 S 
ATOM     15  O   UNL     1       1.850  -2.772  -0.422  1.00  0.00    -0.207 OA
ATOM     16  O   UNL     1       4.075  -2.759   0.749  1.00  0.00    -0.207 OA
BRANCH  14  17
ATOM     17  C   UNL     1       2.394  -4.656   1.327  1.00  0.00     0.082 A 
ATOM     18  C   UNL     1       1.203  -5.061   1.924  1.00  0.00     0.025 A 
ATOM     19  C   UNL     1       3.374  -5.629   1.050  1.00  0.00     0.028 A 
ATOM     20  C   UNL     1       1.019  -6.377   2.353  1.00  0.00     0.041 A 
ATOM     21  C   UNL     1       3.146  -6.981   1.376  1.00  0.00    -0.014 A 
ATOM     22  C   UNL     1       1.983  -7.327   2.066  1.00  0.00     0.126 A 
ATOM     23  C   UNL     1       4.071  -8.083   0.952  1.00  0.00     0.047 C 
ATOM     24  F   UNL     1       1.746  -8.607   2.383  1.00  0.00    -0.207 F 
ENDBRANCH  14  17
ENDBRANCH  12  14
ENDBRANCH   7  12
ENDBRANCH   4   7
ENDBRANCH   2   3
ENDBRANCH   1   2
BRANCH   1  25
ATOM     25  C   UNL     1       1.142  -2.837   7.126  1.00  0.00     0.118 C 
BRANCH  25  26
ATOM     26  N   UNL     1       2.416  -3.436   7.520  1.00  0.00    -0.352 N 
ATOM     27  C   UNL     1       2.662  -4.130   8.690  1.00  0.00     0.251 C 
ATOM     28  H   UNL     1       3.169  -3.335   6.894  1.00  0.00     0.163 HD
ATOM     29  O   UNL     1       3.765  -4.201   9.184  1.00  0.00    -0.269 OA
BRANCH  27  30
ATOM     30  C   UNL     1       1.489  -4.768   9.301  1.00  0.00     0.039 A 
ATOM     31  C   UNL     1       1.301  -4.808  10.685  1.00  0.00     0.014 A 
ATOM     32  C   UNL     1       0.559  -5.303   8.415  1.00  0.00     0.014 A 
ATOM     33  C   UNL     1       0.144  -5.400  11.173  1.00  0.00     0.010 A 
ATOM     34  C   UNL     1      -0.668  -5.638   8.873  1.00  0.00     0.010 A 
ATOM     35  C   UNL     1      -0.815  -5.810  10.247  1.00  0.00    -0.014 A 
BRANCH  35  36
ATOM     36  C   UNL     1      -2.004  -6.570  10.551  1.00  0.00     0.031 A 
ATOM     37  C   UNL     1      -3.106  -5.892  11.229  1.00  0.00     0.074 A 
ATOM     38  C   UNL     1      -2.027  -7.784   9.951  1.00  0.00     0.049 A 
ATOM     39  N   UNL     1      -3.969  -6.482  11.967  1.00  0.00    -0.248 NA
ATOM     40  C   UNL     1      -3.297  -4.439  11.192  1.00  0.00     0.031 C 
ATOM     41  C   UNL     1      -3.114  -8.693   9.652  1.00  0.00     0.029 A 
ATOM     42  N   UNL     1      -0.895  -8.488   9.530  1.00  0.00    -0.354 N 
ATOM     43  C   UNL     1      -5.026  -5.609  12.100  1.00  0.00     0.074 A 
ATOM     44  C   UNL     1      -4.484  -4.307  11.800  1.00  0.00     0.031 C 
ATOM     45  C   UNL     1      -2.599  -9.914   9.393  1.00  0.00     0.029 A 
ATOM     46  C   UNL     1      -1.161  -9.852   9.630  1.00  0.00     0.049 A 
ATOM     47  H   UNL     1      -0.053  -8.088   9.215  1.00  0.00     0.167 HD
ATOM     48  C   UNL     1      -6.282  -6.129  12.207  1.00  0.00     0.034 A 
ATOM     49  C   UNL     1      -0.465 -10.553  10.578  1.00  0.00     0.034 A 
ATOM     50  C   UNL     1      -6.207  -7.581  12.095  1.00  0.00     0.049 A 
ATOM     51  C   UNL     1      -1.395 -10.899  11.716  1.00  0.00     0.074 A 
ATOM     52  C   UNL     1      -6.405  -8.436  11.023  1.00  0.00     0.029 A 
ATOM     53  N   UNL     1      -5.501  -8.296  13.048  1.00  0.00    -0.354 N 
ATOM     54  N   UNL     1      -2.420 -10.167  12.070  1.00  0.00    -0.248 NA
ATOM     55  C   UNL     1      -1.308 -12.151  12.458  1.00  0.00     0.031 C 
ATOM     56  C   UNL     1      -5.740  -9.657  11.316  1.00  0.00     0.029 A 
ATOM     57  C   UNL     1      -5.132  -9.529  12.553  1.00  0.00     0.049 A 
ATOM     58  H   UNL     1      -5.291  -7.968  13.952  1.00  0.00     0.167 HD
ATOM     59  C   UNL     1      -3.182 -10.872  12.964  1.00  0.00     0.074 A 
ATOM     60  C   UNL     1      -2.423 -12.086  13.206  1.00  0.00     0.031 C 
ATOM     61  C   UNL     1      -4.403 -10.451  13.406  1.00  0.00     0.034 A 
BRANCH  48  62
ATOM     62  C   UNL     1      -7.579  -5.362  12.106  1.00  0.00     0.023 A 
ATOM     63  C   UNL     1      -7.681  -3.979  12.367  1.00  0.00     0.012 A 
ATOM     64  C   UNL     1      -8.784  -6.021  11.767  1.00  0.00     0.148 A 
ATOM     65  C   UNL     1      -8.892  -3.281  12.235  1.00  0.00     0.002 A 
ATOM     66  C   UNL     1      -9.989  -5.330  11.655  1.00  0.00     0.091 A 
ATOM     67  F   UNL     1      -8.795  -7.342  11.549  1.00  0.00    -0.205 F 
ATOM     68  C   UNL     1     -10.051  -3.956  11.878  1.00  0.00     0.022 A 
BRANCH  66  69
ATOM     69  S   UNL     1     -11.473  -6.249  11.234  1.00  0.00     0.127 S 
ATOM     70  O   UNL     1     -11.181  -6.738   9.891  1.00  0.00    -0.237 OA
ATOM     71  O   UNL     1     -11.557  -7.247  12.295  1.00  0.00    -0.237 OA
ATOM     72  O   UNL     1     -12.523  -5.230  11.287  1.00  0.00    -0.744 OA
ENDBRANCH  66  69
ENDBRANCH  48  62
BRANCH  49  73
ATOM     73  C   UNL     1       0.960 -10.066  10.679  1.00  0.00     0.023 A 
ATOM     74  C   UNL     1       1.326  -9.073  11.608  1.00  0.00     0.012 A 
ATOM     75  C   UNL     1       1.751 -10.208   9.511  1.00  0.00     0.148 A 
ATOM     76  C   UNL     1       2.354  -8.163  11.304  1.00  0.00     0.002 A 
ATOM     77  C   UNL     1       2.709  -9.249   9.180  1.00  0.00     0.091 A 
ATOM     78  F   UNL     1       1.453 -11.200   8.655  1.00  0.00    -0.205 F 
ATOM     79  C   UNL     1       3.006  -8.213  10.068  1.00  0.00     0.022 A 
BRANCH  77  80
ATOM     80  S   UNL     1       3.336  -9.193   7.492  1.00  0.00     0.127 S 
ATOM     81  O   UNL     1       4.291 -10.296   7.466  1.00  0.00    -0.237 OA
ATOM     82  O   UNL     1       2.130  -9.353   6.682  1.00  0.00    -0.237 OA
ATOM     83  O   UNL     1       3.933  -7.862   7.383  1.00  0.00    -0.744 OA
ENDBRANCH  77  80
ENDBRANCH  49  73
BRANCH  61  84
ATOM     84  C   UNL     1      -5.106 -10.933  14.649  1.00  0.00     0.023 A 
ATOM     85  C   UNL     1      -6.468 -10.573  14.843  1.00  0.00     0.012 A 
ATOM     86  C   UNL     1      -4.474 -11.584  15.710  1.00  0.00     0.148 A 
ATOM     87  C   UNL     1      -7.146 -10.812  16.036  1.00  0.00     0.002 A 
ATOM     88  C   UNL     1      -5.196 -11.953  16.840  1.00  0.00     0.091 A 
ATOM     89  F   UNL     1      -3.154 -11.806  15.685  1.00  0.00    -0.205 F 
ATOM     90  C   UNL     1      -6.515 -11.534  17.034  1.00  0.00     0.022 A 
BRANCH  88  91
ATOM     91  S   UNL     1      -4.440 -13.120  17.965  1.00  0.00     0.127 S 
ATOM     92  O   UNL     1      -4.191 -14.269  17.098  1.00  0.00    -0.237 OA
ATOM     93  O   UNL     1      -3.263 -12.410  18.454  1.00  0.00    -0.237 OA
ATOM     94  O   UNL     1      -5.477 -13.339  18.973  1.00  0.00    -0.744 OA
ENDBRANCH  88  91
ENDBRANCH  61  84
ENDBRANCH  35  36
ENDBRANCH  27  30
ENDBRANCH  25  26
ENDBRANCH   1  25
TORSDOF 19
