REMARK SMILES O=C(CS[C@H](C(=O)Nc1ccc(C(F)(F)F)cc1)c1ccccc1)NCCCNC(=O)c1ccc(-c2c3nc(c(-c4cccc(S(=O)(=O)[O-])c4F)c4ccc([nH]4)c(-c4cccc(S(=O)(=O)[O-])c4F)c4nc(c(-c5cccc(S(=O)(=O)[O-])c5F)c5ccc2[nH]5)C=C4)C=C3)cc1
REMARK SMILES IDX 26 1 25 2 1 3 2 4 3 6 4 7 5 8 19 9 20 10 24 11 21 12 23 13
REMARK SMILES IDX 22 14 6 15 7 16 8 17 9 19 10 20 18 21 11 22 17 23 12 24
REMARK SMILES IDX 13 25 14 26 15 27 16 28 27 29 28 30 29 31 30 32 31 34 32 35
REMARK SMILES IDX 33 36 94 37 34 38 93 39 35 40 36 41 37 42 87 43 38 44 92 45
REMARK SMILES IDX 86 46 88 47 39 48 91 49 85 50 84 51 40 53 72 54 52 55 71 56
REMARK SMILES IDX 53 57 56 58 70 59 89 60 54 61 55 62 69 64 90 65 57 66 41 67
REMARK SMILES IDX 42 68 50 69 43 70 45 71 51 72 44 73 46 74 47 75 48 76 49 77
REMARK SMILES IDX 73 78 74 79 82 80 75 81 77 82 83 83 76 84 78 85 79 86 80 87
REMARK SMILES IDX 81 88 58 89 59 90 67 91 60 92 62 93 68 94 61 95 63 96 64 97
REMARK SMILES IDX 65 98 66 99
REMARK H PARENT 25 5 8 18 29 33 88 52 56 63
REMARK Flexibility Score: inf
ROOT
ATOM      1  C   UNL     1      -0.587   0.752  -0.102  1.00  0.00     0.117 C 
ENDROOT
BRANCH   1   2
ATOM      2  N   UNL     1       0.318  -0.328  -0.465  1.00  0.00    -0.355 N 
ATOM      3  O   UNL     1      -1.205  -1.282  -1.888  1.00  0.00    -0.274 OA
ATOM      4  C   UNL     1      -0.073  -1.268  -1.407  1.00  0.00     0.230 C 
ATOM      5  H   UNL     1       1.205  -0.392  -0.042  1.00  0.00     0.163 HD
BRANCH   4   6
ATOM      6  C   UNL     1       1.007  -2.232  -1.858  1.00  0.00     0.170 C 
BRANCH   6   7
ATOM      7  S   UNL     1       1.614  -1.887  -3.563  1.00  0.00    -0.134 SA
BRANCH   7   8
ATOM      8  C   UNL     1       2.799  -0.433  -3.394  1.00  0.00     0.166 C 
BRANCH   8   9
ATOM      9  C   UNL     1       2.145   0.893  -3.789  1.00  0.00    -0.026 A 
ATOM     10  C   UNL     1       2.825   1.810  -4.614  1.00  0.00     0.005 A 
ATOM     11  C   UNL     1       0.860   1.273  -3.380  1.00  0.00     0.005 A 
ATOM     12  C   UNL     1       2.298   3.085  -4.880  1.00  0.00     0.000 A 
ATOM     13  C   UNL     1       0.332   2.544  -3.626  1.00  0.00     0.000 A 
ATOM     14  C   UNL     1       1.068   3.466  -4.351  1.00  0.00     0.000 A 
ENDBRANCH   8   9
BRANCH   8  15
ATOM     15  C   UNL     1       3.763  -0.594  -2.169  1.00  0.00     0.242 C 
ATOM     16  O   UNL     1       3.829  -1.664  -1.543  1.00  0.00    -0.273 OA
ATOM     17  N   UNL     1       4.795   0.250  -1.860  1.00  0.00    -0.325 N 
ATOM     18  H   UNL     1       5.580  -0.211  -1.485  1.00  0.00     0.169 HD
BRANCH  17  19
ATOM     19  C   UNL     1       4.961   1.629  -1.968  1.00  0.00     0.041 A 
ATOM     20  C   UNL     1       6.249   2.157  -2.084  1.00  0.00     0.027 A 
ATOM     21  C   UNL     1       3.891   2.498  -1.889  1.00  0.00     0.027 A 
ATOM     22  C   UNL     1       6.430   3.527  -2.323  1.00  0.00     0.015 A 
ATOM     23  C   UNL     1       4.062   3.851  -2.165  1.00  0.00     0.015 A 
ATOM     24  C   UNL     1       5.323   4.378  -2.434  1.00  0.00     0.056 A 
BRANCH  24  25
ATOM     25  C   UNL     1       5.455   5.823  -2.840  1.00  0.00     0.416 C 
ATOM     26  F   UNL     1       5.802   6.639  -1.810  1.00  0.00    -0.166 F 
ATOM     27  F   UNL     1       6.405   6.003  -3.802  1.00  0.00    -0.166 F 
ATOM     28  F   UNL     1       4.310   6.340  -3.370  1.00  0.00    -0.166 F 
ENDBRANCH  24  25
ENDBRANCH  17  19
ENDBRANCH   8  15
ENDBRANCH   7   8
ENDBRANCH   6   7
ENDBRANCH   4   6
ENDBRANCH   1   2
BRANCH   1  29
ATOM     29  C   UNL     1      -0.149   1.628   1.064  1.00  0.00     0.042 C 
BRANCH  29  30
ATOM     30  C   UNL     1       1.216   2.295   0.954  1.00  0.00     0.118 C 
BRANCH  30  31
ATOM     31  N   UNL     1       1.270   3.439   0.058  1.00  0.00    -0.352 N 
ATOM     32  C   UNL     1       1.933   4.642   0.196  1.00  0.00     0.251 C 
ATOM     33  H   UNL     1       0.754   3.340  -0.775  1.00  0.00     0.163 HD
ATOM     34  O   UNL     1       1.753   5.511  -0.657  1.00  0.00    -0.269 OA
BRANCH  32  35
ATOM     35  C   UNL     1       2.818   4.937   1.357  1.00  0.00     0.039 A 
ATOM     36  C   UNL     1       2.885   6.264   1.796  1.00  0.00     0.014 A 
ATOM     37  C   UNL     1       3.531   3.958   2.052  1.00  0.00     0.014 A 
ATOM     38  C   UNL     1       3.502   6.572   3.010  1.00  0.00     0.010 A 
ATOM     39  C   UNL     1       4.057   4.244   3.313  1.00  0.00     0.010 A 
ATOM     40  C   UNL     1       3.999   5.545   3.827  1.00  0.00    -0.014 A 
BRANCH  40  41
ATOM     41  C   UNL     1       4.318   5.811   5.255  1.00  0.00     0.031 A 
ATOM     42  C   UNL     1       5.697   5.593   5.805  1.00  0.00     0.074 A 
ATOM     43  C   UNL     1       3.311   6.172   6.079  1.00  0.00     0.049 A 
ATOM     44  N   UNL     1       6.131   5.775   7.026  1.00  0.00    -0.248 NA
ATOM     45  C   UNL     1       6.716   5.082   4.876  1.00  0.00     0.031 C 
ATOM     46  C   UNL     1       1.906   6.318   5.681  1.00  0.00     0.029 A 
ATOM     47  N   UNL     1       3.301   6.468   7.419  1.00  0.00    -0.354 N 
ATOM     48  C   UNL     1       7.463   5.381   7.020  1.00  0.00     0.074 A 
ATOM     49  C   UNL     1       7.757   4.916   5.681  1.00  0.00     0.031 C 
ATOM     50  C   UNL     1       1.180   6.698   6.743  1.00  0.00     0.029 A 
ATOM     51  C   UNL     1       2.053   6.785   7.907  1.00  0.00     0.049 A 
ATOM     52  H   UNL     1       4.111   6.454   7.979  1.00  0.00     0.167 HD
ATOM     53  C   UNL     1       8.364   5.426   8.031  1.00  0.00     0.034 A 
ATOM     54  C   UNL     1       1.651   7.106   9.152  1.00  0.00     0.034 A 
ATOM     55  C   UNL     1       8.065   5.905   9.356  1.00  0.00     0.049 A 
ATOM     56  C   UNL     1       2.681   7.186  10.243  1.00  0.00     0.074 A 
ATOM     57  C   UNL     1       8.924   6.061  10.429  1.00  0.00     0.029 A 
ATOM     58  N   UNL     1       6.806   6.292   9.794  1.00  0.00    -0.354 N 
ATOM     59  N   UNL     1       3.971   6.963  10.178  1.00  0.00    -0.248 NA
ATOM     60  C   UNL     1       2.208   7.600  11.572  1.00  0.00     0.031 C 
ATOM     61  C   UNL     1       8.179   6.509  11.525  1.00  0.00     0.029 A 
ATOM     62  C   UNL     1       6.863   6.674  11.124  1.00  0.00     0.049 A 
ATOM     63  H   UNL     1       5.992   6.293   9.241  1.00  0.00     0.167 HD
ATOM     64  C   UNL     1       4.471   7.245  11.442  1.00  0.00     0.074 A 
ATOM     65  C   UNL     1       3.346   7.678  12.247  1.00  0.00     0.031 C 
ATOM     66  C   UNL     1       5.743   7.144  11.900  1.00  0.00     0.034 A 
BRANCH  53  67
ATOM     67  C   UNL     1       9.772   4.978   7.733  1.00  0.00     0.023 A 
ATOM     68  C   UNL     1      10.591   5.761   6.893  1.00  0.00     0.012 A 
ATOM     69  C   UNL     1      10.303   3.812   8.320  1.00  0.00     0.148 A 
ATOM     70  C   UNL     1      11.899   5.372   6.609  1.00  0.00     0.002 A 
ATOM     71  C   UNL     1      11.623   3.455   8.070  1.00  0.00     0.091 A 
ATOM     72  F   UNL     1       9.506   3.070   9.101  1.00  0.00    -0.205 F 
ATOM     73  C   UNL     1      12.418   4.226   7.205  1.00  0.00     0.022 A 
BRANCH  71  74
ATOM     74  S   UNL     1      12.410   2.040   8.847  1.00  0.00     0.127 S 
ATOM     75  O   UNL     1      12.584   1.139   7.706  1.00  0.00    -0.237 OA
ATOM     76  O   UNL     1      13.652   2.622   9.358  1.00  0.00    -0.237 OA
ATOM     77  O   UNL     1      11.487   1.577   9.870  1.00  0.00    -0.744 OA
ENDBRANCH  71  74
ENDBRANCH  53  67
BRANCH  54  78
ATOM     78  C   UNL     1       0.221   7.435   9.417  1.00  0.00     0.023 A 
ATOM     79  C   UNL     1      -0.141   8.758   9.739  1.00  0.00     0.012 A 
ATOM     80  C   UNL     1      -0.783   6.452   9.331  1.00  0.00     0.148 A 
ATOM     81  C   UNL     1      -1.470   9.088  10.008  1.00  0.00     0.002 A 
ATOM     82  C   UNL     1      -2.113   6.798   9.543  1.00  0.00     0.091 A 
ATOM     83  F   UNL     1      -0.419   5.197   9.031  1.00  0.00    -0.205 F 
ATOM     84  C   UNL     1      -2.457   8.111   9.901  1.00  0.00     0.022 A 
BRANCH  82  85
ATOM     85  S   UNL     1      -3.461   5.637   9.299  1.00  0.00     0.127 S 
ATOM     86  O   UNL     1      -3.926   5.426  10.668  1.00  0.00    -0.237 OA
ATOM     87  O   UNL     1      -4.371   6.407   8.450  1.00  0.00    -0.237 OA
ATOM     88  O   UNL     1      -2.869   4.478   8.646  1.00  0.00    -0.744 OA
ENDBRANCH  82  85
ENDBRANCH  54  78
BRANCH  66  89
ATOM     89  C   UNL     1       6.000   7.552  13.328  1.00  0.00     0.023 A 
ATOM     90  C   UNL     1       5.522   6.757  14.388  1.00  0.00     0.012 A 
ATOM     91  C   UNL     1       6.763   8.701  13.614  1.00  0.00     0.148 A 
ATOM     92  C   UNL     1       5.764   7.122  15.712  1.00  0.00     0.002 A 
ATOM     93  C   UNL     1       7.048   9.028  14.934  1.00  0.00     0.091 A 
ATOM     94  F   UNL     1       7.191   9.456  12.592  1.00  0.00    -0.205 F 
ATOM     95  C   UNL     1       6.536   8.249  15.985  1.00  0.00     0.022 A 
BRANCH  93  96
ATOM     96  S   UNL     1       8.118  10.401  15.374  1.00  0.00     0.127 S 
ATOM     97  O   UNL     1       7.159  11.368  15.904  1.00  0.00    -0.237 OA
ATOM     98  O   UNL     1       8.997   9.800  16.377  1.00  0.00    -0.237 OA
ATOM     99  O   UNL     1       8.790  10.796  14.143  1.00  0.00    -0.744 OA
ENDBRANCH  93  96
ENDBRANCH  66  89
ENDBRANCH  40  41
ENDBRANCH  32  35
ENDBRANCH  30  31
ENDBRANCH  29  30
ENDBRANCH   1  29
TORSDOF 19
