REMARK SMILES CCCOc1ccccc1C(=O)NCCCNC(=O)c1ccc(-c2c3nc(c(-c4cccc(S(=O)(=O)[O-])c4F)c4ccc([nH]4)c(-c4cccc(S(=O)(=O)[O-])c4F)c4nc(c(-c5cccc(S(=O)(=O)[O-])c5F)c5ccc2[nH]5)C=C4)C=C3)cc1
REMARK SMILES IDX 15 1 14 2 13 3 11 4 12 5 10 7 5 8 6 9 7 10 9 11 8 12 4 13
REMARK SMILES IDX 3 14 2 15 1 16 16 17 17 18 18 19 19 21 20 22 21 23 82 24
REMARK SMILES IDX 22 25 81 26 23 27 24 28 25 29 75 30 26 31 80 32 74 33 76 34
REMARK SMILES IDX 27 35 79 36 73 37 72 38 28 40 60 41 40 42 59 43 41 44 44 45
REMARK SMILES IDX 58 46 77 47 42 48 43 49 57 51 78 52 45 53 29 54 30 55 38 56
REMARK SMILES IDX 31 57 33 58 39 59 32 60 34 61 35 62 36 63 37 64 61 65 62 66
REMARK SMILES IDX 70 67 63 68 65 69 71 70 64 71 66 72 67 73 68 74 69 75 46 76
REMARK SMILES IDX 47 77 55 78 48 79 50 80 56 81 49 82 51 83 52 84 53 85 54 86
REMARK H PARENT 13 6 17 20 76 39 44 50
REMARK Flexibility Score: inf
ROOT
ATOM      1  C   UNL     1      -2.405  -0.034   3.346  1.00  0.00     0.042 C 
ENDROOT
BRANCH   1   2
ATOM      2  C   UNL     1      -1.235   0.581   2.600  1.00  0.00     0.118 C 
BRANCH   2   3
ATOM      3  N   UNL     1      -1.259   0.303   1.173  1.00  0.00    -0.352 N 
ATOM      4  C   UNL     1      -0.531   0.849   0.151  1.00  0.00     0.255 C 
ATOM      5  O   UNL     1      -0.703   0.409  -0.987  1.00  0.00    -0.269 OA
ATOM      6  H   UNL     1      -1.903  -0.390   0.898  1.00  0.00     0.163 HD
BRANCH   4   7
ATOM      7  C   UNL     1       0.400   1.988   0.340  1.00  0.00     0.081 A 
ATOM      8  C   UNL     1       1.355   2.103   1.356  1.00  0.00     0.132 A 
ATOM      9  C   UNL     1       2.133   3.262   1.458  1.00  0.00     0.047 A 
ATOM     10  C   UNL     1       2.033   4.265   0.494  1.00  0.00     0.004 A 
ATOM     11  C   UNL     1       0.343   2.984  -0.650  1.00  0.00     0.018 A 
ATOM     12  C   UNL     1       1.156   4.114  -0.576  1.00  0.00     0.001 A 
BRANCH   8  13
ATOM     13  O   UNL     1       1.507   1.160   2.329  1.00  0.00    -0.493 OA
BRANCH  13  14
ATOM     14  C   UNL     1       2.608   0.268   2.125  1.00  0.00     0.229 C 
BRANCH  14  15
ATOM     15  C   UNL     1       2.193  -0.978   1.339  1.00  0.00     0.038 C 
ATOM     16  C   UNL     1       2.583  -0.891  -0.130  1.00  0.00     0.007 C 
ENDBRANCH  14  15
ENDBRANCH  13  14
ENDBRANCH   8  13
ENDBRANCH   4   7
ENDBRANCH   2   3
ENDBRANCH   1   2
BRANCH   1  17
ATOM     17  C   UNL     1      -2.436  -1.557   3.252  1.00  0.00     0.118 C 
BRANCH  17  18
ATOM     18  N   UNL     1      -1.385  -2.232   4.012  1.00  0.00    -0.352 N 
ATOM     19  C   UNL     1      -1.449  -2.987   5.167  1.00  0.00     0.251 C 
ATOM     20  H   UNL     1      -0.480  -2.130   3.639  1.00  0.00     0.163 HD
ATOM     21  O   UNL     1      -0.425  -3.405   5.685  1.00  0.00    -0.269 OA
BRANCH  19  22
ATOM     22  C   UNL     1      -2.763  -3.242   5.802  1.00  0.00     0.039 A 
ATOM     23  C   UNL     1      -2.906  -3.039   7.176  1.00  0.00     0.014 A 
ATOM     24  C   UNL     1      -3.865  -3.604   5.033  1.00  0.00     0.014 A 
ATOM     25  C   UNL     1      -4.183  -3.068   7.748  1.00  0.00     0.010 A 
ATOM     26  C   UNL     1      -5.140  -3.492   5.573  1.00  0.00     0.010 A 
ATOM     27  C   UNL     1      -5.319  -3.217   6.937  1.00  0.00    -0.014 A 
BRANCH  27  28
ATOM     28  C   UNL     1      -6.703  -3.061   7.468  1.00  0.00     0.031 A 
ATOM     29  C   UNL     1      -7.723  -4.151   7.253  1.00  0.00     0.074 A 
ATOM     30  C   UNL     1      -7.085  -1.884   8.011  1.00  0.00     0.049 A 
ATOM     31  N   UNL     1      -9.006  -4.142   7.505  1.00  0.00    -0.248 NA
ATOM     32  C   UNL     1      -7.252  -5.397   6.621  1.00  0.00     0.031 C 
ATOM     33  C   UNL     1      -6.232  -0.703   8.174  1.00  0.00     0.029 A 
ATOM     34  N   UNL     1      -8.304  -1.474   8.496  1.00  0.00    -0.354 N 
ATOM     35  C   UNL     1      -9.502  -5.337   6.998  1.00  0.00     0.074 A 
ATOM     36  C   UNL     1      -8.389  -6.036   6.395  1.00  0.00     0.031 C 
ATOM     37  C   UNL     1      -6.947   0.288   8.731  1.00  0.00     0.029 A 
ATOM     38  C   UNL     1      -8.317  -0.168   8.934  1.00  0.00     0.049 A 
ATOM     39  H   UNL     1      -9.094  -2.060   8.528  1.00  0.00     0.167 HD
ATOM     40  C   UNL     1     -10.762  -5.829   7.058  1.00  0.00     0.034 A 
ATOM     41  C   UNL     1      -9.319   0.579   9.437  1.00  0.00     0.034 A 
ATOM     42  C   UNL     1     -11.840  -5.186   7.756  1.00  0.00     0.049 A 
ATOM     43  C   UNL     1     -10.681  -0.041   9.602  1.00  0.00     0.074 A 
ATOM     44  C   UNL     1     -13.109  -5.673   8.011  1.00  0.00     0.029 A 
ATOM     45  N   UNL     1     -11.773  -3.922   8.319  1.00  0.00    -0.354 N 
ATOM     46  N   UNL     1     -11.079  -1.251   9.291  1.00  0.00    -0.248 NA
ATOM     47  C   UNL     1     -11.723   0.791  10.222  1.00  0.00     0.031 C 
ATOM     48  C   UNL     1     -13.816  -4.698   8.721  1.00  0.00     0.029 A 
ATOM     49  C   UNL     1     -12.980  -3.610   8.918  1.00  0.00     0.049 A 
ATOM     50  H   UNL     1     -10.984  -3.334   8.296  1.00  0.00     0.167 HD
ATOM     51  C   UNL     1     -12.401  -1.337   9.711  1.00  0.00     0.074 A 
ATOM     52  C   UNL     1     -12.730  -0.065  10.320  1.00  0.00     0.031 C 
ATOM     53  C   UNL     1     -13.271  -2.369   9.586  1.00  0.00     0.034 A 
BRANCH  40  54
ATOM     54  C   UNL     1     -11.031  -7.166   6.418  1.00  0.00     0.023 A 
ATOM     55  C   UNL     1     -10.527  -8.338   7.017  1.00  0.00     0.012 A 
ATOM     56  C   UNL     1     -11.842  -7.269   5.271  1.00  0.00     0.148 A 
ATOM     57  C   UNL     1     -10.797  -9.590   6.466  1.00  0.00     0.002 A 
ATOM     58  C   UNL     1     -12.145  -8.524   4.754  1.00  0.00     0.091 A 
ATOM     59  F   UNL     1     -12.296  -6.142   4.705  1.00  0.00    -0.205 F 
ATOM     60  C   UNL     1     -11.614  -9.683   5.343  1.00  0.00     0.022 A 
BRANCH  58  61
ATOM     61  S   UNL     1     -13.255  -8.758   3.361  1.00  0.00     0.127 S 
ATOM     62  O   UNL     1     -12.328  -9.188   2.315  1.00  0.00    -0.237 OA
ATOM     63  O   UNL     1     -14.149  -9.806   3.853  1.00  0.00    -0.237 OA
ATOM     64  O   UNL     1     -13.896  -7.469   3.137  1.00  0.00    -0.744 OA
ENDBRANCH  58  61
ENDBRANCH  40  54
BRANCH  41  65
ATOM     65  C   UNL     1      -9.059   1.973   9.903  1.00  0.00     0.023 A 
ATOM     66  C   UNL     1      -9.086   2.249  11.285  1.00  0.00     0.012 A 
ATOM     67  C   UNL     1      -8.779   3.018   9.003  1.00  0.00     0.148 A 
ATOM     68  C   UNL     1      -8.880   3.545  11.758  1.00  0.00     0.002 A 
ATOM     69  C   UNL     1      -8.521   4.297   9.485  1.00  0.00     0.091 A 
ATOM     70  F   UNL     1      -8.771   2.744   7.690  1.00  0.00    -0.205 F 
ATOM     71  C   UNL     1      -8.588   4.567  10.860  1.00  0.00     0.022 A 
BRANCH  69  72
ATOM     72  S   UNL     1      -8.008   5.638   8.404  1.00  0.00     0.127 S 
ATOM     73  O   UNL     1      -9.245   6.402   8.265  1.00  0.00    -0.237 OA
ATOM     74  O   UNL     1      -6.965   6.292   9.196  1.00  0.00    -0.237 OA
ATOM     75  O   UNL     1      -7.516   4.989   7.195  1.00  0.00    -0.744 OA
ENDBRANCH  69  72
ENDBRANCH  41  65
BRANCH  53  76
ATOM     76  C   UNL     1     -14.653  -2.194  10.152  1.00  0.00     0.023 A 
ATOM     77  C   UNL     1     -15.581  -1.369   9.487  1.00  0.00     0.012 A 
ATOM     78  C   UNL     1     -15.059  -2.917  11.291  1.00  0.00     0.148 A 
ATOM     79  C   UNL     1     -16.886  -1.246   9.963  1.00  0.00     0.002 A 
ATOM     80  C   UNL     1     -16.374  -2.826  11.732  1.00  0.00     0.091 A 
ATOM     81  F   UNL     1     -14.154  -3.681  11.921  1.00  0.00    -0.205 F 
ATOM     82  C   UNL     1     -17.285  -1.984  11.075  1.00  0.00     0.022 A 
BRANCH  80  83
ATOM     83  S   UNL     1     -16.997  -3.817  13.094  1.00  0.00     0.127 S 
ATOM     84  O   UNL     1     -17.071  -2.831  14.171  1.00  0.00    -0.237 OA
ATOM     85  O   UNL     1     -18.295  -4.265  12.587  1.00  0.00    -0.237 OA
ATOM     86  O   UNL     1     -16.026  -4.886  13.287  1.00  0.00    -0.744 OA
ENDBRANCH  80  83
ENDBRANCH  53  76
ENDBRANCH  27  28
ENDBRANCH  19  22
ENDBRANCH  17  18
ENDBRANCH   1  17
TORSDOF 16
