REMARK SMILES COc1c(Cl)cc(C(=O)NCCCNC(=O)c2ccc(-c3c4nc(c(-c5cccc(S(=O)(=O)[O-])c5F)c5ccc([nH]5)c(-c5cccc(S(=O)(=O)[O-])c5F)c5nc(c(-c6cccc(S(=O)(=O)[O-])c6F)c6ccc3[nH]6)C=C5)C=C4)cc2)cc1NC(=S)NC(=O)c1cccc(C)c1OC
REMARK SMILES IDX 11 1 10 2 8 3 9 4 7 6 3 7 4 8 81 9 5 10 6 11 80 12 2 13 1 14
REMARK SMILES IDX 82 15 83 17 84 18 85 19 86 20 87 22 88 23 89 24 94 25 90 26
REMARK SMILES IDX 92 27 91 28 93 29 95 30 96 31 12 32 13 33 14 34 15 35 16 37
REMARK SMILES IDX 17 38 18 39 79 40 19 41 78 42 20 43 21 44 22 45 72 46 23 47
REMARK SMILES IDX 77 48 71 49 73 50 24 51 76 52 70 53 69 54 25 56 57 57 37 58
REMARK SMILES IDX 56 59 38 60 41 61 55 62 74 63 39 64 40 65 54 67 75 68 42 69
REMARK SMILES IDX 26 70 27 71 35 72 28 73 30 74 36 75 29 76 31 77 32 78 33 79
REMARK SMILES IDX 34 80 58 81 59 82 67 83 60 84 62 85 68 86 61 87 63 88 64 89
REMARK SMILES IDX 65 90 66 91 43 92 44 93 52 94 45 95 47 96 53 97 46 98 48 99
REMARK SMILES IDX 49 100 50 101 51 102
REMARK H PARENT 10 5 82 16 85 21 14 36 73 55 41 66
REMARK Flexibility Score: inf
ROOT
ATOM      1  C   UNL     1      -0.468   7.673   1.118  1.00  0.00     0.118 C 
ENDROOT
BRANCH   1   2
ATOM      2  N   UNL     1       0.843   6.990   1.024  1.00  0.00    -0.352 N 
ATOM      3  C   UNL     1       1.621   5.733   0.775  1.00  0.00     0.251 C 
ATOM      4  O   UNL     1       2.693   6.458   0.804  1.00  0.00    -0.269 OA
ATOM      5  H   UNL     1       1.516   7.683   1.214  1.00  0.00     0.163 HD
BRANCH   3   6
ATOM      6  C   UNL     1       1.232   3.642   0.534  1.00  0.00     0.043 A 
ATOM      7  C   UNL     1       0.340   0.643   0.512  1.00  0.00     0.160 A 
ATOM      8  C   UNL     1       1.649   1.004   0.793  1.00  0.00     0.086 A 
ATOM      9  C   UNL     1      -0.497   1.700   0.259  1.00  0.00     0.085 A 
ATOM     10  Cl  UNL     1       2.902  -0.124   1.200  1.00  0.00    -0.080 Cl
ATOM     11  C   UNL     1       2.034   2.397   0.853  1.00  0.00     0.038 A 
ATOM     12  C   UNL     1       0.042   2.949  -0.004  1.00  0.00     0.044 A 
BRANCH   7  13
ATOM     13  O   UNL     1      -0.260  -0.578   0.461  1.00  0.00    -0.493 OA
ATOM     14  C   UNL     1       0.533  -1.708   0.134  1.00  0.00     0.278 C 
ENDBRANCH   7  13
BRANCH   9  15
ATOM     15  N   UNL     1      -1.897   1.615   0.169  1.00  0.00    -0.329 N 
ATOM     16  H   UNL     1      -2.255   0.709   0.024  1.00  0.00     0.169 HD
BRANCH  15  17
ATOM     17  C   UNL     1      -2.832   2.607   0.252  1.00  0.00     0.177 C 
ATOM     18  S   UNL     1      -4.386   2.274  -0.280  1.00  0.00    -0.040 S 
BRANCH  17  19
ATOM     19  N   UNL     1      -2.621   3.858   0.824  1.00  0.00    -0.299 N 
ATOM     20  C   UNL     1      -1.672   4.524   1.621  1.00  0.00     0.261 C 
ATOM     21  H   UNL     1      -3.365   4.464   0.603  1.00  0.00     0.172 HD
ATOM     22  O   UNL     1      -1.948   4.750   2.799  1.00  0.00    -0.269 OA
BRANCH  20  23
ATOM     23  C   UNL     1      -0.317   4.970   1.126  1.00  0.00     0.082 A 
ATOM     24  C   UNL     1       0.948   4.655   2.405  1.00  0.00     0.018 A 
ATOM     25  C   UNL     1       0.225   5.210  -0.627  1.00  0.00     0.134 A 
ATOM     26  C   UNL     1       2.692   4.460   1.965  1.00  0.00     0.001 A 
ATOM     27  C   UNL     1       1.958   4.868  -1.075  1.00  0.00    -0.008 A 
ATOM     28  C   UNL     1       3.195   4.490   0.199  1.00  0.00     0.007 A 
ATOM     29  C   UNL     1       2.262   4.383  -2.468  1.00  0.00     0.048 C 
BRANCH  25  30
ATOM     30  O   UNL     1      -0.573   5.283  -1.749  1.00  0.00    -0.496 OA
ATOM     31  C   UNL     1      -1.823   5.939  -1.660  1.00  0.00     0.278 C 
ENDBRANCH  25  30
ENDBRANCH  20  23
ENDBRANCH  17  19
ENDBRANCH  15  17
ENDBRANCH   9  15
ENDBRANCH   3   6
ENDBRANCH   1   2
BRANCH   1  32
ATOM     32  C   UNL     1      -1.186   7.556   2.457  1.00  0.00     0.042 C 
BRANCH  32  33
ATOM     33  C   UNL     1      -1.410   8.853   3.213  1.00  0.00     0.118 C 
BRANCH  33  34
ATOM     34  N   UNL     1      -2.213   9.813   2.471  1.00  0.00    -0.352 N 
ATOM     35  C   UNL     1      -3.461  10.334   2.710  1.00  0.00     0.251 C 
ATOM     36  H   UNL     1      -1.785  10.150   1.651  1.00  0.00     0.163 HD
ATOM     37  O   UNL     1      -3.995  10.990   1.815  1.00  0.00    -0.269 OA
BRANCH  35  38
ATOM     38  C   UNL     1      -4.176  10.130   3.995  1.00  0.00     0.039 A 
ATOM     39  C   UNL     1      -5.576  10.104   3.980  1.00  0.00     0.014 A 
ATOM     40  C   UNL     1      -3.509  10.042   5.218  1.00  0.00     0.014 A 
ATOM     41  C   UNL     1      -6.292   9.957   5.173  1.00  0.00     0.010 A 
ATOM     42  C   UNL     1      -4.217   9.785   6.391  1.00  0.00     0.010 A 
ATOM     43  C   UNL     1      -5.618   9.771   6.389  1.00  0.00    -0.014 A 
BRANCH  43  44
ATOM     44  C   UNL     1      -6.361   9.588   7.664  1.00  0.00     0.031 A 
ATOM     45  C   UNL     1      -6.180  10.562   8.800  1.00  0.00     0.074 A 
ATOM     46  C   UNL     1      -7.144   8.504   7.829  1.00  0.00     0.049 A 
ATOM     47  N   UNL     1      -6.711  10.545   9.995  1.00  0.00    -0.248 NA
ATOM     48  C   UNL     1      -5.256  11.688   8.577  1.00  0.00     0.031 C 
ATOM     49  C   UNL     1      -7.333   7.442   6.839  1.00  0.00     0.029 A 
ATOM     50  N   UNL     1      -7.903   8.100   8.899  1.00  0.00    -0.354 N 
ATOM     51  C   UNL     1      -6.153  11.621  10.678  1.00  0.00     0.074 A 
ATOM     52  C   UNL     1      -5.218  12.252   9.774  1.00  0.00     0.031 C 
ATOM     53  C   UNL     1      -8.155   6.510   7.345  1.00  0.00     0.029 A 
ATOM     54  C   UNL     1      -8.521   6.886   8.707  1.00  0.00     0.049 A 
ATOM     55  H   UNL     1      -7.997   8.628   9.725  1.00  0.00     0.167 HD
ATOM     56  C   UNL     1      -6.411  12.058  11.934  1.00  0.00     0.034 A 
ATOM     57  C   UNL     1      -9.280   6.146   9.539  1.00  0.00     0.034 A 
ATOM     58  C   UNL     1      -7.369  11.447  12.815  1.00  0.00     0.049 A 
ATOM     59  C   UNL     1      -9.593   6.677  10.910  1.00  0.00     0.074 A 
ATOM     60  C   UNL     1      -7.785  11.875  14.063  1.00  0.00     0.029 A 
ATOM     61  N   UNL     1      -8.044  10.265  12.552  1.00  0.00    -0.354 N 
ATOM     62  N   UNL     1      -9.189   7.789  11.475  1.00  0.00    -0.248 NA
ATOM     63  C   UNL     1     -10.498   5.874  11.744  1.00  0.00     0.031 C 
ATOM     64  C   UNL     1      -8.675  10.926  14.575  1.00  0.00     0.029 A 
ATOM     65  C   UNL     1      -8.855   9.934  13.624  1.00  0.00     0.049 A 
ATOM     66  H   UNL     1      -7.960   9.739  11.724  1.00  0.00     0.167 HD
ATOM     67  C   UNL     1      -9.811   7.834  12.717  1.00  0.00     0.074 A 
ATOM     68  C   UNL     1     -10.638   6.648  12.811  1.00  0.00     0.031 C 
ATOM     69  C   UNL     1      -9.700   8.769  13.693  1.00  0.00     0.034 A 
BRANCH  56  70
ATOM     70  C   UNL     1      -5.658  13.271  12.424  1.00  0.00     0.023 A 
ATOM     71  C   UNL     1      -5.909  14.537  11.855  1.00  0.00     0.012 A 
ATOM     72  C   UNL     1      -4.731  13.164  13.479  1.00  0.00     0.148 A 
ATOM     73  C   UNL     1      -5.216  15.665  12.293  1.00  0.00     0.002 A 
ATOM     74  C   UNL     1      -4.083  14.301  13.947  1.00  0.00     0.091 A 
ATOM     75  F   UNL     1      -4.489  11.951  13.998  1.00  0.00    -0.205 F 
ATOM     76  C   UNL     1      -4.311  15.549  13.345  1.00  0.00     0.022 A 
BRANCH  74  77
ATOM     77  S   UNL     1      -2.965  14.270  15.352  1.00  0.00     0.127 S 
ATOM     78  O   UNL     1      -1.674  14.504  14.707  1.00  0.00    -0.237 OA
ATOM     79  O   UNL     1      -3.455  15.389  16.158  1.00  0.00    -0.237 OA
ATOM     80  O   UNL     1      -3.128  12.961  15.968  1.00  0.00    -0.744 OA
ENDBRANCH  74  77
ENDBRANCH  56  70
BRANCH  57  81
ATOM     81  C   UNL     1      -9.823   4.839   9.073  1.00  0.00     0.023 A 
ATOM     82  C   UNL     1     -11.201   4.704   8.817  1.00  0.00     0.012 A 
ATOM     83  C   UNL     1      -8.969   3.745   8.835  1.00  0.00     0.148 A 
ATOM     84  C   UNL     1     -11.723   3.493   8.358  1.00  0.00     0.002 A 
ATOM     85  C   UNL     1      -9.485   2.562   8.323  1.00  0.00     0.091 A 
ATOM     86  F   UNL     1      -7.662   3.895   9.093  1.00  0.00    -0.205 F 
ATOM     87  C   UNL     1     -10.864   2.427   8.100  1.00  0.00     0.022 A 
BRANCH  85  88
ATOM     88  S   UNL     1      -8.441   1.185   7.834  1.00  0.00     0.127 S 
ATOM     89  O   UNL     1      -8.826   0.160   8.801  1.00  0.00    -0.237 OA
ATOM     90  O   UNL     1      -8.892   0.941   6.463  1.00  0.00    -0.237 OA
ATOM     91  O   UNL     1      -7.072   1.668   7.941  1.00  0.00    -0.744 OA
ENDBRANCH  85  88
ENDBRANCH  57  81
BRANCH  69  92
ATOM     92  C   UNL     1     -10.522   8.576  14.942  1.00  0.00     0.023 A 
ATOM     93  C   UNL     1     -10.196   7.553  15.854  1.00  0.00     0.012 A 
ATOM     94  C   UNL     1     -11.579   9.459  15.242  1.00  0.00     0.148 A 
ATOM     95  C   UNL     1     -10.933   7.388  17.026  1.00  0.00     0.002 A 
ATOM     96  C   UNL     1     -12.272   9.323  16.438  1.00  0.00     0.091 A 
ATOM     97  F   UNL     1     -11.885  10.415  14.353  1.00  0.00    -0.205 F 
ATOM     98  C   UNL     1     -11.961   8.280  17.324  1.00  0.00     0.022 A 
BRANCH  96  99
ATOM     99  S   UNL     1     -13.541  10.485  16.952  1.00  0.00     0.127 S 
ATOM    100  O   UNL     1     -14.752   9.672  16.840  1.00  0.00    -0.237 OA
ATOM    101  O   UNL     1     -13.139  10.794  18.325  1.00  0.00    -0.237 OA
ATOM    102  O   UNL     1     -13.458  11.609  16.029  1.00  0.00    -0.744 OA
ENDBRANCH  96  99
ENDBRANCH  69  92
ENDBRANCH  43  44
ENDBRANCH  35  38
ENDBRANCH  33  34
ENDBRANCH  32  33
ENDBRANCH   1  32
TORSDOF 19
