REMARK SMILES [NH3+][C@@]1(C(=O)NCCCNC(=O)c2ccc(-c3c4nc(c(-c5cccc(S(=O)(=O)[O-])c5F)c5ccc([nH]5)c(-c5cccc(S(=O)(=O)[O-])c5F)c5nc(c(-c6cccc(S(=O)(=O)[O-])c6F)c6ccc3[nH]6)C=C5)C=C4)cc2)CCC[C@H]1CCOc1ccccc1
REMARK SMILES IDX 6 1 5 2 3 3 4 4 2 6 75 7 78 8 76 9 77 10 1 11 79 15 80 16
REMARK SMILES IDX 81 17 82 18 83 19 87 20 84 21 86 22 85 23 7 24 8 25 9 26
REMARK SMILES IDX 10 27 11 29 12 30 13 31 74 32 14 33 73 34 15 35 16 36 17 37
REMARK SMILES IDX 67 38 18 39 72 40 66 41 68 42 19 43 71 44 65 45 64 46 20 48
REMARK SMILES IDX 52 49 32 50 51 51 33 52 36 53 50 54 69 55 34 56 35 57 49 59
REMARK SMILES IDX 70 60 37 61 21 62 22 63 30 64 23 65 25 66 31 67 24 68 26 69
REMARK SMILES IDX 27 70 28 71 29 72 53 73 54 74 62 75 55 76 57 77 63 78 56 79
REMARK SMILES IDX 58 80 59 81 60 82 61 83 38 84 39 85 47 86 40 87 42 88 48 89
REMARK SMILES IDX 41 90 43 91 44 92 45 93 46 94
REMARK H PARENT 5 5 1 12 1 13 1 14 9 28 68 47 36 58
REMARK Flexibility Score: inf
ROOT
ATOM      1  C   UNL     1       0.413  -0.849  -4.460  1.00  0.00     0.118 C 
ENDROOT
BRANCH   1   2
ATOM      2  N   UNL     1       1.442  -0.326  -3.584  1.00  0.00    -0.351 N 
ATOM      3  C   UNL     1       1.561  -0.297  -2.230  1.00  0.00     0.281 C 
ATOM      4  O   UNL     1       2.675   0.044  -1.798  1.00  0.00    -0.268 OA
ATOM      5  H   UNL     1       2.199   0.087  -4.060  1.00  0.00     0.163 HD
BRANCH   3   6
ATOM      6  C   UNL     1       0.410  -0.658  -1.205  1.00  0.00     0.176 C 
ATOM      7  C   UNL     1      -0.041  -2.126  -1.296  1.00  0.00     0.079 C 
ATOM      8  C   UNL     1      -0.853   0.222  -1.408  1.00  0.00     0.064 C 
ATOM      9  C   UNL     1      -1.458  -2.160  -1.835  1.00  0.00     0.008 C 
ATOM     10  C   UNL     1      -2.009  -0.750  -1.733  1.00  0.00     0.011 C 
BRANCH   6  11
ATOM     11  N   UNL     1       1.007  -0.495   0.159  1.00  0.00    -0.345 N 
ATOM     12  H   UNL     1       1.831  -1.090   0.243  1.00  0.00     0.345 HD
ATOM     13  H   UNL     1       0.321  -0.762   0.864  1.00  0.00     0.345 HD
ATOM     14  H   UNL     1       1.276   0.479   0.298  1.00  0.00     0.345 HD
ENDBRANCH   6  11
BRANCH   8  15
ATOM     15  C   UNL     1      -1.302   1.139  -0.238  1.00  0.00     0.052 C 
BRANCH  15  16
ATOM     16  C   UNL     1      -0.360   2.279   0.170  1.00  0.00     0.230 C 
BRANCH  16  17
ATOM     17  O   UNL     1      -0.592   3.452  -0.619  1.00  0.00    -0.494 OA
BRANCH  17  18
ATOM     18  C   UNL     1       0.293   3.568  -1.651  1.00  0.00     0.119 A 
ATOM     19  C   UNL     1       1.637   3.867  -1.438  1.00  0.00     0.046 A 
ATOM     20  C   UNL     1      -0.209   3.446  -2.942  1.00  0.00     0.046 A 
ATOM     21  C   UNL     1       2.501   3.964  -2.530  1.00  0.00     0.004 A 
ATOM     22  C   UNL     1       0.654   3.538  -4.031  1.00  0.00     0.004 A 
ATOM     23  C   UNL     1       2.012   3.781  -3.825  1.00  0.00     0.000 A 
ENDBRANCH  17  18
ENDBRANCH  16  17
ENDBRANCH  15  16
ENDBRANCH   8  15
ENDBRANCH   3   6
ENDBRANCH   1   2
BRANCH   1  24
ATOM     24  C   UNL     1      -0.160   0.161  -5.446  1.00  0.00     0.042 C 
BRANCH  24  25
ATOM     25  C   UNL     1       0.834   0.683  -6.476  1.00  0.00     0.118 C 
BRANCH  25  26
ATOM     26  N   UNL     1       1.221  -0.335  -7.445  1.00  0.00    -0.352 N 
ATOM     27  C   UNL     1       0.918  -0.446  -8.783  1.00  0.00     0.251 C 
ATOM     28  H   UNL     1       1.788  -1.055  -7.087  1.00  0.00     0.163 HD
ATOM     29  O   UNL     1       1.167  -1.494  -9.372  1.00  0.00    -0.269 OA
BRANCH  27  30
ATOM     30  C   UNL     1       0.279   0.675  -9.511  1.00  0.00     0.039 A 
ATOM     31  C   UNL     1      -0.773   0.399 -10.390  1.00  0.00     0.014 A 
ATOM     32  C   UNL     1       0.725   1.989  -9.352  1.00  0.00     0.014 A 
ATOM     33  C   UNL     1      -1.430   1.448 -11.041  1.00  0.00     0.010 A 
ATOM     34  C   UNL     1       0.023   3.039  -9.944  1.00  0.00     0.010 A 
ATOM     35  C   UNL     1      -1.067   2.782 -10.789  1.00  0.00    -0.014 A 
BRANCH  35  36
ATOM     36  C   UNL     1      -1.849   3.915 -11.353  1.00  0.00     0.031 A 
ATOM     37  C   UNL     1      -1.211   4.902 -12.293  1.00  0.00     0.074 A 
ATOM     38  C   UNL     1      -3.117   4.110 -10.937  1.00  0.00     0.049 A 
ATOM     39  N   UNL     1      -1.726   5.978 -12.830  1.00  0.00    -0.248 NA
ATOM     40  C   UNL     1       0.194   4.663 -12.661  1.00  0.00     0.031 C 
ATOM     41  C   UNL     1      -3.825   3.272  -9.966  1.00  0.00     0.029 A 
ATOM     42  N   UNL     1      -4.026   5.091 -11.251  1.00  0.00    -0.354 N 
ATOM     43  C   UNL     1      -0.705   6.562 -13.571  1.00  0.00     0.074 A 
ATOM     44  C   UNL     1       0.469   5.734 -13.393  1.00  0.00     0.031 C 
ATOM     45  C   UNL     1      -5.053   3.775  -9.763  1.00  0.00     0.029 A 
ATOM     46  C   UNL     1      -5.210   4.988 -10.558  1.00  0.00     0.049 A 
ATOM     47  H   UNL     1      -3.846   5.801 -11.909  1.00  0.00     0.167 HD
ATOM     48  C   UNL     1      -0.746   7.672 -14.347  1.00  0.00     0.034 A 
ATOM     49  C   UNL     1      -6.296   5.787 -10.548  1.00  0.00     0.034 A 
ATOM     50  C   UNL     1      -1.923   8.475 -14.549  1.00  0.00     0.049 A 
ATOM     51  C   UNL     1      -6.321   7.001 -11.436  1.00  0.00     0.074 A 
ATOM     52  C   UNL     1      -2.090   9.558 -15.395  1.00  0.00     0.029 A 
ATOM     53  N   UNL     1      -3.128   8.297 -13.887  1.00  0.00    -0.354 N 
ATOM     54  N   UNL     1      -5.404   7.435 -12.265  1.00  0.00    -0.248 NA
ATOM     55  C   UNL     1      -7.543   7.818 -11.410  1.00  0.00     0.031 C 
ATOM     56  C   UNL     1      -3.385  10.056 -15.220  1.00  0.00     0.029 A 
ATOM     57  C   UNL     1      -4.036   9.264 -14.288  1.00  0.00     0.049 A 
ATOM     58  H   UNL     1      -3.312   7.588 -13.230  1.00  0.00     0.167 HD
ATOM     59  C   UNL     1      -5.946   8.559 -12.878  1.00  0.00     0.074 A 
ATOM     60  C   UNL     1      -7.283   8.720 -12.347  1.00  0.00     0.031 C 
ATOM     61  C   UNL     1      -5.379   9.393 -13.784  1.00  0.00     0.034 A 
BRANCH  48  62
ATOM     62  C   UNL     1       0.510   8.065 -15.082  1.00  0.00     0.023 A 
ATOM     63  C   UNL     1       0.946   7.292 -16.177  1.00  0.00     0.012 A 
ATOM     64  C   UNL     1       1.213   9.238 -14.742  1.00  0.00     0.148 A 
ATOM     65  C   UNL     1       2.077   7.661 -16.903  1.00  0.00     0.002 A 
ATOM     66  C   UNL     1       2.314   9.623 -15.498  1.00  0.00     0.091 A 
ATOM     67  F   UNL     1       0.794   9.951 -13.687  1.00  0.00    -0.205 F 
ATOM     68  C   UNL     1       2.754   8.831 -16.571  1.00  0.00     0.022 A 
BRANCH  66  69
ATOM     69  S   UNL     1       3.208  11.153 -15.202  1.00  0.00     0.127 S 
ATOM     70  O   UNL     1       4.485  10.655 -14.692  1.00  0.00    -0.237 OA
ATOM     71  O   UNL     1       3.273  11.735 -16.543  1.00  0.00    -0.237 OA
ATOM     72  O   UNL     1       2.409  11.909 -14.249  1.00  0.00    -0.744 OA
ENDBRANCH  66  69
ENDBRANCH  48  62
BRANCH  49  73
ATOM     73  C   UNL     1      -7.470   5.438  -9.697  1.00  0.00     0.023 A 
ATOM     74  C   UNL     1      -8.671   5.027 -10.305  1.00  0.00     0.012 A 
ATOM     75  C   UNL     1      -7.394   5.488  -8.291  1.00  0.00     0.148 A 
ATOM     76  C   UNL     1      -9.786   4.704  -9.531  1.00  0.00     0.002 A 
ATOM     77  C   UNL     1      -8.489   5.107  -7.525  1.00  0.00     0.091 A 
ATOM     78  F   UNL     1      -6.247   5.895  -7.731  1.00  0.00    -0.205 F 
ATOM     79  C   UNL     1      -9.693   4.733  -8.143  1.00  0.00     0.022 A 
BRANCH  77  80
ATOM     80  S   UNL     1      -8.412   4.978  -5.735  1.00  0.00     0.127 S 
ATOM     81  O   UNL     1      -9.232   6.111  -5.317  1.00  0.00    -0.237 OA
ATOM     82  O   UNL     1      -9.010   3.663  -5.502  1.00  0.00    -0.237 OA
ATOM     83  O   UNL     1      -6.996   5.058  -5.399  1.00  0.00    -0.744 OA
ENDBRANCH  77  80
ENDBRANCH  49  73
BRANCH  61  84
ATOM     84  C   UNL     1      -6.206  10.553 -14.278  1.00  0.00     0.023 A 
ATOM     85  C   UNL     1      -6.468  11.639 -13.420  1.00  0.00     0.012 A 
ATOM     86  C   UNL     1      -6.667  10.596 -15.608  1.00  0.00     0.148 A 
ATOM     87  C   UNL     1      -7.203  12.736 -13.868  1.00  0.00     0.002 A 
ATOM     88  C   UNL     1      -7.356  11.715 -16.063  1.00  0.00     0.091 A 
ATOM     89  F   UNL     1      -6.423   9.546 -16.405  1.00  0.00    -0.205 F 
ATOM     90  C   UNL     1      -7.636  12.779 -15.191  1.00  0.00     0.022 A 
BRANCH  88  91
ATOM     91  S   UNL     1      -7.873  11.903 -17.773  1.00  0.00     0.127 S 
ATOM     92  O   UNL     1      -9.325  11.776 -17.661  1.00  0.00    -0.237 OA
ATOM     93  O   UNL     1      -7.401  13.250 -18.093  1.00  0.00    -0.237 OA
ATOM     94  O   UNL     1      -7.210  10.838 -18.513  1.00  0.00    -0.744 OA
ENDBRANCH  88  91
ENDBRANCH  61  84
ENDBRANCH  35  36
ENDBRANCH  27  30
ENDBRANCH  25  26
ENDBRANCH  24  25
ENDBRANCH   1  24
TORSDOF 18
