REMARK SMILES C[C@H]1[C@H](C(=O)NCCCNC(=O)c2ccc(-c3c4nc(c(-c5cccc(S(=O)(=O)[O-])c5F)c5ccc([nH]5)c(-c5cccc(S(=O)(=O)[O-])c5F)c5nc(c(-c6cccc(S(=O)(=O)[O-])c6F)c6ccc3[nH]6)C=C5)C=C4)cc2)CCN1C(=O)NCc1cnn(C)c1
REMARK SMILES IDX 8 1 7 2 6 3 4 4 5 5 3 7 1 8 2 9 78 10 76 11 77 12 79 13
REMARK SMILES IDX 80 14 81 15 82 17 83 18 84 19 88 20 85 21 86 22 87 23 9 24
REMARK SMILES IDX 10 25 11 26 12 28 13 29 14 30 75 31 15 32 74 33 16 34 17 35
REMARK SMILES IDX 18 36 68 37 19 38 73 39 67 40 69 41 20 42 72 43 66 44 65 45
REMARK SMILES IDX 21 47 53 48 33 49 52 50 34 51 37 52 51 53 70 54 35 55 36 56
REMARK SMILES IDX 50 58 71 59 38 60 22 61 23 62 31 63 24 64 26 65 32 66 25 67
REMARK SMILES IDX 27 68 28 69 29 70 30 71 54 72 55 73 63 74 56 75 58 76 64 77
REMARK SMILES IDX 57 78 59 79 60 80 61 81 62 82 39 83 40 84 48 85 41 86 43 87
REMARK SMILES IDX 49 88 42 89 44 90 45 91 46 92 47 93
REMARK H PARENT 6 6 81 16 10 27 69 46 37 57
REMARK Flexibility Score: inf
ROOT
ATOM      1  C   UNL     1      -0.399  -0.054   3.841  1.00  0.00     0.042 C 
ENDROOT
BRANCH   1   2
ATOM      2  C   UNL     1      -1.308   0.633   2.834  1.00  0.00     0.117 C 
BRANCH   2   3
ATOM      3  N   UNL     1      -0.769   1.895   2.352  1.00  0.00    -0.356 N 
ATOM      4  C   UNL     1      -0.280   2.271   1.145  1.00  0.00     0.225 C 
ATOM      5  O   UNL     1       0.103   3.441   1.034  1.00  0.00    -0.275 OA
ATOM      6  H   UNL     1      -0.756   2.609   3.030  1.00  0.00     0.163 HD
BRANCH   4   7
ATOM      7  C   UNL     1      -0.164   1.335  -0.048  1.00  0.00     0.102 C 
ATOM      8  C   UNL     1       1.906   0.259  -0.972  1.00  0.00     0.032 C 
ATOM      9  C   UNL     1       0.877   0.225   0.167  1.00  0.00     0.096 C 
ATOM     10  N   UNL     1       0.121  -1.021   0.137  1.00  0.00    -0.321 N 
ATOM     11  C   UNL     1      -1.462   0.656  -0.476  1.00  0.00     0.037 C 
ATOM     12  C   UNL     1      -1.134  -0.825  -0.573  1.00  0.00     0.122 C 
BRANCH  10  13
ATOM     13  C   UNL     1       0.389  -2.251   0.652  1.00  0.00     0.317 C 
ATOM     14  O   UNL     1      -0.436  -3.166   0.550  1.00  0.00    -0.249 OA
ATOM     15  N   UNL     1       1.518  -2.560   1.303  1.00  0.00    -0.334 N 
ATOM     16  H   UNL     1       1.449  -3.443   1.732  1.00  0.00     0.165 HD
BRANCH  15  17
ATOM     17  C   UNL     1       2.811  -1.959   1.552  1.00  0.00     0.157 C 
BRANCH  17  18
ATOM     18  C   UNL     1       3.044  -1.874   3.014  1.00  0.00     0.009 A 
ATOM     19  C   UNL     1       3.249  -0.704   3.781  1.00  0.00     0.140 A 
ATOM     20  C   UNL     1       3.164  -2.895   3.936  1.00  0.00     0.113 A 
ATOM     21  N   UNL     1       3.419  -0.956   5.079  1.00  0.00    -0.181 NA
ATOM     22  N   UNL     1       3.416  -2.304   5.142  1.00  0.00    -0.275 N 
ATOM     23  C   UNL     1       3.647  -2.969   6.404  1.00  0.00     0.173 C 
ENDBRANCH  17  18
ENDBRANCH  15  17
ENDBRANCH  10  13
ENDBRANCH   4   7
ENDBRANCH   2   3
ENDBRANCH   1   2
BRANCH   1  24
ATOM     24  C   UNL     1      -0.198   0.705   5.148  1.00  0.00     0.118 C 
BRANCH  24  25
ATOM     25  N   UNL     1      -1.441   0.882   5.889  1.00  0.00    -0.352 N 
ATOM     26  C   UNL     1      -1.788   0.481   7.155  1.00  0.00     0.251 C 
ATOM     27  H   UNL     1      -2.145   1.368   5.402  1.00  0.00     0.163 HD
ATOM     28  O   UNL     1      -2.963   0.572   7.505  1.00  0.00    -0.269 OA
BRANCH  26  29
ATOM     29  C   UNL     1      -0.781  -0.063   8.096  1.00  0.00     0.039 A 
ATOM     30  C   UNL     1      -1.155  -1.113   8.942  1.00  0.00     0.014 A 
ATOM     31  C   UNL     1       0.502   0.481   8.196  1.00  0.00     0.014 A 
ATOM     32  C   UNL     1      -0.233  -1.645   9.848  1.00  0.00     0.010 A 
ATOM     33  C   UNL     1       1.444  -0.101   9.044  1.00  0.00     0.010 A 
ATOM     34  C   UNL     1       1.084  -1.162   9.888  1.00  0.00    -0.014 A 
BRANCH  34  35
ATOM     35  C   UNL     1       2.100  -1.766  10.790  1.00  0.00     0.031 A 
ATOM     36  C   UNL     1       2.740  -0.950  11.882  1.00  0.00     0.074 A 
ATOM     37  C   UNL     1       2.512  -3.030  10.571  1.00  0.00     0.049 A 
ATOM     38  N   UNL     1       3.670  -1.300  12.733  1.00  0.00    -0.248 NA
ATOM     39  C   UNL     1       2.290   0.444  12.026  1.00  0.00     0.031 C 
ATOM     40  C   UNL     1       2.023  -3.907   9.506  1.00  0.00     0.029 A 
ATOM     41  N   UNL     1       3.464  -3.785  11.210  1.00  0.00    -0.354 N 
ATOM     42  C   UNL     1       3.929  -0.170  13.501  1.00  0.00     0.074 A 
ATOM     43  C   UNL     1       3.091   0.890  12.984  1.00  0.00     0.031 C 
ATOM     44  C   UNL     1       2.700  -5.065   9.542  1.00  0.00     0.029 A 
ATOM     45  C   UNL     1       3.672  -5.014  10.630  1.00  0.00     0.049 A 
ATOM     46  H   UNL     1       3.951  -3.476  12.008  1.00  0.00     0.167 HD
ATOM     47  C   UNL     1       4.758  -0.035  14.564  1.00  0.00     0.034 A 
ATOM     48  C   UNL     1       4.549  -5.991  10.932  1.00  0.00     0.034 A 
ATOM     49  C   UNL     1       5.566  -1.099  15.100  1.00  0.00     0.049 A 
ATOM     50  C   UNL     1       5.438  -5.832  12.133  1.00  0.00     0.074 A 
ATOM     51  C   UNL     1       6.369  -1.087  16.227  1.00  0.00     0.029 A 
ATOM     52  N   UNL     1       5.680  -2.363  14.543  1.00  0.00    -0.354 N 
ATOM     53  N   UNL     1       5.538  -4.815  12.954  1.00  0.00    -0.248 NA
ATOM     54  C   UNL     1       6.294  -6.974  12.483  1.00  0.00     0.031 C 
ATOM     55  C   UNL     1       6.983  -2.340  16.341  1.00  0.00     0.029 A 
ATOM     56  C   UNL     1       6.546  -3.138  15.296  1.00  0.00     0.049 A 
ATOM     57  H   UNL     1       5.214  -2.666  13.730  1.00  0.00     0.167 HD
ATOM     58  C   UNL     1       6.439  -5.207  13.938  1.00  0.00     0.074 A 
ATOM     59  C   UNL     1       6.838  -6.563  13.621  1.00  0.00     0.031 C 
ATOM     60  C   UNL     1       6.902  -4.502  14.999  1.00  0.00     0.034 A 
BRANCH  47  61
ATOM     61  C   UNL     1       4.779   1.299  15.267  1.00  0.00     0.023 A 
ATOM     62  C   UNL     1       3.664   1.688  16.038  1.00  0.00     0.012 A 
ATOM     63  C   UNL     1       5.910   2.137  15.218  1.00  0.00     0.148 A 
ATOM     64  C   UNL     1       3.658   2.905  16.719  1.00  0.00     0.002 A 
ATOM     65  C   UNL     1       5.913   3.329  15.935  1.00  0.00     0.091 A 
ATOM     66  F   UNL     1       6.954   1.762  14.466  1.00  0.00    -0.205 F 
ATOM     67  C   UNL     1       4.785   3.719  16.675  1.00  0.00     0.022 A 
BRANCH  65  68
ATOM     68  S   UNL     1       7.346   4.411  16.007  1.00  0.00     0.127 S 
ATOM     69  O   UNL     1       6.912   5.532  15.172  1.00  0.00    -0.237 OA
ATOM     70  O   UNL     1       7.431   4.716  17.437  1.00  0.00    -0.237 OA
ATOM     71  O   UNL     1       8.460   3.635  15.487  1.00  0.00    -0.744 OA
ENDBRANCH  65  68
ENDBRANCH  47  61
BRANCH  48  72
ATOM     72  C   UNL     1       4.570  -7.235  10.115  1.00  0.00     0.023 A 
ATOM     73  C   UNL     1       4.069  -8.434  10.656  1.00  0.00     0.012 A 
ATOM     74  C   UNL     1       5.032  -7.220   8.786  1.00  0.00     0.148 A 
ATOM     75  C   UNL     1       4.057  -9.604   9.897  1.00  0.00     0.002 A 
ATOM     76  C   UNL     1       4.963  -8.375   8.016  1.00  0.00     0.091 A 
ATOM     77  F   UNL     1       5.512  -6.070   8.290  1.00  0.00    -0.205 F 
ATOM     78  C   UNL     1       4.492  -9.573   8.574  1.00  0.00     0.022 A 
BRANCH  76  79
ATOM     79  S   UNL     1       5.356  -8.368   6.263  1.00  0.00     0.127 S 
ATOM     80  O   UNL     1       6.679  -8.985   6.249  1.00  0.00    -0.237 OA
ATOM     81  O   UNL     1       4.283  -9.190   5.704  1.00  0.00    -0.237 OA
ATOM     82  O   UNL     1       5.297  -6.966   5.863  1.00  0.00    -0.744 OA
ENDBRANCH  76  79
ENDBRANCH  48  72
BRANCH  60  83
ATOM     83  C   UNL     1       7.879  -5.190  15.916  1.00  0.00     0.023 A 
ATOM     84  C   UNL     1       9.200  -5.420  15.483  1.00  0.00     0.012 A 
ATOM     85  C   UNL     1       7.506  -5.560  17.224  1.00  0.00     0.148 A 
ATOM     86  C   UNL     1      10.125  -6.039  16.324  1.00  0.00     0.002 A 
ATOM     87  C   UNL     1       8.446  -6.133  18.072  1.00  0.00     0.091 A 
ATOM     88  F   UNL     1       6.239  -5.354  17.611  1.00  0.00    -0.205 F 
ATOM     89  C   UNL     1       9.752  -6.385  17.620  1.00  0.00     0.022 A 
BRANCH  87  90
ATOM     90  S   UNL     1       8.076  -6.527  19.786  1.00  0.00     0.127 S 
ATOM     91  O   UNL     1       7.918  -7.979  19.731  1.00  0.00    -0.237 OA
ATOM     92  O   UNL     1       9.282  -6.071  20.479  1.00  0.00    -0.237 OA
ATOM     93  O   UNL     1       6.874  -5.774  20.115  1.00  0.00    -0.744 OA
ENDBRANCH  87  90
ENDBRANCH  60  83
ENDBRANCH  34  35
ENDBRANCH  26  29
ENDBRANCH  24  25
ENDBRANCH   1  24
TORSDOF 16
