REMARK SMILES COc1ccccc1-c1ccc(C(=O)NCCCNC(=O)c2ccc(-c3c4nc(c(-c5cccc(S(=O)(=O)[O-])c5F)c5ccc([nH]5)c(-c5cccc(S(=O)(=O)[O-])c5F)c5nc(c(-c6cccc(S(=O)(=O)[O-])c6F)c6ccc3[nH]6)C=C5)C=C4)cc2)c(O)c1
REMARK SMILES IDX 17 1 16 2 15 3 13 4 14 5 12 7 9 8 10 9 87 10 11 11 85 12
REMARK SMILES IDX 8 13 3 14 4 15 5 16 7 17 6 18 2 19 1 20 86 21 18 23 19 24
REMARK SMILES IDX 20 25 21 27 22 28 23 29 84 30 24 31 83 32 25 33 26 34 27 35
REMARK SMILES IDX 77 36 28 37 82 38 76 39 78 40 29 41 81 42 75 43 74 44 30 46
REMARK SMILES IDX 62 47 42 48 61 49 43 50 46 51 60 52 79 53 44 54 45 55 59 57
REMARK SMILES IDX 80 58 47 59 31 60 32 61 40 62 33 63 35 64 41 65 34 66 36 67
REMARK SMILES IDX 37 68 38 69 39 70 63 71 64 72 72 73 65 74 67 75 73 76 66 77
REMARK SMILES IDX 68 78 69 79 70 80 71 81 48 82 49 83 57 84 50 85 52 86 58 87
REMARK SMILES IDX 51 88 53 89 54 90 55 91 56 92
REMARK H PARENT 15 6 86 22 19 26 78 45 46 56
REMARK Flexibility Score: inf
ROOT
ATOM      1  C   UNL     1       6.196   3.179  -1.786  1.00  0.00     0.042 C 
ENDROOT
BRANCH   1   2
ATOM      2  C   UNL     1       5.403   2.014  -2.373  1.00  0.00     0.118 C 
BRANCH   2   3
ATOM      3  N   UNL     1       6.180   0.789  -2.357  1.00  0.00    -0.352 N 
ATOM      4  C   UNL     1       6.150  -0.292  -1.513  1.00  0.00     0.255 C 
ATOM      5  O   UNL     1       6.928  -1.219  -1.747  1.00  0.00    -0.269 OA
ATOM      6  H   UNL     1       6.847   0.721  -3.079  1.00  0.00     0.163 HD
BRANCH   4   7
ATOM      7  C   UNL     1       5.152  -0.460  -0.422  1.00  0.00     0.081 A 
ATOM      8  C   UNL     1       3.196  -1.048   1.538  1.00  0.00    -0.011 A 
ATOM      9  C   UNL     1       3.659  -2.050   0.678  1.00  0.00     0.010 A 
ATOM     10  C   UNL     1       3.768   0.227   1.452  1.00  0.00     0.055 A 
ATOM     11  C   UNL     1       4.620  -1.756  -0.294  1.00  0.00     0.018 A 
ATOM     12  C   UNL     1       4.750   0.511   0.500  1.00  0.00     0.128 A 
BRANCH   8  13
ATOM     13  C   UNL     1       2.136  -1.304   2.516  1.00  0.00     0.024 A 
ATOM     14  C   UNL     1       0.854  -0.725   2.430  1.00  0.00     0.126 A 
ATOM     15  C   UNL     1      -0.070  -0.902   3.466  1.00  0.00     0.047 A 
ATOM     16  C   UNL     1       0.253  -1.676   4.580  1.00  0.00     0.004 A 
ATOM     17  C   UNL     1       2.439  -2.087   3.647  1.00  0.00     0.012 A 
ATOM     18  C   UNL     1       1.507  -2.270   4.670  1.00  0.00     0.001 A 
BRANCH  14  19
ATOM     19  O   UNL     1       0.436   0.127   1.437  1.00  0.00    -0.496 OA
ATOM     20  C   UNL     1       0.559  -0.392   0.115  1.00  0.00     0.278 C 
ENDBRANCH  14  19
ENDBRANCH   8  13
BRANCH  12  21
ATOM     21  O   UNL     1       5.314   1.749   0.537  1.00  0.00    -0.507 OA
ATOM     22  H   UNL     1       5.976   1.981  -0.084  1.00  0.00     0.293 HD
ENDBRANCH  12  21
ENDBRANCH   4   7
ENDBRANCH   2   3
ENDBRANCH   1   2
BRANCH   1  23
ATOM     23  C   UNL     1       7.284   3.712  -2.704  1.00  0.00     0.118 C 
BRANCH  23  24
ATOM     24  N   UNL     1       6.742   4.511  -3.790  1.00  0.00    -0.352 N 
ATOM     25  C   UNL     1       6.982   5.824  -4.111  1.00  0.00     0.251 C 
ATOM     26  H   UNL     1       6.112   4.042  -4.383  1.00  0.00     0.163 HD
ATOM     27  O   UNL     1       6.262   6.379  -4.939  1.00  0.00    -0.269 OA
BRANCH  25  28
ATOM     28  C   UNL     1       8.085   6.577  -3.467  1.00  0.00     0.039 A 
ATOM     29  C   UNL     1       7.887   7.926  -3.155  1.00  0.00     0.014 A 
ATOM     30  C   UNL     1       9.326   5.984  -3.213  1.00  0.00     0.014 A 
ATOM     31  C   UNL     1       8.915   8.666  -2.563  1.00  0.00     0.010 A 
ATOM     32  C   UNL     1      10.319   6.697  -2.546  1.00  0.00     0.010 A 
ATOM     33  C   UNL     1      10.135   8.053  -2.239  1.00  0.00    -0.014 A 
BRANCH  33  34
ATOM     34  C   UNL     1      11.246   8.819  -1.616  1.00  0.00     0.031 A 
ATOM     35  C   UNL     1      12.549   8.988  -2.354  1.00  0.00     0.074 A 
ATOM     36  C   UNL     1      11.113   9.296  -0.363  1.00  0.00     0.049 A 
ATOM     37  N   UNL     1      13.653   9.568  -1.959  1.00  0.00    -0.248 NA
ATOM     38  C   UNL     1      12.634   8.401  -3.703  1.00  0.00     0.031 C 
ATOM     39  C   UNL     1       9.931   9.130   0.485  1.00  0.00     0.029 A 
ATOM     40  N   UNL     1      11.992   9.994   0.427  1.00  0.00    -0.354 N 
ATOM     41  C   UNL     1      14.571   9.380  -2.986  1.00  0.00     0.074 A 
ATOM     42  C   UNL     1      13.907   8.603  -4.009  1.00  0.00     0.031 C 
ATOM     43  C   UNL     1      10.156   9.712   1.674  1.00  0.00     0.029 A 
ATOM     44  C   UNL     1      11.505  10.270   1.684  1.00  0.00     0.049 A 
ATOM     45  H   UNL     1      12.886  10.271   0.123  1.00  0.00     0.167 HD
ATOM     46  C   UNL     1      15.841   9.841  -3.087  1.00  0.00     0.034 A 
ATOM     47  C   UNL     1      12.082  10.901   2.726  1.00  0.00     0.034 A 
ATOM     48  C   UNL     1      16.476  10.664  -2.095  1.00  0.00     0.049 A 
ATOM     49  C   UNL     1      13.470  11.460   2.563  1.00  0.00     0.074 A 
ATOM     50  C   UNL     1      17.726  11.257  -2.139  1.00  0.00     0.029 A 
ATOM     51  N   UNL     1      15.909  11.015  -0.879  1.00  0.00    -0.354 N 
ATOM     52  N   UNL     1      14.264  11.406   1.521  1.00  0.00    -0.248 NA
ATOM     53  C   UNL     1      14.027  12.202   3.703  1.00  0.00     0.031 C 
ATOM     54  C   UNL     1      17.919  11.957  -0.944  1.00  0.00     0.029 A 
ATOM     55  C   UNL     1      16.782  11.816  -0.164  1.00  0.00     0.049 A 
ATOM     56  H   UNL     1      15.018  10.735  -0.570  1.00  0.00     0.167 HD
ATOM     57  C   UNL     1      15.394  12.140   1.864  1.00  0.00     0.074 A 
ATOM     58  C   UNL     1      15.173  12.644   3.204  1.00  0.00     0.031 C 
ATOM     59  C   UNL     1      16.519  12.364   1.141  1.00  0.00     0.034 A 
BRANCH  46  60
ATOM     60  C   UNL     1      16.606   9.520  -4.345  1.00  0.00     0.023 A 
ATOM     61  C   UNL     1      16.250  10.152  -5.554  1.00  0.00     0.012 A 
ATOM     62  C   UNL     1      17.708   8.643  -4.324  1.00  0.00     0.148 A 
ATOM     63  C   UNL     1      16.953   9.892  -6.729  1.00  0.00     0.002 A 
ATOM     64  C   UNL     1      18.433   8.422  -5.490  1.00  0.00     0.091 A 
ATOM     65  F   UNL     1      18.021   8.034  -3.171  1.00  0.00    -0.205 F 
ATOM     66  C   UNL     1      18.050   9.036  -6.694  1.00  0.00     0.022 A 
BRANCH  64  67
ATOM     67  S   UNL     1      19.910   7.399  -5.535  1.00  0.00     0.127 S 
ATOM     68  O   UNL     1      19.435   6.226  -6.267  1.00  0.00    -0.237 OA
ATOM     69  O   UNL     1      20.847   8.243  -6.279  1.00  0.00    -0.237 OA
ATOM     70  O   UNL     1      20.278   7.165  -4.146  1.00  0.00    -0.744 OA
ENDBRANCH  64  67
ENDBRANCH  46  60
BRANCH  47  71
ATOM     71  C   UNL     1      11.314  11.112   3.986  1.00  0.00     0.023 A 
ATOM     72  C   UNL     1      10.883  12.411   4.321  1.00  0.00     0.012 A 
ATOM     73  C   UNL     1      10.983  10.039   4.837  1.00  0.00     0.148 A 
ATOM     74  C   UNL     1      10.167  12.644   5.496  1.00  0.00     0.002 A 
ATOM     75  C   UNL     1      10.222  10.270   5.978  1.00  0.00     0.091 A 
ATOM     76  F   UNL     1      11.412   8.812   4.509  1.00  0.00    -0.205 F 
ATOM     77  C   UNL     1       9.828  11.573   6.318  1.00  0.00     0.022 A 
BRANCH  75  78
ATOM     78  S   UNL     1       9.627   8.932   7.020  1.00  0.00     0.127 S 
ATOM     79  O   UNL     1      10.483   9.068   8.197  1.00  0.00    -0.237 OA
ATOM     80  O   UNL     1       8.228   9.310   7.231  1.00  0.00    -0.237 OA
ATOM     81  O   UNL     1       9.806   7.719   6.239  1.00  0.00    -0.744 OA
ENDBRANCH  75  78
ENDBRANCH  47  71
BRANCH  59  82
ATOM     82  C   UNL     1      17.587  13.227   1.759  1.00  0.00     0.023 A 
ATOM     83  C   UNL     1      18.383  12.718   2.804  1.00  0.00     0.012 A 
ATOM     84  C   UNL     1      17.854  14.513   1.249  1.00  0.00     0.148 A 
ATOM     85  C   UNL     1      19.408  13.487   3.352  1.00  0.00     0.002 A 
ATOM     86  C   UNL     1      18.907  15.255   1.768  1.00  0.00     0.091 A 
ATOM     87  F   UNL     1      17.072  14.988   0.268  1.00  0.00    -0.205 F 
ATOM     88  C   UNL     1      19.678  14.749   2.827  1.00  0.00     0.022 A 
BRANCH  86  89
ATOM     89  S   UNL     1      19.386  16.847   1.087  1.00  0.00     0.127 S 
ATOM     90  O   UNL     1      18.871  17.771   2.096  1.00  0.00    -0.237 OA
ATOM     91  O   UNL     1      20.845  16.743   1.043  1.00  0.00    -0.237 OA
ATOM     92  O   UNL     1      18.749  16.928  -0.221  1.00  0.00    -0.744 OA
ENDBRANCH  86  89
ENDBRANCH  59  82
ENDBRANCH  33  34
ENDBRANCH  25  28
ENDBRANCH  23  24
ENDBRANCH   1  23
TORSDOF 16
