REMARK SMILES CN(C)S(=O)(=O)c1cccc(-c2cc(Cl)cc(C(=O)NCCCNC(=O)c3ccc(-c4c5nc(c(-c6cccc(S(=O)(=O)[O-])c6F)c6ccc([nH]6)c(-c6cccc(S(=O)(=O)[O-])c6F)c6nc(c(-c7cccc(S(=O)(=O)[O-])c7F)c7ccc4[nH]7)C=C6)C=C5)cc3)c2)c1
REMARK SMILES IDX 22 1 21 2 20 3 18 4 19 5 17 7 12 8 13 9 90 10 14 11 15 12
REMARK SMILES IDX 16 13 11 14 7 15 8 16 91 17 9 18 10 19 4 20 5 21 6 22 2 23
REMARK SMILES IDX 1 24 3 25 23 26 24 27 25 28 26 30 27 31 28 32 89 33 29 34
REMARK SMILES IDX 88 35 30 36 31 37 32 38 82 39 33 40 87 41 81 42 83 43 34 44
REMARK SMILES IDX 86 45 80 46 79 47 35 49 67 50 47 51 66 52 48 53 51 54 65 55
REMARK SMILES IDX 84 56 49 57 50 58 64 60 85 61 52 62 36 63 37 64 45 65 38 66
REMARK SMILES IDX 40 67 46 68 39 69 41 70 42 71 43 72 44 73 68 74 69 75 77 76
REMARK SMILES IDX 70 77 72 78 78 79 71 80 73 81 74 82 75 83 76 84 53 85 54 86
REMARK SMILES IDX 62 87 55 88 57 89 63 90 56 91 58 92 59 93 60 94 61 95
REMARK H PARENT 20 6 24 29 83 48 51 59
REMARK Flexibility Score: inf
ROOT
ATOM      1  C   UNL     1      -1.170   4.372   6.993  1.00  0.00     0.042 C 
ENDROOT
BRANCH   1   2
ATOM      2  C   UNL     1      -2.157   3.687   6.063  1.00  0.00     0.118 C 
BRANCH   2   3
ATOM      3  N   UNL     1      -3.554   4.070   6.274  1.00  0.00    -0.352 N 
ATOM      4  C   UNL     1      -4.495   4.764   5.548  1.00  0.00     0.251 C 
ATOM      5  O   UNL     1      -5.615   4.899   6.045  1.00  0.00    -0.269 OA
ATOM      6  H   UNL     1      -3.902   3.759   7.141  1.00  0.00     0.163 HD
BRANCH   4   7
ATOM      7  C   UNL     1      -4.234   5.398   4.227  1.00  0.00     0.041 A 
ATOM      8  C   UNL     1      -2.813   5.707   2.252  1.00  0.00    -0.016 A 
ATOM      9  C   UNL     1      -3.604   6.798   1.877  1.00  0.00     0.029 A 
ATOM     10  C   UNL     1      -3.243   4.955   3.359  1.00  0.00     0.022 A 
ATOM     11  C   UNL     1      -4.719   7.155   2.641  1.00  0.00     0.042 A 
ATOM     12  Cl  UNL     1      -5.713   8.463   2.128  1.00  0.00    -0.084 Cl
ATOM     13  C   UNL     1      -5.011   6.490   3.833  1.00  0.00     0.034 A 
BRANCH   8  14
ATOM     14  C   UNL     1      -1.497   5.404   1.643  1.00  0.00    -0.017 A 
ATOM     15  C   UNL     1       0.321   3.816   1.238  1.00  0.00     0.083 A 
ATOM     16  C   UNL     1       1.189   4.850   0.898  1.00  0.00     0.022 A 
ATOM     17  C   UNL     1      -1.004   4.089   1.598  1.00  0.00     0.030 A 
ATOM     18  C   UNL     1       0.714   6.160   0.904  1.00  0.00     0.002 A 
ATOM     19  C   UNL     1      -0.611   6.432   1.273  1.00  0.00     0.009 A 
BRANCH  15  20
ATOM     20  S   UNL     1       0.931   2.159   1.442  1.00  0.00     0.242 S 
ATOM     21  O   UNL     1       0.219   1.568   2.562  1.00  0.00    -0.207 OA
ATOM     22  O   UNL     1       2.374   2.204   1.419  1.00  0.00    -0.207 OA
BRANCH  20  23
ATOM     23  N   UNL     1       0.413   1.345   0.022  1.00  0.00    -0.204 NA
ATOM     24  C   UNL     1       1.049   0.010  -0.104  1.00  0.00     0.124 C 
ATOM     25  C   UNL     1      -1.052   1.254  -0.164  1.00  0.00     0.124 C 
ENDBRANCH  20  23
ENDBRANCH  15  20
ENDBRANCH   8  14
ENDBRANCH   4   7
ENDBRANCH   2   3
ENDBRANCH   1   2
BRANCH   1  26
ATOM     26  C   UNL     1      -1.222   3.886   8.432  1.00  0.00     0.118 C 
BRANCH  26  27
ATOM     27  N   UNL     1      -0.917   2.465   8.561  1.00  0.00    -0.352 N 
ATOM     28  C   UNL     1       0.178   1.810   9.069  1.00  0.00     0.251 C 
ATOM     29  H   UNL     1      -1.625   1.868   8.225  1.00  0.00     0.163 HD
ATOM     30  O   UNL     1       0.279   0.598   8.887  1.00  0.00    -0.269 OA
BRANCH  28  31
ATOM     31  C   UNL     1       1.230   2.527   9.825  1.00  0.00     0.039 A 
ATOM     32  C   UNL     1       2.560   2.105   9.710  1.00  0.00     0.014 A 
ATOM     33  C   UNL     1       0.913   3.567  10.700  1.00  0.00     0.014 A 
ATOM     34  C   UNL     1       3.566   2.755  10.432  1.00  0.00     0.010 A 
ATOM     35  C   UNL     1       1.924   4.280  11.334  1.00  0.00     0.010 A 
ATOM     36  C   UNL     1       3.259   3.865  11.233  1.00  0.00    -0.014 A 
BRANCH  36  37
ATOM     37  C   UNL     1       4.296   4.585  12.015  1.00  0.00     0.031 A 
ATOM     38  C   UNL     1       4.187   4.658  13.518  1.00  0.00     0.074 A 
ATOM     39  C   UNL     1       5.268   5.265  11.376  1.00  0.00     0.049 A 
ATOM     40  N   UNL     1       4.920   5.327  14.369  1.00  0.00    -0.248 NA
ATOM     41  C   UNL     1       3.078   3.914  14.142  1.00  0.00     0.031 C 
ATOM     42  C   UNL     1       5.428   5.350   9.924  1.00  0.00     0.029 A 
ATOM     43  N   UNL     1       6.287   6.041  11.868  1.00  0.00    -0.354 N 
ATOM     44  C   UNL     1       4.329   5.134  15.613  1.00  0.00     0.074 A 
ATOM     45  C   UNL     1       3.156   4.316  15.401  1.00  0.00     0.031 C 
ATOM     46  C   UNL     1       6.483   6.132   9.642  1.00  0.00     0.029 A 
ATOM     47  C   UNL     1       7.061   6.621  10.890  1.00  0.00     0.049 A 
ATOM     48  H   UNL     1       6.450   6.171  12.831  1.00  0.00     0.167 HD
ATOM     49  C   UNL     1       4.742   5.567  16.828  1.00  0.00     0.034 A 
ATOM     50  C   UNL     1       8.117   7.452  10.988  1.00  0.00     0.034 A 
ATOM     51  C   UNL     1       5.955   6.308  17.042  1.00  0.00     0.049 A 
ATOM     52  C   UNL     1       8.622   7.829  12.355  1.00  0.00     0.074 A 
ATOM     53  C   UNL     1       6.525   6.701  18.240  1.00  0.00     0.029 A 
ATOM     54  N   UNL     1       6.792   6.758  16.033  1.00  0.00    -0.354 N 
ATOM     55  N   UNL     1       8.141   7.503  13.530  1.00  0.00    -0.248 NA
ATOM     56  C   UNL     1       9.840   8.650  12.411  1.00  0.00     0.031 C 
ATOM     57  C   UNL     1       7.707   7.393  17.953  1.00  0.00     0.029 A 
ATOM     58  C   UNL     1       7.878   7.419  16.578  1.00  0.00     0.049 A 
ATOM     59  H   UNL     1       6.636   6.626  15.069  1.00  0.00     0.167 HD
ATOM     60  C   UNL     1       9.016   8.045  14.465  1.00  0.00     0.074 A 
ATOM     61  C   UNL     1      10.067   8.705  13.717  1.00  0.00     0.031 C 
ATOM     62  C   UNL     1       8.948   8.014  15.819  1.00  0.00     0.034 A 
BRANCH  49  63
ATOM     63  C   UNL     1       3.910   5.184  18.025  1.00  0.00     0.023 A 
ATOM     64  C   UNL     1       3.896   3.842  18.459  1.00  0.00     0.012 A 
ATOM     65  C   UNL     1       3.174   6.147  18.741  1.00  0.00     0.148 A 
ATOM     66  C   UNL     1       3.128   3.456  19.556  1.00  0.00     0.002 A 
ATOM     67  C   UNL     1       2.446   5.762  19.863  1.00  0.00     0.091 A 
ATOM     68  F   UNL     1       3.177   7.414  18.304  1.00  0.00    -0.205 F 
ATOM     69  C   UNL     1       2.411   4.417  20.263  1.00  0.00     0.022 A 
BRANCH  67  70
ATOM     70  S   UNL     1       1.556   6.943  20.884  1.00  0.00     0.127 S 
ATOM     71  O   UNL     1       0.173   6.711  20.469  1.00  0.00    -0.237 OA
ATOM     72  O   UNL     1       1.869   6.482  22.238  1.00  0.00    -0.237 OA
ATOM     73  O   UNL     1       2.105   8.249  20.550  1.00  0.00    -0.744 OA
ENDBRANCH  67  70
ENDBRANCH  49  63
BRANCH  50  74
ATOM     74  C   UNL     1       8.825   7.893   9.754  1.00  0.00     0.023 A 
ATOM     75  C   UNL     1      10.090   7.348   9.459  1.00  0.00     0.012 A 
ATOM     76  C   UNL     1       8.239   8.799   8.849  1.00  0.00     0.148 A 
ATOM     77  C   UNL     1      10.771   7.715   8.298  1.00  0.00     0.002 A 
ATOM     78  C   UNL     1       8.901   9.122   7.669  1.00  0.00     0.091 A 
ATOM     79  F   UNL     1       7.039   9.314   9.152  1.00  0.00    -0.205 F 
ATOM     80  C   UNL     1      10.173   8.593   7.399  1.00  0.00     0.022 A 
BRANCH  78  81
ATOM     81  S   UNL     1       8.152  10.142   6.392  1.00  0.00     0.127 S 
ATOM     82  O   UNL     1       8.916  11.380   6.511  1.00  0.00    -0.237 OA
ATOM     83  O   UNL     1       8.425   9.364   5.183  1.00  0.00    -0.237 OA
ATOM     84  O   UNL     1       6.740  10.231   6.740  1.00  0.00    -0.744 OA
ENDBRANCH  78  81
ENDBRANCH  50  74
BRANCH  62  85
ATOM     85  C   UNL     1      10.057   8.678  16.590  1.00  0.00     0.023 A 
ATOM     86  C   UNL     1      10.116  10.084  16.656  1.00  0.00     0.012 A 
ATOM     87  C   UNL     1      10.990   7.910  17.314  1.00  0.00     0.148 A 
ATOM     88  C   UNL     1      11.105  10.715  17.409  1.00  0.00     0.002 A 
ATOM     89  C   UNL     1      11.944   8.546  18.099  1.00  0.00     0.091 A 
ATOM     90  F   UNL     1      10.931   6.573  17.220  1.00  0.00    -0.205 F 
ATOM     91  C   UNL     1      12.010   9.948  18.140  1.00  0.00     0.022 A 
BRANCH  89  92
ATOM     92  S   UNL     1      13.084   7.630  19.143  1.00  0.00     0.127 S 
ATOM     93  O   UNL     1      14.311   7.666  18.350  1.00  0.00    -0.237 OA
ATOM     94  O   UNL     1      13.120   8.443  20.359  1.00  0.00    -0.237 OA
ATOM     95  O   UNL     1      12.485   6.314  19.320  1.00  0.00    -0.744 OA
ENDBRANCH  89  92
ENDBRANCH  62  85
ENDBRANCH  36  37
ENDBRANCH  28  31
ENDBRANCH  26  27
ENDBRANCH   1  26
TORSDOF 16
