REMARK SMILES COc1ncccc1C[C@H](C(=O)NCCCNC(=O)c1ccc(-c2c3nc(c(-c4cccc(S(=O)(=O)[O-])c4F)c4ccc([nH]4)c(-c4cccc(S(=O)(=O)[O-])c4F)c4nc(c(-c5cccc(S(=O)(=O)[O-])c5F)c5ccc2[nH]5)C=C4)C=C3)cc1)c1ccc(F)cc1
REMARK SMILES IDX 15 1 14 2 13 3 11 4 12 5 10 7 9 8 8 9 3 10 4 11 5 12 7 13
REMARK SMILES IDX 6 14 2 15 1 16 83 17 84 18 89 19 85 20 88 21 86 22 87 23
REMARK SMILES IDX 16 24 17 25 18 26 19 28 20 29 21 30 82 31 22 32 81 33 23 34
REMARK SMILES IDX 24 35 25 36 75 37 26 38 80 39 74 40 76 41 27 42 79 43 73 44
REMARK SMILES IDX 72 45 28 47 60 48 40 49 59 50 41 51 44 52 58 53 77 54 42 55
REMARK SMILES IDX 43 56 57 58 78 59 45 60 29 61 30 62 38 63 31 64 33 65 39 66
REMARK SMILES IDX 32 67 34 68 35 69 36 70 37 71 61 72 62 73 70 74 63 75 65 76
REMARK SMILES IDX 71 77 64 78 66 79 67 80 68 81 69 82 46 83 47 84 55 85 48 86
REMARK SMILES IDX 50 87 56 88 49 89 51 90 52 91 53 92 54 93
REMARK H PARENT 13 6 17 27 76 46 44 57
REMARK Flexibility Score: inf
ROOT
ATOM      1  C   UNL     1       1.373   2.365   2.886  1.00  0.00     0.042 C 
ENDROOT
BRANCH   1   2
ATOM      2  C   UNL     1       2.615   2.406   2.006  1.00  0.00     0.117 C 
BRANCH   2   3
ATOM      3  N   UNL     1       3.411   1.201   2.131  1.00  0.00    -0.355 N 
ATOM      4  C   UNL     1       3.596   0.118   1.338  1.00  0.00     0.227 C 
ATOM      5  O   UNL     1       4.345  -0.755   1.799  1.00  0.00    -0.274 OA
ATOM      6  H   UNL     1       3.926   1.161   2.969  1.00  0.00     0.163 HD
BRANCH   4   7
ATOM      7  C   UNL     1       3.058  -0.022  -0.099  1.00  0.00     0.113 C 
BRANCH   7   8
ATOM      8  C   UNL     1       1.532   0.118  -0.348  1.00  0.00     0.059 C 
BRANCH   8   9
ATOM      9  C   UNL     1       0.624  -0.565   0.654  1.00  0.00     0.015 A 
ATOM     10  C   UNL     1       0.877  -1.837   1.164  1.00  0.00     0.216 A 
ATOM     11  N   UNL     1       0.225  -2.385   2.212  1.00  0.00    -0.222 NA
ATOM     12  C   UNL     1      -0.779  -1.654   2.746  1.00  0.00     0.115 A 
ATOM     13  C   UNL     1      -0.513   0.088   1.143  1.00  0.00     0.011 A 
ATOM     14  C   UNL     1      -1.209  -0.446   2.224  1.00  0.00     0.021 A 
BRANCH  10  15
ATOM     15  O   UNL     1       1.749  -2.627   0.448  1.00  0.00    -0.481 OA
ATOM     16  C   UNL     1       2.568  -3.438   1.276  1.00  0.00     0.280 C 
ENDBRANCH  10  15
ENDBRANCH   8   9
ENDBRANCH   7   8
BRANCH   7  17
ATOM     17  C   UNL     1       3.990   0.734  -1.046  1.00  0.00    -0.035 A 
ATOM     18  C   UNL     1       5.178   0.093  -1.457  1.00  0.00     0.007 A 
ATOM     19  C   UNL     1       3.788   2.070  -1.414  1.00  0.00     0.007 A 
ATOM     20  C   UNL     1       6.146   0.776  -2.190  1.00  0.00     0.039 A 
ATOM     21  C   UNL     1       4.767   2.759  -2.133  1.00  0.00     0.039 A 
ATOM     22  C   UNL     1       5.936   2.109  -2.509  1.00  0.00     0.123 A 
ATOM     23  F   UNL     1       6.881   2.784  -3.177  1.00  0.00    -0.207 F 
ENDBRANCH   7  17
ENDBRANCH   4   7
ENDBRANCH   2   3
ENDBRANCH   1   2
BRANCH   1  24
ATOM     24  C   UNL     1       1.627   2.126   4.367  1.00  0.00     0.118 C 
BRANCH  24  25
ATOM     25  N   UNL     1       2.026   3.341   5.048  1.00  0.00    -0.352 N 
ATOM     26  C   UNL     1       1.284   4.235   5.779  1.00  0.00     0.251 C 
ATOM     27  H   UNL     1       2.983   3.560   4.974  1.00  0.00     0.163 HD
ATOM     28  O   UNL     1       1.780   5.333   6.027  1.00  0.00    -0.269 OA
BRANCH  26  29
ATOM     29  C   UNL     1      -0.086   3.923   6.264  1.00  0.00     0.039 A 
ATOM     30  C   UNL     1      -1.003   4.976   6.363  1.00  0.00     0.014 A 
ATOM     31  C   UNL     1      -0.459   2.656   6.723  1.00  0.00     0.014 A 
ATOM     32  C   UNL     1      -2.272   4.760   6.910  1.00  0.00     0.010 A 
ATOM     33  C   UNL     1      -1.759   2.420   7.181  1.00  0.00     0.010 A 
ATOM     34  C   UNL     1      -2.669   3.476   7.320  1.00  0.00    -0.014 A 
BRANCH  34  35
ATOM     35  C   UNL     1      -4.005   3.257   7.942  1.00  0.00     0.031 A 
ATOM     36  C   UNL     1      -4.120   2.782   9.371  1.00  0.00     0.074 A 
ATOM     37  C   UNL     1      -5.124   3.471   7.223  1.00  0.00     0.049 A 
ATOM     38  N   UNL     1      -5.196   2.586  10.091  1.00  0.00    -0.248 NA
ATOM     39  C   UNL     1      -2.868   2.465  10.079  1.00  0.00     0.031 C 
ATOM     40  C   UNL     1      -5.160   3.857   5.811  1.00  0.00     0.029 A 
ATOM     41  N   UNL     1      -6.449   3.388   7.577  1.00  0.00    -0.354 N 
ATOM     42  C   UNL     1      -4.755   2.100  11.318  1.00  0.00     0.074 A 
ATOM     43  C   UNL     1      -3.316   1.988  11.231  1.00  0.00     0.031 C 
ATOM     44  C   UNL     1      -6.439   4.000   5.426  1.00  0.00     0.029 A 
ATOM     45  C   UNL     1      -7.315   3.699   6.554  1.00  0.00     0.049 A 
ATOM     46  H   UNL     1      -6.750   3.131   8.478  1.00  0.00     0.167 HD
ATOM     47  C   UNL     1      -5.471   1.810  12.431  1.00  0.00     0.034 A 
ATOM     48  C   UNL     1      -8.662   3.749   6.530  1.00  0.00     0.034 A 
ATOM     49  C   UNL     1      -6.896   1.972  12.539  1.00  0.00     0.049 A 
ATOM     50  C   UNL     1      -9.431   3.475   7.794  1.00  0.00     0.074 A 
ATOM     51  C   UNL     1      -7.703   1.781  13.648  1.00  0.00     0.029 A 
ATOM     52  N   UNL     1      -7.729   2.364  11.503  1.00  0.00    -0.354 N 
ATOM     53  N   UNL     1      -8.979   3.175   8.988  1.00  0.00    -0.248 NA
ATOM     54  C   UNL     1     -10.896   3.589   7.719  1.00  0.00     0.031 C 
ATOM     55  C   UNL     1      -9.026   2.045  13.278  1.00  0.00     0.029 A 
ATOM     56  C   UNL     1      -9.040   2.418  11.944  1.00  0.00     0.049 A 
ATOM     57  H   UNL     1      -7.432   2.572  10.588  1.00  0.00     0.167 HD
ATOM     58  C   UNL     1     -10.097   3.101   9.811  1.00  0.00     0.074 A 
ATOM     59  C   UNL     1     -11.245   3.413   8.986  1.00  0.00     0.031 C 
ATOM     60  C   UNL     1     -10.169   2.785  11.128  1.00  0.00     0.034 A 
BRANCH  47  61
ATOM     61  C   UNL     1      -4.714   1.353  13.653  1.00  0.00     0.023 A 
ATOM     62  C   UNL     1      -3.930   2.283  14.367  1.00  0.00     0.012 A 
ATOM     63  C   UNL     1      -4.824   0.033  14.131  1.00  0.00     0.148 A 
ATOM     64  C   UNL     1      -3.241   1.899  15.516  1.00  0.00     0.002 A 
ATOM     65  C   UNL     1      -4.169  -0.331  15.302  1.00  0.00     0.091 A 
ATOM     66  F   UNL     1      -5.558  -0.843  13.429  1.00  0.00    -0.205 F 
ATOM     67  C   UNL     1      -3.368   0.596  15.989  1.00  0.00     0.022 A 
BRANCH  65  68
ATOM     68  S   UNL     1      -4.332  -1.963  16.038  1.00  0.00     0.127 S 
ATOM     69  O   UNL     1      -3.016  -2.540  15.768  1.00  0.00    -0.237 OA
ATOM     70  O   UNL     1      -4.581  -1.644  17.444  1.00  0.00    -0.237 OA
ATOM     71  O   UNL     1      -5.447  -2.601  15.354  1.00  0.00    -0.744 OA
ENDBRANCH  65  68
ENDBRANCH  47  61
BRANCH  48  72
ATOM     72  C   UNL     1      -9.368   4.160   5.283  1.00  0.00     0.023 A 
ATOM     73  C   UNL     1     -10.020   5.409   5.236  1.00  0.00     0.012 A 
ATOM     74  C   UNL     1      -9.378   3.338   4.140  1.00  0.00     0.148 A 
ATOM     75  C   UNL     1     -10.696   5.817   4.086  1.00  0.00     0.002 A 
ATOM     76  C   UNL     1     -10.005   3.776   2.978  1.00  0.00     0.091 A 
ATOM     77  F   UNL     1      -8.767   2.147   4.207  1.00  0.00    -0.205 F 
ATOM     78  C   UNL     1     -10.679   5.006   2.954  1.00  0.00     0.022 A 
BRANCH  76  79
ATOM     79  S   UNL     1      -9.909   2.859   1.437  1.00  0.00     0.127 S 
ATOM     80  O   UNL     1     -11.248   2.286   1.344  1.00  0.00    -0.237 OA
ATOM     81  O   UNL     1      -9.620   3.917   0.469  1.00  0.00    -0.237 OA
ATOM     82  O   UNL     1      -8.819   1.907   1.620  1.00  0.00    -0.744 OA
ENDBRANCH  76  79
ENDBRANCH  48  72
BRANCH  60  83
ATOM     83  C   UNL     1     -11.530   2.790  11.774  1.00  0.00     0.023 A 
ATOM     84  C   UNL     1     -12.448   1.764  11.475  1.00  0.00     0.012 A 
ATOM     85  C   UNL     1     -11.876   3.772  12.723  1.00  0.00     0.148 A 
ATOM     86  C   UNL     1     -13.704   1.737  12.081  1.00  0.00     0.002 A 
ATOM     87  C   UNL     1     -13.111   3.712  13.358  1.00  0.00     0.091 A 
ATOM     88  F   UNL     1     -10.997   4.752  12.981  1.00  0.00    -0.205 F 
ATOM     89  C   UNL     1     -14.030   2.703  13.030  1.00  0.00     0.022 A 
BRANCH  87  90
ATOM     90  S   UNL     1     -13.575   4.860  14.660  1.00  0.00     0.127 S 
ATOM     91  O   UNL     1     -14.493   5.754  13.956  1.00  0.00    -0.237 OA
ATOM     92  O   UNL     1     -14.213   3.981  15.641  1.00  0.00    -0.237 OA
ATOM     93  O   UNL     1     -12.332   5.467  15.116  1.00  0.00    -0.744 OA
ENDBRANCH  87  90
ENDBRANCH  60  83
ENDBRANCH  34  35
ENDBRANCH  26  29
ENDBRANCH  24  25
ENDBRANCH   1  24
TORSDOF 17
