REMARK SMILES Cc1ccc(C)c(N2C(=O)S[C@H](CC(=O)Nc3ccc(C(=O)NCCCNC(=O)c4ccc(-c5c6nc(c(-c7cccc(S(=O)(=O)[O-])c7F)c7ccc([nH]7)c(-c7cccc(S(=O)(=O)[O-])c7F)c7nc(c(-c8cccc(S(=O)(=O)[O-])c8F)c8ccc5[nH]8)C=C7)C=C6)cc4)c(O)c3)C2=O)c1
REMARK SMILES IDX 24 1 23 2 21 3 22 4 20 6 17 7 18 8 95 9 19 10 93 11 16 12
REMARK SMILES IDX 14 13 15 14 13 16 12 17 8 18 9 19 96 20 10 21 11 22 97 23
REMARK SMILES IDX 7 24 1 25 2 26 3 27 98 28 4 29 5 30 6 31 94 32 25 34 26 35
REMARK SMILES IDX 27 36 28 37 29 39 30 40 31 41 92 42 32 43 91 44 33 45 34 46
REMARK SMILES IDX 35 47 85 48 36 49 90 50 84 51 86 52 37 53 89 54 83 55 82 56
REMARK SMILES IDX 38 58 70 59 50 60 69 61 51 62 54 63 68 64 87 65 52 66 53 67
REMARK SMILES IDX 67 69 88 70 55 71 39 72 40 73 48 74 41 75 43 76 49 77 42 78
REMARK SMILES IDX 44 79 45 80 46 81 47 82 71 83 72 84 80 85 73 86 75 87 81 88
REMARK SMILES IDX 74 89 76 90 77 91 78 92 79 93 56 94 57 95 65 96 58 97 60 98
REMARK SMILES IDX 66 99 59 100 61 101 62 102 63 103 64 104
REMARK H PARENT 23 5 16 15 94 33 27 38 86 57 54 68
REMARK Flexibility Score: inf
ROOT
ATOM      1  C   UNL     1       2.276   7.630  -2.867  1.00  0.00     0.118 C 
ENDROOT
BRANCH   1   2
ATOM      2  N   UNL     1       1.763   6.435  -3.482  1.00  0.00    -0.352 N 
ATOM      3  C   UNL     1       0.434   6.070  -3.587  1.00  0.00     0.255 C 
ATOM      4  O   UNL     1       0.122   5.201  -4.397  1.00  0.00    -0.269 OA
ATOM      5  H   UNL     1       2.424   5.815  -3.867  1.00  0.00     0.163 HD
BRANCH   3   6
ATOM      6  C   UNL     1      -0.615   6.630  -2.673  1.00  0.00     0.081 A 
ATOM      7  C   UNL     1      -2.263   7.171  -0.461  1.00  0.00     0.044 A 
ATOM      8  C   UNL     1      -2.505   6.093  -1.298  1.00  0.00     0.027 A 
ATOM      9  C   UNL     1      -1.391   8.143  -0.909  1.00  0.00     0.073 A 
ATOM     10  C   UNL     1      -1.640   5.759  -2.334  1.00  0.00     0.020 A 
ATOM     11  C   UNL     1      -0.657   7.900  -2.077  1.00  0.00     0.130 A 
BRANCH   7  12
ATOM     12  N   UNL     1      -2.974   7.304   0.741  1.00  0.00    -0.326 N 
ATOM     13  C   UNL     1      -3.470   6.279   1.524  1.00  0.00     0.226 C 
ATOM     14  O   UNL     1      -4.414   6.487   2.287  1.00  0.00    -0.275 OA
ATOM     15  H   UNL     1      -3.135   8.221   1.060  1.00  0.00     0.169 HD
BRANCH  13  16
ATOM     16  C   UNL     1      -2.676   4.979   1.590  1.00  0.00     0.125 C 
BRANCH  16  17
ATOM     17  C   UNL     1      -3.445   3.675   1.378  1.00  0.00     0.156 C 
ATOM     18  N   UNL     1      -1.801   2.114   0.638  1.00  0.00    -0.240 N 
ATOM     19  C   UNL     1      -2.296   2.486  -0.578  1.00  0.00     0.293 C 
ATOM     20  C   UNL     1      -2.504   2.550   1.752  1.00  0.00     0.248 C 
ATOM     21  O   UNL     1      -1.830   2.378  -1.707  1.00  0.00    -0.261 OA
ATOM     22  S   UNL     1      -3.872   3.246  -0.332  1.00  0.00    -0.050 SA
ATOM     23  O   UNL     1      -2.412   2.146   2.907  1.00  0.00    -0.273 OA
BRANCH  18  24
ATOM     24  C   UNL     1      -0.905   1.035   0.766  1.00  0.00     0.056 A 
ATOM     25  C   UNL     1       2.806   0.409   1.383  1.00  0.00     0.044 C 
ATOM     26  C   UNL     1       1.316   0.221   1.316  1.00  0.00    -0.049 A 
ATOM     27  C   UNL     1       0.792  -1.075   1.388  1.00  0.00     0.004 A 
ATOM     28  C   UNL     1       0.453   1.283   1.018  1.00  0.00     0.030 A 
ATOM     29  C   UNL     1      -0.546  -1.325   1.088  1.00  0.00     0.006 A 
ATOM     30  C   UNL     1      -1.411  -0.278   0.760  1.00  0.00    -0.027 A 
ATOM     31  C   UNL     1      -2.801  -0.626   0.309  1.00  0.00     0.046 C 
ENDBRANCH  18  24
ENDBRANCH  16  17
ENDBRANCH  13  16
ENDBRANCH   7  12
BRANCH  11  32
ATOM     32  O   UNL     1      -0.083   9.010  -2.639  1.00  0.00    -0.507 OA
ATOM     33  H   UNL     1       0.424   8.929  -3.423  1.00  0.00     0.293 HD
ENDBRANCH  11  32
ENDBRANCH   3   6
ENDBRANCH   1   2
BRANCH   1  34
ATOM     34  C   UNL     1       3.716   7.691  -2.439  1.00  0.00     0.042 C 
BRANCH  34  35
ATOM     35  C   UNL     1       4.739   7.642  -3.548  1.00  0.00     0.118 C 
BRANCH  35  36
ATOM     36  N   UNL     1       4.797   8.800  -4.445  1.00  0.00    -0.352 N 
ATOM     37  C   UNL     1       5.715   9.038  -5.465  1.00  0.00     0.251 C 
ATOM     38  H   UNL     1       4.107   9.489  -4.311  1.00  0.00     0.163 HD
ATOM     39  O   UNL     1       5.631  10.041  -6.166  1.00  0.00    -0.269 OA
BRANCH  37  40
ATOM     40  C   UNL     1       6.704   7.979  -5.784  1.00  0.00     0.039 A 
ATOM     41  C   UNL     1       6.663   7.412  -7.061  1.00  0.00     0.014 A 
ATOM     42  C   UNL     1       7.319   7.304  -4.749  1.00  0.00     0.014 A 
ATOM     43  C   UNL     1       6.859   6.037  -7.197  1.00  0.00     0.010 A 
ATOM     44  C   UNL     1       7.404   5.933  -4.862  1.00  0.00     0.010 A 
ATOM     45  C   UNL     1       7.049   5.270  -6.051  1.00  0.00    -0.014 A 
BRANCH  45  46
ATOM     46  C   UNL     1       7.070   3.797  -6.072  1.00  0.00     0.031 A 
ATOM     47  C   UNL     1       8.379   3.276  -5.606  1.00  0.00     0.074 A 
ATOM     48  C   UNL     1       6.042   2.933  -6.240  1.00  0.00     0.049 A 
ATOM     49  N   UNL     1       9.480   3.275  -6.293  1.00  0.00    -0.248 NA
ATOM     50  C   UNL     1       8.563   3.129  -4.147  1.00  0.00     0.031 C 
ATOM     51  C   UNL     1       4.604   3.187  -6.337  1.00  0.00     0.029 A 
ATOM     52  N   UNL     1       6.102   1.566  -6.269  1.00  0.00    -0.354 N 
ATOM     53  C   UNL     1      10.443   2.909  -5.363  1.00  0.00     0.074 A 
ATOM     54  C   UNL     1       9.883   3.316  -4.111  1.00  0.00     0.031 C 
ATOM     55  C   UNL     1       3.929   2.011  -6.238  1.00  0.00     0.029 A 
ATOM     56  C   UNL     1       4.876   0.907  -6.179  1.00  0.00     0.049 A 
ATOM     57  H   UNL     1       6.954   1.079  -6.347  1.00  0.00     0.167 HD
ATOM     58  C   UNL     1      11.345   1.910  -5.601  1.00  0.00     0.034 A 
ATOM     59  C   UNL     1       4.679  -0.434  -6.025  1.00  0.00     0.034 A 
ATOM     60  C   UNL     1      11.206   1.450  -6.972  1.00  0.00     0.049 A 
ATOM     61  C   UNL     1       5.948  -1.119  -6.333  1.00  0.00     0.074 A 
ATOM     62  C   UNL     1      11.322   2.001  -8.233  1.00  0.00     0.029 A 
ATOM     63  N   UNL     1      10.456   0.305  -7.126  1.00  0.00    -0.354 N 
ATOM     64  N   UNL     1       6.407  -1.227  -7.542  1.00  0.00    -0.248 NA
ATOM     65  C   UNL     1       6.919  -1.309  -5.268  1.00  0.00     0.031 C 
ATOM     66  C   UNL     1      10.302   1.378  -9.017  1.00  0.00     0.029 A 
ATOM     67  C   UNL     1       9.660   0.425  -8.229  1.00  0.00     0.049 A 
ATOM     68  H   UNL     1      10.488  -0.480  -6.532  1.00  0.00     0.167 HD
ATOM     69  C   UNL     1       7.758  -0.967  -7.399  1.00  0.00     0.074 A 
ATOM     70  C   UNL     1       8.044  -1.179  -5.980  1.00  0.00     0.031 C 
ATOM     71  C   UNL     1       8.415  -0.287  -8.380  1.00  0.00     0.034 A 
BRANCH  58  72
ATOM     72  C   UNL     1      11.948   0.987  -4.533  1.00  0.00     0.023 A 
ATOM     73  C   UNL     1      12.700  -0.109  -5.014  1.00  0.00     0.012 A 
ATOM     74  C   UNL     1      11.657   0.969  -3.149  1.00  0.00     0.148 A 
ATOM     75  C   UNL     1      12.984  -1.224  -4.217  1.00  0.00     0.002 A 
ATOM     76  C   UNL     1      11.918  -0.145  -2.359  1.00  0.00     0.091 A 
ATOM     77  F   UNL     1      11.146   2.032  -2.540  1.00  0.00    -0.205 F 
ATOM     78  C   UNL     1      12.557  -1.259  -2.897  1.00  0.00     0.022 A 
BRANCH  76  79
ATOM     79  S   UNL     1      11.380  -0.235  -0.640  1.00  0.00     0.127 S 
ATOM     80  O   UNL     1      10.450  -1.360  -0.687  1.00  0.00    -0.237 OA
ATOM     81  O   UNL     1      12.643  -0.498   0.048  1.00  0.00    -0.237 OA
ATOM     82  O   UNL     1      10.775   1.054  -0.331  1.00  0.00    -0.744 OA
ENDBRANCH  76  79
ENDBRANCH  58  72
BRANCH  59  83
ATOM     83  C   UNL     1       3.573  -1.239  -5.460  1.00  0.00     0.023 A 
ATOM     84  C   UNL     1       3.434  -2.613  -5.778  1.00  0.00     0.012 A 
ATOM     85  C   UNL     1       2.891  -0.748  -4.341  1.00  0.00     0.148 A 
ATOM     86  C   UNL     1       2.667  -3.474  -4.981  1.00  0.00     0.002 A 
ATOM     87  C   UNL     1       2.154  -1.611  -3.545  1.00  0.00     0.091 A 
ATOM     88  F   UNL     1       3.064   0.535  -4.001  1.00  0.00    -0.205 F 
ATOM     89  C   UNL     1       2.039  -2.974  -3.851  1.00  0.00     0.022 A 
BRANCH  87  90
ATOM     90  S   UNL     1       1.491  -1.087  -1.978  1.00  0.00     0.127 S 
ATOM     91  O   UNL     1       0.058  -1.282  -2.188  1.00  0.00    -0.237 OA
ATOM     92  O   UNL     1       2.130  -2.053  -1.083  1.00  0.00    -0.237 OA
ATOM     93  O   UNL     1       1.928   0.294  -1.816  1.00  0.00    -0.744 OA
ENDBRANCH  87  90
ENDBRANCH  59  83
BRANCH  71  94
ATOM     94  C   UNL     1       7.669  -0.101  -9.676  1.00  0.00     0.023 A 
ATOM     95  C   UNL     1       6.520   0.713  -9.795  1.00  0.00     0.012 A 
ATOM     96  C   UNL     1       8.207  -0.692 -10.823  1.00  0.00     0.148 A 
ATOM     97  C   UNL     1       5.909   0.913 -11.036  1.00  0.00     0.002 A 
ATOM     98  C   UNL     1       7.629  -0.451 -12.061  1.00  0.00     0.091 A 
ATOM     99  F   UNL     1       9.289  -1.471 -10.682  1.00  0.00    -0.205 F 
ATOM    100  C   UNL     1       6.474   0.341 -12.173  1.00  0.00     0.022 A 
BRANCH  98 101
ATOM    101  S   UNL     1       8.382  -1.059 -13.567  1.00  0.00     0.127 S 
ATOM    102  O   UNL     1       7.461  -2.122 -13.961  1.00  0.00    -0.237 OA
ATOM    103  O   UNL     1       8.358   0.126 -14.425  1.00  0.00    -0.237 OA
ATOM    104  O   UNL     1       9.722  -1.498 -13.196  1.00  0.00    -0.744 OA
ENDBRANCH  98 101
ENDBRANCH  71  94
ENDBRANCH  45  46
ENDBRANCH  37  40
ENDBRANCH  35  36
ENDBRANCH  34  35
ENDBRANCH   1  34
TORSDOF 18
