REMARK SMILES O=C(/C=C/c1c(Cl)cccc1Cl)NCC(=O)NCCCNC(=O)c1ccc(-c2c3nc(c(-c4cccc(S(=O)(=O)[O-])c4F)c4ccc([nH]4)c(-c4cccc(S(=O)(=O)[O-])c4F)c4nc(c(-c5cccc(S(=O)(=O)[O-])c5F)c5ccc2[nH]5)C=C4)C=C3)cc1
REMARK SMILES IDX 19 1 18 2 17 3 15 4 16 5 14 7 13 8 1 9 2 10 3 12 4 13 5 14
REMARK SMILES IDX 6 15 11 16 7 17 8 18 10 19 12 20 9 21 20 22 21 23 22 24
REMARK SMILES IDX 23 26 24 27 25 28 86 29 26 30 85 31 27 32 28 33 29 34 79 35
REMARK SMILES IDX 30 36 84 37 78 38 80 39 31 40 83 41 77 42 76 43 32 45 64 46
REMARK SMILES IDX 44 47 63 48 45 49 48 50 62 51 81 52 46 53 47 54 61 56 82 57
REMARK SMILES IDX 49 58 33 59 34 60 42 61 35 62 37 63 43 64 36 65 38 66 39 67
REMARK SMILES IDX 40 68 41 69 65 70 66 71 74 72 67 73 69 74 75 75 68 76 70 77
REMARK SMILES IDX 71 78 72 79 73 80 50 81 51 82 59 83 52 84 54 85 60 86 53 87
REMARK SMILES IDX 55 88 56 89 57 90 58 91
REMARK H PARENT 17 6 13 11 21 25 80 44 48 55
REMARK Flexibility Score: inf
ROOT
ATOM      1  C   UNL     1       2.366  -0.405  -3.396  1.00  0.00     0.042 C 
ENDROOT
BRANCH   1   2
ATOM      2  C   UNL     1       1.460  -1.470  -2.786  1.00  0.00     0.117 C 
BRANCH   2   3
ATOM      3  N   UNL     1       2.177  -2.698  -2.494  1.00  0.00    -0.355 N 
ATOM      4  C   UNL     1       2.575  -3.186  -1.282  1.00  0.00     0.239 C 
ATOM      5  O   UNL     1       3.102  -4.300  -1.242  1.00  0.00    -0.273 OA
ATOM      6  H   UNL     1       2.408  -3.253  -3.274  1.00  0.00     0.163 HD
BRANCH   4   7
ATOM      7  C   UNL     1       2.297  -2.392  -0.005  1.00  0.00     0.216 C 
BRANCH   7   8
ATOM      8  N   UNL     1       2.963  -1.102  -0.004  1.00  0.00    -0.343 N 
ATOM      9  O   UNL     1       1.076   0.116   0.435  1.00  0.00    -0.270 OA
ATOM     10  C   UNL     1       2.284   0.062   0.227  1.00  0.00     0.244 C 
ATOM     11  H   UNL     1       3.932  -1.064  -0.175  1.00  0.00     0.164 HD
BRANCH  10  12
ATOM     12  C   UNL     1       3.067   1.316   0.130  1.00  0.00     0.072 C 
ATOM     13  C   UNL     1       4.391   1.427   0.320  1.00  0.00     0.017 C 
BRANCH  13  14
ATOM     14  C   UNL     1       5.090   2.729   0.250  1.00  0.00     0.012 A 
ATOM     15  C   UNL     1       4.802   3.784   1.143  1.00  0.00     0.049 A 
ATOM     16  C   UNL     1       6.105   2.935  -0.708  1.00  0.00     0.049 A 
ATOM     17  Cl  UNL     1       3.626   3.634   2.410  1.00  0.00    -0.084 Cl
ATOM     18  C   UNL     1       5.485   5.001   1.063  1.00  0.00     0.021 A 
ATOM     19  C   UNL     1       6.789   4.151  -0.778  1.00  0.00     0.021 A 
ATOM     20  Cl  UNL     1       6.547   1.700  -1.843  1.00  0.00    -0.084 Cl
ATOM     21  C   UNL     1       6.476   5.182   0.105  1.00  0.00     0.003 A 
ENDBRANCH  13  14
ENDBRANCH  10  12
ENDBRANCH   7   8
ENDBRANCH   4   7
ENDBRANCH   2   3
ENDBRANCH   1   2
BRANCH   1  22
ATOM     22  C   UNL     1       2.848  -0.744  -4.804  1.00  0.00     0.118 C 
BRANCH  22  23
ATOM     23  N   UNL     1       1.755  -0.832  -5.766  1.00  0.00    -0.352 N 
ATOM     24  C   UNL     1       1.569  -0.167  -6.952  1.00  0.00     0.251 C 
ATOM     25  H   UNL     1       1.041  -1.466  -5.528  1.00  0.00     0.163 HD
ATOM     26  O   UNL     1       0.484  -0.252  -7.529  1.00  0.00    -0.269 OA
BRANCH  24  27
ATOM     27  C   UNL     1       2.650   0.657  -7.530  1.00  0.00     0.039 A 
ATOM     28  C   UNL     1       2.330   1.899  -8.087  1.00  0.00     0.014 A 
ATOM     29  C   UNL     1       3.971   0.203  -7.547  1.00  0.00     0.014 A 
ATOM     30  C   UNL     1       3.343   2.710  -8.605  1.00  0.00     0.010 A 
ATOM     31  C   UNL     1       4.988   1.044  -7.992  1.00  0.00     0.010 A 
ATOM     32  C   UNL     1       4.686   2.304  -8.530  1.00  0.00    -0.014 A 
BRANCH  32  33
ATOM     33  C   UNL     1       5.789   3.178  -9.008  1.00  0.00     0.031 A 
ATOM     34  C   UNL     1       6.682   2.720 -10.131  1.00  0.00     0.074 A 
ATOM     35  C   UNL     1       6.038   4.344  -8.378  1.00  0.00     0.049 A 
ATOM     36  N   UNL     1       7.756   3.289 -10.615  1.00  0.00    -0.248 NA
ATOM     37  C   UNL     1       6.338   1.443 -10.780  1.00  0.00     0.031 C 
ATOM     38  C   UNL     1       5.286   4.869  -7.236  1.00  0.00     0.029 A 
ATOM     39  N   UNL     1       7.017   5.285  -8.588  1.00  0.00    -0.354 N 
ATOM     40  C   UNL     1       8.228   2.433 -11.603  1.00  0.00     0.074 A 
ATOM     41  C   UNL     1       7.349   1.285 -11.623  1.00  0.00     0.031 C 
ATOM     42  C   UNL     1       5.834   6.031  -6.843  1.00  0.00     0.029 A 
ATOM     43  C   UNL     1       6.997   6.315  -7.676  1.00  0.00     0.049 A 
ATOM     44  H   UNL     1       7.671   5.227  -9.322  1.00  0.00     0.167 HD
ATOM     45  C   UNL     1       9.278   2.601 -12.442  1.00  0.00     0.034 A 
ATOM     46  C   UNL     1       7.835   7.359  -7.514  1.00  0.00     0.034 A 
ATOM     47  C   UNL     1      10.132   3.757 -12.442  1.00  0.00     0.049 A 
ATOM     48  C   UNL     1       8.991   7.521  -8.466  1.00  0.00     0.074 A 
ATOM     49  C   UNL     1      11.193   4.042 -13.284  1.00  0.00     0.029 A 
ATOM     50  N   UNL     1      10.025   4.820 -11.560  1.00  0.00    -0.354 N 
ATOM     51  N   UNL     1       9.345   6.761  -9.473  1.00  0.00    -0.248 NA
ATOM     52  C   UNL     1       9.842   8.706  -8.282  1.00  0.00     0.031 C 
ATOM     53  C   UNL     1      11.739   5.269 -12.899  1.00  0.00     0.029 A 
ATOM     54  C   UNL     1      10.997   5.765 -11.840  1.00  0.00     0.049 A 
ATOM     55  H   UNL     1       9.356   4.893 -10.841  1.00  0.00     0.167 HD
ATOM     56  C   UNL     1      10.426   7.399 -10.070  1.00  0.00     0.074 A 
ATOM     57  C   UNL     1      10.659   8.617  -9.323  1.00  0.00     0.031 C 
ATOM     58  C   UNL     1      11.170   7.006 -11.132  1.00  0.00     0.034 A 
BRANCH  45  59
ATOM     59  C   UNL     1       9.528   1.537 -13.480  1.00  0.00     0.023 A 
ATOM     60  C   UNL     1       8.639   1.412 -14.567  1.00  0.00     0.012 A 
ATOM     61  C   UNL     1      10.678   0.725 -13.431  1.00  0.00     0.148 A 
ATOM     62  C   UNL     1       8.874   0.477 -15.574  1.00  0.00     0.002 A 
ATOM     63  C   UNL     1      10.931  -0.172 -14.462  1.00  0.00     0.091 A 
ATOM     64  F   UNL     1      11.504   0.851 -12.382  1.00  0.00    -0.205 F 
ATOM     65  C   UNL     1      10.025  -0.304 -15.528  1.00  0.00     0.022 A 
BRANCH  63  66
ATOM     66  S   UNL     1      12.422  -1.169 -14.543  1.00  0.00     0.127 S 
ATOM     67  O   UNL     1      11.881  -2.521 -14.405  1.00  0.00    -0.237 OA
ATOM     68  O   UNL     1      12.931  -0.850 -15.877  1.00  0.00    -0.237 OA
ATOM     69  O   UNL     1      13.266  -0.726 -13.443  1.00  0.00    -0.744 OA
ENDBRANCH  63  66
ENDBRANCH  45  59
BRANCH  46  70
ATOM     70  C   UNL     1       7.609   8.350  -6.424  1.00  0.00     0.023 A 
ATOM     71  C   UNL     1       7.256   9.675  -6.744  1.00  0.00     0.012 A 
ATOM     72  C   UNL     1       7.769   7.992  -5.072  1.00  0.00     0.148 A 
ATOM     73  C   UNL     1       7.119  10.638  -5.742  1.00  0.00     0.002 A 
ATOM     74  C   UNL     1       7.577   8.942  -4.075  1.00  0.00     0.091 A 
ATOM     75  F   UNL     1       8.109   6.727  -4.785  1.00  0.00    -0.205 F 
ATOM     76  C   UNL     1       7.273  10.270  -4.408  1.00  0.00     0.022 A 
BRANCH  74  77
ATOM     77  S   UNL     1       7.649   8.527  -2.332  1.00  0.00     0.127 S 
ATOM     78  O   UNL     1       8.857   9.224  -1.901  1.00  0.00    -0.237 OA
ATOM     79  O   UNL     1       6.397   9.092  -1.828  1.00  0.00    -0.237 OA
ATOM     80  O   UNL     1       7.713   7.073  -2.275  1.00  0.00    -0.744 OA
ENDBRANCH  74  77
ENDBRANCH  46  70
BRANCH  58  81
ATOM     81  C   UNL     1      12.263   7.928 -11.604  1.00  0.00     0.023 A 
ATOM     82  C   UNL     1      13.439   8.082 -10.844  1.00  0.00     0.012 A 
ATOM     83  C   UNL     1      12.151   8.583 -12.848  1.00  0.00     0.148 A 
ATOM     84  C   UNL     1      14.473   8.899 -11.299  1.00  0.00     0.002 A 
ATOM     85  C   UNL     1      13.207   9.352 -13.318  1.00  0.00     0.091 A 
ATOM     86  F   UNL     1      11.016   8.436 -13.547  1.00  0.00    -0.205 F 
ATOM     87  C   UNL     1      14.363   9.523 -12.539  1.00  0.00     0.022 A 
BRANCH  85  88
ATOM     88  S   UNL     1      13.197  10.111 -14.946  1.00  0.00     0.127 S 
ATOM     89  O   UNL     1      13.096  11.531 -14.611  1.00  0.00    -0.237 OA
ATOM     90  O   UNL     1      14.494   9.702 -15.485  1.00  0.00    -0.237 OA
ATOM     91  O   UNL     1      12.047   9.554 -15.644  1.00  0.00    -0.744 OA
ENDBRANCH  85  88
ENDBRANCH  58  81
ENDBRANCH  32  33
ENDBRANCH  24  27
ENDBRANCH  22  23
ENDBRANCH   1  22
TORSDOF 16
