REMARK SMILES O=C(CCCCc1c[nH]c2ccccc12)NCCCNC(=O)c1ccc(-c2c3nc(c(-c4cccc(S(=O)(=O)[O-])c4F)c4ccc([nH]4)c(-c4cccc(S(=O)(=O)[O-])c4F)c4nc(c(-c5cccc(S(=O)(=O)[O-])c5F)c5ccc2[nH]5)C=C4)C=C3)cc1
REMARK SMILES IDX 17 1 16 2 1 3 2 4 3 6 4 7 5 8 6 9 7 10 8 11 15 12 9 13 10 14
REMARK SMILES IDX 14 15 11 17 13 18 12 19 18 20 19 21 20 22 21 23 22 25 23 26
REMARK SMILES IDX 24 27 85 28 25 29 84 30 26 31 27 32 28 33 78 34 29 35 83 36
REMARK SMILES IDX 77 37 79 38 30 39 82 40 76 41 75 42 31 44 63 45 43 46 62 47
REMARK SMILES IDX 44 48 47 49 61 50 80 51 45 52 46 53 60 55 81 56 48 57 32 58
REMARK SMILES IDX 33 59 41 60 34 61 36 62 42 63 35 64 37 65 38 66 39 67 40 68
REMARK SMILES IDX 64 69 65 70 73 71 66 72 68 73 74 74 67 75 69 76 70 77 71 78
REMARK SMILES IDX 72 79 49 80 50 81 58 82 51 83 53 84 59 85 52 86 54 87 55 88
REMARK SMILES IDX 56 89 57 90
REMARK H PARENT 16 5 9 16 20 24 79 43 47 54
REMARK Flexibility Score: inf
ROOT
ATOM      1  C   UNL     1       1.917   1.389   2.086  1.00  0.00     0.117 C 
ENDROOT
BRANCH   1   2
ATOM      2  N   UNL     1       2.544   0.554   1.083  1.00  0.00    -0.356 N 
ATOM      3  O   UNL     1       0.773   0.522  -0.383  1.00  0.00    -0.275 OA
ATOM      4  C   UNL     1       1.929   0.224  -0.101  1.00  0.00     0.219 C 
ATOM      5  H   UNL     1       3.449   0.208   1.257  1.00  0.00     0.163 HD
BRANCH   4   6
ATOM      6  C   UNL     1       2.831  -0.520  -1.063  1.00  0.00     0.100 C 
BRANCH   6   7
ATOM      7  C   UNL     1       3.738   0.432  -1.843  1.00  0.00     0.010 C 
BRANCH   7   8
ATOM      8  C   UNL     1       4.916   1.041  -1.063  1.00  0.00     0.005 C 
BRANCH   8   9
ATOM      9  C   UNL     1       5.906   0.033  -0.462  1.00  0.00     0.038 C 
BRANCH   9  10
ATOM     10  C   UNL     1       6.562  -0.827  -1.493  1.00  0.00    -0.023 A 
ATOM     11  C   UNL     1       7.409  -0.386  -2.492  1.00  0.00     0.087 A 
ATOM     12  C   UNL     1       6.432  -2.245  -1.654  1.00  0.00     0.003 A 
ATOM     13  N   UNL     1       7.757  -1.458  -3.265  1.00  0.00    -0.361 N 
ATOM     14  C   UNL     1       7.164  -2.603  -2.787  1.00  0.00     0.046 A 
ATOM     15  C   UNL     1       5.750  -3.261  -0.952  1.00  0.00     0.010 A 
ATOM     16  H   UNL     1       8.347  -1.417  -4.052  1.00  0.00     0.166 HD
ATOM     17  C   UNL     1       7.227  -3.916  -3.268  1.00  0.00     0.026 A 
ATOM     18  C   UNL     1       5.809  -4.581  -1.414  1.00  0.00     0.001 A 
ATOM     19  C   UNL     1       6.532  -4.900  -2.560  1.00  0.00     0.002 A 
ENDBRANCH   9  10
ENDBRANCH   8   9
ENDBRANCH   7   8
ENDBRANCH   6   7
ENDBRANCH   4   6
ENDBRANCH   1   2
BRANCH   1  20
ATOM     20  C   UNL     1       2.262   0.954   3.504  1.00  0.00     0.042 C 
BRANCH  20  21
ATOM     21  C   UNL     1       3.746   1.005   3.859  1.00  0.00     0.118 C 
BRANCH  21  22
ATOM     22  N   UNL     1       4.306   2.347   3.831  1.00  0.00    -0.352 N 
ATOM     23  C   UNL     1       5.081   2.994   4.764  1.00  0.00     0.251 C 
ATOM     24  H   UNL     1       4.100   2.870   3.023  1.00  0.00     0.163 HD
ATOM     25  O   UNL     1       5.351   4.183   4.596  1.00  0.00    -0.269 OA
BRANCH  23  26
ATOM     26  C   UNL     1       5.569   2.292   5.976  1.00  0.00     0.039 A 
ATOM     27  C   UNL     1       5.543   2.973   7.196  1.00  0.00     0.014 A 
ATOM     28  C   UNL     1       6.068   0.987   5.924  1.00  0.00     0.014 A 
ATOM     29  C   UNL     1       5.962   2.330   8.364  1.00  0.00     0.010 A 
ATOM     30  C   UNL     1       6.410   0.321   7.102  1.00  0.00     0.010 A 
ATOM     31  C   UNL     1       6.369   0.985   8.336  1.00  0.00    -0.014 A 
BRANCH  31  32
ATOM     32  C   UNL     1       6.724   0.275   9.596  1.00  0.00     0.031 A 
ATOM     33  C   UNL     1       8.110  -0.274   9.818  1.00  0.00     0.074 A 
ATOM     34  C   UNL     1       5.776   0.081  10.536  1.00  0.00     0.049 A 
ATOM     35  N   UNL     1       8.598  -0.877  10.872  1.00  0.00    -0.248 NA
ATOM     36  C   UNL     1       9.066  -0.154   8.706  1.00  0.00     0.031 C 
ATOM     37  C   UNL     1       4.370   0.473  10.410  1.00  0.00     0.029 A 
ATOM     38  N   UNL     1       5.845  -0.505  11.775  1.00  0.00    -0.354 N 
ATOM     39  C   UNL     1       9.902  -1.231  10.544  1.00  0.00     0.074 A 
ATOM     40  C   UNL     1      10.117  -0.810   9.177  1.00  0.00     0.031 C 
ATOM     41  C   UNL     1       3.716   0.138  11.534  1.00  0.00     0.029 A 
ATOM     42  C   UNL     1       4.646  -0.513  12.451  1.00  0.00     0.049 A 
ATOM     43  H   UNL     1       6.675  -0.883  12.147  1.00  0.00     0.167 HD
ATOM     44  C   UNL     1      10.846  -1.821  11.317  1.00  0.00     0.034 A 
ATOM     45  C   UNL     1       4.329  -0.985  13.673  1.00  0.00     0.034 A 
ATOM     46  C   UNL     1      10.643  -2.209  12.688  1.00  0.00     0.049 A 
ATOM     47  C   UNL     1       5.410  -1.582  14.532  1.00  0.00     0.074 A 
ATOM     48  C   UNL     1      11.563  -2.734  13.580  1.00  0.00     0.029 A 
ATOM     49  N   UNL     1       9.437  -2.126  13.366  1.00  0.00    -0.354 N 
ATOM     50  N   UNL     1       6.682  -1.747  14.263  1.00  0.00    -0.248 NA
ATOM     51  C   UNL     1       5.020  -2.015  15.881  1.00  0.00     0.031 C 
ATOM     52  C   UNL     1      10.906  -2.993  14.788  1.00  0.00     0.029 A 
ATOM     53  C   UNL     1       9.585  -2.597  14.661  1.00  0.00     0.049 A 
ATOM     54  H   UNL     1       8.597  -1.783  12.983  1.00  0.00     0.167 HD
ATOM     55  C   UNL     1       7.251  -2.269  15.419  1.00  0.00     0.074 A 
ATOM     56  C   UNL     1       6.189  -2.364  16.399  1.00  0.00     0.031 C 
ATOM     57  C   UNL     1       8.534  -2.648  15.645  1.00  0.00     0.034 A 
BRANCH  44  58
ATOM     58  C   UNL     1      12.211  -2.038  10.713  1.00  0.00     0.023 A 
ATOM     59  C   UNL     1      13.043  -0.927  10.457  1.00  0.00     0.012 A 
ATOM     60  C   UNL     1      12.698  -3.335  10.459  1.00  0.00     0.148 A 
ATOM     61  C   UNL     1      14.320  -1.100   9.924  1.00  0.00     0.002 A 
ATOM     62  C   UNL     1      13.990  -3.502   9.972  1.00  0.00     0.091 A 
ATOM     63  F   UNL     1      11.890  -4.379  10.690  1.00  0.00    -0.205 F 
ATOM     64  C   UNL     1      14.796  -2.387   9.692  1.00  0.00     0.022 A 
BRANCH  62  65
ATOM     65  S   UNL     1      14.730  -5.120   9.717  1.00  0.00     0.127 S 
ATOM     66  O   UNL     1      14.799  -5.186   8.258  1.00  0.00    -0.237 OA
ATOM     67  O   UNL     1      16.025  -4.973  10.382  1.00  0.00    -0.237 OA
ATOM     68  O   UNL     1      13.830  -6.077  10.343  1.00  0.00    -0.744 OA
ENDBRANCH  62  65
ENDBRANCH  44  58
BRANCH  45  69
ATOM     69  C   UNL     1       2.938  -0.839  14.189  1.00  0.00     0.023 A 
ATOM     70  C   UNL     1       2.679   0.056  15.246  1.00  0.00     0.012 A 
ATOM     71  C   UNL     1       1.871  -1.566  13.628  1.00  0.00     0.148 A 
ATOM     72  C   UNL     1       1.390   0.197  15.759  1.00  0.00     0.002 A 
ATOM     73  C   UNL     1       0.579  -1.377  14.105  1.00  0.00     0.091 A 
ATOM     74  F   UNL     1       2.139  -2.420  12.631  1.00  0.00    -0.205 F 
ATOM     75  C   UNL     1       0.339  -0.511  15.183  1.00  0.00     0.022 A 
BRANCH  73  76
ATOM     76  S   UNL     1      -0.851  -2.143  13.335  1.00  0.00     0.127 S 
ATOM     77  O   UNL     1      -1.250  -3.117  14.349  1.00  0.00    -0.237 OA
ATOM     78  O   UNL     1      -1.758  -1.004  13.185  1.00  0.00    -0.237 OA
ATOM     79  O   UNL     1      -0.371  -2.698  12.079  1.00  0.00    -0.744 OA
ENDBRANCH  73  76
ENDBRANCH  45  69
BRANCH  57  80
ATOM     80  C   UNL     1       8.873  -3.169  17.019  1.00  0.00     0.023 A 
ATOM     81  C   UNL     1       8.379  -4.420  17.441  1.00  0.00     0.012 A 
ATOM     82  C   UNL     1       9.713  -2.434  17.879  1.00  0.00     0.148 A 
ATOM     83  C   UNL     1       8.673  -4.906  18.715  1.00  0.00     0.002 A 
ATOM     84  C   UNL     1      10.046  -2.950  19.126  1.00  0.00     0.091 A 
ATOM     85  F   UNL     1      10.159  -1.237  17.471  1.00  0.00    -0.205 F 
ATOM     86  C   UNL     1       9.514  -4.177  19.552  1.00  0.00     0.022 A 
BRANCH  84  87
ATOM     87  S   UNL     1      11.199  -2.124  20.228  1.00  0.00     0.127 S 
ATOM     88  O   UNL     1      10.299  -1.552  21.228  1.00  0.00    -0.237 OA
ATOM     89  O   UNL     1      12.019  -3.236  20.711  1.00  0.00    -0.237 OA
ATOM     90  O   UNL     1      11.917  -1.162  19.403  1.00  0.00    -0.744 OA
ENDBRANCH  84  87
ENDBRANCH  57  80
ENDBRANCH  31  32
ENDBRANCH  23  26
ENDBRANCH  21  22
ENDBRANCH  20  21
ENDBRANCH   1  20
TORSDOF 17
