REMARK SMILES O=C(CCNC(=O)C1CCCC1)NCCCNC(=O)c1ccc(-c2c3nc(c(-c4cccc(S(=O)(=O)[O-])c4F)c4ccc([nH]4)c(-c4cccc(S(=O)(=O)[O-])c4F)c4nc(c(-c5cccc(S(=O)(=O)[O-])c5F)c5ccc2[nH]5)C=C4)C=C3)cc1
REMARK SMILES IDX 15 1 14 2 13 3 1 4 2 5 3 7 4 8 5 9 6 10 7 12 8 13 9 14 12 15
REMARK SMILES IDX 10 16 11 17 16 18 17 19 18 20 19 22 20 23 21 24 82 25 22 26
REMARK SMILES IDX 81 27 23 28 24 29 25 30 75 31 26 32 80 33 74 34 76 35 27 36
REMARK SMILES IDX 79 37 73 38 72 39 28 41 60 42 40 43 59 44 41 45 44 46 58 47
REMARK SMILES IDX 77 48 42 49 43 50 57 52 78 53 45 54 29 55 30 56 38 57 31 58
REMARK SMILES IDX 33 59 39 60 32 61 34 62 35 63 36 64 37 65 61 66 62 67 70 68
REMARK SMILES IDX 63 69 65 70 71 71 64 72 66 73 67 74 68 75 69 76 46 77 47 78
REMARK SMILES IDX 55 79 48 80 50 81 56 82 49 83 51 84 52 85 53 86 54 87
REMARK H PARENT 13 6 5 11 17 21 76 40 44 51
REMARK Flexibility Score: inf
ROOT
ATOM      1  C   UNL     1       2.388  -3.250   1.556  1.00  0.00     0.042 C 
ENDROOT
BRANCH   1   2
ATOM      2  C   UNL     1       2.029  -1.790   1.793  1.00  0.00     0.117 C 
BRANCH   2   3
ATOM      3  N   UNL     1       2.645  -0.900   0.830  1.00  0.00    -0.356 N 
ATOM      4  O   UNL     1       0.750   0.311   0.329  1.00  0.00    -0.275 OA
ATOM      5  C   UNL     1       1.951   0.108   0.200  1.00  0.00     0.221 C 
ATOM      6  H   UNL     1       3.599  -1.021   0.617  1.00  0.00     0.163 HD
BRANCH   5   7
ATOM      7  C   UNL     1       2.829   1.013  -0.632  1.00  0.00     0.121 C 
BRANCH   7   8
ATOM      8  C   UNL     1       3.603   1.961   0.280  1.00  0.00     0.125 C 
BRANCH   8   9
ATOM      9  N   UNL     1       4.775   1.314   0.858  1.00  0.00    -0.355 N 
ATOM     10  C   UNL     1       6.090   1.344   0.517  1.00  0.00     0.223 C 
ATOM     11  H   UNL     1       4.577   0.750   1.641  1.00  0.00     0.163 HD
ATOM     12  O   UNL     1       6.837   0.560   1.109  1.00  0.00    -0.275 OA
BRANCH  10  13
ATOM     13  C   UNL     1       6.659   2.337  -0.485  1.00  0.00     0.078 C 
ATOM     14  C   UNL     1       6.072   2.308  -1.888  1.00  0.00     0.013 C 
ATOM     15  C   UNL     1       6.521   3.776   0.003  1.00  0.00     0.013 C 
ATOM     16  C   UNL     1       6.231   3.721  -2.432  1.00  0.00     0.001 C 
ATOM     17  C   UNL     1       6.495   4.641  -1.247  1.00  0.00     0.001 C 
ENDBRANCH  10  13
ENDBRANCH   8   9
ENDBRANCH   7   8
ENDBRANCH   5   7
ENDBRANCH   2   3
ENDBRANCH   1   2
BRANCH   1  18
ATOM     18  C   UNL     1       3.877  -3.571   1.661  1.00  0.00     0.118 C 
BRANCH  18  19
ATOM     19  N   UNL     1       4.428  -3.341   2.989  1.00  0.00    -0.352 N 
ATOM     20  C   UNL     1       5.080  -4.207   3.838  1.00  0.00     0.251 C 
ATOM     21  H   UNL     1       4.318  -2.425   3.333  1.00  0.00     0.163 HD
ATOM     22  O   UNL     1       5.347  -3.849   4.979  1.00  0.00    -0.269 OA
BRANCH  20  23
ATOM     23  C   UNL     1       5.425  -5.577   3.391  1.00  0.00     0.039 A 
ATOM     24  C   UNL     1       5.161  -6.647   4.251  1.00  0.00     0.014 A 
ATOM     25  C   UNL     1       5.995  -5.812   2.138  1.00  0.00     0.014 A 
ATOM     26  C   UNL     1       5.383  -7.957   3.818  1.00  0.00     0.010 A 
ATOM     27  C   UNL     1       6.147  -7.121   1.681  1.00  0.00     0.010 A 
ATOM     28  C   UNL     1       5.830  -8.207   2.510  1.00  0.00    -0.014 A 
BRANCH  28  29
ATOM     29  C   UNL     1       5.916  -9.593   1.976  1.00  0.00     0.031 A 
ATOM     30  C   UNL     1       7.234 -10.165   1.529  1.00  0.00     0.074 A 
ATOM     31  C   UNL     1       4.784 -10.303   1.800  1.00  0.00     0.049 A 
ATOM     32  N   UNL     1       7.482 -11.321   0.969  1.00  0.00    -0.248 NA
ATOM     33  C   UNL     1       8.425  -9.320   1.714  1.00  0.00     0.031 C 
ATOM     34  C   UNL     1       3.434  -9.836   2.124  1.00  0.00     0.029 A 
ATOM     35  N   UNL     1       4.581 -11.556   1.274  1.00  0.00    -0.354 N 
ATOM     36  C   UNL     1       8.846 -11.332   0.704  1.00  0.00     0.074 A 
ATOM     37  C   UNL     1       9.369 -10.055   1.142  1.00  0.00     0.031 C 
ATOM     38  C   UNL     1       2.546 -10.786   1.790  1.00  0.00     0.029 A 
ATOM     39  C   UNL     1       3.255 -11.912   1.192  1.00  0.00     0.049 A 
ATOM     40  H   UNL     1       5.316 -12.144   0.983  1.00  0.00     0.167 HD
ATOM     41  C   UNL     1       9.600 -12.322   0.168  1.00  0.00     0.034 A 
ATOM     42  C   UNL     1       2.669 -13.011   0.676  1.00  0.00     0.034 A 
ATOM     43  C   UNL     1       9.084 -13.602  -0.239  1.00  0.00     0.049 A 
ATOM     44  C   UNL     1       3.531 -14.099   0.097  1.00  0.00     0.074 A 
ATOM     45  C   UNL     1       9.784 -14.700  -0.709  1.00  0.00     0.029 A 
ATOM     46  N   UNL     1       7.743 -13.954  -0.243  1.00  0.00    -0.354 N 
ATOM     47  N   UNL     1       4.838 -14.157   0.006  1.00  0.00    -0.248 NA
ATOM     48  C   UNL     1       2.841 -15.289  -0.422  1.00  0.00     0.031 C 
ATOM     49  C   UNL     1       8.863 -15.703  -1.030  1.00  0.00     0.029 A 
ATOM     50  C   UNL     1       7.592 -15.243  -0.727  1.00  0.00     0.049 A 
ATOM     51  H   UNL     1       7.007 -13.373   0.055  1.00  0.00     0.167 HD
ATOM     52  C   UNL     1       5.127 -15.396  -0.553  1.00  0.00     0.074 A 
ATOM     53  C   UNL     1       3.860 -16.069  -0.754  1.00  0.00     0.031 C 
ATOM     54  C   UNL     1       6.332 -15.923  -0.885  1.00  0.00     0.034 A 
BRANCH  41  55
ATOM     55  C   UNL     1      11.081 -12.078   0.027  1.00  0.00     0.023 A 
ATOM     56  C   UNL     1      11.894 -12.039   1.178  1.00  0.00     0.012 A 
ATOM     57  C   UNL     1      11.678 -11.954  -1.244  1.00  0.00     0.148 A 
ATOM     58  C   UNL     1      13.270 -11.846   1.071  1.00  0.00     0.002 A 
ATOM     59  C   UNL     1      13.056 -11.809  -1.345  1.00  0.00     0.091 A 
ATOM     60  F   UNL     1      10.887 -11.976  -2.326  1.00  0.00    -0.205 F 
ATOM     61  C   UNL     1      13.852 -11.742  -0.190  1.00  0.00     0.022 A 
BRANCH  59  62
ATOM     62  S   UNL     1      13.912 -11.746  -2.923  1.00  0.00     0.127 S 
ATOM     63  O   UNL     1      14.352 -10.352  -2.966  1.00  0.00    -0.237 OA
ATOM     64  O   UNL     1      14.988 -12.719  -2.728  1.00  0.00    -0.237 OA
ATOM     65  O   UNL     1      12.929 -12.122  -3.930  1.00  0.00    -0.744 OA
ENDBRANCH  59  62
ENDBRANCH  41  55
BRANCH  42  66
ATOM     66  C   UNL     1       1.186 -13.156   0.722  1.00  0.00     0.023 A 
ATOM     67  C   UNL     1       0.611 -14.125   1.567  1.00  0.00     0.012 A 
ATOM     68  C   UNL     1       0.345 -12.330  -0.048  1.00  0.00     0.148 A 
ATOM     69  C   UNL     1      -0.774 -14.290   1.621  1.00  0.00     0.002 A 
ATOM     70  C   UNL     1      -1.035 -12.461   0.053  1.00  0.00     0.091 A 
ATOM     71  F   UNL     1       0.913 -11.422  -0.855  1.00  0.00    -0.205 F 
ATOM     72  C   UNL     1      -1.596 -13.452   0.872  1.00  0.00     0.022 A 
BRANCH  70  73
ATOM     73  S   UNL     1      -2.172 -11.341  -0.771  1.00  0.00     0.127 S 
ATOM     74  O   UNL     1      -2.772 -12.211  -1.779  1.00  0.00    -0.237 OA
ATOM     75  O   UNL     1      -3.064 -10.959   0.324  1.00  0.00    -0.237 OA
ATOM     76  O   UNL     1      -1.351 -10.252  -1.284  1.00  0.00    -0.744 OA
ENDBRANCH  70  73
ENDBRANCH  42  66
BRANCH  54  77
ATOM     77  C   UNL     1       6.349 -17.308  -1.480  1.00  0.00     0.023 A 
ATOM     78  C   UNL     1       5.879 -17.513  -2.793  1.00  0.00     0.012 A 
ATOM     79  C   UNL     1       6.891 -18.393  -0.764  1.00  0.00     0.148 A 
ATOM     80  C   UNL     1       5.916 -18.782  -3.370  1.00  0.00     0.002 A 
ATOM     81  C   UNL     1       6.973 -19.644  -1.364  1.00  0.00     0.091 A 
ATOM     82  F   UNL     1       7.318 -18.183   0.490  1.00  0.00    -0.205 F 
ATOM     83  C   UNL     1       6.473 -19.843  -2.661  1.00  0.00     0.022 A 
BRANCH  81  84
ATOM     84  S   UNL     1       7.759 -21.049  -0.567  1.00  0.00     0.127 S 
ATOM     85  O   UNL     1       6.611 -21.909  -0.279  1.00  0.00    -0.237 OA
ATOM     86  O   UNL     1       8.644 -21.547  -1.620  1.00  0.00    -0.237 OA
ATOM     87  O   UNL     1       8.447 -20.517   0.601  1.00  0.00    -0.744 OA
ENDBRANCH  81  84
ENDBRANCH  54  77
ENDBRANCH  28  29
ENDBRANCH  20  23
ENDBRANCH  18  19
ENDBRANCH   1  18
TORSDOF 16
