REMARK SMILES O=C(NCCCNC(=O)c1ccc2nc(-c3c[nH]nc3-c3ccc(F)cc3F)[nH]c2c1)c1ccc(-c2c3nc(c(-c4cccc(S(=O)(=O)[O-])c4F)c4ccc([nH]4)c(-c4cccc(S(=O)(=O)[O-])c4F)c4nc(c(-c5cccc(S(=O)(=O)[O-])c5F)c5ccc2[nH]5)C=C4)C=C3)cc1
REMARK SMILES IDX 4 1 3 2 1 3 2 4 32 6 33 7 94 8 34 9 93 10 35 11 36 12 37 13
REMARK SMILES IDX 87 14 38 15 92 16 86 17 88 18 39 19 91 20 85 21 84 22 40 24
REMARK SMILES IDX 72 25 52 26 71 27 53 28 56 29 70 30 89 31 54 32 55 33 69 35
REMARK SMILES IDX 90 36 57 37 41 38 42 39 50 40 43 41 45 42 51 43 44 44 46 45
REMARK SMILES IDX 47 46 48 47 49 48 73 49 74 50 82 51 75 52 77 53 83 54 76 55
REMARK SMILES IDX 78 56 79 57 80 58 81 59 58 60 59 61 67 62 60 63 62 64 68 65
REMARK SMILES IDX 61 66 63 67 64 68 65 69 66 70 5 71 6 72 7 73 8 74 9 76 10 77
REMARK SMILES IDX 11 78 31 79 12 80 30 81 13 82 29 83 14 84 15 85 16 87 17 88
REMARK SMILES IDX 20 89 18 90 19 91 21 93 22 94 27 95 23 96 26 97 28 98 24 99
REMARK SMILES IDX 25 100
REMARK H PARENT 3 5 88 23 56 34 7 75 29 86 18 92
REMARK Flexibility Score: inf
ROOT
ATOM      1  C   UNL     1       4.627  -1.369   0.314  1.00  0.00     0.118 C 
ENDROOT
BRANCH   1   2
ATOM      2  N   UNL     1       3.193  -1.196   0.120  1.00  0.00    -0.352 N 
ATOM      3  O   UNL     1       1.231  -0.112  -0.020  1.00  0.00    -0.269 OA
ATOM      4  C   UNL     1       2.456  -0.055  -0.089  1.00  0.00     0.251 C 
ATOM      5  H   UNL     1       2.669  -2.029   0.142  1.00  0.00     0.163 HD
BRANCH   4   6
ATOM      6  C   UNL     1       3.131   1.231  -0.368  1.00  0.00     0.039 A 
ATOM      7  C   UNL     1       4.239   1.288  -1.216  1.00  0.00     0.014 A 
ATOM      8  C   UNL     1       2.635   2.404   0.208  1.00  0.00     0.014 A 
ATOM      9  C   UNL     1       4.951   2.473  -1.347  1.00  0.00     0.010 A 
ATOM     10  C   UNL     1       3.292   3.618  -0.012  1.00  0.00     0.010 A 
ATOM     11  C   UNL     1       4.479   3.657  -0.760  1.00  0.00    -0.014 A 
BRANCH  11  12
ATOM     12  C   UNL     1       5.203   4.930  -1.004  1.00  0.00     0.031 A 
ATOM     13  C   UNL     1       5.814   5.711   0.127  1.00  0.00     0.074 A 
ATOM     14  C   UNL     1       5.304   5.383  -2.270  1.00  0.00     0.049 A 
ATOM     15  N   UNL     1       6.483   6.835   0.081  1.00  0.00    -0.248 NA
ATOM     16  C   UNL     1       5.650   5.169   1.485  1.00  0.00     0.031 C 
ATOM     17  C   UNL     1       4.716   4.732  -3.445  1.00  0.00     0.029 A 
ATOM     18  N   UNL     1       5.927   6.490  -2.783  1.00  0.00    -0.354 N 
ATOM     19  C   UNL     1       6.781   7.159   1.399  1.00  0.00     0.074 A 
ATOM     20  C   UNL     1       6.214   6.114   2.225  1.00  0.00     0.031 C 
ATOM     21  C   UNL     1       5.024   5.438  -4.541  1.00  0.00     0.029 A 
ATOM     22  C   UNL     1       5.779   6.621  -4.144  1.00  0.00     0.049 A 
ATOM     23  H   UNL     1       6.432   7.131  -2.231  1.00  0.00     0.167 HD
ATOM     24  C   UNL     1       7.475   8.221   1.875  1.00  0.00     0.034 A 
ATOM     25  C   UNL     1       6.183   7.594  -4.982  1.00  0.00     0.034 A 
ATOM     26  C   UNL     1       8.063   9.239   1.043  1.00  0.00     0.049 A 
ATOM     27  C   UNL     1       6.963   8.750  -4.428  1.00  0.00     0.074 A 
ATOM     28  C   UNL     1       8.840  10.318   1.426  1.00  0.00     0.029 A 
ATOM     29  N   UNL     1       7.930   9.312  -0.335  1.00  0.00    -0.354 N 
ATOM     30  N   UNL     1       7.343   8.970  -3.193  1.00  0.00    -0.248 NA
ATOM     31  C   UNL     1       7.393   9.778  -5.385  1.00  0.00     0.031 C 
ATOM     32  C   UNL     1       9.155  11.059   0.281  1.00  0.00     0.029 A 
ATOM     33  C   UNL     1       8.600  10.425  -0.818  1.00  0.00     0.049 A 
ATOM     34  H   UNL     1       7.433   8.669  -0.889  1.00  0.00     0.167 HD
ATOM     35  C   UNL     1       8.081  10.146  -3.227  1.00  0.00     0.074 A 
ATOM     36  C   UNL     1       8.114  10.578  -4.610  1.00  0.00     0.031 C 
ATOM     37  C   UNL     1       8.665  10.816  -2.203  1.00  0.00     0.034 A 
BRANCH  24  38
ATOM     38  C   UNL     1       7.668   8.325   3.366  1.00  0.00     0.023 A 
ATOM     39  C   UNL     1       8.558   7.448   4.019  1.00  0.00     0.012 A 
ATOM     40  C   UNL     1       7.021   9.331   4.112  1.00  0.00     0.148 A 
ATOM     41  C   UNL     1       8.777   7.549   5.393  1.00  0.00     0.002 A 
ATOM     42  C   UNL     1       7.277   9.453   5.473  1.00  0.00     0.091 A 
ATOM     43  F   UNL     1       6.163  10.144   3.480  1.00  0.00    -0.205 F 
ATOM     44  C   UNL     1       8.146   8.556   6.117  1.00  0.00     0.022 A 
BRANCH  42  45
ATOM     45  S   UNL     1       6.573  10.766   6.478  1.00  0.00     0.127 S 
ATOM     46  O   UNL     1       5.585  10.034   7.269  1.00  0.00    -0.237 OA
ATOM     47  O   UNL     1       7.735  11.233   7.234  1.00  0.00    -0.237 OA
ATOM     48  O   UNL     1       6.030  11.739   5.540  1.00  0.00    -0.744 OA
ENDBRANCH  42  45
ENDBRANCH  24  38
BRANCH  25  49
ATOM     49  C   UNL     1       5.884   7.484  -6.436  1.00  0.00     0.023 A 
ATOM     50  C   UNL     1       6.932   7.241  -7.344  1.00  0.00     0.012 A 
ATOM     51  C   UNL     1       4.562   7.561  -6.916  1.00  0.00     0.148 A 
ATOM     52  C   UNL     1       6.671   7.101  -8.708  1.00  0.00     0.002 A 
ATOM     53  C   UNL     1       4.302   7.362  -8.266  1.00  0.00     0.091 A 
ATOM     54  F   UNL     1       3.580   7.805  -6.035  1.00  0.00    -0.205 F 
ATOM     55  C   UNL     1       5.357   7.149  -9.166  1.00  0.00     0.022 A 
BRANCH  53  56
ATOM     56  S   UNL     1       2.632   7.263  -8.919  1.00  0.00     0.127 S 
ATOM     57  O   UNL     1       2.533   8.508  -9.675  1.00  0.00    -0.237 OA
ATOM     58  O   UNL     1       2.698   6.049  -9.734  1.00  0.00    -0.237 OA
ATOM     59  O   UNL     1       1.762   7.156  -7.756  1.00  0.00    -0.744 OA
ENDBRANCH  53  56
ENDBRANCH  25  49
BRANCH  37  60
ATOM     60  C   UNL     1       9.423  12.073  -2.540  1.00  0.00     0.023 A 
ATOM     61  C   UNL     1       8.721  13.241  -2.900  1.00  0.00     0.012 A 
ATOM     62  C   UNL     1      10.827  12.113  -2.437  1.00  0.00     0.148 A 
ATOM     63  C   UNL     1       9.408  14.421  -3.182  1.00  0.00     0.002 A 
ATOM     64  C   UNL     1      11.501  13.305  -2.671  1.00  0.00     0.091 A 
ATOM     65  F   UNL     1      11.477  10.986  -2.114  1.00  0.00    -0.205 F 
ATOM     66  C   UNL     1      10.794  14.456  -3.057  1.00  0.00     0.022 A 
BRANCH  64  67
ATOM     67  S   UNL     1      13.275  13.468  -2.441  1.00  0.00     0.127 S 
ATOM     68  O   UNL     1      13.749  13.549  -3.821  1.00  0.00    -0.237 OA
ATOM     69  O   UNL     1      13.377  14.717  -1.686  1.00  0.00    -0.237 OA
ATOM     70  O   UNL     1      13.694  12.283  -1.704  1.00  0.00    -0.744 OA
ENDBRANCH  64  67
ENDBRANCH  37  60
ENDBRANCH  11  12
ENDBRANCH   4   6
ENDBRANCH   1   2
BRANCH   1  71
ATOM     71  C   UNL     1       4.978  -1.809   1.729  1.00  0.00     0.042 C 
BRANCH  71  72
ATOM     72  C   UNL     1       4.402  -3.165   2.108  1.00  0.00     0.118 C 
BRANCH  72  73
ATOM     73  N   UNL     1       4.917  -4.230   1.259  1.00  0.00    -0.352 N 
ATOM     74  C   UNL     1       5.827  -5.207   1.561  1.00  0.00     0.251 C 
ATOM     75  H   UNL     1       4.563  -4.250   0.340  1.00  0.00     0.163 HD
ATOM     76  O   UNL     1       6.327  -5.898   0.677  1.00  0.00    -0.269 OA
BRANCH  74  77
ATOM     77  C   UNL     1       6.207  -5.435   2.966  1.00  0.00     0.042 A 
ATOM     78  C   UNL     1       5.213  -5.712   3.915  1.00  0.00     0.016 A 
ATOM     79  C   UNL     1       7.570  -5.408   3.300  1.00  0.00     0.042 A 
ATOM     80  C   UNL     1       5.555  -5.960   5.246  1.00  0.00     0.031 A 
ATOM     81  C   UNL     1       7.875  -5.644   4.641  1.00  0.00     0.067 A 
ATOM     82  C   UNL     1       6.911  -5.950   5.596  1.00  0.00     0.089 A 
ATOM     83  N   UNL     1       9.055  -5.650   5.342  1.00  0.00    -0.338 N 
ATOM     84  N   UNL     1       7.492  -6.243   6.795  1.00  0.00    -0.228 NA
ATOM     85  C   UNL     1       8.783  -6.063   6.620  1.00  0.00     0.142 A 
ATOM     86  H   UNL     1       9.940  -5.402   4.989  1.00  0.00     0.168 HD
BRANCH  85  87
ATOM     87  C   UNL     1       9.786  -6.332   7.673  1.00  0.00     0.063 A 
ATOM     88  C   UNL     1      11.015  -5.739   7.816  1.00  0.00     0.117 A 
ATOM     89  C   UNL     1       9.678  -7.271   8.737  1.00  0.00     0.106 A 
ATOM     90  N   UNL     1      11.527  -6.256   8.971  1.00  0.00    -0.284 N 
ATOM     91  N   UNL     1      10.773  -7.226   9.515  1.00  0.00    -0.175 NA
ATOM     92  H   UNL     1      12.372  -5.947   9.370  1.00  0.00     0.189 HD
BRANCH  89  93
ATOM     93  C   UNL     1       8.644  -8.283   8.920  1.00  0.00     0.039 A 
ATOM     94  C   UNL     1       8.390  -9.200   7.883  1.00  0.00     0.016 A 
ATOM     95  C   UNL     1       7.880  -8.354  10.086  1.00  0.00     0.135 A 
ATOM     96  C   UNL     1       7.382 -10.156   8.014  1.00  0.00     0.040 A 
ATOM     97  C   UNL     1       6.876  -9.311  10.224  1.00  0.00     0.079 A 
ATOM     98  F   UNL     1       8.077  -7.491  11.094  1.00  0.00    -0.206 F 
ATOM     99  C   UNL     1       6.636 -10.200   9.184  1.00  0.00     0.126 A 
ATOM    100  F   UNL     1       5.668 -11.118   9.310  1.00  0.00    -0.207 F 
ENDBRANCH  89  93
ENDBRANCH  85  87
ENDBRANCH  74  77
ENDBRANCH  72  73
ENDBRANCH  71  72
ENDBRANCH   1  71
TORSDOF 15
