REMARK SMILES O=C(C[C@@H]1C[N@@H+]([C@H]2CCCc3sccc32)CCO1)NCCCNC(=O)c1ccc(-c2c3nc(c(-c4cccc(S(=O)(=O)[O-])c4F)c4ccc([nH]4)c(-c4cccc(S(=O)(=O)[O-])c4F)c4nc(c(-c5cccc(S(=O)(=O)[O-])c5F)c5ccc2[nH]5)C=C4)C=C3)cc1
REMARK SMILES IDX 21 1 20 2 19 3 1 4 2 5 3 7 4 8 5 9 18 10 6 11 17 12 16 13
REMARK SMILES IDX 7 15 8 16 15 17 9 18 11 19 14 20 10 21 12 22 13 23 22 24
REMARK SMILES IDX 23 25 24 26 25 28 26 29 27 30 88 31 28 32 87 33 29 34 30 35
REMARK SMILES IDX 31 36 81 37 32 38 86 39 80 40 82 41 33 42 85 43 79 44 78 45
REMARK SMILES IDX 34 47 66 48 46 49 65 50 47 51 50 52 64 53 83 54 48 55 49 56
REMARK SMILES IDX 63 58 84 59 51 60 35 61 36 62 44 63 37 64 39 65 45 66 38 67
REMARK SMILES IDX 40 68 41 69 42 70 43 71 67 72 68 73 76 74 69 75 71 76 77 77
REMARK SMILES IDX 70 78 72 79 73 80 74 81 75 82 52 83 53 84 61 85 54 86 56 87
REMARK SMILES IDX 62 88 55 89 57 90 58 91 59 92 60 93
REMARK H PARENT 19 6 6 14 23 27 82 46 50 57
REMARK Flexibility Score: inf
ROOT
ATOM      1  C   UNL     1       2.729   5.005   7.191  1.00  0.00     0.042 C 
ENDROOT
BRANCH   1   2
ATOM      2  C   UNL     1       4.189   4.589   7.083  1.00  0.00     0.117 C 
BRANCH   2   3
ATOM      3  N   UNL     1       4.751   4.913   5.788  1.00  0.00    -0.356 N 
ATOM      4  O   UNL     1       6.778   5.687   6.557  1.00  0.00    -0.275 OA
ATOM      5  C   UNL     1       6.030   5.402   5.629  1.00  0.00     0.222 C 
ATOM      6  H   UNL     1       4.196   4.779   4.986  1.00  0.00     0.163 HD
BRANCH   5   7
ATOM      7  C   UNL     1       6.438   5.514   4.178  1.00  0.00     0.138 C 
BRANCH   7   8
ATOM      8  C   UNL     1       7.026   4.220   3.607  1.00  0.00     0.182 C 
ATOM      9  C   UNL     1       6.374   2.910   4.115  1.00  0.00     0.295 C 
ATOM     10  O   UNL     1       8.438   4.184   3.865  1.00  0.00    -0.366 OA
ATOM     11  N   UNL     1       6.945   1.681   3.540  1.00  0.00    -0.325 N 
ATOM     12  C   UNL     1       9.035   3.095   3.154  1.00  0.00     0.222 C 
ATOM     13  C   UNL     1       8.411   1.734   3.524  1.00  0.00     0.291 C 
ATOM     14  H   UNL     1       6.776   0.898   4.171  1.00  0.00     0.348 HD
BRANCH  11  15
ATOM     15  C   UNL     1       6.201   1.116   2.410  1.00  0.00     0.216 C 
ATOM     16  C   UNL     1       6.254   1.846   1.048  1.00  0.00     0.071 C 
ATOM     17  C   UNL     1       6.562  -0.345   2.226  1.00  0.00     0.023 A 
ATOM     18  C   UNL     1       7.495   1.515   0.211  1.00  0.00     0.012 C 
ATOM     19  C   UNL     1       7.218  -0.811   1.099  1.00  0.00     0.014 A 
ATOM     20  C   UNL     1       6.226  -1.425   3.105  1.00  0.00     0.022 A 
ATOM     21  C   UNL     1       7.632   0.015  -0.078  1.00  0.00     0.047 C 
ATOM     22  S   UNL     1       7.455  -2.497   1.122  1.00  0.00    -0.148 S 
ATOM     23  C   UNL     1       6.641  -2.645   2.618  1.00  0.00     0.065 A 
ENDBRANCH  11  15
ENDBRANCH   7   8
ENDBRANCH   5   7
ENDBRANCH   2   3
ENDBRANCH   1   2
BRANCH   1  24
ATOM     24  C   UNL     1       1.798   4.334   6.186  1.00  0.00     0.118 C 
BRANCH  24  25
ATOM     25  N   UNL     1       1.650   2.900   6.395  1.00  0.00    -0.352 N 
ATOM     26  C   UNL     1       0.513   2.171   6.661  1.00  0.00     0.251 C 
ATOM     27  H   UNL     1       2.483   2.377   6.337  1.00  0.00     0.163 HD
ATOM     28  O   UNL     1       0.599   0.979   6.938  1.00  0.00    -0.269 OA
BRANCH  26  29
ATOM     29  C   UNL     1      -0.808   2.837   6.648  1.00  0.00     0.039 A 
ATOM     30  C   UNL     1      -1.664   2.658   7.737  1.00  0.00     0.014 A 
ATOM     31  C   UNL     1      -1.183   3.664   5.586  1.00  0.00     0.014 A 
ATOM     32  C   UNL     1      -2.858   3.382   7.803  1.00  0.00     0.010 A 
ATOM     33  C   UNL     1      -2.333   4.443   5.692  1.00  0.00     0.010 A 
ATOM     34  C   UNL     1      -3.177   4.319   6.807  1.00  0.00    -0.014 A 
BRANCH  34  35
ATOM     35  C   UNL     1      -4.359   5.214   6.936  1.00  0.00     0.031 A 
ATOM     36  C   UNL     1      -5.466   5.171   5.919  1.00  0.00     0.074 A 
ATOM     37  C   UNL     1      -4.385   6.139   7.918  1.00  0.00     0.049 A 
ATOM     38  N   UNL     1      -6.530   5.926   5.827  1.00  0.00    -0.248 NA
ATOM     39  C   UNL     1      -5.352   4.164   4.851  1.00  0.00     0.031 C 
ATOM     40  C   UNL     1      -3.339   6.336   8.924  1.00  0.00     0.029 A 
ATOM     41  N   UNL     1      -5.312   7.109   8.212  1.00  0.00    -0.354 N 
ATOM     42  C   UNL     1      -7.193   5.513   4.679  1.00  0.00     0.074 A 
ATOM     43  C   UNL     1      -6.396   4.459   4.089  1.00  0.00     0.031 C 
ATOM     44  C   UNL     1      -3.682   7.359   9.722  1.00  0.00     0.029 A 
ATOM     45  C   UNL     1      -4.950   7.917   9.265  1.00  0.00     0.049 A 
ATOM     46  H   UNL     1      -6.156   7.216   7.716  1.00  0.00     0.167 HD
ATOM     47  C   UNL     1      -8.371   5.951   4.173  1.00  0.00     0.034 A 
ATOM     48  C   UNL     1      -5.558   8.998   9.793  1.00  0.00     0.034 A 
ATOM     49  C   UNL     1      -9.178   6.977   4.777  1.00  0.00     0.049 A 
ATOM     50  C   UNL     1      -6.872   9.455   9.220  1.00  0.00     0.074 A 
ATOM     51  C   UNL     1     -10.429   7.426   4.388  1.00  0.00     0.029 A 
ATOM     52  N   UNL     1      -8.813   7.726   5.885  1.00  0.00    -0.354 N 
ATOM     53  N   UNL     1      -7.562   8.945   8.229  1.00  0.00    -0.248 NA
ATOM     54  C   UNL     1      -7.506  10.619   9.857  1.00  0.00     0.031 C 
ATOM     55  C   UNL     1     -10.803   8.471   5.239  1.00  0.00     0.029 A 
ATOM     56  C   UNL     1      -9.803   8.648   6.181  1.00  0.00     0.049 A 
ATOM     57  H   UNL     1      -7.973   7.618   6.387  1.00  0.00     0.167 HD
ATOM     58  C   UNL     1      -8.724   9.703   8.144  1.00  0.00     0.074 A 
ATOM     59  C   UNL     1      -8.656  10.692   9.200  1.00  0.00     0.031 C 
ATOM     60  C   UNL     1      -9.748   9.600   7.261  1.00  0.00     0.034 A 
BRANCH  47  61
ATOM     61  C   UNL     1      -8.883   5.292   2.918  1.00  0.00     0.023 A 
ATOM     62  C   UNL     1      -9.356   3.965   2.970  1.00  0.00     0.012 A 
ATOM     63  C   UNL     1      -8.955   6.003   1.704  1.00  0.00     0.148 A 
ATOM     64  C   UNL     1      -9.859   3.344   1.828  1.00  0.00     0.002 A 
ATOM     65  C   UNL     1      -9.501   5.393   0.580  1.00  0.00     0.091 A 
ATOM     66  F   UNL     1      -8.483   7.258   1.668  1.00  0.00    -0.205 F 
ATOM     67  C   UNL     1      -9.941   4.061   0.637  1.00  0.00     0.022 A 
BRANCH  65  68
ATOM     68  S   UNL     1      -9.723   6.255  -0.980  1.00  0.00     0.127 S 
ATOM     69  O   UNL     1      -8.734   5.590  -1.827  1.00  0.00    -0.237 OA
ATOM     70  O   UNL     1     -11.115   5.943  -1.307  1.00  0.00    -0.237 OA
ATOM     71  O   UNL     1      -9.463   7.661  -0.704  1.00  0.00    -0.744 OA
ENDBRANCH  65  68
ENDBRANCH  47  61
BRANCH  48  72
ATOM     72  C   UNL     1      -4.950   9.700  10.960  1.00  0.00     0.023 A 
ATOM     73  C   UNL     1      -5.580   9.628  12.218  1.00  0.00     0.012 A 
ATOM     74  C   UNL     1      -3.748  10.422  10.834  1.00  0.00     0.148 A 
ATOM     75  C   UNL     1      -5.042  10.291  13.321  1.00  0.00     0.002 A 
ATOM     76  C   UNL     1      -3.187  11.032  11.950  1.00  0.00     0.091 A 
ATOM     77  F   UNL     1      -3.171  10.488   9.626  1.00  0.00    -0.205 F 
ATOM     78  C   UNL     1      -3.841  10.983  13.190  1.00  0.00     0.022 A 
BRANCH  76  79
ATOM     79  S   UNL     1      -1.581  11.834  11.904  1.00  0.00     0.127 S 
ATOM     80  O   UNL     1      -1.943  13.238  12.081  1.00  0.00    -0.237 OA
ATOM     81  O   UNL     1      -0.906  11.221  13.049  1.00  0.00    -0.237 OA
ATOM     82  O   UNL     1      -1.005  11.488  10.612  1.00  0.00    -0.744 OA
ENDBRANCH  76  79
ENDBRANCH  48  72
BRANCH  60  83
ATOM     83  C   UNL     1     -10.900  10.560   7.410  1.00  0.00     0.023 A 
ATOM     84  C   UNL     1     -10.731  11.918   7.075  1.00  0.00     0.012 A 
ATOM     85  C   UNL     1     -12.170  10.101   7.813  1.00  0.00     0.148 A 
ATOM     86  C   UNL     1     -11.799  12.811   7.172  1.00  0.00     0.002 A 
ATOM     87  C   UNL     1     -13.241  10.985   7.857  1.00  0.00     0.091 A 
ATOM     88  F   UNL     1     -12.307   8.808   8.143  1.00  0.00    -0.205 F 
ATOM     89  C   UNL     1     -13.055  12.342   7.551  1.00  0.00     0.022 A 
BRANCH  87  90
ATOM     90  S   UNL     1     -14.915  10.457   8.239  1.00  0.00     0.127 S 
ATOM     91  O   UNL     1     -15.128  11.066   9.551  1.00  0.00    -0.237 OA
ATOM     92  O   UNL     1     -15.686  11.063   7.153  1.00  0.00    -0.237 OA
ATOM     93  O   UNL     1     -14.892   9.000   8.225  1.00  0.00    -0.744 OA
ENDBRANCH  87  90
ENDBRANCH  60  83
ENDBRANCH  34  35
ENDBRANCH  26  29
ENDBRANCH  24  25
ENDBRANCH   1  24
TORSDOF 15
