REMARK SMILES [NH3+][C@H]1CN(C(=O)OCC2c3ccccc3-c3ccccc32)C[C@@H]1C(=O)NCCCNC(=O)c1ccc(-c2c3nc(c(-c4cccc(S(=O)(=O)[O-])c4F)c4ccc([nH]4)c(-c4cccc(S(=O)(=O)[O-])c4F)c4nc(c(-c5cccc(S(=O)(=O)[O-])c5F)c5ccc2[nH]5)C=C4)C=C3)cc1
REMARK SMILES IDX 27 1 26 2 24 3 25 4 23 6 2 7 3 8 4 9 22 10 1 11 5 15 6 16
REMARK SMILES IDX 7 17 8 18 9 19 10 20 21 21 11 22 15 23 16 24 20 25 12 26
REMARK SMILES IDX 14 27 17 28 19 29 13 30 18 31 28 32 29 33 30 34 31 35 32 37
REMARK SMILES IDX 33 38 34 39 95 40 35 41 94 42 36 43 37 44 38 45 88 46 39 47
REMARK SMILES IDX 93 48 87 49 89 50 40 51 92 52 86 53 85 54 41 56 73 57 53 58
REMARK SMILES IDX 72 59 54 60 57 61 71 62 90 63 55 64 56 65 70 67 91 68 58 69
REMARK SMILES IDX 42 70 43 71 51 72 44 73 46 74 52 75 45 76 47 77 48 78 49 79
REMARK SMILES IDX 50 80 74 81 75 82 83 83 76 84 78 85 84 86 77 87 79 88 80 89
REMARK SMILES IDX 81 90 82 91 59 92 60 93 68 94 61 95 63 96 69 97 62 98 64 99
REMARK SMILES IDX 65 100 66 101 67 102
REMARK H PARENT 26 5 1 12 1 13 1 14 30 36 89 55 57 66
REMARK Flexibility Score: inf
ROOT
ATOM      1  C   UNL     1       2.930  -0.882   2.481  1.00  0.00     0.117 C 
ENDROOT
BRANCH   1   2
ATOM      2  N   UNL     1       3.551   0.242   1.807  1.00  0.00    -0.356 N 
ATOM      3  C   UNL     1       3.007   1.424   1.412  1.00  0.00     0.231 C 
ATOM      4  O   UNL     1       3.720   2.193   0.769  1.00  0.00    -0.274 OA
ATOM      5  H   UNL     1       4.508   0.134   1.606  1.00  0.00     0.163 HD
BRANCH   3   6
ATOM      6  C   UNL     1       1.570   1.733   1.784  1.00  0.00     0.158 C 
ATOM      7  C   UNL     1       0.587   1.251   0.704  1.00  0.00     0.215 C 
ATOM      8  C   UNL     1       0.484   2.454  -0.268  1.00  0.00     0.188 C 
ATOM      9  N   UNL     1       0.964   3.596   0.487  1.00  0.00    -0.301 N 
ATOM     10  C   UNL     1       1.365   3.234   1.826  1.00  0.00     0.143 C 
BRANCH   7  11
ATOM     11  N   UNL     1      -0.714   0.917   1.315  1.00  0.00    -0.353 N 
ATOM     12  H   UNL     1      -1.358   0.598   0.590  1.00  0.00     0.344 HD
ATOM     13  H   UNL     1      -1.098   1.744   1.771  1.00  0.00     0.344 HD
ATOM     14  H   UNL     1      -0.586   0.176   2.005  1.00  0.00     0.344 HD
ENDBRANCH   7  11
BRANCH   9  15
ATOM     15  C   UNL     1       1.284   4.821  -0.036  1.00  0.00     0.410 C 
ATOM     16  O   UNL     1       2.079   5.590   0.482  1.00  0.00    -0.224 OA
BRANCH  15  17
ATOM     17  O   UNL     1       0.498   5.134  -1.105  1.00  0.00    -0.448 OA
BRANCH  17  18
ATOM     18  C   UNL     1       0.553   6.523  -1.484  1.00  0.00     0.248 C 
BRANCH  18  19
ATOM     19  C   UNL     1      -0.539   7.375  -0.793  1.00  0.00     0.088 C 
ATOM     20  C   UNL     1      -0.392   7.529   0.722  1.00  0.00    -0.029 A 
ATOM     21  C   UNL     1      -0.437   8.834  -1.245  1.00  0.00    -0.029 A 
ATOM     22  C   UNL     1      -0.541   6.572   1.714  1.00  0.00     0.005 A 
ATOM     23  C   UNL     1      -0.078   8.862   1.055  1.00  0.00    -0.014 A 
ATOM     24  C   UNL     1      -0.148   9.669  -0.142  1.00  0.00    -0.014 A 
ATOM     25  C   UNL     1      -0.597   9.360  -2.518  1.00  0.00     0.005 A 
ATOM     26  C   UNL     1      -0.236   6.920   3.031  1.00  0.00     0.000 A 
ATOM     27  C   UNL     1       0.209   9.216   2.365  1.00  0.00     0.009 A 
ATOM     28  C   UNL     1      -0.033  11.040  -0.303  1.00  0.00     0.009 A 
ATOM     29  C   UNL     1      -0.477  10.743  -2.679  1.00  0.00     0.000 A 
ATOM     30  C   UNL     1       0.153   8.228   3.352  1.00  0.00     0.001 A 
ATOM     31  C   UNL     1      -0.202  11.576  -1.582  1.00  0.00     0.001 A 
ENDBRANCH  18  19
ENDBRANCH  17  18
ENDBRANCH  15  17
ENDBRANCH   9  15
ENDBRANCH   3   6
ENDBRANCH   1   2
BRANCH   1  32
ATOM     32  C   UNL     1       2.892  -2.112   1.588  1.00  0.00     0.042 C 
BRANCH  32  33
ATOM     33  C   UNL     1       4.265  -2.584   1.126  1.00  0.00     0.118 C 
BRANCH  33  34
ATOM     34  N   UNL     1       5.130  -2.985   2.229  1.00  0.00    -0.352 N 
ATOM     35  C   UNL     1       5.763  -4.185   2.449  1.00  0.00     0.251 C 
ATOM     36  H   UNL     1       5.282  -2.297   2.916  1.00  0.00     0.163 HD
ATOM     37  O   UNL     1       6.322  -4.393   3.522  1.00  0.00    -0.269 OA
BRANCH  35  38
ATOM     38  C   UNL     1       5.749  -5.228   1.401  1.00  0.00     0.039 A 
ATOM     39  C   UNL     1       5.487  -6.551   1.764  1.00  0.00     0.014 A 
ATOM     40  C   UNL     1       5.982  -4.899   0.064  1.00  0.00     0.014 A 
ATOM     41  C   UNL     1       5.394  -7.534   0.775  1.00  0.00     0.010 A 
ATOM     42  C   UNL     1       5.796  -5.858  -0.924  1.00  0.00     0.010 A 
ATOM     43  C   UNL     1       5.512  -7.188  -0.581  1.00  0.00    -0.014 A 
BRANCH  43  44
ATOM     44  C   UNL     1       5.354  -8.195  -1.661  1.00  0.00     0.031 A 
ATOM     45  C   UNL     1       6.496  -8.473  -2.601  1.00  0.00     0.074 A 
ATOM     46  C   UNL     1       4.158  -8.782  -1.863  1.00  0.00     0.049 A 
ATOM     47  N   UNL     1       6.529  -9.243  -3.657  1.00  0.00    -0.248 NA
ATOM     48  C   UNL     1       7.761  -7.766  -2.336  1.00  0.00     0.031 C 
ATOM     49  C   UNL     1       2.955  -8.552  -1.061  1.00  0.00     0.029 A 
ATOM     50  N   UNL     1       3.750  -9.672  -2.825  1.00  0.00    -0.354 N 
ATOM     51  C   UNL     1       7.793  -9.075  -4.209  1.00  0.00     0.074 A 
ATOM     52  C   UNL     1       8.485  -8.104  -3.391  1.00  0.00     0.031 C 
ATOM     53  C   UNL     1       1.949  -9.290  -1.555  1.00  0.00     0.029 A 
ATOM     54  C   UNL     1       2.421 -10.012  -2.733  1.00  0.00     0.049 A 
ATOM     55  H   UNL     1       4.352 -10.033  -3.516  1.00  0.00     0.167 HD
ATOM     56  C   UNL     1       8.339  -9.689  -5.286  1.00  0.00     0.034 A 
ATOM     57  C   UNL     1       1.663 -10.806  -3.515  1.00  0.00     0.034 A 
ATOM     58  C   UNL     1       7.658 -10.679  -6.076  1.00  0.00     0.049 A 
ATOM     59  C   UNL     1       2.295 -11.491  -4.697  1.00  0.00     0.074 A 
ATOM     60  C   UNL     1       8.153 -11.428  -7.128  1.00  0.00     0.029 A 
ATOM     61  N   UNL     1       6.331 -11.045  -5.913  1.00  0.00    -0.354 N 
ATOM     62  N   UNL     1       3.534 -11.432  -5.119  1.00  0.00    -0.248 NA
ATOM     63  C   UNL     1       1.431 -12.376  -5.492  1.00  0.00     0.031 C 
ATOM     64  C   UNL     1       7.111 -12.215  -7.630  1.00  0.00     0.029 A 
ATOM     65  C   UNL     1       5.981 -11.994  -6.858  1.00  0.00     0.049 A 
ATOM     66  H   UNL     1       5.725 -10.682  -5.226  1.00  0.00     0.167 HD
ATOM     67  C   UNL     1       3.613 -12.307  -6.197  1.00  0.00     0.074 A 
ATOM     68  C   UNL     1       2.295 -12.886  -6.359  1.00  0.00     0.031 C 
ATOM     69  C   UNL     1       4.680 -12.601  -6.981  1.00  0.00     0.034 A 
BRANCH  56  70
ATOM     70  C   UNL     1       9.753  -9.317  -5.657  1.00  0.00     0.023 A 
ATOM     71  C   UNL     1      10.822  -9.670  -4.806  1.00  0.00     0.012 A 
ATOM     72  C   UNL     1      10.026  -8.635  -6.858  1.00  0.00     0.148 A 
ATOM     73  C   UNL     1      12.130  -9.301  -5.117  1.00  0.00     0.002 A 
ATOM     74  C   UNL     1      11.339  -8.319  -7.188  1.00  0.00     0.091 A 
ATOM     75  F   UNL     1       8.998  -8.288  -7.647  1.00  0.00    -0.205 F 
ATOM     76  C   UNL     1      12.389  -8.634  -6.311  1.00  0.00     0.022 A 
BRANCH  74  77
ATOM     77  S   UNL     1      11.782  -7.540  -8.744  1.00  0.00     0.127 S 
ATOM     78  O   UNL     1      12.124  -6.186  -8.309  1.00  0.00    -0.237 OA
ATOM     79  O   UNL     1      12.923  -8.347  -9.178  1.00  0.00    -0.237 OA
ATOM     80  O   UNL     1      10.605  -7.648  -9.595  1.00  0.00    -0.744 OA
ENDBRANCH  74  77
ENDBRANCH  56  70
BRANCH  57  81
ATOM     81  C   UNL     1       0.238 -11.056  -3.157  1.00  0.00     0.023 A 
ATOM     82  C   UNL     1      -0.135 -12.323  -2.670  1.00  0.00     0.012 A 
ATOM     83  C   UNL     1      -0.735 -10.042  -3.253  1.00  0.00     0.148 A 
ATOM     84  C   UNL     1      -1.457 -12.586  -2.311  1.00  0.00     0.002 A 
ATOM     85  C   UNL     1      -2.038 -10.294  -2.844  1.00  0.00     0.091 A 
ATOM     86  F   UNL     1      -0.357  -8.844  -3.721  1.00  0.00    -0.205 F 
ATOM     87  C   UNL     1      -2.406 -11.570  -2.388  1.00  0.00     0.022 A 
BRANCH  85  88
ATOM     88  S   UNL     1      -3.302  -9.018  -2.789  1.00  0.00     0.127 S 
ATOM     89  O   UNL     1      -4.268  -9.511  -3.767  1.00  0.00    -0.237 OA
ATOM     90  O   UNL     1      -3.741  -9.094  -1.395  1.00  0.00    -0.237 OA
ATOM     91  O   UNL     1      -2.629  -7.777  -3.144  1.00  0.00    -0.744 OA
ENDBRANCH  85  88
ENDBRANCH  57  81
BRANCH  69  92
ATOM     92  C   UNL     1       4.499 -13.640  -8.057  1.00  0.00     0.023 A 
ATOM     93  C   UNL     1       3.740 -13.349  -9.208  1.00  0.00     0.012 A 
ATOM     94  C   UNL     1       5.162 -14.881  -7.962  1.00  0.00     0.148 A 
ATOM     95  C   UNL     1       3.620 -14.287 -10.233  1.00  0.00     0.002 A 
ATOM     96  C   UNL     1       5.083 -15.788  -9.010  1.00  0.00     0.091 A 
ATOM     97  F   UNL     1       5.863 -15.146  -6.850  1.00  0.00    -0.205 F 
ATOM     98  C   UNL     1       4.302 -15.499 -10.141  1.00  0.00     0.022 A 
BRANCH  96  99
ATOM     99  S   UNL     1       6.009 -17.327  -9.025  1.00  0.00     0.127 S 
ATOM    100  O   UNL     1       4.943 -18.318  -8.883  1.00  0.00    -0.237 OA
ATOM    101  O   UNL     1       6.640 -17.295 -10.345  1.00  0.00    -0.237 OA
ATOM    102  O   UNL     1       6.939 -17.250  -7.907  1.00  0.00    -0.744 OA
ENDBRANCH  96  99
ENDBRANCH  69  92
ENDBRANCH  43  44
ENDBRANCH  35  38
ENDBRANCH  33  34
ENDBRANCH  32  33
ENDBRANCH   1  32
TORSDOF 18
