REMARK SMILES O=C(NCCCNC(=O)[C@@H]1[C@@H](C(=O)Nc2nc(-c3ccc(F)cc3)cs2)[C@H]2C=C[C@@H]1O2)c1ccc(-c2c3nc(c(-c4cccc(S(=O)(=O)[O-])c4F)c4ccc([nH]4)c(-c4cccc(S(=O)(=O)[O-])c4F)c4nc(c(-c5cccc(S(=O)(=O)[O-])c5F)c5ccc2[nH]5)C=C4)C=C3)cc1
REMARK SMILES IDX 5 1 4 2 3 3 1 4 2 5 32 7 33 8 94 9 34 10 93 11 35 12 36 13
REMARK SMILES IDX 37 14 87 15 38 16 92 17 86 18 88 19 39 20 91 21 85 22 84 23
REMARK SMILES IDX 40 25 72 26 52 27 71 28 53 29 56 30 70 31 89 32 54 33 55 34
REMARK SMILES IDX 69 36 90 37 57 38 41 39 42 40 50 41 43 42 45 43 51 44 44 45
REMARK SMILES IDX 46 46 47 47 48 48 49 49 73 50 74 51 82 52 75 53 77 54 83 55
REMARK SMILES IDX 76 56 78 57 79 58 80 59 81 60 58 61 59 62 67 63 60 64 62 65
REMARK SMILES IDX 68 66 61 67 63 68 64 69 65 70 66 71 6 72 7 73 8 74 9 76
REMARK SMILES IDX 10 77 11 78 30 79 27 80 29 81 31 82 28 83 12 84 13 85 14 86
REMARK SMILES IDX 15 88 16 89 26 90 17 91 25 92 18 93 19 94 24 95 20 96 23 97
REMARK SMILES IDX 21 98 22 99
REMARK H PARENT 3 6 88 24 56 35 7 75 14 87
REMARK Flexibility Score: inf
ROOT
ATOM      1  C   UNL     1       5.156  -1.624   1.538  1.00  0.00     0.042 C 
ENDROOT
BRANCH   1   2
ATOM      2  C   UNL     1       4.664  -1.268   0.142  1.00  0.00     0.118 C 
BRANCH   2   3
ATOM      3  N   UNL     1       3.220  -1.099   0.067  1.00  0.00    -0.352 N 
ATOM      4  O   UNL     1       1.241  -0.035   0.118  1.00  0.00    -0.269 OA
ATOM      5  C   UNL     1       2.454   0.044  -0.005  1.00  0.00     0.251 C 
ATOM      6  H   UNL     1       2.706  -1.939   0.067  1.00  0.00     0.163 HD
BRANCH   5   7
ATOM      7  C   UNL     1       3.103   1.363  -0.190  1.00  0.00     0.039 A 
ATOM      8  C   UNL     1       4.162   1.520  -1.083  1.00  0.00     0.014 A 
ATOM      9  C   UNL     1       2.639   2.464   0.537  1.00  0.00     0.014 A 
ATOM     10  C   UNL     1       4.883   2.706  -1.099  1.00  0.00     0.010 A 
ATOM     11  C   UNL     1       3.291   3.697   0.424  1.00  0.00     0.010 A 
ATOM     12  C   UNL     1       4.446   3.818  -0.362  1.00  0.00    -0.014 A 
BRANCH  12  13
ATOM     13  C   UNL     1       5.175   5.106  -0.500  1.00  0.00     0.031 A 
ATOM     14  C   UNL     1       5.831   5.770   0.679  1.00  0.00     0.074 A 
ATOM     15  C   UNL     1       5.262   5.665  -1.725  1.00  0.00     0.049 A 
ATOM     16  N   UNL     1       6.526   6.879   0.710  1.00  0.00    -0.248 NA
ATOM     17  C   UNL     1       5.688   5.120   1.992  1.00  0.00     0.031 C 
ATOM     18  C   UNL     1       4.633   5.130  -2.936  1.00  0.00     0.029 A 
ATOM     19  N   UNL     1       5.919   6.786  -2.163  1.00  0.00    -0.354 N 
ATOM     20  C   UNL     1       6.864   7.083   2.042  1.00  0.00     0.074 A 
ATOM     21  C   UNL     1       6.297   5.985   2.794  1.00  0.00     0.031 C 
ATOM     22  C   UNL     1       4.977   5.889  -3.985  1.00  0.00     0.029 A 
ATOM     23  C   UNL     1       5.792   7.003  -3.515  1.00  0.00     0.049 A 
ATOM     24  H   UNL     1       6.432   7.379  -1.567  1.00  0.00     0.167 HD
ATOM     25  C   UNL     1       7.597   8.086   2.584  1.00  0.00     0.034 A 
ATOM     26  C   UNL     1       6.263   7.994  -4.296  1.00  0.00     0.034 A 
ATOM     27  C   UNL     1       8.203   9.146   1.822  1.00  0.00     0.049 A 
ATOM     28  C   UNL     1       7.095   9.074  -3.672  1.00  0.00     0.074 A 
ATOM     29  C   UNL     1       9.012  10.173   2.277  1.00  0.00     0.029 A 
ATOM     30  N   UNL     1       8.071   9.317   0.453  1.00  0.00    -0.354 N 
ATOM     31  N   UNL     1       7.487   9.191  -2.426  1.00  0.00    -0.248 NA
ATOM     32  C   UNL     1       7.563  10.150  -4.556  1.00  0.00     0.031 C 
ATOM     33  C   UNL     1       9.358  10.973   1.184  1.00  0.00     0.029 A 
ATOM     34  C   UNL     1       8.777  10.437   0.046  1.00  0.00     0.049 A 
ATOM     35  H   UNL     1       7.553   8.729  -0.143  1.00  0.00     0.167 HD
ATOM     36  C   UNL     1       8.256  10.346  -2.377  1.00  0.00     0.074 A 
ATOM     37  C   UNL     1       8.302  10.876  -3.725  1.00  0.00     0.031 C 
ATOM     38  C   UNL     1       8.849  10.928  -1.306  1.00  0.00     0.034 A 
BRANCH  25  39
ATOM     39  C   UNL     1       7.837   8.070   4.072  1.00  0.00     0.023 A 
ATOM     40  C   UNL     1       8.780   7.173   4.611  1.00  0.00     0.012 A 
ATOM     41  C   UNL     1       7.216   9.012   4.917  1.00  0.00     0.148 A 
ATOM     42  C   UNL     1       9.092   7.203   5.970  1.00  0.00     0.002 A 
ATOM     43  C   UNL     1       7.560   9.060   6.263  1.00  0.00     0.091 A 
ATOM     44  F   UNL     1       6.308   9.845   4.388  1.00  0.00    -0.205 F 
ATOM     45  C   UNL     1       8.492   8.153   6.792  1.00  0.00     0.022 A 
BRANCH  43  46
ATOM     46  S   UNL     1       6.902  10.297   7.390  1.00  0.00     0.127 S 
ATOM     47  O   UNL     1       6.014   9.490   8.226  1.00  0.00    -0.237 OA
ATOM     48  O   UNL     1       8.109  10.773   8.066  1.00  0.00    -0.237 OA
ATOM     49  O   UNL     1       6.242  11.290   6.554  1.00  0.00    -0.744 OA
ENDBRANCH  43  46
ENDBRANCH  25  39
BRANCH  26  50
ATOM     50  C   UNL     1       5.991   7.959  -5.761  1.00  0.00     0.023 A 
ATOM     51  C   UNL     1       7.044   7.681  -6.652  1.00  0.00     0.012 A 
ATOM     52  C   UNL     1       4.682   8.098  -6.264  1.00  0.00     0.148 A 
ATOM     53  C   UNL     1       6.799   7.547  -8.019  1.00  0.00     0.002 A 
ATOM     54  C   UNL     1       4.436   7.899  -7.617  1.00  0.00     0.091 A 
ATOM     55  F   UNL     1       3.696   8.383  -5.401  1.00  0.00    -0.205 F 
ATOM     56  C   UNL     1       5.495   7.638  -8.499  1.00  0.00     0.022 A 
BRANCH  54  57
ATOM     57  S   UNL     1       2.769   7.832  -8.285  1.00  0.00     0.127 S 
ATOM     58  O   UNL     1       2.679   9.107  -8.992  1.00  0.00    -0.237 OA
ATOM     59  O   UNL     1       2.833   6.651  -9.147  1.00  0.00    -0.237 OA
ATOM     60  O   UNL     1       1.893   7.681  -7.130  1.00  0.00    -0.744 OA
ENDBRANCH  54  57
ENDBRANCH  26  50
BRANCH  38  61
ATOM     61  C   UNL     1       9.602  12.209  -1.536  1.00  0.00     0.023 A 
ATOM     62  C   UNL     1       8.884  13.405  -1.732  1.00  0.00     0.012 A 
ATOM     63  C   UNL     1      11.008  12.248  -1.455  1.00  0.00     0.148 A 
ATOM     64  C   UNL     1       9.555  14.620  -1.862  1.00  0.00     0.002 A 
ATOM     65  C   UNL     1      11.667  13.468  -1.541  1.00  0.00     0.091 A 
ATOM     66  F   UNL     1      11.671  11.095  -1.287  1.00  0.00    -0.205 F 
ATOM     67  C   UNL     1      10.943  14.653  -1.752  1.00  0.00     0.022 A 
BRANCH  65  68
ATOM     68  S   UNL     1      13.443  13.619  -1.318  1.00  0.00     0.127 S 
ATOM     69  O   UNL     1      13.895  13.871  -2.685  1.00  0.00    -0.237 OA
ATOM     70  O   UNL     1      13.548  14.769  -0.418  1.00  0.00    -0.237 OA
ATOM     71  O   UNL     1      13.882  12.357  -0.737  1.00  0.00    -0.744 OA
ENDBRANCH  65  68
ENDBRANCH  38  61
ENDBRANCH  12  13
ENDBRANCH   5   7
ENDBRANCH   2   3
ENDBRANCH   1   2
BRANCH   1  72
ATOM     72  C   UNL     1       4.679  -2.973   2.048  1.00  0.00     0.117 C 
BRANCH  72  73
ATOM     73  N   UNL     1       4.998  -4.054   1.136  1.00  0.00    -0.356 N 
ATOM     74  C   UNL     1       5.536  -5.279   1.358  1.00  0.00     0.227 C 
ATOM     75  H   UNL     1       4.788  -3.866   0.192  1.00  0.00     0.163 HD
ATOM     76  O   UNL     1       5.750  -5.963   0.357  1.00  0.00    -0.275 OA
BRANCH  74  77
ATOM     77  C   UNL     1       5.938  -5.708   2.755  1.00  0.00     0.127 C 
ATOM     78  C   UNL     1       6.310  -7.220   2.793  1.00  0.00     0.127 C 
ATOM     79  C   UNL     1       4.751  -5.681   3.740  1.00  0.00     0.155 C 
ATOM     80  C   UNL     1       5.436  -7.725   3.952  1.00  0.00     0.155 C 
ATOM     81  C   UNL     1       5.292  -5.785   5.134  1.00  0.00     0.004 C 
ATOM     82  O   UNL     1       4.211  -7.026   3.610  1.00  0.00    -0.365 OA
ATOM     83  C   UNL     1       5.724  -7.047   5.262  1.00  0.00     0.004 C 
BRANCH  78  84
ATOM     84  C   UNL     1       7.768  -7.564   3.052  1.00  0.00     0.233 C 
ATOM     85  O   UNL     1       8.456  -6.923   3.851  1.00  0.00    -0.274 OA
ATOM     86  N   UNL     1       8.278  -8.729   2.541  1.00  0.00    -0.302 N 
ATOM     87  H   UNL     1       8.971  -9.198   3.061  1.00  0.00     0.172 HD
BRANCH  86  88
ATOM     88  C   UNL     1       7.885  -9.280   1.356  1.00  0.00     0.189 A 
ATOM     89  N   UNL     1       7.201  -8.701   0.411  1.00  0.00    -0.220 NA
ATOM     90  S   UNL     1       8.399 -10.873   1.045  1.00  0.00    -0.105 S 
ATOM     91  C   UNL     1       7.000  -9.573  -0.632  1.00  0.00     0.084 A 
ATOM     92  C   UNL     1       7.536 -10.832  -0.452  1.00  0.00     0.097 A 
BRANCH  91  93
ATOM     93  C   UNL     1       6.310  -9.130  -1.826  1.00  0.00     0.001 A 
ATOM     94  C   UNL     1       6.895  -8.133  -2.621  1.00  0.00     0.013 A 
ATOM     95  C   UNL     1       5.045  -9.629  -2.159  1.00  0.00     0.013 A 
ATOM     96  C   UNL     1       6.233  -7.655  -3.752  1.00  0.00     0.040 A 
ATOM     97  C   UNL     1       4.379  -9.140  -3.286  1.00  0.00     0.040 A 
ATOM     98  C   UNL     1       4.981  -8.163  -4.074  1.00  0.00     0.123 A 
ATOM     99  F   UNL     1       4.338  -7.700  -5.154  1.00  0.00    -0.207 F 
ENDBRANCH  91  93
ENDBRANCH  86  88
ENDBRANCH  78  84
ENDBRANCH  74  77
ENDBRANCH  72  73
ENDBRANCH   1  72
TORSDOF 16
