REMARK SMILES CC[NH2+][C@]1(C(=O)NCCCNC(=O)c2ccc(-c3c4nc(c(-c5cccc(S(=O)(=O)[O-])c5F)c5ccc([nH]5)c(-c5cccc(S(=O)(=O)[O-])c5F)c5nc(c(-c6cccc(S(=O)(=O)[O-])c6F)c6ccc3[nH]6)C=C5)C=C4)cc2)CCC[C@@H]([N@@H+](C)CC2CCCC2)C1
REMARK SMILES IDX 9 1 8 2 7 3 5 4 6 5 4 7 77 8 89 9 78 10 80 11 79 12 3 13
REMARK SMILES IDX 2 16 1 17 81 18 82 19 83 21 84 22 85 23 88 24 86 25 87 26
REMARK SMILES IDX 10 27 11 28 12 29 13 31 14 32 15 33 76 34 16 35 75 36 17 37
REMARK SMILES IDX 18 38 19 39 69 40 20 41 74 42 68 43 70 44 21 45 73 46 67 47
REMARK SMILES IDX 66 48 22 50 54 51 34 52 53 53 35 54 38 55 52 56 71 57 36 58
REMARK SMILES IDX 37 59 51 61 72 62 39 63 23 64 24 65 32 66 25 67 27 68 33 69
REMARK SMILES IDX 26 70 28 71 29 72 30 73 31 74 55 75 56 76 64 77 57 78 59 79
REMARK SMILES IDX 65 80 58 81 60 82 61 83 62 84 63 85 40 86 41 87 49 88 42 89
REMARK SMILES IDX 44 90 50 91 43 92 45 93 46 94 47 95 48 96
REMARK H PARENT 7 6 3 14 3 15 81 20 11 30 70 49 38 60
REMARK Flexibility Score: inf
ROOT
ATOM      1  C   UNL     1      -0.975   0.248   4.198  1.00  0.00     0.042 C 
ENDROOT
BRANCH   1   2
ATOM      2  C   UNL     1      -1.246  -0.534   2.934  1.00  0.00     0.118 C 
BRANCH   2   3
ATOM      3  N   UNL     1      -0.125  -0.541   2.009  1.00  0.00    -0.351 N 
ATOM      4  C   UNL     1       0.451  -1.574   1.323  1.00  0.00     0.281 C 
ATOM      5  O   UNL     1       1.351  -1.293   0.528  1.00  0.00    -0.268 OA
ATOM      6  H   UNL     1       0.286   0.339   1.852  1.00  0.00     0.163 HD
BRANCH   4   7
ATOM      7  C   UNL     1      -0.012  -3.032   1.575  1.00  0.00     0.181 C 
ATOM      8  C   UNL     1       0.734  -4.005   0.633  1.00  0.00     0.079 C 
ATOM      9  C   UNL     1       0.421  -3.420   3.035  1.00  0.00     0.144 C 
ATOM     10  C   UNL     1       0.186  -5.417   0.835  1.00  0.00     0.013 C 
ATOM     11  C   UNL     1       0.044  -4.866   3.413  1.00  0.00     0.190 C 
ATOM     12  C   UNL     1       0.382  -5.809   2.277  1.00  0.00     0.065 C 
BRANCH   7  13
ATOM     13  N   UNL     1      -1.477  -3.175   1.313  1.00  0.00    -0.334 N 
ATOM     14  H   UNL     1      -1.769  -4.089   1.659  1.00  0.00     0.347 HD
ATOM     15  H   UNL     1      -1.921  -2.389   1.789  1.00  0.00     0.347 HD
BRANCH  13  16
ATOM     16  C   UNL     1      -1.889  -3.073  -0.089  1.00  0.00     0.257 C 
ATOM     17  C   UNL     1      -3.397  -3.254  -0.162  1.00  0.00     0.071 C 
ENDBRANCH  13  16
ENDBRANCH   7  13
BRANCH  11  18
ATOM     18  N   UNL     1       0.666  -5.337   4.686  1.00  0.00    -0.334 N 
ATOM     19  C   UNL     1      -0.130  -6.343   5.375  1.00  0.00     0.332 C 
ATOM     20  H   UNL     1       0.628  -4.461   5.207  1.00  0.00     0.348 HD
BRANCH  18  21
ATOM     21  C   UNL     1       2.128  -5.563   4.783  1.00  0.00     0.265 C 
BRANCH  21  22
ATOM     22  C   UNL     1       2.952  -6.836   4.348  1.00  0.00     0.044 C 
ATOM     23  C   UNL     1       2.764  -8.133   5.138  1.00  0.00     0.009 C 
ATOM     24  C   UNL     1       2.861  -7.341   2.912  1.00  0.00     0.009 C 
ATOM     25  C   UNL     1       3.277  -9.269   4.227  1.00  0.00     0.001 C 
ATOM     26  C   UNL     1       3.585  -8.659   2.869  1.00  0.00     0.001 C 
ENDBRANCH  21  22
ENDBRANCH  18  21
ENDBRANCH  11  18
ENDBRANCH   4   7
ENDBRANCH   2   3
ENDBRANCH   1   2
BRANCH   1  27
ATOM     27  C   UNL     1      -0.668   1.708   3.943  1.00  0.00     0.118 C 
BRANCH  27  28
ATOM     28  N   UNL     1      -1.731   2.382   3.205  1.00  0.00    -0.352 N 
ATOM     29  C   UNL     1      -2.638   3.328   3.624  1.00  0.00     0.251 C 
ATOM     30  H   UNL     1      -1.813   2.118   2.260  1.00  0.00     0.163 HD
ATOM     31  O   UNL     1      -3.597   3.608   2.921  1.00  0.00    -0.269 OA
BRANCH  29  32
ATOM     32  C   UNL     1      -2.446   3.982   4.936  1.00  0.00     0.039 A 
ATOM     33  C   UNL     1      -3.553   4.218   5.753  1.00  0.00     0.014 A 
ATOM     34  C   UNL     1      -1.168   4.340   5.364  1.00  0.00     0.014 A 
ATOM     35  C   UNL     1      -3.360   4.744   7.031  1.00  0.00     0.010 A 
ATOM     36  C   UNL     1      -0.967   4.729   6.679  1.00  0.00     0.010 A 
ATOM     37  C   UNL     1      -2.061   4.963   7.520  1.00  0.00    -0.014 A 
BRANCH  37  38
ATOM     38  C   UNL     1      -1.817   5.456   8.898  1.00  0.00     0.031 A 
ATOM     39  C   UNL     1      -1.060   6.741   9.111  1.00  0.00     0.074 A 
ATOM     40  C   UNL     1      -2.195   4.706   9.952  1.00  0.00     0.049 A 
ATOM     41  N   UNL     1      -0.692   7.304  10.232  1.00  0.00    -0.248 NA
ATOM     42  C   UNL     1      -0.625   7.473   7.908  1.00  0.00     0.031 C 
ATOM     43  C   UNL     1      -2.853   3.399   9.873  1.00  0.00     0.029 A 
ATOM     44  N   UNL     1      -2.058   4.925  11.299  1.00  0.00    -0.354 N 
ATOM     45  C   UNL     1       0.046   8.424   9.870  1.00  0.00     0.074 A 
ATOM     46  C   UNL     1       0.119   8.436   8.427  1.00  0.00     0.031 C 
ATOM     47  C   UNL     1      -3.078   2.943  11.115  1.00  0.00     0.029 A 
ATOM     48  C   UNL     1      -2.548   3.902  12.077  1.00  0.00     0.049 A 
ATOM     49  H   UNL     1      -1.647   5.737  11.674  1.00  0.00     0.167 HD
ATOM     50  C   UNL     1       0.585   9.379  10.663  1.00  0.00     0.034 A 
ATOM     51  C   UNL     1      -2.562   3.753  13.416  1.00  0.00     0.034 A 
ATOM     52  C   UNL     1       0.469   9.386  12.095  1.00  0.00     0.049 A 
ATOM     53  C   UNL     1      -1.995   4.850  14.275  1.00  0.00     0.074 A 
ATOM     54  C   UNL     1       0.897  10.352  12.987  1.00  0.00     0.029 A 
ATOM     55  N   UNL     1      -0.112   8.376  12.845  1.00  0.00    -0.354 N 
ATOM     56  N   UNL     1      -1.440   5.980  13.911  1.00  0.00    -0.248 NA
ATOM     57  C   UNL     1      -2.090   4.668  15.730  1.00  0.00     0.031 C 
ATOM     58  C   UNL     1       0.605   9.909  14.280  1.00  0.00     0.029 A 
ATOM     59  C   UNL     1      -0.044   8.688  14.191  1.00  0.00     0.049 A 
ATOM     60  H   UNL     1      -0.514   7.557  12.475  1.00  0.00     0.167 HD
ATOM     61  C   UNL     1      -1.156   6.662  15.089  1.00  0.00     0.074 A 
ATOM     62  C   UNL     1      -1.621   5.825  16.176  1.00  0.00     0.031 C 
ATOM     63  C   UNL     1      -0.556   7.866  15.257  1.00  0.00     0.034 A 
BRANCH  50  64
ATOM     64  C   UNL     1       1.307  10.520   9.994  1.00  0.00     0.023 A 
ATOM     65  C   UNL     1       0.577  11.465   9.242  1.00  0.00     0.012 A 
ATOM     66  C   UNL     1       2.696  10.688  10.150  1.00  0.00     0.148 A 
ATOM     67  C   UNL     1       1.223  12.535   8.623  1.00  0.00     0.002 A 
ATOM     68  C   UNL     1       3.325  11.785   9.574  1.00  0.00     0.091 A 
ATOM     69  F   UNL     1       3.377   9.769  10.849  1.00  0.00    -0.205 F 
ATOM     70  C   UNL     1       2.594  12.700   8.799  1.00  0.00     0.022 A 
BRANCH  68  71
ATOM     71  S   UNL     1       5.071  12.137   9.810  1.00  0.00     0.127 S 
ATOM     72  O   UNL     1       5.603  11.899   8.469  1.00  0.00    -0.237 OA
ATOM     73  O   UNL     1       5.047  13.542  10.217  1.00  0.00    -0.237 OA
ATOM     74  O   UNL     1       5.533  11.213  10.836  1.00  0.00    -0.744 OA
ENDBRANCH  68  71
ENDBRANCH  50  64
BRANCH  51  75
ATOM     75  C   UNL     1      -3.189   2.547  14.027  1.00  0.00     0.023 A 
ATOM     76  C   UNL     1      -4.392   2.681  14.748  1.00  0.00     0.012 A 
ATOM     77  C   UNL     1      -2.614   1.270  13.884  1.00  0.00     0.148 A 
ATOM     78  C   UNL     1      -4.990   1.572  15.349  1.00  0.00     0.002 A 
ATOM     79  C   UNL     1      -3.244   0.161  14.436  1.00  0.00     0.091 A 
ATOM     80  F   UNL     1      -1.466   1.164  13.200  1.00  0.00    -0.205 F 
ATOM     81  C   UNL     1      -4.421   0.312  15.185  1.00  0.00     0.022 A 
BRANCH  79  82
ATOM     82  S   UNL     1      -2.657  -1.515  14.168  1.00  0.00     0.127 S 
ATOM     83  O   UNL     1      -2.190  -1.885  15.502  1.00  0.00    -0.237 OA
ATOM     84  O   UNL     1      -3.877  -2.194  13.731  1.00  0.00    -0.237 OA
ATOM     85  O   UNL     1      -1.627  -1.412  13.143  1.00  0.00    -0.744 OA
ENDBRANCH  79  82
ENDBRANCH  51  75
BRANCH  63  86
ATOM     86  C   UNL     1      -0.407   8.380  16.665  1.00  0.00     0.023 A 
ATOM     87  C   UNL     1       0.512   7.777  17.545  1.00  0.00     0.012 A 
ATOM     88  C   UNL     1      -1.135   9.509  17.091  1.00  0.00     0.148 A 
ATOM     89  C   UNL     1       0.675   8.264  18.841  1.00  0.00     0.002 A 
ATOM     90  C   UNL     1      -0.927  10.023  18.364  1.00  0.00     0.091 A 
ATOM     91  F   UNL     1      -2.018  10.059  16.244  1.00  0.00    -0.205 F 
ATOM     92  C   UNL     1      -0.034   9.393  19.246  1.00  0.00     0.022 A 
BRANCH  90  93
ATOM     93  S   UNL     1      -1.719  11.530  18.935  1.00  0.00     0.127 S 
ATOM     94  O   UNL     1      -2.676  11.012  19.911  1.00  0.00    -0.237 OA
ATOM     95  O   UNL     1      -0.597  12.269  19.514  1.00  0.00    -0.237 OA
ATOM     96  O   UNL     1      -2.305  12.149  17.754  1.00  0.00    -0.744 OA
ENDBRANCH  90  93
ENDBRANCH  63  86
ENDBRANCH  37  38
ENDBRANCH  29  32
ENDBRANCH  27  28
ENDBRANCH   1  27
TORSDOF 18
