REMARK SMILES N#C/C(=C/c1cc2c(cc1Br)OCO2)C(=O)NCCCNC(=O)c1ccc(-c2c3nc(c(-c4cccc(S(=O)(=O)[O-])c4F)c4ccc([nH]4)c(-c4cccc(S(=O)(=O)[O-])c4F)c4nc(c(-c5cccc(S(=O)(=O)[O-])c5F)c5ccc2[nH]5)C=C4)C=C3)cc1
REMARK SMILES IDX 20 1 19 2 18 3 17 4 15 5 16 6 3 8 4 9 2 10 1 11 5 12 6 13
REMARK SMILES IDX 10 14 7 15 9 16 11 17 8 18 14 19 12 20 13 21 21 22 22 23
REMARK SMILES IDX 23 25 24 26 25 27 86 28 26 29 85 30 27 31 28 32 29 33 79 34
REMARK SMILES IDX 30 35 84 36 78 37 80 38 31 39 83 40 77 41 76 42 32 44 64 45
REMARK SMILES IDX 44 46 63 47 45 48 48 49 62 50 81 51 46 52 47 53 61 55 82 56
REMARK SMILES IDX 49 57 33 58 34 59 42 60 35 61 37 62 43 63 36 64 38 65 39 66
REMARK SMILES IDX 40 67 41 68 65 69 66 70 74 71 67 72 69 73 75 74 68 75 70 76
REMARK SMILES IDX 71 77 72 78 73 79 50 80 51 81 59 82 52 83 54 84 60 85 53 86
REMARK SMILES IDX 55 87 56 88 57 89 58 90
REMARK H PARENT 17 7 21 24 80 43 48 54
REMARK Flexibility Score: inf
ROOT
ATOM      1  C   UNL     1       8.615   1.712   2.042  1.00  0.00     0.118 C 
ENDROOT
BRANCH   1   2
ATOM      2  C   UNL     1       7.705   2.192   0.920  1.00  0.00     0.042 C 
BRANCH   2   3
ATOM      3  C   UNL     1       6.663   1.176   0.504  1.00  0.00     0.118 C 
BRANCH   3   4
ATOM      4  N   UNL     1       5.672   0.827   1.490  1.00  0.00    -0.351 N 
ATOM      5  C   UNL     1       4.459   0.231   1.327  1.00  0.00     0.261 C 
ATOM      6  O   UNL     1       3.819  -0.021   2.350  1.00  0.00    -0.268 OA
ATOM      7  H   UNL     1       5.907   1.052   2.419  1.00  0.00     0.163 HD
BRANCH   5   8
ATOM      8  C   UNL     1       3.851  -0.071  -0.007  1.00  0.00     0.117 C 
ATOM      9  C   UNL     1       4.374  -0.539  -1.168  1.00  0.00     0.034 C 
BRANCH   8  10
ATOM     10  C   UNL     1       2.331  -0.071  -0.007  1.00  0.00     0.105 C 
ATOM     11  N   UNL     1       1.070  -0.071  -0.007  1.00  0.00    -0.192 NA
ENDBRANCH   8  10
BRANCH   9  12
ATOM     12  C   UNL     1       5.755  -0.853  -1.562  1.00  0.00    -0.006 A 
ATOM     13  C   UNL     1       6.369   0.053  -2.448  1.00  0.00     0.060 A 
ATOM     14  C   UNL     1       6.508  -1.935  -1.042  1.00  0.00     0.029 A 
ATOM     15  C   UNL     1       7.730  -0.050  -2.638  1.00  0.00     0.166 A 
ATOM     16  C   UNL     1       7.882  -2.044  -1.303  1.00  0.00     0.067 A 
ATOM     17  Br  UNL     1       5.722  -3.246   0.086  1.00  0.00    -0.050 Br
ATOM     18  C   UNL     1       8.468  -1.058  -2.068  1.00  0.00     0.166 A 
ATOM     19  O   UNL     1       8.504   0.853  -3.296  1.00  0.00    -0.454 OA
ATOM     20  O   UNL     1       9.799  -0.915  -2.309  1.00  0.00    -0.454 OA
ATOM     21  C   UNL     1       9.821   0.390  -2.930  1.00  0.00     0.468 C 
ENDBRANCH   9  12
ENDBRANCH   5   8
ENDBRANCH   3   4
ENDBRANCH   2   3
ENDBRANCH   1   2
BRANCH   1  22
ATOM     22  N   UNL     1       9.476   0.582   1.692  1.00  0.00    -0.352 N 
ATOM     23  C   UNL     1      10.788   0.484   1.285  1.00  0.00     0.251 C 
ATOM     24  H   UNL     1       9.024  -0.289   1.764  1.00  0.00     0.163 HD
ATOM     25  O   UNL     1      11.238  -0.629   1.009  1.00  0.00    -0.269 OA
BRANCH  23  26
ATOM     26  C   UNL     1      11.651   1.676   1.116  1.00  0.00     0.039 A 
ATOM     27  C   UNL     1      12.600   1.699   0.085  1.00  0.00     0.014 A 
ATOM     28  C   UNL     1      11.553   2.774   1.960  1.00  0.00     0.014 A 
ATOM     29  C   UNL     1      13.350   2.858  -0.158  1.00  0.00     0.010 A 
ATOM     30  C   UNL     1      12.178   3.968   1.628  1.00  0.00     0.010 A 
ATOM     31  C   UNL     1      13.098   4.028   0.573  1.00  0.00    -0.014 A 
BRANCH  31  32
ATOM     32  C   UNL     1      13.774   5.326   0.297  1.00  0.00     0.031 A 
ATOM     33  C   UNL     1      14.471   6.059   1.419  1.00  0.00     0.074 A 
ATOM     34  C   UNL     1      13.632   5.922  -0.905  1.00  0.00     0.049 A 
ATOM     35  N   UNL     1      14.914   7.289   1.456  1.00  0.00    -0.248 NA
ATOM     36  C   UNL     1      14.633   5.331   2.691  1.00  0.00     0.031 C 
ATOM     37  C   UNL     1      12.905   5.369  -2.050  1.00  0.00     0.029 A 
ATOM     38  N   UNL     1      14.060   7.149  -1.350  1.00  0.00    -0.354 N 
ATOM     39  C   UNL     1      15.327   7.504   2.767  1.00  0.00     0.074 A 
ATOM     40  C   UNL     1      15.046   6.292   3.503  1.00  0.00     0.031 C 
ATOM     41  C   UNL     1      12.945   6.246  -3.065  1.00  0.00     0.029 A 
ATOM     42  C   UNL     1      13.662   7.441  -2.635  1.00  0.00     0.049 A 
ATOM     43  H   UNL     1      14.601   7.762  -0.801  1.00  0.00     0.167 HD
ATOM     44  C   UNL     1      15.924   8.594   3.305  1.00  0.00     0.034 A 
ATOM     45  C   UNL     1      13.844   8.550  -3.379  1.00  0.00     0.034 A 
ATOM     46  C   UNL     1      16.306   9.752   2.544  1.00  0.00     0.049 A 
ATOM     47  C   UNL     1      14.609   9.705  -2.792  1.00  0.00     0.074 A 
ATOM     48  C   UNL     1      17.028  10.855   2.960  1.00  0.00     0.029 A 
ATOM     49  N   UNL     1      16.014   9.944   1.203  1.00  0.00    -0.354 N 
ATOM     50  N   UNL     1      15.120   9.830  -1.591  1.00  0.00    -0.248 NA
ATOM     51  C   UNL     1      14.854  10.857  -3.672  1.00  0.00     0.031 C 
ATOM     52  C   UNL     1      17.173  11.718   1.869  1.00  0.00     0.029 A 
ATOM     53  C   UNL     1      16.549  11.145   0.771  1.00  0.00     0.049 A 
ATOM     54  H   UNL     1      15.502   9.319   0.641  1.00  0.00     0.167 HD
ATOM     55  C   UNL     1      15.778  11.055  -1.583  1.00  0.00     0.074 A 
ATOM     56  C   UNL     1      15.617  11.625  -2.905  1.00  0.00     0.031 C 
ATOM     57  C   UNL     1      16.438  11.663  -0.567  1.00  0.00     0.034 A 
BRANCH  44  58
ATOM     58  C   UNL     1      16.275   8.551   4.770  1.00  0.00     0.023 A 
ATOM     59  C   UNL     1      17.312   7.703   5.211  1.00  0.00     0.012 A 
ATOM     60  C   UNL     1      15.616   9.376   5.702  1.00  0.00     0.148 A 
ATOM     61  C   UNL     1      17.657   7.641   6.560  1.00  0.00     0.002 A 
ATOM     62  C   UNL     1      15.998   9.344   7.040  1.00  0.00     0.091 A 
ATOM     63  F   UNL     1      14.619  10.162   5.271  1.00  0.00    -0.205 F 
ATOM     64  C   UNL     1      17.008   8.468   7.472  1.00  0.00     0.022 A 
BRANCH  62  65
ATOM     65  S   UNL     1      15.280  10.430   8.278  1.00  0.00     0.127 S 
ATOM     66  O   UNL     1      14.446   9.500   9.038  1.00  0.00    -0.237 OA
ATOM     67  O   UNL     1      16.464  10.909   8.992  1.00  0.00    -0.237 OA
ATOM     68  O   UNL     1      14.561  11.458   7.539  1.00  0.00    -0.744 OA
ENDBRANCH  62  65
ENDBRANCH  44  58
BRANCH  45  69
ATOM     69  C   UNL     1      13.367   8.586  -4.791  1.00  0.00     0.023 A 
ATOM     70  C   UNL     1      14.315   8.535  -5.833  1.00  0.00     0.012 A 
ATOM     71  C   UNL     1      11.997   8.633  -5.113  1.00  0.00     0.148 A 
ATOM     72  C   UNL     1      13.910   8.562  -7.167  1.00  0.00     0.002 A 
ATOM     73  C   UNL     1      11.598   8.605  -6.445  1.00  0.00     0.091 A 
ATOM     74  F   UNL     1      11.110   8.691  -4.109  1.00  0.00    -0.205 F 
ATOM     75  C   UNL     1      12.553   8.587  -7.474  1.00  0.00     0.022 A 
BRANCH  73  76
ATOM     76  S   UNL     1       9.871   8.496  -6.929  1.00  0.00     0.127 S 
ATOM     77  O   UNL     1       9.613   9.844  -7.426  1.00  0.00    -0.237 OA
ATOM     78  O   UNL     1       9.908   7.455  -7.957  1.00  0.00    -0.237 OA
ATOM     79  O   UNL     1       9.152   8.115  -5.720  1.00  0.00    -0.744 OA
ENDBRANCH  73  76
ENDBRANCH  45  69
BRANCH  57  80
ATOM     80  C   UNL     1      17.078  12.996  -0.847  1.00  0.00     0.023 A 
ATOM     81  C   UNL     1      16.274  14.146  -0.961  1.00  0.00     0.012 A 
ATOM     82  C   UNL     1      18.480  13.120  -0.906  1.00  0.00     0.148 A 
ATOM     83  C   UNL     1      16.855  15.398  -1.156  1.00  0.00     0.002 A 
ATOM     84  C   UNL     1      19.054  14.377  -1.055  1.00  0.00     0.091 A 
ATOM     85  F   UNL     1      19.226  12.009  -0.816  1.00  0.00    -0.205 F 
ATOM     86  C   UNL     1      18.243  15.515  -1.190  1.00  0.00     0.022 A 
BRANCH  84  87
ATOM     87  S   UNL     1      20.832  14.630  -1.011  1.00  0.00     0.127 S 
ATOM     88  O   UNL     1      21.134  14.860  -2.423  1.00  0.00    -0.237 OA
ATOM     89  O   UNL     1      20.958  15.813  -0.160  1.00  0.00    -0.237 OA
ATOM     90  O   UNL     1      21.393  13.414  -0.439  1.00  0.00    -0.744 OA
ENDBRANCH  84  87
ENDBRANCH  57  80
ENDBRANCH  31  32
ENDBRANCH  23  26
ENDBRANCH   1  22
TORSDOF 15
