REMARK SMILES O=C(NCCCNC(=O)c1ccc(S(=O)(=O)Cc2cccs2)c(F)c1)c1ccc(-c2c3nc(c(-c4cccc(S(=O)(=O)[O-])c4F)c4ccc([nH]4)c(-c4cccc(S(=O)(=O)[O-])c4F)c4nc(c(-c5cccc(S(=O)(=O)[O-])c5F)c5ccc2[nH]5)C=C4)C=C3)cc1
REMARK SMILES IDX 5 1 4 2 3 3 1 4 2 5 26 7 27 8 88 9 28 10 87 11 29 12 30 13
REMARK SMILES IDX 31 14 81 15 32 16 86 17 80 18 82 19 33 20 85 21 79 22 78 23
REMARK SMILES IDX 34 25 66 26 46 27 65 28 47 29 50 30 64 31 83 32 48 33 49 34
REMARK SMILES IDX 63 36 84 37 51 38 35 39 36 40 44 41 37 42 39 43 45 44 38 45
REMARK SMILES IDX 40 46 41 47 42 48 43 49 67 50 68 51 76 52 69 53 71 54 77 55
REMARK SMILES IDX 70 56 72 57 73 58 74 59 75 60 52 61 53 62 61 63 54 64 56 65
REMARK SMILES IDX 62 66 55 67 57 68 58 69 59 70 60 71 6 72 7 73 8 74 9 76
REMARK SMILES IDX 10 77 11 78 25 79 12 80 23 81 13 82 24 83 14 84 15 85 16 86
REMARK SMILES IDX 17 87 18 88 19 89 22 90 20 91 21 92
REMARK H PARENT 3 6 82 24 50 35 7 75
REMARK Flexibility Score: inf
ROOT
ATOM      1  C   UNL     1       4.754  -2.227  -1.471  1.00  0.00     0.042 C 
ENDROOT
BRANCH   1   2
ATOM      2  C   UNL     1       4.472  -0.736  -1.332  1.00  0.00     0.118 C 
BRANCH   2   3
ATOM      3  N   UNL     1       3.053  -0.443  -1.169  1.00  0.00    -0.352 N 
ATOM      4  O   UNL     1       1.125   0.004  -0.108  1.00  0.00    -0.269 OA
ATOM      5  C   UNL     1       2.353   0.023  -0.081  1.00  0.00     0.251 C 
ATOM      6  H   UNL     1       2.505  -0.606  -1.971  1.00  0.00     0.163 HD
BRANCH   5   7
ATOM      7  C   UNL     1       3.067   0.516   1.117  1.00  0.00     0.039 A 
ATOM      8  C   UNL     1       4.219   1.291   0.993  1.00  0.00     0.014 A 
ATOM      9  C   UNL     1       2.566   0.217   2.388  1.00  0.00     0.014 A 
ATOM     10  C   UNL     1       4.971   1.601   2.120  1.00  0.00     0.010 A 
ATOM     11  C   UNL     1       3.266   0.627   3.529  1.00  0.00     0.010 A 
ATOM     12  C   UNL     1       4.499   1.284   3.405  1.00  0.00    -0.014 A 
BRANCH  12  13
ATOM     13  C   UNL     1       5.294   1.707   4.588  1.00  0.00     0.031 A 
ATOM     14  C   UNL     1       5.857   0.701   5.556  1.00  0.00     0.074 A 
ATOM     15  C   UNL     1       5.536   3.022   4.767  1.00  0.00     0.049 A 
ATOM     16  N   UNL     1       6.618   0.909   6.600  1.00  0.00    -0.248 NA
ATOM     17  C   UNL     1       5.524  -0.717   5.338  1.00  0.00     0.031 C 
ATOM     18  C   UNL     1       5.005   4.094   3.920  1.00  0.00     0.029 A 
ATOM     19  N   UNL     1       6.292   3.684   5.700  1.00  0.00    -0.354 N 
ATOM     20  C   UNL     1       6.821  -0.335   7.184  1.00  0.00     0.074 A 
ATOM     21  C   UNL     1       6.099  -1.298   6.383  1.00  0.00     0.031 C 
ATOM     22  C   UNL     1       5.485   5.271   4.345  1.00  0.00     0.029 A 
ATOM     23  C   UNL     1       6.307   5.049   5.529  1.00  0.00     0.049 A 
ATOM     24  H   UNL     1       6.778   3.226   6.424  1.00  0.00     0.167 HD
ATOM     25  C   UNL     1       7.559  -0.646   8.276  1.00  0.00     0.034 A 
ATOM     26  C   UNL     1       6.902   6.021   6.247  1.00  0.00     0.034 A 
ATOM     27  C   UNL     1       8.320   0.310   9.036  1.00  0.00     0.049 A 
ATOM     28  C   UNL     1       7.739   5.640   7.434  1.00  0.00     0.074 A 
ATOM     29  C   UNL     1       9.159   0.073  10.111  1.00  0.00     0.029 A 
ATOM     30  N   UNL     1       8.335   1.677   8.811  1.00  0.00    -0.354 N 
ATOM     31  N   UNL     1       8.022   4.443   7.887  1.00  0.00    -0.248 NA
ATOM     32  C   UNL     1       8.356   6.734   8.196  1.00  0.00     0.031 C 
ATOM     33  C   UNL     1       9.663   1.299  10.551  1.00  0.00     0.029 A 
ATOM     34  C   UNL     1       9.157   2.298   9.735  1.00  0.00     0.049 A 
ATOM     35  H   UNL     1       7.835   2.138   8.099  1.00  0.00     0.167 HD
ATOM     36  C   UNL     1       8.861   4.638   8.977  1.00  0.00     0.074 A 
ATOM     37  C   UNL     1       9.065   6.067   9.097  1.00  0.00     0.031 C 
ATOM     38  C   UNL     1       9.393   3.716   9.815  1.00  0.00     0.034 A 
BRANCH  25  39
ATOM     39  C   UNL     1       7.640  -2.088   8.705  1.00  0.00     0.023 A 
ATOM     40  C   UNL     1       8.456  -2.980   7.982  1.00  0.00     0.012 A 
ATOM     41  C   UNL     1       7.026  -2.521   9.897  1.00  0.00     0.148 A 
ATOM     42  C   UNL     1       8.653  -4.285   8.434  1.00  0.00     0.002 A 
ATOM     43  C   UNL     1       7.260  -3.810  10.362  1.00  0.00     0.091 A 
ATOM     44  F   UNL     1       6.243  -1.659  10.562  1.00  0.00    -0.205 F 
ATOM     45  C   UNL     1       8.068  -4.694   9.629  1.00  0.00     0.022 A 
BRANCH  43  46
ATOM     46  S   UNL     1       6.623  -4.410  11.932  1.00  0.00     0.127 S 
ATOM     47  O   UNL     1       5.687  -5.446  11.493  1.00  0.00    -0.237 OA
ATOM     48  O   UNL     1       7.833  -4.917  12.580  1.00  0.00    -0.237 OA
ATOM     49  O   UNL     1       6.013  -3.262  12.587  1.00  0.00    -0.744 OA
ENDBRANCH  43  46
ENDBRANCH  25  39
BRANCH  26  50
ATOM     50  C   UNL     1       6.752   7.441   5.822  1.00  0.00     0.023 A 
ATOM     51  C   UNL     1       7.862   8.132   5.301  1.00  0.00     0.012 A 
ATOM     52  C   UNL     1       5.499   8.085   5.862  1.00  0.00     0.148 A 
ATOM     53  C   UNL     1       7.730   9.443   4.840  1.00  0.00     0.002 A 
ATOM     54  C   UNL     1       5.361   9.365   5.341  1.00  0.00     0.091 A 
ATOM     55  F   UNL     1       4.458   7.418   6.381  1.00  0.00    -0.205 F 
ATOM     56  C   UNL     1       6.478  10.053   4.845  1.00  0.00     0.022 A 
BRANCH  54  57
ATOM     57  S   UNL     1       3.756  10.154   5.161  1.00  0.00     0.127 S 
ATOM     58  O   UNL     1       3.793  11.152   6.226  1.00  0.00    -0.237 OA
ATOM     59  O   UNL     1       3.835  10.696   3.804  1.00  0.00    -0.237 OA
ATOM     60  O   UNL     1       2.778   9.087   5.321  1.00  0.00    -0.744 OA
ENDBRANCH  54  57
ENDBRANCH  26  50
BRANCH  38  61
ATOM     61  C   UNL     1      10.261   4.205  10.943  1.00  0.00     0.023 A 
ATOM     62  C   UNL     1       9.662   4.815  12.062  1.00  0.00     0.012 A 
ATOM     63  C   UNL     1      11.646   3.948  10.949  1.00  0.00     0.148 A 
ATOM     64  C   UNL     1      10.432   5.175  13.167  1.00  0.00     0.002 A 
ATOM     65  C   UNL     1      12.399   4.266  12.073  1.00  0.00     0.091 A 
ATOM     66  F   UNL     1      12.195   3.380   9.865  1.00  0.00    -0.205 F 
ATOM     67  C   UNL     1      11.795   4.887  13.178  1.00  0.00     0.022 A 
BRANCH  65  68
ATOM     68  S   UNL     1      14.139   3.844  12.222  1.00  0.00     0.127 S 
ATOM     69  O   UNL     1      14.769   5.162  12.176  1.00  0.00    -0.237 OA
ATOM     70  O   UNL     1      14.188   3.189  13.529  1.00  0.00    -0.237 OA
ATOM     71  O   UNL     1      14.440   2.972  11.094  1.00  0.00    -0.744 OA
ENDBRANCH  65  68
ENDBRANCH  38  61
ENDBRANCH  12  13
ENDBRANCH   5   7
ENDBRANCH   2   3
ENDBRANCH   1   2
BRANCH   1  72
ATOM     72  C   UNL     1       4.121  -2.856  -2.705  1.00  0.00     0.118 C 
BRANCH  72  73
ATOM     73  N   UNL     1       4.645  -2.279  -3.935  1.00  0.00    -0.352 N 
ATOM     74  C   UNL     1       5.615  -2.771  -4.767  1.00  0.00     0.251 C 
ATOM     75  H   UNL     1       4.248  -1.419  -4.204  1.00  0.00     0.163 HD
ATOM     76  O   UNL     1       6.098  -2.091  -5.661  1.00  0.00    -0.269 OA
BRANCH  74  77
ATOM     77  C   UNL     1       6.081  -4.153  -4.580  1.00  0.00     0.042 A 
ATOM     78  C   UNL     1       5.206  -5.222  -4.805  1.00  0.00     0.015 A 
ATOM     79  C   UNL     1       7.408  -4.375  -4.216  1.00  0.00     0.054 A 
ATOM     80  C   UNL     1       5.665  -6.529  -4.654  1.00  0.00     0.024 A 
ATOM     81  C   UNL     1       7.850  -5.683  -4.046  1.00  0.00     0.142 A 
ATOM     82  C   UNL     1       6.997  -6.754  -4.284  1.00  0.00     0.103 A 
ATOM     83  F   UNL     1       9.116  -5.876  -3.660  1.00  0.00    -0.206 F 
BRANCH  82  84
ATOM     84  S   UNL     1       7.567  -8.417  -4.107  1.00  0.00     0.186 S 
ATOM     85  O   UNL     1       7.582  -8.668  -2.677  1.00  0.00    -0.223 OA
ATOM     86  O   UNL     1       6.723  -9.235  -4.964  1.00  0.00    -0.223 OA
BRANCH  84  87
ATOM     87  C   UNL     1       9.245  -8.529  -4.703  1.00  0.00     0.188 C 
BRANCH  87  88
ATOM     88  C   UNL     1       9.374  -8.118  -6.139  1.00  0.00     0.020 A 
ATOM     89  C   UNL     1       9.698  -6.881  -6.663  1.00  0.00     0.016 A 
ATOM     90  S   UNL     1       9.221  -9.293  -7.382  1.00  0.00    -0.148 S 
ATOM     91  C   UNL     1       9.778  -6.891  -8.085  1.00  0.00     0.012 A 
ATOM     92  C   UNL     1       9.552  -8.145  -8.603  1.00  0.00     0.065 A 
ENDBRANCH  87  88
ENDBRANCH  84  87
ENDBRANCH  82  84
ENDBRANCH  74  77
ENDBRANCH  72  73
ENDBRANCH   1  72
TORSDOF 16
