REMARK SMILES O=C(NCCCNC(=O)[C@H](CO)NC(=O)[C@H](Cc1c[nH]c2ccccc12)NC(=O)c1ccc(F)cc1)c1ccc(-c2c3nc(c(-c4cccc(S(=O)(=O)[O-])c4F)c4ccc([nH]4)c(-c4cccc(S(=O)(=O)[O-])c4F)c4nc(c(-c5cccc(S(=O)(=O)[O-])c5F)c5ccc2[nH]5)C=C4)C=C3)cc1
REMARK SMILES IDX 5 1 4 2 3 3 1 4 2 5 37 7 38 8 99 9 39 10 98 11 40 12 41 13
REMARK SMILES IDX 42 14 92 15 43 16 97 17 91 18 93 19 44 20 96 21 90 22 89 23
REMARK SMILES IDX 45 25 77 26 57 27 76 28 58 29 61 30 75 31 94 32 59 33 60 34
REMARK SMILES IDX 74 36 95 37 62 38 46 39 47 40 55 41 48 42 50 43 56 44 49 45
REMARK SMILES IDX 51 46 52 47 53 48 54 49 78 50 79 51 87 52 80 53 82 54 88 55
REMARK SMILES IDX 81 56 83 57 84 58 85 59 86 60 63 61 64 62 72 63 65 64 67 65
REMARK SMILES IDX 73 66 66 67 68 68 69 69 70 70 71 71 6 72 7 73 8 74 9 76
REMARK SMILES IDX 10 77 13 78 14 79 15 81 16 82 27 83 28 84 29 86 30 87 31 88
REMARK SMILES IDX 36 89 32 90 35 91 33 92 34 93 17 94 18 95 19 96 26 97 20 98
REMARK SMILES IDX 21 99 25 100 22 102 24 103 23 104 11 105 12 106
REMARK H PARENT 3 6 93 24 61 35 7 75 13 80 27 85 20 101 12 107
REMARK Flexibility Score: inf
ROOT
ATOM      1  C   UNL     1       4.312   9.238   7.273  1.00  0.00     0.042 C 
ENDROOT
BRANCH   1   2
ATOM      2  C   UNL     1       4.564  10.338   8.294  1.00  0.00     0.118 C 
BRANCH   2   3
ATOM      3  N   UNL     1       3.404  10.589   9.137  1.00  0.00    -0.352 N 
ATOM      4  O   UNL     1       2.117  10.428  10.974  1.00  0.00    -0.269 OA
ATOM      5  C   UNL     1       3.242  10.371  10.484  1.00  0.00     0.251 C 
ATOM      6  H   UNL     1       2.623  10.970   8.676  1.00  0.00     0.163 HD
BRANCH   5   7
ATOM      7  C   UNL     1       4.417  10.054  11.320  1.00  0.00     0.039 A 
ATOM      8  C   UNL     1       5.616  10.747  11.136  1.00  0.00     0.014 A 
ATOM      9  C   UNL     1       4.319   9.067  12.304  1.00  0.00     0.014 A 
ATOM     10  C   UNL     1       6.754  10.351  11.822  1.00  0.00     0.010 A 
ATOM     11  C   UNL     1       5.440   8.744  13.072  1.00  0.00     0.010 A 
ATOM     12  C   UNL     1       6.670   9.370  12.822  1.00  0.00    -0.014 A 
BRANCH  12  13
ATOM     13  C   UNL     1       7.857   9.122  13.676  1.00  0.00     0.031 A 
ATOM     14  C   UNL     1       8.553   7.795  13.694  1.00  0.00     0.074 A 
ATOM     15  C   UNL     1       8.306  10.142  14.432  1.00  0.00     0.049 A 
ATOM     16  N   UNL     1       9.623   7.446  14.360  1.00  0.00    -0.248 NA
ATOM     17  C   UNL     1       7.979   6.719  12.872  1.00  0.00     0.031 C 
ATOM     18  C   UNL     1       7.676  11.464  14.511  1.00  0.00     0.029 A 
ATOM     19  N   UNL     1       9.392  10.243  15.260  1.00  0.00    -0.354 N 
ATOM     20  C   UNL     1       9.835   6.105  14.066  1.00  0.00     0.074 A 
ATOM     21  C   UNL     1       8.775   5.699  13.168  1.00  0.00     0.031 C 
ATOM     22  C   UNL     1       8.414  12.257  15.296  1.00  0.00     0.029 A 
ATOM     23  C   UNL     1       9.528  11.486  15.832  1.00  0.00     0.049 A 
ATOM     24  H   UNL     1      10.014   9.499  15.429  1.00  0.00     0.167 HD
ATOM     25  C   UNL     1      10.833   5.296  14.497  1.00  0.00     0.034 A 
ATOM     26  C   UNL     1      10.442  11.957  16.702  1.00  0.00     0.034 A 
ATOM     27  C   UNL     1      11.893   5.724  15.373  1.00  0.00     0.049 A 
ATOM     28  C   UNL     1      11.543  11.046  17.150  1.00  0.00     0.074 A 
ATOM     29  C   UNL     1      12.971   4.992  15.838  1.00  0.00     0.029 A 
ATOM     30  N   UNL     1      12.010   6.995  15.918  1.00  0.00    -0.354 N 
ATOM     31  N   UNL     1      11.778   9.807  16.792  1.00  0.00    -0.248 NA
ATOM     32  C   UNL     1      12.515  11.595  18.103  1.00  0.00     0.031 C 
ATOM     33  C   UNL     1      13.728   5.813  16.680  1.00  0.00     0.029 A 
ATOM     34  C   UNL     1      13.137   7.067  16.720  1.00  0.00     0.049 A 
ATOM     35  H   UNL     1      11.383   7.737  15.759  1.00  0.00     0.167 HD
ATOM     36  C   UNL     1      12.935   9.430  17.459  1.00  0.00     0.074 A 
ATOM     37  C   UNL     1      13.365  10.583  18.227  1.00  0.00     0.031 C 
ATOM     38  C   UNL     1      13.572   8.234  17.447  1.00  0.00     0.034 A 
BRANCH  25  39
ATOM     39  C   UNL     1      10.853   3.873  14.000  1.00  0.00     0.023 A 
ATOM     40  C   UNL     1      11.222   3.610  12.665  1.00  0.00     0.012 A 
ATOM     41  C   UNL     1      10.582   2.795  14.865  1.00  0.00     0.148 A 
ATOM     42  C   UNL     1      11.298   2.300  12.193  1.00  0.00     0.002 A 
ATOM     43  C   UNL     1      10.700   1.489  14.399  1.00  0.00     0.091 A 
ATOM     44  F   UNL     1      10.208   3.062  16.125  1.00  0.00    -0.205 F 
ATOM     45  C   UNL     1      11.048   1.241  13.061  1.00  0.00     0.022 A 
BRANCH  43  46
ATOM     46  S   UNL     1      10.475   0.060  15.465  1.00  0.00     0.127 S 
ATOM     47  O   UNL     1       9.155  -0.411  15.052  1.00  0.00    -0.237 OA
ATOM     48  O   UNL     1      11.584  -0.806  15.064  1.00  0.00    -0.237 OA
ATOM     49  O   UNL     1      10.566   0.564  16.828  1.00  0.00    -0.744 OA
ENDBRANCH  43  46
ENDBRANCH  25  39
BRANCH  26  50
ATOM     50  C   UNL     1      10.363  13.383  17.123  1.00  0.00     0.023 A 
ATOM     51  C   UNL     1      11.303  14.302  16.620  1.00  0.00     0.012 A 
ATOM     52  C   UNL     1       9.285  13.853  17.900  1.00  0.00     0.148 A 
ATOM     53  C   UNL     1      11.168  15.666  16.880  1.00  0.00     0.002 A 
ATOM     54  C   UNL     1       9.123  15.218  18.101  1.00  0.00     0.091 A 
ATOM     55  F   UNL     1       8.407  12.957  18.372  1.00  0.00    -0.205 F 
ATOM     56  C   UNL     1      10.071  16.125  17.603  1.00  0.00     0.022 A 
BRANCH  54  57
ATOM     57  S   UNL     1       7.655  15.913  18.870  1.00  0.00     0.127 S 
ATOM     58  O   UNL     1       8.205  16.496  20.091  1.00  0.00    -0.237 OA
ATOM     59  O   UNL     1       7.221  16.882  17.864  1.00  0.00    -0.237 OA
ATOM     60  O   UNL     1       6.741  14.795  19.064  1.00  0.00    -0.744 OA
ENDBRANCH  54  57
ENDBRANCH  26  50
BRANCH  38  61
ATOM     61  C   UNL     1      14.818   8.101  18.281  1.00  0.00     0.023 A 
ATOM     62  C   UNL     1      14.710   7.990  19.681  1.00  0.00     0.012 A 
ATOM     63  C   UNL     1      16.082   7.985  17.671  1.00  0.00     0.148 A 
ATOM     64  C   UNL     1      15.845   7.784  20.464  1.00  0.00     0.002 A 
ATOM     65  C   UNL     1      17.203   7.733  18.453  1.00  0.00     0.091 A 
ATOM     66  F   UNL     1      16.164   8.116  16.339  1.00  0.00    -0.205 F 
ATOM     67  C   UNL     1      17.087   7.642  19.850  1.00  0.00     0.022 A 
BRANCH  65  68
ATOM     68  S   UNL     1      18.825   7.438  17.741  1.00  0.00     0.127 S 
ATOM     69  O   UNL     1      19.528   8.675  18.081  1.00  0.00    -0.237 OA
ATOM     70  O   UNL     1      19.278   6.257  18.477  1.00  0.00    -0.237 OA
ATOM     71  O   UNL     1      18.604   7.215  16.319  1.00  0.00    -0.744 OA
ENDBRANCH  65  68
ENDBRANCH  38  61
ENDBRANCH  12  13
ENDBRANCH   5   7
ENDBRANCH   2   3
ENDBRANCH   1   2
BRANCH   1  72
ATOM     72  C   UNL     1       3.185   9.557   6.305  1.00  0.00     0.117 C 
BRANCH  72  73
ATOM     73  N   UNL     1       3.437  10.781   5.567  1.00  0.00    -0.354 N 
ATOM     74  C   UNL     1       3.657  10.992   4.243  1.00  0.00     0.244 C 
ATOM     75  H   UNL     1       3.452  11.596   6.119  1.00  0.00     0.163 HD
ATOM     76  O   UNL     1       3.871  12.149   3.870  1.00  0.00    -0.273 OA
BRANCH  74  77
ATOM     77  C   UNL     1       3.640   9.839   3.236  1.00  0.00     0.197 C 
BRANCH  77  78
ATOM     78  N   UNL     1       4.789   8.955   3.458  1.00  0.00    -0.340 N 
ATOM     79  C   UNL     1       5.734   8.524   2.569  1.00  0.00     0.243 C 
ATOM     80  H   UNL     1       4.896   8.624   4.380  1.00  0.00     0.164 HD
ATOM     81  O   UNL     1       6.644   7.815   3.002  1.00  0.00    -0.273 OA
BRANCH  79  82
ATOM     82  C   UNL     1       5.606   8.895   1.080  1.00  0.00     0.176 C 
BRANCH  82  83
ATOM     83  N   UNL     1       6.926   8.943   0.444  1.00  0.00    -0.340 N 
ATOM     84  C   UNL     1       7.640  10.022  -0.006  1.00  0.00     0.251 C 
ATOM     85  H   UNL     1       7.363   8.070   0.320  1.00  0.00     0.164 HD
ATOM     86  O   UNL     1       8.710   9.880  -0.589  1.00  0.00    -0.269 OA
BRANCH  84  87
ATOM     87  C   UNL     1       7.086  11.383   0.150  1.00  0.00     0.040 A 
ATOM     88  C   UNL     1       6.774  11.903   1.413  1.00  0.00     0.017 A 
ATOM     89  C   UNL     1       6.890  12.154  -1.003  1.00  0.00     0.017 A 
ATOM     90  C   UNL     1       6.199  13.172   1.512  1.00  0.00     0.040 A 
ATOM     91  C   UNL     1       6.328  13.426  -0.895  1.00  0.00     0.040 A 
ATOM     92  C   UNL     1       5.976  13.918   0.358  1.00  0.00     0.123 A 
ATOM     93  F   UNL     1       5.417  15.131   0.454  1.00  0.00    -0.207 F 
ENDBRANCH  84  87
ENDBRANCH  82  83
BRANCH  82  94
ATOM     94  C   UNL     1       4.591   7.981   0.383  1.00  0.00     0.072 C 
BRANCH  94  95
ATOM     95  C   UNL     1       5.123   6.689  -0.145  1.00  0.00    -0.020 A 
ATOM     96  C   UNL     1       5.295   5.511   0.555  1.00  0.00     0.087 A 
ATOM     97  C   UNL     1       5.506   6.431  -1.498  1.00  0.00     0.003 A 
ATOM     98  N   UNL     1       5.746   4.557  -0.319  1.00  0.00    -0.361 N 
ATOM     99  C   UNL     1       5.866   5.087  -1.583  1.00  0.00     0.046 A 
ATOM    100  C   UNL     1       5.567   7.222  -2.663  1.00  0.00     0.010 A 
ATOM    101  H   UNL     1       5.954   3.626  -0.076  1.00  0.00     0.166 HD
ATOM    102  C   UNL     1       6.262   4.487  -2.784  1.00  0.00     0.026 A 
ATOM    103  C   UNL     1       5.968   6.641  -3.870  1.00  0.00     0.001 A 
ATOM    104  C   UNL     1       6.303   5.291  -3.928  1.00  0.00     0.002 A 
ENDBRANCH  94  95
ENDBRANCH  82  94
ENDBRANCH  79  82
ENDBRANCH  77  78
BRANCH  77 105
ATOM    105  C   UNL     1       2.292   9.101   3.223  1.00  0.00     0.191 C 
BRANCH 105 106
ATOM    106  O   UNL     1       1.720   9.118   1.912  1.00  0.00    -0.394 OA
ATOM    107  H   UNL     1       1.569  10.036   1.637  1.00  0.00     0.210 HD
ENDBRANCH 105 106
ENDBRANCH  77 105
ENDBRANCH  74  77
ENDBRANCH  72  73
ENDBRANCH   1  72
TORSDOF 21
