REMARK SMILES O=C(NCCCNC(=O)c1cccn1CC(=O)N1CC[C@H]2CCCC[C@H]2C1)c1ccc(-c2c3nc(c(-c4cccc(S(=O)(=O)[O-])c4F)c4ccc([nH]4)c(-c4cccc(S(=O)(=O)[O-])c4F)c4nc(c(-c5cccc(S(=O)(=O)[O-])c5F)c5ccc2[nH]5)C=C4)C=C3)cc1
REMARK SMILES IDX 5 1 4 2 3 3 1 4 2 5 28 7 29 8 90 9 30 10 89 11 31 12 32 13
REMARK SMILES IDX 33 14 83 15 34 16 88 17 82 18 84 19 35 20 87 21 81 22 80 23
REMARK SMILES IDX 36 25 68 26 48 27 67 28 49 29 52 30 66 31 85 32 50 33 51 34
REMARK SMILES IDX 65 36 86 37 53 38 37 39 38 40 46 41 39 42 41 43 47 44 40 45
REMARK SMILES IDX 42 46 43 47 44 48 45 49 69 50 70 51 78 52 71 53 73 54 79 55
REMARK SMILES IDX 72 56 74 57 75 58 76 59 77 60 54 61 55 62 63 63 56 64 58 65
REMARK SMILES IDX 64 66 57 67 59 68 60 69 61 70 62 71 6 72 7 73 8 74 9 76
REMARK SMILES IDX 10 77 11 78 14 79 12 80 13 81 15 82 16 83 17 84 18 85 19 86
REMARK SMILES IDX 27 87 20 88 26 89 21 90 25 91 22 92 24 93 23 94
REMARK H PARENT 3 6 84 24 52 35 7 75
REMARK Flexibility Score: inf
ROOT
ATOM      1  C   UNL     1       4.439   1.538  -1.667  1.00  0.00     0.042 C 
ENDROOT
BRANCH   1   2
ATOM      2  C   UNL     1       4.063   1.435  -0.195  1.00  0.00     0.118 C 
BRANCH   2   3
ATOM      3  N   UNL     1       2.681   1.133   0.087  1.00  0.00    -0.352 N 
ATOM      4  O   UNL     1       0.825  -0.003   0.490  1.00  0.00    -0.269 OA
ATOM      5  C   UNL     1       1.919   0.002  -0.076  1.00  0.00     0.251 C 
ATOM      6  H   UNL     1       2.184   1.890   0.474  1.00  0.00     0.163 HD
BRANCH   5   7
ATOM      7  C   UNL     1       2.299  -1.138  -0.958  1.00  0.00     0.039 A 
ATOM      8  C   UNL     1       3.609  -1.557  -1.208  1.00  0.00     0.014 A 
ATOM      9  C   UNL     1       1.241  -1.833  -1.568  1.00  0.00     0.014 A 
ATOM     10  C   UNL     1       3.861  -2.584  -2.121  1.00  0.00     0.010 A 
ATOM     11  C   UNL     1       1.486  -2.879  -2.462  1.00  0.00     0.010 A 
ATOM     12  C   UNL     1       2.801  -3.255  -2.744  1.00  0.00    -0.014 A 
BRANCH  12  13
ATOM     13  C   UNL     1       3.108  -4.521  -3.465  1.00  0.00     0.031 A 
ATOM     14  C   UNL     1       3.346  -5.674  -2.452  1.00  0.00     0.074 A 
ATOM     15  C   UNL     1       3.207  -4.481  -4.834  1.00  0.00     0.049 A 
ATOM     16  N   UNL     1       4.186  -6.668  -2.495  1.00  0.00    -0.248 NA
ATOM     17  C   UNL     1       2.646  -5.641  -1.135  1.00  0.00     0.031 C 
ATOM     18  C   UNL     1       2.883  -3.304  -5.673  1.00  0.00     0.029 A 
ATOM     19  N   UNL     1       3.584  -5.396  -5.806  1.00  0.00    -0.354 N 
ATOM     20  C   UNL     1       3.920  -7.490  -1.365  1.00  0.00     0.074 A 
ATOM     21  C   UNL     1       3.098  -6.719  -0.490  1.00  0.00     0.031 C 
ATOM     22  C   UNL     1       3.144  -3.544  -6.980  1.00  0.00     0.029 A 
ATOM     23  C   UNL     1       3.639  -4.901  -7.142  1.00  0.00     0.049 A 
ATOM     24  H   UNL     1       3.800  -6.331  -5.587  1.00  0.00     0.167 HD
ATOM     25  C   UNL     1       4.242  -8.820  -1.313  1.00  0.00     0.034 A 
ATOM     26  C   UNL     1       4.070  -5.526  -8.290  1.00  0.00     0.034 A 
ATOM     27  C   UNL     1       4.820  -9.195  -2.559  1.00  0.00     0.049 A 
ATOM     28  C   UNL     1       4.264  -6.927  -7.914  1.00  0.00     0.074 A 
ATOM     29  C   UNL     1       6.029  -8.943  -3.146  1.00  0.00     0.029 A 
ATOM     30  N   UNL     1       3.920  -9.637  -3.498  1.00  0.00    -0.354 N 
ATOM     31  N   UNL     1       3.296  -7.769  -7.719  1.00  0.00    -0.248 NA
ATOM     32  C   UNL     1       5.628  -7.426  -7.701  1.00  0.00     0.031 C 
ATOM     33  C   UNL     1       5.695  -8.810  -4.505  1.00  0.00     0.029 A 
ATOM     34  C   UNL     1       4.365  -9.204  -4.713  1.00  0.00     0.049 A 
ATOM     35  H   UNL     1       3.108 -10.166  -3.327  1.00  0.00     0.167 HD
ATOM     36  C   UNL     1       3.926  -8.742  -6.989  1.00  0.00     0.074 A 
ATOM     37  C   UNL     1       5.331  -8.668  -7.328  1.00  0.00     0.031 C 
ATOM     38  C   UNL     1       3.405  -9.077  -5.780  1.00  0.00     0.034 A 
BRANCH  25  39
ATOM     39  C   UNL     1       3.871  -9.983  -0.412  1.00  0.00     0.023 A 
ATOM     40  C   UNL     1       4.648 -11.167  -0.605  1.00  0.00     0.012 A 
ATOM     41  C   UNL     1       2.687 -10.115   0.330  1.00  0.00     0.148 A 
ATOM     42  C   UNL     1       4.207 -12.432  -0.221  1.00  0.00     0.002 A 
ATOM     43  C   UNL     1       2.276 -11.381   0.765  1.00  0.00     0.091 A 
ATOM     44  F   UNL     1       1.921  -9.041   0.544  1.00  0.00    -0.205 F 
ATOM     45  C   UNL     1       3.006 -12.539   0.452  1.00  0.00     0.022 A 
BRANCH  43  46
ATOM     46  S   UNL     1       0.788 -11.645   1.738  1.00  0.00     0.127 S 
ATOM     47  O   UNL     1      -0.114 -12.245   0.759  1.00  0.00    -0.237 OA
ATOM     48  O   UNL     1       1.264 -12.571   2.769  1.00  0.00    -0.237 OA
ATOM     49  O   UNL     1       0.416 -10.333   2.249  1.00  0.00    -0.744 OA
ENDBRANCH  43  46
ENDBRANCH  25  39
BRANCH  26  50
ATOM     50  C   UNL     1       4.424  -5.206  -9.737  1.00  0.00     0.023 A 
ATOM     51  C   UNL     1       4.199  -3.974 -10.360  1.00  0.00     0.012 A 
ATOM     52  C   UNL     1       5.136  -6.172 -10.530  1.00  0.00     0.148 A 
ATOM     53  C   UNL     1       4.727  -3.695 -11.643  1.00  0.00     0.002 A 
ATOM     54  C   UNL     1       5.771  -5.852 -11.725  1.00  0.00     0.091 A 
ATOM     55  F   UNL     1       5.180  -7.451 -10.146  1.00  0.00    -0.205 F 
ATOM     56  C   UNL     1       5.553  -4.609 -12.302  1.00  0.00     0.022 A 
BRANCH  54  57
ATOM     57  S   UNL     1       6.999  -6.947 -12.476  1.00  0.00     0.127 S 
ATOM     58  O   UNL     1       6.550  -7.019 -13.865  1.00  0.00    -0.237 OA
ATOM     59  O   UNL     1       8.230  -6.185 -12.267  1.00  0.00    -0.237 OA
ATOM     60  O   UNL     1       6.937  -8.206 -11.744  1.00  0.00    -0.744 OA
ENDBRANCH  54  57
ENDBRANCH  26  50
BRANCH  38  61
ATOM     61  C   UNL     1       1.889  -8.898  -5.667  1.00  0.00     0.023 A 
ATOM     62  C   UNL     1       1.091  -9.575  -6.614  1.00  0.00     0.012 A 
ATOM     63  C   UNL     1       1.220  -8.021  -4.780  1.00  0.00     0.148 A 
ATOM     64  C   UNL     1      -0.291  -9.378  -6.697  1.00  0.00     0.002 A 
ATOM     65  C   UNL     1      -0.163  -7.811  -4.870  1.00  0.00     0.091 A 
ATOM     66  F   UNL     1       1.934  -7.387  -3.853  1.00  0.00    -0.205 F 
ATOM     67  C   UNL     1      -0.918  -8.495  -5.829  1.00  0.00     0.022 A 
BRANCH  65  68
ATOM     68  S   UNL     1      -1.073  -6.629  -3.851  1.00  0.00     0.127 S 
ATOM     69  O   UNL     1      -1.786  -5.831  -4.852  1.00  0.00    -0.237 OA
ATOM     70  O   UNL     1      -1.935  -7.503  -3.060  1.00  0.00    -0.237 OA
ATOM     71  O   UNL     1      -0.076  -5.878  -3.097  1.00  0.00    -0.744 OA
ENDBRANCH  65  68
ENDBRANCH  38  61
ENDBRANCH  12  13
ENDBRANCH   5   7
ENDBRANCH   2   3
ENDBRANCH   1   2
BRANCH   1  72
ATOM     72  C   UNL     1       4.125   2.851  -2.381  1.00  0.00     0.118 C 
BRANCH  72  73
ATOM     73  N   UNL     1       4.812   3.997  -1.808  1.00  0.00    -0.351 N 
ATOM     74  C   UNL     1       5.725   4.877  -2.333  1.00  0.00     0.267 C 
ATOM     75  H   UNL     1       4.579   4.175  -0.868  1.00  0.00     0.163 HD
ATOM     76  O   UNL     1       6.217   5.688  -1.548  1.00  0.00    -0.268 OA
BRANCH  74  77
ATOM     77  C   UNL     1       6.088   4.839  -3.739  1.00  0.00     0.107 A 
ATOM     78  C   UNL     1       5.263   4.709  -4.850  1.00  0.00     0.033 A 
ATOM     79  N   UNL     1       7.372   5.046  -4.240  1.00  0.00    -0.334 N 
ATOM     80  C   UNL     1       6.045   4.851  -6.019  1.00  0.00     0.020 A 
ATOM     81  C   UNL     1       7.336   5.093  -5.615  1.00  0.00     0.087 A 
BRANCH  79  82
ATOM     82  C   UNL     1       8.579   5.276  -3.456  1.00  0.00     0.222 C 
BRANCH  82  83
ATOM     83  C   UNL     1       9.775   4.345  -3.631  1.00  0.00     0.242 C 
ATOM     84  O   UNL     1      10.908   4.844  -3.660  1.00  0.00    -0.273 OA
BRANCH  83  85
ATOM     85  N   UNL     1       9.619   2.979  -3.476  1.00  0.00    -0.341 N 
ATOM     86  C   UNL     1       8.513   2.179  -3.964  1.00  0.00     0.120 C 
ATOM     87  C   UNL     1      10.601   2.209  -2.715  1.00  0.00     0.123 C 
ATOM     88  C   UNL     1       7.740   1.630  -2.783  1.00  0.00     0.025 C 
ATOM     89  C   UNL     1       9.910   1.603  -1.470  1.00  0.00     0.012 C 
ATOM     90  C   UNL     1       8.627   0.819  -1.820  1.00  0.00    -0.005 C 
ATOM     91  C   UNL     1      10.838   0.724  -0.634  1.00  0.00     0.006 C 
ATOM     92  C   UNL     1       8.863  -0.590  -2.388  1.00  0.00     0.004 C 
ATOM     93  C   UNL     1      11.260  -0.529  -1.381  1.00  0.00     0.000 C 
ATOM     94  C   UNL     1      10.086  -1.356  -1.891  1.00  0.00     0.000 C 
ENDBRANCH  83  85
ENDBRANCH  82  83
ENDBRANCH  79  82
ENDBRANCH  74  77
ENDBRANCH  72  73
ENDBRANCH   1  72
TORSDOF 16
