REMARK SMILES CC(C)[N@@H+](Cc1cccs1)[C@@H](C)c1ccc(C(=O)NCCCNC(=O)c2ccc(-c3c4nc(c(-c5cccc(S(=O)(=O)[O-])c5F)c5ccc([nH]5)c(-c5cccc(S(=O)(=O)[O-])c5F)c5nc(c(-c6cccc(S(=O)(=O)[O-])c6F)c6ccc3[nH]6)C=C5)C=C4)cc2)o1
REMARK SMILES IDX 20 1 19 2 17 3 18 4 16 6 13 7 14 8 89 9 15 10 11 11 12 12
REMARK SMILES IDX 4 13 2 15 1 16 3 17 5 18 6 19 7 20 10 21 8 22 9 23 21 24
REMARK SMILES IDX 22 25 23 26 24 27 25 29 26 30 27 31 88 32 28 33 87 34 29 35
REMARK SMILES IDX 30 36 31 37 81 38 32 39 86 40 80 41 82 42 33 43 85 44 79 45
REMARK SMILES IDX 78 46 34 48 66 49 46 50 65 51 47 52 50 53 64 54 83 55 48 56
REMARK SMILES IDX 49 57 63 59 84 60 51 61 35 62 36 63 44 64 37 65 39 66 45 67
REMARK SMILES IDX 38 68 40 69 41 70 42 71 43 72 67 73 68 74 76 75 69 76 71 77
REMARK SMILES IDX 77 78 70 79 72 80 73 81 74 82 75 83 52 84 53 85 61 86 54 87
REMARK SMILES IDX 56 88 62 89 55 90 57 91 58 92 59 93 60 94
REMARK H PARENT 19 5 4 14 23 28 82 47 50 58
REMARK Flexibility Score: inf
ROOT
ATOM      1  C   UNL     1       1.002  -1.273   4.975  1.00  0.00     0.118 C 
ENDROOT
BRANCH   1   2
ATOM      2  N   UNL     1       0.513  -2.561   4.530  1.00  0.00    -0.349 N 
ATOM      3  C   UNL     1      -0.258  -2.889   3.444  1.00  0.00     0.287 C 
ATOM      4  O   UNL     1      -0.429  -4.096   3.250  1.00  0.00    -0.266 OA
ATOM      5  H   UNL     1       0.774  -3.321   5.098  1.00  0.00     0.163 HD
BRANCH   3   6
ATOM      6  C   UNL     1      -0.770  -1.867   2.557  1.00  0.00     0.191 A 
ATOM      7  C   UNL     1      -1.285  -1.156   0.520  1.00  0.00     0.162 A 
ATOM      8  C   UNL     1      -1.550  -0.108   1.377  1.00  0.00     0.053 A 
ATOM      9  O   UNL     1      -0.872  -2.229   1.246  1.00  0.00    -0.450 OA
ATOM     10  C   UNL     1      -1.201  -0.558   2.681  1.00  0.00     0.057 A 
BRANCH   7  11
ATOM     11  C   UNL     1      -1.338  -1.355  -0.976  1.00  0.00     0.248 C 
ATOM     12  C   UNL     1      -0.818  -2.754  -1.347  1.00  0.00     0.084 C 
BRANCH  11  13
ATOM     13  N   UNL     1      -0.739  -0.230  -1.720  1.00  0.00    -0.320 N 
ATOM     14  H   UNL     1      -0.893   0.472  -0.996  1.00  0.00     0.349 HD
BRANCH  13  15
ATOM     15  C   UNL     1       0.710   0.025  -1.738  1.00  0.00     0.178 C 
ATOM     16  C   UNL     1       1.294   0.319  -0.348  1.00  0.00     0.075 C 
ATOM     17  C   UNL     1       1.618  -1.008  -2.415  1.00  0.00     0.075 C 
ENDBRANCH  13  15
BRANCH  13  18
ATOM     18  C   UNL     1      -1.490   0.175  -2.923  1.00  0.00     0.310 C 
BRANCH  18  19
ATOM     19  C   UNL     1      -1.343  -0.719  -4.127  1.00  0.00     0.059 A 
ATOM     20  C   UNL     1      -0.432  -0.618  -5.164  1.00  0.00     0.021 A 
ATOM     21  S   UNL     1      -2.434  -2.018  -4.409  1.00  0.00    -0.143 S 
ATOM     22  C   UNL     1      -0.468  -1.748  -6.031  1.00  0.00     0.012 A 
ATOM     23  C   UNL     1      -1.480  -2.618  -5.697  1.00  0.00     0.065 A 
ENDBRANCH  18  19
ENDBRANCH  13  18
ENDBRANCH  11  13
ENDBRANCH   7  11
ENDBRANCH   3   6
ENDBRANCH   1   2
BRANCH   1  24
ATOM     24  C   UNL     1       0.152  -0.717   6.109  1.00  0.00     0.042 C 
BRANCH  24  25
ATOM     25  C   UNL     1       0.253  -1.529   7.398  1.00  0.00     0.118 C 
BRANCH  25  26
ATOM     26  N   UNL     1       1.583  -1.467   7.987  1.00  0.00    -0.352 N 
ATOM     27  C   UNL     1       1.988  -0.975   9.204  1.00  0.00     0.251 C 
ATOM     28  H   UNL     1       2.304  -1.834   7.427  1.00  0.00     0.163 HD
ATOM     29  O   UNL     1       3.187  -0.813   9.417  1.00  0.00    -0.269 OA
BRANCH  27  30
ATOM     30  C   UNL     1       0.997  -0.637  10.249  1.00  0.00     0.039 A 
ATOM     31  C   UNL     1       1.198   0.508  11.026  1.00  0.00     0.014 A 
ATOM     32  C   UNL     1      -0.103  -1.463  10.497  1.00  0.00     0.014 A 
ATOM     33  C   UNL     1       0.272   0.850  12.014  1.00  0.00     0.010 A 
ATOM     34  C   UNL     1      -1.066  -1.079  11.425  1.00  0.00     0.010 A 
ATOM     35  C   UNL     1      -0.883   0.073  12.204  1.00  0.00    -0.014 A 
BRANCH  35  36
ATOM     36  C   UNL     1      -1.910   0.450  13.207  1.00  0.00     0.031 A 
ATOM     37  C   UNL     1      -2.206  -0.457  14.371  1.00  0.00     0.074 A 
ATOM     38  C   UNL     1      -2.638   1.569  13.023  1.00  0.00     0.049 A 
ATOM     39  N   UNL     1      -3.089  -0.313  15.326  1.00  0.00    -0.248 NA
ATOM     40  C   UNL     1      -1.429  -1.704  14.459  1.00  0.00     0.031 C 
ATOM     41  C   UNL     1      -2.499   2.491  11.894  1.00  0.00     0.029 A 
ATOM     42  N   UNL     1      -3.653   2.111  13.771  1.00  0.00    -0.354 N 
ATOM     43  C   UNL     1      -3.004  -1.465  16.100  1.00  0.00     0.074 A 
ATOM     44  C   UNL     1      -2.007  -2.313  15.484  1.00  0.00     0.031 C 
ATOM     45  C   UNL     1      -3.380   3.493  12.034  1.00  0.00     0.029 A 
ATOM     46  C   UNL     1      -4.167   3.272  13.243  1.00  0.00     0.049 A 
ATOM     47  H   UNL     1      -3.983   1.706  14.605  1.00  0.00     0.167 HD
ATOM     48  C   UNL     1      -3.672  -1.777  17.237  1.00  0.00     0.034 A 
ATOM     49  C   UNL     1      -5.156   4.072  13.687  1.00  0.00     0.034 A 
ATOM     50  C   UNL     1      -4.627  -0.908  17.871  1.00  0.00     0.049 A 
ATOM     51  C   UNL     1      -5.856   3.723  14.972  1.00  0.00     0.074 A 
ATOM     52  C   UNL     1      -5.280  -1.081  19.078  1.00  0.00     0.029 A 
ATOM     53  N   UNL     1      -5.073   0.294  17.344  1.00  0.00    -0.354 N 
ATOM     54  N   UNL     1      -5.641   2.714  15.782  1.00  0.00    -0.248 NA
ATOM     55  C   UNL     1      -6.910   4.642  15.422  1.00  0.00     0.031 C 
ATOM     56  C   UNL     1      -6.141   0.006  19.269  1.00  0.00     0.029 A 
ATOM     57  C   UNL     1      -6.005   0.868  18.192  1.00  0.00     0.049 A 
ATOM     58  H   UNL     1      -4.772   0.683  16.491  1.00  0.00     0.167 HD
ATOM     59  C   UNL     1      -6.505   2.896  16.855  1.00  0.00     0.074 A 
ATOM     60  C   UNL     1      -7.234   4.123  16.599  1.00  0.00     0.031 C 
ATOM     61  C   UNL     1      -6.688   2.114  17.948  1.00  0.00     0.034 A 
BRANCH  48  62
ATOM     62  C   UNL     1      -3.353  -3.098  17.890  1.00  0.00     0.023 A 
ATOM     63  C   UNL     1      -2.098  -3.286  18.507  1.00  0.00     0.012 A 
ATOM     64  C   UNL     1      -4.297  -4.143  17.920  1.00  0.00     0.148 A 
ATOM     65  C   UNL     1      -1.770  -4.506  19.099  1.00  0.00     0.002 A 
ATOM     66  C   UNL     1      -3.980  -5.340  18.553  1.00  0.00     0.091 A 
ATOM     67  F   UNL     1      -5.477  -3.960  17.310  1.00  0.00    -0.205 F 
ATOM     68  C   UNL     1      -2.713  -5.528  19.130  1.00  0.00     0.022 A 
BRANCH  66  69
ATOM     69  S   UNL     1      -5.161  -6.685  18.713  1.00  0.00     0.127 S 
ATOM     70  O   UNL     1      -4.689  -7.616  17.690  1.00  0.00    -0.237 OA
ATOM     71  O   UNL     1      -4.940  -7.131  20.090  1.00  0.00    -0.237 OA
ATOM     72  O   UNL     1      -6.469  -6.093  18.474  1.00  0.00    -0.744 OA
ENDBRANCH  66  69
ENDBRANCH  48  62
BRANCH  49  73
ATOM     73  C   UNL     1      -5.470   5.334  12.960  1.00  0.00     0.023 A 
ATOM     74  C   UNL     1      -5.113   6.564  13.546  1.00  0.00     0.012 A 
ATOM     75  C   UNL     1      -6.070   5.328  11.686  1.00  0.00     0.148 A 
ATOM     76  C   UNL     1      -5.370   7.767  12.889  1.00  0.00     0.002 A 
ATOM     77  C   UNL     1      -6.276   6.528  11.014  1.00  0.00     0.091 A 
ATOM     78  F   UNL     1      -6.408   4.147  11.150  1.00  0.00    -0.205 F 
ATOM     79  C   UNL     1      -5.941   7.749  11.620  1.00  0.00     0.022 A 
BRANCH  77  80
ATOM     80  S   UNL     1      -6.887   6.599   9.326  1.00  0.00     0.127 S 
ATOM     81  O   UNL     1      -8.200   7.212   9.509  1.00  0.00    -0.237 OA
ATOM     82  O   UNL     1      -5.891   7.455   8.682  1.00  0.00    -0.237 OA
ATOM     83  O   UNL     1      -6.895   5.223   8.850  1.00  0.00    -0.744 OA
ENDBRANCH  77  80
ENDBRANCH  49  73
BRANCH  61  84
ATOM     84  C   UNL     1      -7.695   2.571  18.971  1.00  0.00     0.023 A 
ATOM     85  C   UNL     1      -9.072   2.493  18.682  1.00  0.00     0.012 A 
ATOM     86  C   UNL     1      -7.280   3.016  20.241  1.00  0.00     0.148 A 
ATOM     87  C   UNL     1     -10.018   2.883  19.629  1.00  0.00     0.002 A 
ATOM     88  C   UNL     1      -8.230   3.356  21.198  1.00  0.00     0.091 A 
ATOM     89  F   UNL     1      -5.965   3.104  20.491  1.00  0.00    -0.205 F 
ATOM     90  C   UNL     1      -9.598   3.302  20.889  1.00  0.00     0.022 A 
BRANCH  88  91
ATOM     91  S   UNL     1      -7.781   3.813  22.876  1.00  0.00     0.127 S 
ATOM     92  O   UNL     1      -8.003   5.257  22.862  1.00  0.00    -0.237 OA
ATOM     93  O   UNL     1      -8.746   3.055  23.674  1.00  0.00    -0.237 OA
ATOM     94  O   UNL     1      -6.397   3.392  23.048  1.00  0.00    -0.744 OA
ENDBRANCH  88  91
ENDBRANCH  61  84
ENDBRANCH  35  36
ENDBRANCH  27  30
ENDBRANCH  25  26
ENDBRANCH  24  25
ENDBRANCH   1  24
TORSDOF 18
