REMARK SMILES CCN1C(=O)N/C(=C/c2cc(Cl)c(OCc3cccc(C(=O)NCCCNC(=O)c4ccc(-c5c6nc(c(-c7cccc(S(=O)(=O)[O-])c7F)c7ccc([nH]7)c(-c7cccc(S(=O)(=O)[O-])c7F)c7nc(c(-c8cccc(S(=O)(=O)[O-])c8F)c8ccc5[nH]8)C=C7)C=C6)cc4)c3)c(OC)c2)C1=O
REMARK SMILES IDX 24 1 23 2 21 3 22 4 20 6 16 7 17 8 93 9 18 10 19 11 15 12
REMARK SMILES IDX 14 13 13 14 9 15 10 16 97 17 11 18 94 19 12 20 8 21 3 22
REMARK SMILES IDX 4 23 98 24 5 25 6 26 7 27 99 28 2 30 1 31 95 32 96 33 25 34
REMARK SMILES IDX 26 35 27 36 28 37 29 39 30 40 31 41 92 42 32 43 91 44 33 45
REMARK SMILES IDX 34 46 35 47 85 48 36 49 90 50 84 51 86 52 37 53 89 54 83 55
REMARK SMILES IDX 82 56 38 58 70 59 50 60 69 61 51 62 54 63 68 64 87 65 52 66
REMARK SMILES IDX 53 67 67 69 88 70 55 71 39 72 40 73 48 74 41 75 43 76 49 77
REMARK SMILES IDX 42 78 44 79 45 80 46 81 47 82 71 83 72 84 80 85 73 86 75 87
REMARK SMILES IDX 81 88 74 89 76 90 77 91 78 92 79 93 56 94 57 95 65 96 58 97
REMARK SMILES IDX 60 98 66 99 59 100 61 101 62 102 63 103 64 104
REMARK H PARENT 23 5 6 29 27 38 86 57 54 68
REMARK Flexibility Score: inf
ROOT
ATOM      1  C   UNL     1      -5.517   6.170  -3.342  1.00  0.00     0.118 C 
ENDROOT
BRANCH   1   2
ATOM      2  N   UNL     1      -5.160   4.884  -3.911  1.00  0.00    -0.352 N 
ATOM      3  C   UNL     1      -4.055   4.074  -3.852  1.00  0.00     0.251 C 
ATOM      4  O   UNL     1      -4.161   2.979  -4.413  1.00  0.00    -0.269 OA
ATOM      5  H   UNL     1      -5.877   4.505  -4.468  1.00  0.00     0.163 HD
BRANCH   3   6
ATOM      6  C   UNL     1      -2.764   4.411  -3.175  1.00  0.00     0.040 A 
ATOM      7  C   UNL     1      -1.247   5.869  -1.901  1.00  0.00    -0.010 A 
ATOM      8  C   UNL     1      -0.249   4.897  -1.969  1.00  0.00     0.007 A 
ATOM      9  C   UNL     1      -2.476   5.620  -2.545  1.00  0.00     0.021 A 
ATOM     10  C   UNL     1      -0.502   3.685  -2.615  1.00  0.00     0.001 A 
ATOM     11  C   UNL     1      -1.749   3.442  -3.202  1.00  0.00     0.014 A 
BRANCH   7  12
ATOM     12  C   UNL     1      -1.090   7.230  -1.248  1.00  0.00     0.265 C 
BRANCH  12  13
ATOM     13  O   UNL     1      -0.090   7.429  -0.260  1.00  0.00    -0.483 OA
BRANCH  13  14
ATOM     14  C   UNL     1       0.053   6.616   0.828  1.00  0.00     0.180 A 
ATOM     15  C   UNL     1       0.794   4.853   2.887  1.00  0.00    -0.018 A 
ATOM     16  C   UNL     1      -0.547   4.984   2.514  1.00  0.00     0.033 A 
ATOM     17  C   UNL     1       1.754   5.689   2.316  1.00  0.00     0.058 A 
ATOM     18  C   UNL     1      -0.923   5.865   1.492  1.00  0.00     0.087 A 
ATOM     19  C   UNL     1       1.388   6.572   1.298  1.00  0.00     0.162 A 
ATOM     20  Cl  UNL     1      -2.622   5.967   1.189  1.00  0.00    -0.080 Cl
BRANCH  15  21
ATOM     21  C   UNL     1       1.219   3.784   3.793  1.00  0.00     0.040 C 
ATOM     22  N   UNL     1       1.015   0.540   2.268  1.00  0.00    -0.259 N 
ATOM     23  C   UNL     1       1.501   0.260   3.526  1.00  0.00     0.328 C 
ATOM     24  C   UNL     1       0.798   1.889   2.114  1.00  0.00     0.278 C 
ATOM     25  O   UNL     1       1.756  -0.832   4.006  1.00  0.00    -0.248 OA
ATOM     26  N   UNL     1       1.639   1.461   4.207  1.00  0.00    -0.303 N 
ATOM     27  C   UNL     1       1.228   2.498   3.423  1.00  0.00     0.109 C 
ATOM     28  O   UNL     1       0.340   2.467   1.152  1.00  0.00    -0.267 OA
ATOM     29  H   UNL     1       1.983   1.552   5.125  1.00  0.00     0.172 HD
BRANCH  22  30
ATOM     30  C   UNL     1       0.622  -0.463   1.297  1.00  0.00     0.127 C 
ATOM     31  C   UNL     1       1.204  -0.234  -0.090  1.00  0.00     0.028 C 
ENDBRANCH  22  30
ENDBRANCH  15  21
BRANCH  19  32
ATOM     32  O   UNL     1       2.275   7.394   0.643  1.00  0.00    -0.493 OA
ATOM     33  C   UNL     1       3.535   7.631   1.248  1.00  0.00     0.278 C 
ENDBRANCH  19  32
ENDBRANCH  13  14
ENDBRANCH  12  13
ENDBRANCH   7  12
ENDBRANCH   3   6
ENDBRANCH   1   2
BRANCH   1  34
ATOM     34  C   UNL     1      -5.277   7.320  -4.319  1.00  0.00     0.042 C 
BRANCH  34  35
ATOM     35  C   UNL     1      -6.404   7.469  -5.343  1.00  0.00     0.118 C 
BRANCH  35  36
ATOM     36  N   UNL     1      -7.691   7.716  -4.698  1.00  0.00    -0.352 N 
ATOM     37  C   UNL     1      -8.522   8.804  -4.731  1.00  0.00     0.251 C 
ATOM     38  H   UNL     1      -8.018   6.972  -4.143  1.00  0.00     0.163 HD
ATOM     39  O   UNL     1      -9.399   8.909  -3.877  1.00  0.00    -0.269 OA
BRANCH  37  40
ATOM     40  C   UNL     1      -8.390   9.827  -5.787  1.00  0.00     0.039 A 
ATOM     41  C   UNL     1      -8.700  11.155  -5.484  1.00  0.00     0.014 A 
ATOM     42  C   UNL     1      -8.036   9.472  -7.091  1.00  0.00     0.014 A 
ATOM     43  C   UNL     1      -8.620  12.128  -6.480  1.00  0.00     0.010 A 
ATOM     44  C   UNL     1      -7.856  10.456  -8.055  1.00  0.00     0.010 A 
ATOM     45  C   UNL     1      -8.172  11.790  -7.768  1.00  0.00    -0.014 A 
BRANCH  45  46
ATOM     46  C   UNL     1      -8.044  12.820  -8.827  1.00  0.00     0.031 A 
ATOM     47  C   UNL     1      -8.852  12.717 -10.093  1.00  0.00     0.074 A 
ATOM     48  C   UNL     1      -7.152  13.817  -8.668  1.00  0.00     0.049 A 
ATOM     49  N   UNL     1      -8.870  13.520 -11.125  1.00  0.00    -0.248 NA
ATOM     50  C   UNL     1      -9.733  11.544 -10.235  1.00  0.00     0.031 C 
ATOM     51  C   UNL     1      -6.252  13.971  -7.522  1.00  0.00     0.029 A 
ATOM     52  N   UNL     1      -6.845  14.881  -9.476  1.00  0.00    -0.354 N 
ATOM     53  C   UNL     1      -9.734  12.937 -12.046  1.00  0.00     0.074 A 
ATOM     54  C   UNL     1     -10.181  11.688 -11.473  1.00  0.00     0.031 C 
ATOM     55  C   UNL     1      -5.515  15.080  -7.687  1.00  0.00     0.029 A 
ATOM     56  C   UNL     1      -5.864  15.696  -8.963  1.00  0.00     0.049 A 
ATOM     57  H   UNL     1      -7.286  15.047 -10.340  1.00  0.00     0.167 HD
ATOM     58  C   UNL     1     -10.146  13.414 -13.244  1.00  0.00     0.034 A 
ATOM     59  C   UNL     1      -5.310  16.816  -9.464  1.00  0.00     0.034 A 
ATOM     60  C   UNL     1      -9.719  14.674 -13.791  1.00  0.00     0.049 A 
ATOM     61  C   UNL     1      -5.812  17.345 -10.779  1.00  0.00     0.074 A 
ATOM     62  C   UNL     1     -10.130  15.289 -14.960  1.00  0.00     0.029 A 
ATOM     63  N   UNL     1      -8.776  15.508 -13.210  1.00  0.00    -0.354 N 
ATOM     64  N   UNL     1      -6.740  16.857 -11.566  1.00  0.00    -0.248 NA
ATOM     65  C   UNL     1      -5.221  18.603 -11.254  1.00  0.00     0.031 C 
ATOM     66  C   UNL     1      -9.409  16.480 -15.102  1.00  0.00     0.029 A 
ATOM     67  C   UNL     1      -8.584  16.628 -13.999  1.00  0.00     0.049 A 
ATOM     68  H   UNL     1      -8.311  15.329 -12.361  1.00  0.00     0.167 HD
ATOM     69  C   UNL     1      -6.876  17.768 -12.606  1.00  0.00     0.074 A 
ATOM     70  C   UNL     1      -5.947  18.847 -12.336  1.00  0.00     0.031 C 
ATOM     71  C   UNL     1      -7.688  17.714 -13.691  1.00  0.00     0.034 A 
BRANCH  58  72
ATOM     72  C   UNL     1     -11.141  12.589 -14.021  1.00  0.00     0.023 A 
ATOM     73  C   UNL     1     -12.458  12.442 -13.537  1.00  0.00     0.012 A 
ATOM     74  C   UNL     1     -10.790  11.993 -15.249  1.00  0.00     0.148 A 
ATOM     75  C   UNL     1     -13.394  11.680 -14.236  1.00  0.00     0.002 A 
ATOM     76  C   UNL     1     -11.743  11.279 -15.966  1.00  0.00     0.091 A 
ATOM     77  F   UNL     1      -9.530  12.125 -15.686  1.00  0.00    -0.205 F 
ATOM     78  C   UNL     1     -13.040  11.108 -15.454  1.00  0.00     0.022 A 
BRANCH  76  79
ATOM     79  S   UNL     1     -11.413  10.575 -17.585  1.00  0.00     0.127 S 
ATOM     80  O   UNL     1     -11.428   9.142 -17.292  1.00  0.00    -0.237 OA
ATOM     81  O   UNL     1     -12.557  11.049 -18.364  1.00  0.00    -0.237 OA
ATOM     82  O   UNL     1     -10.127  11.112 -18.003  1.00  0.00    -0.744 OA
ENDBRANCH  76  79
ENDBRANCH  58  72
BRANCH  59  83
ATOM     83  C   UNL     1      -4.277  17.552  -8.682  1.00  0.00     0.023 A 
ATOM     84  C   UNL     1      -4.592  18.807  -8.125  1.00  0.00     0.012 A 
ATOM     85  C   UNL     1      -2.997  17.006  -8.465  1.00  0.00     0.148 A 
ATOM     86  C   UNL     1      -3.640  19.522  -7.399  1.00  0.00     0.002 A 
ATOM     87  C   UNL     1      -2.072  17.698  -7.692  1.00  0.00     0.091 A 
ATOM     88  F   UNL     1      -2.717  15.812  -9.006  1.00  0.00    -0.205 F 
ATOM     89  C   UNL     1      -2.384  18.965  -7.175  1.00  0.00     0.022 A 
BRANCH  87  90
ATOM     90  S   UNL     1      -0.479  17.002  -7.243  1.00  0.00     0.127 S 
ATOM     91  O   UNL     1       0.442  17.858  -7.987  1.00  0.00    -0.237 OA
ATOM     92  O   UNL     1      -0.466  17.196  -5.792  1.00  0.00    -0.237 OA
ATOM     93  O   UNL     1      -0.524  15.608  -7.663  1.00  0.00    -0.744 OA
ENDBRANCH  87  90
ENDBRANCH  59  83
BRANCH  71  94
ATOM     94  C   UNL     1      -7.652  18.882 -14.643  1.00  0.00     0.023 A 
ATOM     95  C   UNL     1      -6.522  19.101 -15.456  1.00  0.00     0.012 A 
ATOM     96  C   UNL     1      -8.767  19.734 -14.765  1.00  0.00     0.148 A 
ATOM     97  C   UNL     1      -6.485  20.177 -16.341  1.00  0.00     0.002 A 
ATOM     98  C   UNL     1      -8.745  20.770 -15.690  1.00  0.00     0.091 A 
ATOM     99  F   UNL     1      -9.826  19.521 -13.970  1.00  0.00    -0.205 F 
ATOM    100  C   UNL     1      -7.599  21.004 -16.466  1.00  0.00     0.022 A 
BRANCH  98 101
ATOM    101  S   UNL     1     -10.171  21.818 -15.991  1.00  0.00     0.127 S 
ATOM    102  O   UNL     1      -9.751  23.077 -15.377  1.00  0.00    -0.237 OA
ATOM    103  O   UNL     1     -10.233  21.844 -17.453  1.00  0.00    -0.237 OA
ATOM    104  O   UNL     1     -11.300  21.156 -15.351  1.00  0.00    -0.744 OA
ENDBRANCH  98 101
ENDBRANCH  71  94
ENDBRANCH  45  46
ENDBRANCH  37  40
ENDBRANCH  35  36
ENDBRANCH  34  35
ENDBRANCH   1  34
TORSDOF 19
