REMARK SMILES CC[C@@](O)(C(=O)NCCCNC(=O)c1ccc(-c2c3nc(c(-c4cccc(S(=O)(=O)[O-])c4F)c4ccc([nH]4)c(-c4cccc(S(=O)(=O)[O-])c4F)c4nc(c(-c5cccc(S(=O)(=O)[O-])c5F)c5ccc2[nH]5)C=C4)C=C3)cc1)[C@@H]1CCOc2ccccc21
REMARK SMILES IDX 10 1 9 2 8 3 7 4 5 5 6 6 3 8 2 9 1 10 4 11 77 13 78 14 86 15
REMARK SMILES IDX 79 16 81 17 85 18 80 19 82 20 84 21 83 22 11 23 12 24 13 26
REMARK SMILES IDX 14 27 15 28 76 29 16 30 75 31 17 32 18 33 19 34 69 35 20 36
REMARK SMILES IDX 74 37 68 38 70 39 21 40 73 41 67 42 66 43 22 45 54 46 34 47
REMARK SMILES IDX 53 48 35 49 38 50 52 51 71 52 36 53 37 54 51 56 72 57 39 58
REMARK SMILES IDX 23 59 24 60 32 61 25 62 27 63 33 64 26 65 28 66 29 67 30 68
REMARK SMILES IDX 31 69 55 70 56 71 64 72 57 73 59 74 65 75 58 76 60 77 61 78
REMARK SMILES IDX 62 79 63 80 40 81 41 82 49 83 42 84 44 85 50 86 43 87 45 88
REMARK SMILES IDX 46 89 47 90 48 91
REMARK H PARENT 7 7 4 12 11 25 70 44 38 55
REMARK Flexibility Score: inf
ROOT
ATOM      1  C   UNL     1       5.982   6.093  -4.819  1.00  0.00     0.118 C 
ENDROOT
BRANCH   1   2
ATOM      2  C   UNL     1       4.904   6.459  -3.805  1.00  0.00     0.042 C 
BRANCH   2   3
ATOM      3  C   UNL     1       3.674   5.563  -3.815  1.00  0.00     0.117 C 
BRANCH   3   4
ATOM      4  N   UNL     1       3.985   4.152  -3.697  1.00  0.00    -0.354 N 
ATOM      5  C   UNL     1       3.306   3.225  -2.959  1.00  0.00     0.252 C 
ATOM      6  O   UNL     1       3.123   2.147  -3.533  1.00  0.00    -0.272 OA
ATOM      7  H   UNL     1       4.766   3.829  -4.201  1.00  0.00     0.163 HD
BRANCH   5   8
ATOM      8  C   UNL     1       2.756   3.534  -1.523  1.00  0.00     0.149 C 
BRANCH   8   9
ATOM      9  C   UNL     1       3.667   4.458  -0.668  1.00  0.00     0.043 C 
ATOM     10  C   UNL     1       2.936   5.581   0.088  1.00  0.00     0.007 C 
ENDBRANCH   8   9
BRANCH   8  11
ATOM     11  O   UNL     1       1.554   4.305  -1.821  1.00  0.00    -0.379 OA
ATOM     12  H   UNL     1       1.801   5.128  -2.271  1.00  0.00     0.212 HD
ENDBRANCH   8  11
BRANCH   8  13
ATOM     13  C   UNL     1       2.311   2.201  -0.790  1.00  0.00     0.068 C 
ATOM     14  C   UNL     1       2.006   2.338   0.703  1.00  0.00     0.053 C 
ATOM     15  C   UNL     1       3.036   0.866  -0.860  1.00  0.00     0.001 A 
ATOM     16  C   UNL     1       1.082   1.198   1.140  1.00  0.00     0.230 C 
ATOM     17  C   UNL     1       2.327  -0.221  -0.320  1.00  0.00     0.122 A 
ATOM     18  C   UNL     1       4.252   0.604  -1.494  1.00  0.00     0.008 A 
ATOM     19  O   UNL     1       1.219  -0.059   0.466  1.00  0.00    -0.493 OA
ATOM     20  C   UNL     1       2.689  -1.534  -0.612  1.00  0.00     0.047 A 
ATOM     21  C   UNL     1       4.633  -0.716  -1.768  1.00  0.00     0.001 A 
ATOM     22  C   UNL     1       3.830  -1.782  -1.367  1.00  0.00     0.004 A 
ENDBRANCH   8  13
ENDBRANCH   5   8
ENDBRANCH   3   4
ENDBRANCH   2   3
ENDBRANCH   1   2
BRANCH   1  23
ATOM     23  N   UNL     1       5.528   6.178  -6.200  1.00  0.00    -0.352 N 
ATOM     24  C   UNL     1       5.967   6.980  -7.228  1.00  0.00     0.251 C 
ATOM     25  H   UNL     1       4.792   5.568  -6.434  1.00  0.00     0.163 HD
ATOM     26  O   UNL     1       5.339   7.014  -8.280  1.00  0.00    -0.269 OA
BRANCH  24  27
ATOM     27  C   UNL     1       7.178   7.815  -7.061  1.00  0.00     0.039 A 
ATOM     28  C   UNL     1       7.159   9.132  -7.529  1.00  0.00     0.014 A 
ATOM     29  C   UNL     1       8.331   7.305  -6.460  1.00  0.00     0.014 A 
ATOM     30  C   UNL     1       8.272   9.954  -7.333  1.00  0.00     0.010 A 
ATOM     31  C   UNL     1       9.402   8.151  -6.184  1.00  0.00     0.010 A 
ATOM     32  C   UNL     1       9.391   9.482  -6.627  1.00  0.00    -0.014 A 
BRANCH  32  33
ATOM     33  C   UNL     1      10.554  10.364  -6.345  1.00  0.00     0.031 A 
ATOM     34  C   UNL     1      11.919  10.020  -6.883  1.00  0.00     0.074 A 
ATOM     35  C   UNL     1      10.400  11.435  -5.540  1.00  0.00     0.049 A 
ATOM     36  N   UNL     1      13.054  10.648  -6.714  1.00  0.00    -0.248 NA
ATOM     37  C   UNL     1      12.030   8.796  -7.693  1.00  0.00     0.031 C 
ATOM     38  C   UNL     1       9.148  11.832  -4.891  1.00  0.00     0.029 A 
ATOM     39  N   UNL     1      11.305  12.373  -5.112  1.00  0.00    -0.354 N 
ATOM     40  C   UNL     1      14.015   9.879  -7.359  1.00  0.00     0.074 A 
ATOM     41  C   UNL     1      13.337   8.718  -7.892  1.00  0.00     0.031 C 
ATOM     42  C   UNL     1       9.361  12.939  -4.162  1.00  0.00     0.029 A 
ATOM     43  C   UNL     1      10.768  13.312  -4.261  1.00  0.00     0.049 A 
ATOM     44  H   UNL     1      12.250  12.375  -5.388  1.00  0.00     0.167 HD
ATOM     45  C   UNL     1      15.337  10.128  -7.520  1.00  0.00     0.034 A 
ATOM     46  C   UNL     1      11.345  14.351  -3.626  1.00  0.00     0.034 A 
ATOM     47  C   UNL     1      16.000  11.303  -7.024  1.00  0.00     0.049 A 
ATOM     48  C   UNL     1      12.807  14.625  -3.850  1.00  0.00     0.074 A 
ATOM     49  C   UNL     1      17.313  11.695  -7.214  1.00  0.00     0.029 A 
ATOM     50  N   UNL     1      15.406  12.270  -6.227  1.00  0.00    -0.354 N 
ATOM     51  N   UNL     1      13.664  13.974  -4.599  1.00  0.00    -0.248 NA
ATOM     52  C   UNL     1      13.375  15.798  -3.171  1.00  0.00     0.031 C 
ATOM     53  C   UNL     1      17.523  12.880  -6.501  1.00  0.00     0.029 A 
ATOM     54  C   UNL     1      16.330  13.249  -5.903  1.00  0.00     0.049 A 
ATOM     55  H   UNL     1      14.466  12.261  -5.934  1.00  0.00     0.167 HD
ATOM     56  C   UNL     1      14.858  14.680  -4.515  1.00  0.00     0.074 A 
ATOM     57  C   UNL     1      14.608  15.820  -3.658  1.00  0.00     0.031 C 
ATOM     58  C   UNL     1      16.056  14.405  -5.088  1.00  0.00     0.034 A 
BRANCH  45  59
ATOM     59  C   UNL     1      16.150   9.125  -8.299  1.00  0.00     0.023 A 
ATOM     60  C   UNL     1      15.950   8.988  -9.689  1.00  0.00     0.012 A 
ATOM     61  C   UNL     1      17.148   8.357  -7.668  1.00  0.00     0.148 A 
ATOM     62  C   UNL     1      16.699   8.074 -10.429  1.00  0.00     0.002 A 
ATOM     63  C   UNL     1      17.926   7.485  -8.421  1.00  0.00     0.091 A 
ATOM     64  F   UNL     1      17.312   8.486  -6.344  1.00  0.00    -0.205 F 
ATOM     65  C   UNL     1      17.693   7.332  -9.798  1.00  0.00     0.022 A 
BRANCH  63  66
ATOM     66  S   UNL     1      19.287   6.547  -7.719  1.00  0.00     0.127 S 
ATOM     67  O   UNL     1      18.760   5.184  -7.764  1.00  0.00    -0.237 OA
ATOM     68  O   UNL     1      20.367   6.815  -8.669  1.00  0.00    -0.237 OA
ATOM     69  O   UNL     1      19.503   7.089  -6.385  1.00  0.00    -0.744 OA
ENDBRANCH  63  66
ENDBRANCH  45  59
BRANCH  46  70
ATOM     70  C   UNL     1      10.523  15.254  -2.769  1.00  0.00     0.023 A 
ATOM     71  C   UNL     1      10.277  16.575  -3.192  1.00  0.00     0.012 A 
ATOM     72  C   UNL     1       9.972  14.809  -1.552  1.00  0.00     0.148 A 
ATOM     73  C   UNL     1       9.530  17.449  -2.401  1.00  0.00     0.002 A 
ATOM     74  C   UNL     1       9.181  15.667  -0.796  1.00  0.00     0.091 A 
ATOM     75  F   UNL     1      10.224  13.552  -1.163  1.00  0.00    -0.205 F 
ATOM     76  C   UNL     1       8.975  16.992  -1.209  1.00  0.00     0.022 A 
BRANCH  74  77
ATOM     77  S   UNL     1       8.319  15.130   0.685  1.00  0.00     0.127 S 
ATOM     78  O   UNL     1       9.030  15.866   1.728  1.00  0.00    -0.237 OA
ATOM     79  O   UNL     1       6.956  15.591   0.424  1.00  0.00    -0.237 OA
ATOM     80  O   UNL     1       8.466  13.681   0.724  1.00  0.00    -0.744 OA
ENDBRANCH  74  77
ENDBRANCH  46  70
BRANCH  58  81
ATOM     81  C   UNL     1      17.185  15.376  -4.850  1.00  0.00     0.023 A 
ATOM     82  C   UNL     1      17.788  15.462  -3.580  1.00  0.00     0.012 A 
ATOM     83  C   UNL     1      17.689  16.156  -5.910  1.00  0.00     0.148 A 
ATOM     84  C   UNL     1      18.850  16.339  -3.358  1.00  0.00     0.002 A 
ATOM     85  C   UNL     1      18.782  16.986  -5.695  1.00  0.00     0.091 A 
ATOM     86  F   UNL     1      17.091  16.074  -7.107  1.00  0.00    -0.205 F 
ATOM     87  C   UNL     1      19.354  17.091  -4.417  1.00  0.00     0.022 A 
BRANCH  85  88
ATOM     88  S   UNL     1      19.562  17.914  -7.021  1.00  0.00     0.127 S 
ATOM     89  O   UNL     1      19.167  19.284  -6.698  1.00  0.00    -0.237 OA
ATOM     90  O   UNL     1      20.980  17.622  -6.810  1.00  0.00    -0.237 OA
ATOM     91  O   UNL     1      19.014  17.381  -8.261  1.00  0.00    -0.744 OA
ENDBRANCH  85  88
ENDBRANCH  58  81
ENDBRANCH  32  33
ENDBRANCH  24  27
ENDBRANCH   1  23
TORSDOF 16
