REMARK SMILES CC/C=C/C/C=C/C/C=C/C/C=C/CC/C=C/COCC(=O)NCCCNC(=O)c1ccc(-c2c3nc(c(-c4cccc(S(=O)(=O)[O-])c4F)c4ccc([nH]4)c(-c4cccc(S(=O)(=O)[O-])c4F)c4nc(c(-c5cccc(S(=O)(=O)[O-])c5F)c5ccc2[nH]5)C=C4)C=C3)cc1
REMARK SMILES IDX 18 1 17 2 16 3 15 4 14 5 13 6 12 7 11 8 10 9 9 10 8 11 7 12
REMARK SMILES IDX 6 13 5 14 4 15 3 16 2 17 1 18 19 19 20 20 21 21 22 22 23 23
REMARK SMILES IDX 24 25 25 26 26 27 27 28 28 29 29 31 30 32 31 33 92 34 32 35
REMARK SMILES IDX 91 36 33 37 34 38 35 39 85 40 36 41 90 42 84 43 86 44 37 45
REMARK SMILES IDX 89 46 83 47 82 48 38 50 70 51 50 52 69 53 51 54 54 55 68 56
REMARK SMILES IDX 87 57 52 58 53 59 67 61 88 62 55 63 39 64 40 65 48 66 41 67
REMARK SMILES IDX 43 68 49 69 42 70 44 71 45 72 46 73 47 74 71 75 72 76 80 77
REMARK SMILES IDX 73 78 75 79 81 80 74 81 76 82 77 83 78 84 79 85 56 86 57 87
REMARK SMILES IDX 65 88 58 89 60 90 66 91 59 92 61 93 62 94 63 95 64 96
REMARK H PARENT 23 24 27 30 86 49 54 60
REMARK Flexibility Score: inf
ROOT
ATOM      1  C   UNL     1      -8.058 -12.589   8.158  1.00  0.00     0.188 C 
ENDROOT
BRANCH   1   2
ATOM      2  C   UNL     1      -7.458 -12.550   6.787  1.00  0.00    -0.003 C 
ATOM      3  C   UNL     1      -6.648 -11.564   6.372  1.00  0.00    -0.029 C 
BRANCH   3   4
ATOM      4  C   UNL     1      -6.151 -11.403   4.963  1.00  0.00     0.031 C 
BRANCH   4   5
ATOM      5  C   UNL     1      -6.727 -10.152   4.277  1.00  0.00     0.031 C 
BRANCH   5   6
ATOM      6  C   UNL     1      -6.281  -8.867   4.922  1.00  0.00    -0.031 C 
ATOM      7  C   UNL     1      -5.472  -7.967   4.341  1.00  0.00    -0.027 C 
BRANCH   7   8
ATOM      8  C   UNL     1      -4.989  -6.719   5.023  1.00  0.00     0.054 C 
BRANCH   8   9
ATOM      9  C   UNL     1      -3.488  -6.692   5.061  1.00  0.00    -0.027 C 
ATOM     10  C   UNL     1      -2.737  -5.724   4.511  1.00  0.00    -0.027 C 
BRANCH  10  11
ATOM     11  C   UNL     1      -1.236  -5.720   4.513  1.00  0.00     0.054 C 
BRANCH  11  12
ATOM     12  C   UNL     1      -0.709  -5.703   3.106  1.00  0.00    -0.027 C 
ATOM     13  C   UNL     1       0.062  -4.726   2.601  1.00  0.00    -0.027 C 
BRANCH  13  14
ATOM     14  C   UNL     1       0.565  -4.695   1.187  1.00  0.00     0.054 C 
BRANCH  14  15
ATOM     15  C   UNL     1       0.091  -3.457   0.480  1.00  0.00    -0.027 C 
ATOM     16  C   UNL     1       0.907  -2.520  -0.029  1.00  0.00    -0.031 C 
BRANCH  16  17
ATOM     17  C   UNL     1       0.426  -1.277  -0.720  1.00  0.00     0.023 C 
ATOM     18  C   UNL     1       0.907  -0.026  -0.002  1.00  0.00     0.008 C 
ENDBRANCH  16  17
ENDBRANCH  14  15
ENDBRANCH  13  14
ENDBRANCH  11  12
ENDBRANCH  10  11
ENDBRANCH   8   9
ENDBRANCH   7   8
ENDBRANCH   5   6
ENDBRANCH   4   5
ENDBRANCH   3   4
ENDBRANCH   1   2
BRANCH   1  19
ATOM     19  O   UNL     1      -9.484 -12.512   8.075  1.00  0.00    -0.368 OA
BRANCH  19  20
ATOM     20  C   UNL     1      -9.968 -11.286   7.544  1.00  0.00     0.260 C 
BRANCH  20  21
ATOM     21  C   UNL     1      -9.604 -10.003   8.301  1.00  0.00     0.246 C 
ATOM     22  O   UNL     1      -8.928  -9.110   7.789  1.00  0.00    -0.272 OA
ATOM     23  N   UNL     1     -10.069  -9.834   9.575  1.00  0.00    -0.354 N 
ATOM     24  H   UNL     1      -9.828  -8.986  10.014  1.00  0.00     0.163 HD
BRANCH  23  25
ATOM     25  C   UNL     1     -10.873 -10.751  10.361  1.00  0.00     0.117 C 
BRANCH  25  26
ATOM     26  C   UNL     1     -10.090 -11.377  11.510  1.00  0.00     0.042 C 
BRANCH  26  27
ATOM     27  C   UNL     1      -9.563 -10.379  12.539  1.00  0.00     0.118 C 
BRANCH  27  28
ATOM     28  N   UNL     1     -10.617  -9.587  13.159  1.00  0.00    -0.352 N 
ATOM     29  C   UNL     1     -10.942  -9.405  14.479  1.00  0.00     0.251 C 
ATOM     30  H   UNL     1     -11.191  -9.101  12.524  1.00  0.00     0.163 HD
ATOM     31  O   UNL     1     -11.982  -8.809  14.756  1.00  0.00    -0.269 OA
BRANCH  29  32
ATOM     32  C   UNL     1     -10.080  -9.923  15.566  1.00  0.00     0.039 A 
ATOM     33  C   UNL     1     -10.694 -10.461  16.703  1.00  0.00     0.014 A 
ATOM     34  C   UNL     1      -8.687  -9.846  15.504  1.00  0.00     0.014 A 
ATOM     35  C   UNL     1      -9.913 -10.970  17.744  1.00  0.00     0.010 A 
ATOM     36  C   UNL     1      -7.909 -10.424  16.509  1.00  0.00     0.010 A 
ATOM     37  C   UNL     1      -8.512 -10.988  17.642  1.00  0.00    -0.014 A 
BRANCH  37  38
ATOM     38  C   UNL     1      -7.681 -11.619  18.701  1.00  0.00     0.031 A 
ATOM     39  C   UNL     1      -6.692 -10.809  19.498  1.00  0.00     0.074 A 
ATOM     40  C   UNL     1      -7.766 -12.950  18.899  1.00  0.00     0.049 A 
ATOM     41  N   UNL     1      -5.890 -11.200  20.456  1.00  0.00    -0.248 NA
ATOM     42  C   UNL     1      -6.569  -9.382  19.161  1.00  0.00     0.031 C 
ATOM     43  C   UNL     1      -8.611 -13.865  18.130  1.00  0.00     0.029 A 
ATOM     44  N   UNL     1      -7.117 -13.769  19.790  1.00  0.00    -0.354 N 
ATOM     45  C   UNL     1      -5.145 -10.082  20.811  1.00  0.00     0.074 A 
ATOM     46  C   UNL     1      -5.569  -9.003  19.944  1.00  0.00     0.031 C 
ATOM     47  C   UNL     1      -8.436 -15.115  18.585  1.00  0.00     0.029 A 
ATOM     48  C   UNL     1      -7.449 -15.098  19.660  1.00  0.00     0.049 A 
ATOM     49  H   UNL     1      -6.475 -13.437  20.459  1.00  0.00     0.167 HD
ATOM     50  C   UNL     1      -4.214  -9.954  21.788  1.00  0.00     0.034 A 
ATOM     51  C   UNL     1      -7.007 -16.182  20.327  1.00  0.00     0.034 A 
ATOM     52  C   UNL     1      -3.822 -11.018  22.675  1.00  0.00     0.049 A 
ATOM     53  C   UNL     1      -6.020 -16.003  21.446  1.00  0.00     0.074 A 
ATOM     54  C   UNL     1      -2.965 -10.961  23.761  1.00  0.00     0.029 A 
ATOM     55  N   UNL     1      -4.249 -12.333  22.575  1.00  0.00    -0.354 N 
ATOM     56  N   UNL     1      -5.464 -14.901  21.888  1.00  0.00    -0.248 NA
ATOM     57  C   UNL     1      -5.631 -17.211  22.188  1.00  0.00     0.031 C 
ATOM     58  C   UNL     1      -2.852 -12.248  24.299  1.00  0.00     0.029 A 
ATOM     59  C   UNL     1      -3.663 -13.100  23.568  1.00  0.00     0.049 A 
ATOM     60  H   UNL     1      -4.877 -12.672  21.897  1.00  0.00     0.167 HD
ATOM     61  C   UNL     1      -4.684 -15.277  22.976  1.00  0.00     0.074 A 
ATOM     62  C   UNL     1      -4.865 -16.704  23.144  1.00  0.00     0.031 C 
ATOM     63  C   UNL     1      -3.879 -14.512  23.755  1.00  0.00     0.034 A 
BRANCH  50  64
ATOM     64  C   UNL     1      -3.584  -8.598  21.983  1.00  0.00     0.023 A 
ATOM     65  C   UNL     1      -4.351  -7.545  22.523  1.00  0.00     0.012 A 
ATOM     66  C   UNL     1      -2.223  -8.380  21.692  1.00  0.00     0.148 A 
ATOM     67  C   UNL     1      -3.786  -6.288  22.735  1.00  0.00     0.002 A 
ATOM     68  C   UNL     1      -1.654  -7.137  21.950  1.00  0.00     0.091 A 
ATOM     69  F   UNL     1      -1.513  -9.386  21.161  1.00  0.00    -0.205 F 
ATOM     70  C   UNL     1      -2.437  -6.088  22.459  1.00  0.00     0.022 A 
BRANCH  68  71
ATOM     71  S   UNL     1       0.094  -6.803  21.705  1.00  0.00     0.127 S 
ATOM     72  O   UNL     1       0.066  -5.931  20.531  1.00  0.00    -0.237 OA
ATOM     73  O   UNL     1       0.457  -6.131  22.954  1.00  0.00    -0.237 OA
ATOM     74  O   UNL     1       0.727  -8.098  21.508  1.00  0.00    -0.744 OA
ENDBRANCH  68  71
ENDBRANCH  50  64
BRANCH  51  75
ATOM     75  C   UNL     1      -7.552 -17.528  19.992  1.00  0.00     0.023 A 
ATOM     76  C   UNL     1      -8.410 -18.176  20.903  1.00  0.00     0.012 A 
ATOM     77  C   UNL     1      -7.254 -18.152  18.766  1.00  0.00     0.148 A 
ATOM     78  C   UNL     1      -8.935 -19.436  20.612  1.00  0.00     0.002 A 
ATOM     79  C   UNL     1      -7.827 -19.380  18.457  1.00  0.00     0.091 A 
ATOM     80  F   UNL     1      -6.427 -17.524  17.918  1.00  0.00    -0.205 F 
ATOM     81  C   UNL     1      -8.653 -20.032  19.386  1.00  0.00     0.022 A 
BRANCH  79  82
ATOM     82  S   UNL     1      -7.631 -20.154  16.848  1.00  0.00     0.127 S 
ATOM     83  O   UNL     1      -6.773 -21.294  17.167  1.00  0.00    -0.237 OA
ATOM     84  O   UNL     1      -9.013 -20.500  16.510  1.00  0.00    -0.237 OA
ATOM     85  O   UNL     1      -7.042 -19.137  15.991  1.00  0.00    -0.744 OA
ENDBRANCH  79  82
ENDBRANCH  51  75
BRANCH  63  86
ATOM     86  C   UNL     1      -3.146 -15.198  24.880  1.00  0.00     0.023 A 
ATOM     87  C   UNL     1      -2.085 -16.081  24.591  1.00  0.00     0.012 A 
ATOM     88  C   UNL     1      -3.476 -14.933  26.223  1.00  0.00     0.148 A 
ATOM     89  C   UNL     1      -1.395 -16.721  25.619  1.00  0.00     0.002 A 
ATOM     90  C   UNL     1      -2.749 -15.536  27.244  1.00  0.00     0.091 A 
ATOM     91  F   UNL     1      -4.500 -14.106  26.481  1.00  0.00    -0.205 F 
ATOM     92  C   UNL     1      -1.719 -16.441  26.944  1.00  0.00     0.022 A 
BRANCH  90  93
ATOM     93  S   UNL     1      -3.036 -15.158  28.977  1.00  0.00     0.127 S 
ATOM     94  O   UNL     1      -3.751 -16.351  29.428  1.00  0.00    -0.237 OA
ATOM     95  O   UNL     1      -1.675 -15.030  29.498  1.00  0.00    -0.237 OA
ATOM     96  O   UNL     1      -3.805 -13.921  28.993  1.00  0.00    -0.744 OA
ENDBRANCH  90  93
ENDBRANCH  63  86
ENDBRANCH  37  38
ENDBRANCH  29  32
ENDBRANCH  27  28
ENDBRANCH  26  27
ENDBRANCH  25  26
ENDBRANCH  23  25
ENDBRANCH  20  21
ENDBRANCH  19  20
ENDBRANCH   1  19
TORSDOF 26
