REMARK SMILES Cc1nc2nc(CNC(=O)OC(C)(C)C)nn2c(C)c1CCC(=O)NCCCNC(=O)c1ccc(-c2c3nc(c(-c4cccc(S(=O)(=O)[O-])c4F)c4ccc([nH]4)c(-c4cccc(S(=O)(=O)[O-])c4F)c4nc(c(-c5cccc(S(=O)(=O)[O-])c5F)c5ccc2[nH]5)C=C4)C=C3)cc1
REMARK SMILES IDX 23 1 24 2 25 3 22 5 21 6 20 7 1 8 2 9 3 10 4 11 18 12 5 13
REMARK SMILES IDX 17 14 19 15 6 16 16 17 7 18 8 19 9 20 10 22 11 23 12 24
REMARK SMILES IDX 13 25 14 26 15 27 26 28 27 29 28 30 29 31 30 32 31 34 32 35
REMARK SMILES IDX 33 36 94 37 34 38 93 39 35 40 36 41 37 42 87 43 38 44 92 45
REMARK SMILES IDX 86 46 88 47 39 48 91 49 85 50 84 51 40 53 72 54 52 55 71 56
REMARK SMILES IDX 53 57 56 58 70 59 89 60 54 61 55 62 69 64 90 65 57 66 41 67
REMARK SMILES IDX 42 68 50 69 43 70 45 71 51 72 44 73 46 74 47 75 48 76 49 77
REMARK SMILES IDX 73 78 74 79 82 80 75 81 77 82 83 83 76 84 78 85 79 86 80 87
REMARK SMILES IDX 81 88 58 89 59 90 67 91 60 92 62 93 68 94 61 95 63 96 64 97
REMARK SMILES IDX 65 98 66 99
REMARK H PARENT 25 4 8 21 29 33 88 52 56 63
REMARK Flexibility Score: inf
ROOT
ATOM      1  C   UNL     1       0.189  -0.029   4.736  1.00  0.00     0.220 C 
ATOM      2  O   UNL     1      -0.672  -0.454   5.512  1.00  0.00    -0.275 OA
ATOM      3  N   UNL     1       0.893   1.091   5.101  1.00  0.00    -0.356 N 
ATOM      4  H   UNL     1       0.530   1.512   5.913  1.00  0.00     0.163 HD
ENDROOT
BRANCH   1   5
ATOM      5  C   UNL     1       0.399  -0.753   3.413  1.00  0.00     0.105 C 
BRANCH   5   6
ATOM      6  C   UNL     1      -0.815  -0.630   2.457  1.00  0.00     0.049 C 
BRANCH   6   7
ATOM      7  C   UNL     1      -1.105   0.816   2.170  1.00  0.00    -0.005 A 
ATOM      8  C   UNL     1       0.610   0.821   0.151  1.00  0.00     0.067 C 
ATOM      9  C   UNL     1      -0.263   1.572   1.161  1.00  0.00     0.046 A 
ATOM     10  N   UNL     1      -0.238   2.872   1.095  1.00  0.00    -0.216 NA
ATOM     11  C   UNL     1      -0.815   3.530   2.152  1.00  0.00     0.252 A 
ATOM     12  C   UNL     1      -1.926   1.571   2.954  1.00  0.00     0.048 A 
ATOM     13  N   UNL     1      -0.401   4.636   2.696  1.00  0.00    -0.192 NA
ATOM     14  N   UNL     1      -1.623   2.932   3.103  1.00  0.00    -0.201 N 
ATOM     15  C   UNL     1      -3.011   1.071   3.845  1.00  0.00     0.067 C 
ATOM     16  C   UNL     1      -0.794   4.731   4.029  1.00  0.00     0.172 A 
ATOM     17  N   UNL     1      -1.668   3.725   4.280  1.00  0.00    -0.148 NA
BRANCH  16  18
ATOM     18  C   UNL     1      -0.347   6.011   5.094  1.00  0.00     0.199 C 
BRANCH  18  19
ATOM     19  N   UNL     1       0.902   7.146   4.975  1.00  0.00    -0.314 N 
ATOM     20  C   UNL     1       1.480   8.353   4.450  1.00  0.00     0.408 C 
ATOM     21  H   UNL     1       1.594   6.797   5.582  1.00  0.00     0.167 HD
ATOM     22  O   UNL     1       2.535   8.729   4.966  1.00  0.00    -0.225 OA
BRANCH  20  23
ATOM     23  O   UNL     1       0.937   9.073   3.410  1.00  0.00    -0.444 OA
BRANCH  23  24
ATOM     24  C   UNL     1       1.337  10.343   2.676  1.00  0.00     0.106 C 
ATOM     25  C   UNL     1       1.615  11.526   3.611  1.00  0.00     0.056 C 
ATOM     26  C   UNL     1       2.523  10.115   1.730  1.00  0.00     0.056 C 
ATOM     27  C   UNL     1       0.162  10.813   1.748  1.00  0.00     0.056 C 
ENDBRANCH  23  24
ENDBRANCH  20  23
ENDBRANCH  18  19
ENDBRANCH  16  18
ENDBRANCH   6   7
ENDBRANCH   5   6
ENDBRANCH   1   5
BRANCH   3  28
ATOM     28  C   UNL     1       2.084   1.830   4.560  1.00  0.00     0.117 C 
BRANCH  28  29
ATOM     29  C   UNL     1       1.765   3.030   3.598  1.00  0.00     0.042 C 
BRANCH  29  30
ATOM     30  C   UNL     1       2.001   4.598   3.906  1.00  0.00     0.118 C 
BRANCH  30  31
ATOM     31  N   UNL     1       1.575   5.804   2.770  1.00  0.00    -0.352 N 
ATOM     32  C   UNL     1       0.480   6.774   2.209  1.00  0.00     0.251 C 
ATOM     33  H   UNL     1       2.380   5.958   2.223  1.00  0.00     0.163 HD
ATOM     34  O   UNL     1       0.862   7.358   1.179  1.00  0.00    -0.269 OA
BRANCH  32  35
ATOM     35  C   UNL     1      -1.103   7.218   2.744  1.00  0.00     0.039 A 
ATOM     36  C   UNL     1      -1.474   8.367   3.482  1.00  0.00     0.014 A 
ATOM     37  C   UNL     1      -2.237   6.428   2.594  1.00  0.00     0.014 A 
ATOM     38  C   UNL     1      -2.495   8.405   4.473  1.00  0.00     0.010 A 
ATOM     39  C   UNL     1      -3.217   6.365   3.643  1.00  0.00     0.010 A 
ATOM     40  C   UNL     1      -3.275   7.286   4.704  1.00  0.00    -0.014 A 
BRANCH  40  41
ATOM     41  C   UNL     1      -4.431   7.356   5.653  1.00  0.00     0.031 A 
ATOM     42  C   UNL     1      -5.512   7.978   4.865  1.00  0.00     0.074 A 
ATOM     43  C   UNL     1      -4.716   6.972   6.933  1.00  0.00     0.049 A 
ATOM     44  N   UNL     1      -5.752   9.247   4.787  1.00  0.00    -0.248 NA
ATOM     45  C   UNL     1      -6.091   7.169   3.784  1.00  0.00     0.031 C 
ATOM     46  C   UNL     1      -3.924   6.177   7.879  1.00  0.00     0.029 A 
ATOM     47  N   UNL     1      -5.890   7.164   7.655  1.00  0.00    -0.354 N 
ATOM     48  C   UNL     1      -6.694   9.323   3.776  1.00  0.00     0.074 A 
ATOM     49  C   UNL     1      -6.537   8.137   2.984  1.00  0.00     0.031 C 
ATOM     50  C   UNL     1      -4.710   5.758   8.910  1.00  0.00     0.029 A 
ATOM     51  C   UNL     1      -6.035   6.350   8.793  1.00  0.00     0.049 A 
ATOM     52  H   UNL     1      -6.571   7.823   7.388  1.00  0.00     0.167 HD
ATOM     53  C   UNL     1      -7.811  10.076   3.932  1.00  0.00     0.034 A 
ATOM     54  C   UNL     1      -7.158   6.168   9.555  1.00  0.00     0.034 A 
ATOM     55  C   UNL     1      -7.675  10.989   5.035  1.00  0.00     0.049 A 
ATOM     56  C   UNL     1      -8.011   7.355   9.360  1.00  0.00     0.074 A 
ATOM     57  C   UNL     1      -6.925  12.107   5.324  1.00  0.00     0.029 A 
ATOM     58  N   UNL     1      -8.128  10.476   6.222  1.00  0.00    -0.354 N 
ATOM     59  N   UNL     1      -7.735   8.523   9.863  1.00  0.00    -0.248 NA
ATOM     60  C   UNL     1      -9.101   7.321   8.393  1.00  0.00     0.031 C 
ATOM     61  C   UNL     1      -6.836  12.171   6.744  1.00  0.00     0.029 A 
ATOM     62  C   UNL     1      -7.556  11.111   7.289  1.00  0.00     0.049 A 
ATOM     63  H   UNL     1      -8.782   9.744   6.296  1.00  0.00     0.167 HD
ATOM     64  C   UNL     1      -8.254   9.396   8.931  1.00  0.00     0.074 A 
ATOM     65  C   UNL     1      -9.242   8.631   8.184  1.00  0.00     0.031 C 
ATOM     66  C   UNL     1      -7.573  10.528   8.612  1.00  0.00     0.034 A 
BRANCH  53  67
ATOM     67  C   UNL     1      -9.170   9.653   3.421  1.00  0.00     0.023 A 
ATOM     68  C   UNL     1     -10.193  10.617   3.460  1.00  0.00     0.012 A 
ATOM     69  C   UNL     1      -9.564   8.322   3.133  1.00  0.00     0.148 A 
ATOM     70  C   UNL     1     -11.527  10.272   3.218  1.00  0.00     0.002 A 
ATOM     71  C   UNL     1     -10.866   8.004   2.783  1.00  0.00     0.091 A 
ATOM     72  F   UNL     1      -8.732   7.303   3.350  1.00  0.00    -0.205 F 
ATOM     73  C   UNL     1     -11.862   8.972   2.853  1.00  0.00     0.022 A 
BRANCH  71  74
ATOM     74  S   UNL     1     -11.306   6.345   2.246  1.00  0.00     0.127 S 
ATOM     75  O   UNL     1     -12.097   5.869   3.377  1.00  0.00    -0.237 OA
ATOM     76  O   UNL     1     -12.065   6.621   1.027  1.00  0.00    -0.237 OA
ATOM     77  O   UNL     1     -10.043   5.653   2.015  1.00  0.00    -0.744 OA
ENDBRANCH  71  74
ENDBRANCH  53  67
BRANCH  54  78
ATOM     78  C   UNL     1      -7.712   5.072  10.419  1.00  0.00     0.023 A 
ATOM     79  C   UNL     1      -8.763   5.359  11.335  1.00  0.00     0.012 A 
ATOM     80  C   UNL     1      -7.501   3.721  10.085  1.00  0.00     0.148 A 
ATOM     81  C   UNL     1      -9.618   4.358  11.823  1.00  0.00     0.002 A 
ATOM     82  C   UNL     1      -8.366   2.728  10.564  1.00  0.00     0.091 A 
ATOM     83  F   UNL     1      -6.517   3.427   9.227  1.00  0.00    -0.205 F 
ATOM     84  C   UNL     1      -9.432   3.045  11.417  1.00  0.00     0.022 A 
BRANCH  82  85
ATOM     85  S   UNL     1      -8.241   1.014  10.029  1.00  0.00     0.127 S 
ATOM     86  O   UNL     1      -8.293   0.294  11.309  1.00  0.00    -0.237 OA
ATOM     87  O   UNL     1      -9.453   0.872   9.211  1.00  0.00    -0.237 OA
ATOM     88  O   UNL     1      -6.988   0.906   9.324  1.00  0.00    -0.744 OA
ENDBRANCH  82  85
ENDBRANCH  54  78
BRANCH  66  89
ATOM     89  C   UNL     1      -6.623  11.089   9.630  1.00  0.00     0.023 A 
ATOM     90  C   UNL     1      -5.442  10.433  10.027  1.00  0.00     0.012 A 
ATOM     91  C   UNL     1      -6.873  12.392  10.088  1.00  0.00     0.148 A 
ATOM     92  C   UNL     1      -4.523  11.074  10.862  1.00  0.00     0.002 A 
ATOM     93  C   UNL     1      -5.930  13.049  10.862  1.00  0.00     0.091 A 
ATOM     94  F   UNL     1      -8.021  12.982   9.719  1.00  0.00    -0.205 F 
ATOM     95  C   UNL     1      -4.756  12.390  11.261  1.00  0.00     0.022 A 
BRANCH  93  96
ATOM     96  S   UNL     1      -6.100  14.785  11.275  1.00  0.00     0.127 S 
ATOM     97  O   UNL     1      -6.293  14.739  12.723  1.00  0.00    -0.237 OA
ATOM     98  O   UNL     1      -4.812  15.330  10.845  1.00  0.00    -0.237 OA
ATOM     99  O   UNL     1      -7.242  15.274  10.511  1.00  0.00    -0.744 OA
ENDBRANCH  93  96
ENDBRANCH  66  89
ENDBRANCH  40  41
ENDBRANCH  32  35
ENDBRANCH  30  31
ENDBRANCH  29  30
ENDBRANCH  28  29
ENDBRANCH   3  28
TORSDOF 19
