REMARK SMILES COc1cc(Cl)c2c(c1)C=C(C(=O)NCCCNC(=O)c1ccc(-c3c4nc(c(-c5cccc(S(=O)(=O)[O-])c5F)c5ccc([nH]5)c(-c5cccc(S(=O)(=O)[O-])c5F)c5nc(c(-c6cccc(S(=O)(=O)[O-])c6F)c6ccc3[nH]6)C=C5)C=C4)cc1)[C@@H](C(F)(F)F)O2
REMARK SMILES IDX 17 1 16 2 15 3 14 4 12 5 13 6 11 8 3 9 4 10 9 11 5 12 8 13
REMARK SMILES IDX 6 14 7 15 10 16 89 17 84 18 2 19 1 20 85 21 86 22 87 23
REMARK SMILES IDX 88 24 18 25 19 26 20 28 21 29 22 30 83 31 23 32 82 33 24 34
REMARK SMILES IDX 25 35 26 36 76 37 27 38 81 39 75 40 77 41 28 42 80 43 74 44
REMARK SMILES IDX 73 45 29 47 61 48 41 49 60 50 42 51 45 52 59 53 78 54 43 55
REMARK SMILES IDX 44 56 58 58 79 59 46 60 30 61 31 62 39 63 32 64 34 65 40 66
REMARK SMILES IDX 33 67 35 68 36 69 37 70 38 71 62 72 63 73 71 74 64 75 66 76
REMARK SMILES IDX 72 77 65 78 67 79 68 80 69 81 70 82 47 83 48 84 56 85 49 86
REMARK SMILES IDX 51 87 57 88 50 89 52 90 53 91 54 92 55 93
REMARK H PARENT 14 7 18 27 77 46 45 57
REMARK Flexibility Score: inf
ROOT
ATOM      1  C   UNL     1      -0.089   8.648  -8.414  1.00  0.00     0.118 C 
ENDROOT
BRANCH   1   2
ATOM      2  C   UNL     1       0.759   7.807  -7.467  1.00  0.00     0.042 C 
BRANCH   2   3
ATOM      3  C   UNL     1       0.208   7.813  -6.048  1.00  0.00     0.118 C 
BRANCH   3   4
ATOM      4  N   UNL     1      -0.915   6.901  -5.895  1.00  0.00    -0.352 N 
ATOM      5  C   UNL     1      -1.151   5.710  -5.299  1.00  0.00     0.251 C 
ATOM      6  O   UNL     1      -2.309   5.291  -5.401  1.00  0.00    -0.270 OA
ATOM      7  H   UNL     1      -1.721   7.243  -6.346  1.00  0.00     0.163 HD
BRANCH   5   8
ATOM      8  C   UNL     1      -0.143   4.913  -4.542  1.00  0.00     0.067 C 
ATOM      9  C   UNL     1       0.803   1.022  -1.842  1.00  0.00     0.121 A 
ATOM     10  C   UNL     1       2.160   1.344  -1.828  1.00  0.00     0.070 A 
ATOM     11  C   UNL     1      -0.089   1.779  -2.604  1.00  0.00     0.058 A 
ATOM     12  C   UNL     1       2.613   2.456  -2.537  1.00  0.00     0.087 A 
ATOM     13  C   UNL     1       0.360   2.903  -3.303  1.00  0.00     0.022 A 
ATOM     14  Cl  UNL     1       4.295   2.841  -2.476  1.00  0.00    -0.080 Cl
ATOM     15  C   UNL     1       1.713   3.247  -3.257  1.00  0.00     0.146 A 
ATOM     16  C   UNL     1      -0.559   3.713  -4.095  1.00  0.00     0.025 C 
ATOM     17  O   UNL     1       2.198   4.327  -3.942  1.00  0.00    -0.474 OA
ATOM     18  C   UNL     1       1.247   5.386  -4.229  1.00  0.00     0.314 C 
BRANCH   9  19
ATOM     19  O   UNL     1       0.271  -0.052  -1.181  1.00  0.00    -0.497 OA
ATOM     20  C   UNL     1       0.774  -0.216   0.144  1.00  0.00     0.278 C 
ENDBRANCH   9  19
BRANCH  18  21
ATOM     21  C   UNL     1       1.271   6.419  -3.085  1.00  0.00     0.429 C 
ATOM     22  F   UNL     1       2.448   7.091  -3.067  1.00  0.00    -0.167 F 
ATOM     23  F   UNL     1       0.297   7.354  -3.203  1.00  0.00    -0.167 F 
ATOM     24  F   UNL     1       1.111   5.849  -1.867  1.00  0.00    -0.167 F 
ENDBRANCH  18  21
ENDBRANCH   5   8
ENDBRANCH   3   4
ENDBRANCH   2   3
ENDBRANCH   1   2
BRANCH   1  25
ATOM     25  N   UNL     1      -0.045  10.063  -8.053  1.00  0.00    -0.352 N 
ATOM     26  C   UNL     1       0.658  11.088  -8.633  1.00  0.00     0.251 C 
ATOM     27  H   UNL     1      -0.602  10.318  -7.282  1.00  0.00     0.163 HD
ATOM     28  O   UNL     1       0.821  12.144  -8.024  1.00  0.00    -0.269 OA
BRANCH  26  29
ATOM     29  C   UNL     1       1.208  10.917  -9.990  1.00  0.00     0.039 A 
ATOM     30  C   UNL     1       2.505  11.354 -10.272  1.00  0.00     0.014 A 
ATOM     31  C   UNL     1       0.417  10.345 -10.990  1.00  0.00     0.014 A 
ATOM     32  C   UNL     1       3.028  11.168 -11.553  1.00  0.00     0.010 A 
ATOM     33  C   UNL     1       0.964  10.092 -12.240  1.00  0.00     0.010 A 
ATOM     34  C   UNL     1       2.265  10.520 -12.537  1.00  0.00    -0.014 A 
BRANCH  34  35
ATOM     35  C   UNL     1       2.781  10.314 -13.908  1.00  0.00     0.031 A 
ATOM     36  C   UNL     1       2.126  11.030 -15.056  1.00  0.00     0.074 A 
ATOM     37  C   UNL     1       3.762   9.420 -14.127  1.00  0.00     0.049 A 
ATOM     38  N   UNL     1       2.367  10.921 -16.335  1.00  0.00    -0.248 NA
ATOM     39  C   UNL     1       1.040  11.970 -14.727  1.00  0.00     0.031 C 
ATOM     40  C   UNL     1       4.421   8.616 -13.096  1.00  0.00     0.029 A 
ATOM     41  N   UNL     1       4.356   9.016 -15.295  1.00  0.00    -0.354 N 
ATOM     42  C   UNL     1       1.443  11.746 -16.962  1.00  0.00     0.074 A 
ATOM     43  C   UNL     1       0.617  12.330 -15.930  1.00  0.00     0.031 C 
ATOM     44  C   UNL     1       5.329   7.816 -13.678  1.00  0.00     0.029 A 
ATOM     45  C   UNL     1       5.302   8.034 -15.121  1.00  0.00     0.049 A 
ATOM     46  H   UNL     1       4.127   9.394 -16.175  1.00  0.00     0.167 HD
ATOM     47  C   UNL     1       1.316  12.018 -18.280  1.00  0.00     0.034 A 
ATOM     48  C   UNL     1       6.060   7.383 -16.025  1.00  0.00     0.034 A 
ATOM     49  C   UNL     1       2.179  11.486 -19.295  1.00  0.00     0.049 A 
ATOM     50  C   UNL     1       5.934   7.740 -17.479  1.00  0.00     0.074 A 
ATOM     51  C   UNL     1       2.193  11.777 -20.647  1.00  0.00     0.029 A 
ATOM     52  N   UNL     1       3.179  10.555 -19.071  1.00  0.00    -0.354 N 
ATOM     53  N   UNL     1       5.145   8.623 -18.042  1.00  0.00    -0.248 NA
ATOM     54  C   UNL     1       6.818   7.038 -18.420  1.00  0.00     0.031 C 
ATOM     55  C   UNL     1       3.200  11.014 -21.243  1.00  0.00     0.029 A 
ATOM     56  C   UNL     1       3.817  10.256 -20.260  1.00  0.00     0.049 A 
ATOM     57  H   UNL     1       3.402  10.164 -18.195  1.00  0.00     0.167 HD
ATOM     58  C   UNL     1       5.451   8.601 -19.396  1.00  0.00     0.074 A 
ATOM     59  C   UNL     1       6.507   7.624 -19.571  1.00  0.00     0.031 C 
ATOM     60  C   UNL     1       4.899   9.317 -20.405  1.00  0.00     0.034 A 
BRANCH  47  61
ATOM     61  C   UNL     1       0.250  12.991 -18.697  1.00  0.00     0.023 A 
ATOM     62  C   UNL     1       0.464  14.370 -18.498  1.00  0.00     0.012 A 
ATOM     63  C   UNL     1      -0.916  12.553 -19.352  1.00  0.00     0.148 A 
ATOM     64  C   UNL     1      -0.475  15.301 -18.936  1.00  0.00     0.002 A 
ATOM     65  C   UNL     1      -1.833  13.490 -19.813  1.00  0.00     0.091 A 
ATOM     66  F   UNL     1      -1.102  11.235 -19.510  1.00  0.00    -0.205 F 
ATOM     67  C   UNL     1      -1.616  14.862 -19.602  1.00  0.00     0.022 A 
BRANCH  65  68
ATOM     68  S   UNL     1      -3.310  13.037 -20.729  1.00  0.00     0.127 S 
ATOM     69  O   UNL     1      -4.367  13.472 -19.816  1.00  0.00    -0.237 OA
ATOM     70  O   UNL     1      -3.178  13.847 -21.940  1.00  0.00    -0.237 OA
ATOM     71  O   UNL     1      -3.230  11.599 -20.940  1.00  0.00    -0.744 OA
ENDBRANCH  65  68
ENDBRANCH  47  61
BRANCH  48  72
ATOM     72  C   UNL     1       7.059   6.389 -15.553  1.00  0.00     0.023 A 
ATOM     73  C   UNL     1       8.417   6.756 -15.502  1.00  0.00     0.012 A 
ATOM     74  C   UNL     1       6.667   5.122 -15.080  1.00  0.00     0.148 A 
ATOM     75  C   UNL     1       9.371   5.875 -14.993  1.00  0.00     0.002 A 
ATOM     76  C   UNL     1       7.617   4.263 -14.541  1.00  0.00     0.091 A 
ATOM     77  F   UNL     1       5.367   4.801 -15.137  1.00  0.00    -0.205 F 
ATOM     78  C   UNL     1       8.971   4.634 -14.505  1.00  0.00     0.022 A 
BRANCH  76  79
ATOM     79  S   UNL     1       7.191   2.686 -13.795  1.00  0.00     0.127 S 
ATOM     80  O   UNL     1       7.913   1.746 -14.649  1.00  0.00    -0.237 OA
ATOM     81  O   UNL     1       7.737   2.839 -12.446  1.00  0.00    -0.237 OA
ATOM     82  O   UNL     1       5.739   2.595 -13.857  1.00  0.00    -0.744 OA
ENDBRANCH  76  79
ENDBRANCH  48  72
BRANCH  60  83
ATOM     83  C   UNL     1       5.417   9.098 -21.798  1.00  0.00     0.023 A 
ATOM     84  C   UNL     1       4.976   7.979 -22.529  1.00  0.00     0.012 A 
ATOM     85  C   UNL     1       6.215  10.074 -22.427  1.00  0.00     0.148 A 
ATOM     86  C   UNL     1       5.325   7.832 -23.870  1.00  0.00     0.002 A 
ATOM     87  C   UNL     1       6.529   9.938 -23.773  1.00  0.00     0.091 A 
ATOM     88  F   UNL     1       6.625  11.125 -21.703  1.00  0.00    -0.205 F 
ATOM     89  C   UNL     1       6.089   8.816 -24.494  1.00  0.00     0.022 A 
BRANCH  87  90
ATOM     90  S   UNL     1       7.436  11.191 -24.686  1.00  0.00     0.127 S 
ATOM     91  O   UNL     1       8.687  10.495 -24.983  1.00  0.00    -0.237 OA
ATOM     92  O   UNL     1       6.572  11.416 -25.844  1.00  0.00    -0.237 OA
ATOM     93  O   UNL     1       7.562  12.333 -23.790  1.00  0.00    -0.744 OA
ENDBRANCH  87  90
ENDBRANCH  60  83
ENDBRANCH  34  35
ENDBRANCH  26  29
ENDBRANCH   1  25
TORSDOF 15
