REMARK SMILES COCCNC(=O)c1cccc(NC(=O)[C@@H]2CCCC[C@H]2C(=O)NCCCNC(=O)c2ccc(-c3c4nc(c(-c5cccc(S(=O)(=O)[O-])c5F)c5ccc([nH]5)c(-c5cccc(S(=O)(=O)[O-])c5F)c5nc(c(-c6cccc(S(=O)(=O)[O-])c6F)c6ccc3[nH]6)C=C5)C=C4)cc2)c1
REMARK SMILES IDX 22 1 23 2 24 3 21 5 16 6 17 7 18 8 20 9 19 10 14 11 13 12
REMARK SMILES IDX 15 14 12 15 8 16 9 17 94 18 10 19 11 20 6 21 5 22 7 24 4 25
REMARK SMILES IDX 3 26 2 27 1 28 25 29 26 30 27 31 28 32 29 33 30 35 31 36
REMARK SMILES IDX 32 37 93 38 33 39 92 40 34 41 35 42 36 43 86 44 37 45 91 46
REMARK SMILES IDX 85 47 87 48 38 49 90 50 84 51 83 52 39 54 71 55 51 56 70 57
REMARK SMILES IDX 52 58 55 59 69 60 88 61 53 62 54 63 68 65 89 66 56 67 40 68
REMARK SMILES IDX 41 69 49 70 42 71 44 72 50 73 43 74 45 75 46 76 47 77 48 78
REMARK SMILES IDX 72 79 73 80 81 81 74 82 76 83 82 84 75 85 77 86 78 87 79 88
REMARK SMILES IDX 80 89 57 90 58 91 66 92 59 93 61 94 67 95 60 96 62 97 63 98
REMARK SMILES IDX 64 99 65 100
REMARK H PARENT 24 4 13 13 5 23 28 34 87 53 55 64
REMARK Flexibility Score: inf
ROOT
ATOM      1  C   UNL     1       4.471  -8.011   0.884  1.00  0.00     0.223 C 
ATOM      2  O   UNL     1       5.022  -7.021   1.383  1.00  0.00    -0.275 OA
ATOM      3  N   UNL     1       4.788  -8.282  -0.420  1.00  0.00    -0.356 N 
ATOM      4  H   UNL     1       5.325  -7.569  -0.836  1.00  0.00     0.163 HD
ENDROOT
BRANCH   1   5
ATOM      5  C   UNL     1       3.536  -8.866   1.757  1.00  0.00     0.091 C 
ATOM      6  C   UNL     1       2.150  -9.253   1.154  1.00  0.00     0.091 C 
ATOM      7  C   UNL     1       1.724 -10.698   1.569  1.00  0.00     0.014 C 
ATOM      8  C   UNL     1       2.842 -11.723   1.607  1.00  0.00     0.001 C 
ATOM      9  C   UNL     1       4.488  -9.988   2.244  1.00  0.00     0.014 C 
ATOM     10  C   UNL     1       3.856 -11.300   2.646  1.00  0.00     0.001 C 
BRANCH   6  11
ATOM     11  C   UNL     1       0.926  -8.336   1.536  1.00  0.00     0.228 C 
ATOM     12  N   UNL     1       0.539  -7.153   0.965  1.00  0.00    -0.326 N 
ATOM     13  H   UNL     1      -0.397  -6.937   1.179  1.00  0.00     0.169 HD
ATOM     14  O   UNL     1       0.145  -8.711   2.427  1.00  0.00    -0.274 OA
BRANCH  12  15
ATOM     15  C   UNL     1       1.124  -6.166   0.156  1.00  0.00     0.041 A 
ATOM     16  C   UNL     1       1.132  -3.922  -0.782  1.00  0.00     0.041 A 
ATOM     17  C   UNL     1       2.472  -4.046  -1.151  1.00  0.00     0.014 A 
ATOM     18  C   UNL     1       0.457  -4.970  -0.118  1.00  0.00     0.040 A 
ATOM     19  C   UNL     1       3.105  -5.249  -0.939  1.00  0.00     0.003 A 
ATOM     20  C   UNL     1       2.388  -6.294  -0.358  1.00  0.00     0.026 A 
BRANCH  16  21
ATOM     21  C   UNL     1       0.442  -2.708  -1.249  1.00  0.00     0.251 C 
ATOM     22  N   UNL     1      -0.316  -1.961  -0.397  1.00  0.00    -0.350 N 
ATOM     23  H   UNL     1      -0.958  -1.351  -0.826  1.00  0.00     0.163 HD
ATOM     24  O   UNL     1       0.582  -2.359  -2.418  1.00  0.00    -0.269 OA
BRANCH  22  25
ATOM     25  C   UNL     1      -0.309  -1.939   1.055  1.00  0.00     0.144 C 
BRANCH  25  26
ATOM     26  C   UNL     1       0.808  -1.062   1.635  1.00  0.00     0.181 C 
BRANCH  26  27
ATOM     27  O   UNL     1       0.555   0.337   1.481  1.00  0.00    -0.383 OA
ATOM     28  C   UNL     1       1.004   0.867   0.239  1.00  0.00     0.194 C 
ENDBRANCH  26  27
ENDBRANCH  25  26
ENDBRANCH  22  25
ENDBRANCH  16  21
ENDBRANCH  12  15
ENDBRANCH   6  11
ENDBRANCH   1   5
BRANCH   3  29
ATOM     29  C   UNL     1       4.511  -9.385  -1.333  1.00  0.00     0.117 C 
BRANCH  29  30
ATOM     30  C   UNL     1       3.368  -9.246  -2.357  1.00  0.00     0.042 C 
BRANCH  30  31
ATOM     31  C   UNL     1       3.244  -8.025  -3.268  1.00  0.00     0.118 C 
BRANCH  31  32
ATOM     32  N   UNL     1       4.457  -7.589  -3.921  1.00  0.00    -0.352 N 
ATOM     33  C   UNL     1       4.614  -7.136  -5.212  1.00  0.00     0.251 C 
ATOM     34  H   UNL     1       5.275  -7.620  -3.374  1.00  0.00     0.163 HD
ATOM     35  O   UNL     1       5.729  -6.792  -5.598  1.00  0.00    -0.269 OA
BRANCH  33  36
ATOM     36  C   UNL     1       3.468  -7.116  -6.154  1.00  0.00     0.039 A 
ATOM     37  C   UNL     1       3.609  -7.791  -7.370  1.00  0.00     0.014 A 
ATOM     38  C   UNL     1       2.275  -6.444  -5.866  1.00  0.00     0.014 A 
ATOM     39  C   UNL     1       2.540  -7.843  -8.271  1.00  0.00     0.010 A 
ATOM     40  C   UNL     1       1.193  -6.534  -6.751  1.00  0.00     0.010 A 
ATOM     41  C   UNL     1       1.310  -7.240  -7.960  1.00  0.00    -0.014 A 
BRANCH  41  42
ATOM     42  C   UNL     1       0.144  -7.387  -8.878  1.00  0.00     0.031 A 
ATOM     43  C   UNL     1      -0.434  -6.199  -9.601  1.00  0.00     0.074 A 
ATOM     44  C   UNL     1      -0.436  -8.597  -9.028  1.00  0.00     0.049 A 
ATOM     45  N   UNL     1      -1.438  -6.154 -10.441  1.00  0.00    -0.248 NA
ATOM     46  C   UNL     1       0.186  -4.891  -9.339  1.00  0.00     0.031 C 
ATOM     47  C   UNL     1      -0.022  -9.821  -8.341  1.00  0.00     0.029 A 
ATOM     48  N   UNL     1      -1.509  -8.993  -9.790  1.00  0.00    -0.354 N 
ATOM     49  C   UNL     1      -1.592  -4.815 -10.784  1.00  0.00     0.074 A 
ATOM     50  C   UNL     1      -0.589  -4.078 -10.044  1.00  0.00     0.031 C 
ATOM     51  C   UNL     1      -0.828 -10.829  -8.712  1.00  0.00     0.029 A 
ATOM     52  C   UNL     1      -1.832 -10.323  -9.643  1.00  0.00     0.049 A 
ATOM     53  H   UNL     1      -2.001  -8.382 -10.386  1.00  0.00     0.167 HD
ATOM     54  C   UNL     1      -2.470  -4.252 -11.649  1.00  0.00     0.034 A 
ATOM     55  C   UNL     1      -2.825 -11.055 -10.189  1.00  0.00     0.034 A 
ATOM     56  C   UNL     1      -3.445  -4.986 -12.414  1.00  0.00     0.049 A 
ATOM     57  C   UNL     1      -3.770 -10.408 -11.166  1.00  0.00     0.074 A 
ATOM     58  C   UNL     1      -4.312  -4.511 -13.384  1.00  0.00     0.029 A 
ATOM     59  N   UNL     1      -3.697  -6.343 -12.287  1.00  0.00    -0.354 N 
ATOM     60  N   UNL     1      -3.784  -9.175 -11.608  1.00  0.00    -0.248 NA
ATOM     61  C   UNL     1      -4.815 -11.264 -11.749  1.00  0.00     0.031 C 
ATOM     62  C   UNL     1      -5.107  -5.575 -13.823  1.00  0.00     0.029 A 
ATOM     63  C   UNL     1      -4.716  -6.719 -13.148  1.00  0.00     0.049 A 
ATOM     64  H   UNL     1      -3.222  -6.950 -11.675  1.00  0.00     0.167 HD
ATOM     65  C   UNL     1      -4.809  -9.116 -12.545  1.00  0.00     0.074 A 
ATOM     66  C   UNL     1      -5.381 -10.444 -12.623  1.00  0.00     0.031 C 
ATOM     67  C   UNL     1      -5.246  -8.053 -13.265  1.00  0.00     0.034 A 
BRANCH  54  68
ATOM     68  C   UNL     1      -2.393  -2.761 -11.861  1.00  0.00     0.023 A 
ATOM     69  C   UNL     1      -1.314  -2.219 -12.589  1.00  0.00     0.012 A 
ATOM     70  C   UNL     1      -3.421  -1.909 -11.412  1.00  0.00     0.148 A 
ATOM     71  C   UNL     1      -1.244  -0.849 -12.839  1.00  0.00     0.002 A 
ATOM     72  C   UNL     1      -3.366  -0.550 -11.703  1.00  0.00     0.091 A 
ATOM     73  F   UNL     1      -4.431  -2.441 -10.709  1.00  0.00    -0.205 F 
ATOM     74  C   UNL     1      -2.273  -0.017 -12.406  1.00  0.00     0.022 A 
BRANCH  72  75
ATOM     75  S   UNL     1      -4.682   0.591 -11.262  1.00  0.00     0.127 S 
ATOM     76  O   UNL     1      -4.055   1.365 -10.191  1.00  0.00    -0.237 OA
ATOM     77  O   UNL     1      -4.882   1.329 -12.509  1.00  0.00    -0.237 OA
ATOM     78  O   UNL     1      -5.811  -0.235 -10.858  1.00  0.00    -0.744 OA
ENDBRANCH  72  75
ENDBRANCH  54  68
BRANCH  55  79
ATOM     79  C   UNL     1      -2.941 -12.508  -9.872  1.00  0.00     0.023 A 
ATOM     80  C   UNL     1      -2.656 -13.459 -10.872  1.00  0.00     0.012 A 
ATOM     81  C   UNL     1      -3.313 -12.952  -8.589  1.00  0.00     0.148 A 
ATOM     82  C   UNL     1      -2.774 -14.824 -10.610  1.00  0.00     0.002 A 
ATOM     83  C   UNL     1      -3.372 -14.314  -8.318  1.00  0.00     0.091 A 
ATOM     84  F   UNL     1      -3.594 -12.032  -7.655  1.00  0.00    -0.205 F 
ATOM     85  C   UNL     1      -3.121 -15.252  -9.331  1.00  0.00     0.022 A 
BRANCH  83  86
ATOM     86  S   UNL     1      -3.679 -14.953  -6.667  1.00  0.00     0.127 S 
ATOM     87  O   UNL     1      -5.029 -15.494  -6.801  1.00  0.00    -0.237 OA
ATOM     88  O   UNL     1      -2.623 -15.957  -6.530  1.00  0.00    -0.237 OA
ATOM     89  O   UNL     1      -3.538 -13.812  -5.773  1.00  0.00    -0.744 OA
ENDBRANCH  83  86
ENDBRANCH  55  79
BRANCH  67  90
ATOM     90  C   UNL     1      -6.377  -8.277 -14.236  1.00  0.00     0.023 A 
ATOM     91  C   UNL     1      -7.685  -8.487 -13.754  1.00  0.00     0.012 A 
ATOM     92  C   UNL     1      -6.157  -8.207 -15.626  1.00  0.00     0.148 A 
ATOM     93  C   UNL     1      -8.749  -8.654 -14.640  1.00  0.00     0.002 A 
ATOM     94  C   UNL     1      -7.231  -8.326 -16.502  1.00  0.00     0.091 A 
ATOM     95  F   UNL     1      -4.904  -8.027 -16.067  1.00  0.00    -0.205 F 
ATOM     96  C   UNL     1      -8.525  -8.562 -16.011  1.00  0.00     0.022 A 
BRANCH  94  97
ATOM     97  S   UNL     1      -7.051  -8.126 -18.279  1.00  0.00     0.127 S 
ATOM     98  O   UNL     1      -7.205  -9.501 -18.751  1.00  0.00    -0.237 OA
ATOM     99  O   UNL     1      -8.170  -7.241 -18.607  1.00  0.00    -0.237 OA
ATOM    100  O   UNL     1      -5.735  -7.537 -18.485  1.00  0.00    -0.744 OA
ENDBRANCH  94  97
ENDBRANCH  67  90
ENDBRANCH  41  42
ENDBRANCH  33  36
ENDBRANCH  31  32
ENDBRANCH  30  31
ENDBRANCH  29  30
ENDBRANCH   3  29
TORSDOF 19
