REMARK SMILES C/C(=N\Nc1nc(-c2ccc(Cl)cc2)cs1)c1nnn(-c2ccc(C(=O)NCCCNC(=O)c3ccc(-c4c5nc(c(-c6cccc(S(=O)(=O)[O-])c6F)c6ccc([nH]6)c(-c6cccc(S(=O)(=O)[O-])c6F)c6nc(c(-c7cccc(S(=O)(=O)[O-])c7F)c7ccc4[nH]7)C=C6)C=C5)cc3)cc2)c1C
REMARK SMILES IDX 28 1 27 2 25 3 26 4 24 6 21 7 22 8 98 9 23 10 97 11 20 12
REMARK SMILES IDX 17 13 18 14 99 15 19 16 100 17 2 18 1 19 3 20 4 21 5 23 6 24
REMARK SMILES IDX 16 25 7 26 15 27 8 28 9 29 14 30 10 31 13 32 11 33 12 34
REMARK SMILES IDX 29 35 30 36 31 37 32 38 33 40 34 41 35 42 96 43 36 44 95 45
REMARK SMILES IDX 37 46 38 47 39 48 89 49 40 50 94 51 88 52 90 53 41 54 93 55
REMARK SMILES IDX 87 56 86 57 42 59 74 60 54 61 73 62 55 63 58 64 72 65 91 66
REMARK SMILES IDX 56 67 57 68 71 70 92 71 59 72 43 73 44 74 52 75 45 76 47 77
REMARK SMILES IDX 53 78 46 79 48 80 49 81 50 82 51 83 75 84 76 85 84 86 77 87
REMARK SMILES IDX 79 88 85 89 78 90 80 91 81 92 82 93 83 94 60 95 61 96 69 97
REMARK SMILES IDX 62 98 64 99 70 100 63 101 65 102 66 103 67 104 68 105
REMARK H PARENT 27 5 4 22 31 39 90 58 58 69
REMARK Flexibility Score: inf
ROOT
ATOM      1  C   UNL     1       8.257  -0.094  -5.817  1.00  0.00     0.118 C 
ENDROOT
BRANCH   1   2
ATOM      2  N   UNL     1       7.930   0.928  -6.801  1.00  0.00    -0.352 N 
ATOM      3  C   UNL     1       6.744   1.537  -7.142  1.00  0.00     0.251 C 
ATOM      4  O   UNL     1       6.790   2.531  -7.863  1.00  0.00    -0.269 OA
ATOM      5  H   UNL     1       8.704   1.243  -7.322  1.00  0.00     0.163 HD
BRANCH   3   6
ATOM      6  C   UNL     1       5.424   1.095  -6.614  1.00  0.00     0.039 A 
ATOM      7  C   UNL     1       3.025   0.467  -5.344  1.00  0.00     0.067 A 
ATOM      8  C   UNL     1       3.159   1.719  -5.942  1.00  0.00     0.029 A 
ATOM      9  C   UNL     1       4.006  -0.511  -5.495  1.00  0.00     0.029 A 
ATOM     10  C   UNL     1       4.376   2.034  -6.560  1.00  0.00     0.016 A 
ATOM     11  C   UNL     1       5.180  -0.201  -6.162  1.00  0.00     0.016 A 
BRANCH   7  12
ATOM     12  N   UNL     1       2.000   0.225  -4.420  1.00  0.00    -0.217 N 
ATOM     13  C   UNL     1       0.884  -0.222  -2.611  1.00  0.00     0.132 A 
ATOM     14  N   UNL     1      -0.001  -0.012  -3.635  1.00  0.00    -0.128 NA
ATOM     15  C   UNL     1       2.178  -0.067  -3.082  1.00  0.00     0.071 A 
ATOM     16  N   UNL     1       0.692   0.356  -4.709  1.00  0.00    -0.061 NA
ATOM     17  C   UNL     1       3.491  -0.028  -2.381  1.00  0.00     0.069 C 
BRANCH  13  18
ATOM     18  C   UNL     1       0.504  -0.414  -1.221  1.00  0.00     0.087 C 
ATOM     19  C   UNL     1       1.114   0.579  -0.264  1.00  0.00     0.071 C 
ATOM     20  N   UNL     1      -0.250  -1.446  -0.964  1.00  0.00    -0.176 NA
BRANCH  20  21
ATOM     21  N   UNL     1      -0.574  -1.883   0.302  1.00  0.00    -0.252 N 
ATOM     22  H   UNL     1      -1.030  -2.755   0.334  1.00  0.00     0.193 HD
BRANCH  21  23
ATOM     23  C   UNL     1      -0.367  -1.307   1.513  1.00  0.00     0.203 A 
ATOM     24  N   UNL     1      -0.579  -0.048   1.814  1.00  0.00    -0.219 NA
ATOM     25  S   UNL     1       0.333  -2.216   2.809  1.00  0.00    -0.103 S 
ATOM     26  C   UNL     1       0.151   0.308   2.927  1.00  0.00     0.084 A 
ATOM     27  C   UNL     1       0.722  -0.743   3.611  1.00  0.00     0.097 A 
BRANCH  26  28
ATOM     28  C   UNL     1       0.372   1.714   3.209  1.00  0.00     0.001 A 
ATOM     29  C   UNL     1      -0.724   2.579   3.310  1.00  0.00     0.012 A 
ATOM     30  C   UNL     1       1.671   2.243   3.223  1.00  0.00     0.012 A 
ATOM     31  C   UNL     1      -0.526   3.954   3.456  1.00  0.00     0.021 A 
ATOM     32  C   UNL     1       1.869   3.621   3.354  1.00  0.00     0.021 A 
ATOM     33  C   UNL     1       0.769   4.469   3.476  1.00  0.00     0.041 A 
ATOM     34  Cl  UNL     1       1.012   6.165   3.634  1.00  0.00    -0.084 Cl
ENDBRANCH  26  28
ENDBRANCH  21  23
ENDBRANCH  20  21
ENDBRANCH  13  18
ENDBRANCH   7  12
ENDBRANCH   3   6
ENDBRANCH   1   2
BRANCH   1  35
ATOM     35  C   UNL     1       8.347  -1.500  -6.426  1.00  0.00     0.042 C 
BRANCH  35  36
ATOM     36  C   UNL     1       9.688  -1.759  -7.080  1.00  0.00     0.118 C 
BRANCH  36  37
ATOM     37  N   UNL     1      10.762  -1.927  -6.101  1.00  0.00    -0.352 N 
ATOM     38  C   UNL     1      12.096  -2.208  -6.340  1.00  0.00     0.251 C 
ATOM     39  H   UNL     1      10.505  -1.828  -5.156  1.00  0.00     0.163 HD
ATOM     40  O   UNL     1      12.807  -2.642  -5.452  1.00  0.00    -0.269 OA
BRANCH  38  41
ATOM     41  C   UNL     1      12.628  -1.980  -7.698  1.00  0.00     0.039 A 
ATOM     42  C   UNL     1      13.524  -2.878  -8.280  1.00  0.00     0.014 A 
ATOM     43  C   UNL     1      12.177  -0.867  -8.401  1.00  0.00     0.014 A 
ATOM     44  C   UNL     1      13.899  -2.681  -9.606  1.00  0.00     0.010 A 
ATOM     45  C   UNL     1      12.395  -0.782  -9.749  1.00  0.00     0.010 A 
ATOM     46  C   UNL     1      13.310  -1.640 -10.341  1.00  0.00    -0.014 A 
BRANCH  46  47
ATOM     47  C   UNL     1      13.569  -1.494 -11.766  1.00  0.00     0.031 A 
ATOM     48  C   UNL     1      13.286  -2.711 -12.572  1.00  0.00     0.074 A 
ATOM     49  C   UNL     1      13.833  -0.301 -12.343  1.00  0.00     0.049 A 
ATOM     50  N   UNL     1      14.142  -3.476 -13.163  1.00  0.00    -0.248 NA
ATOM     51  C   UNL     1      11.910  -3.231 -12.592  1.00  0.00     0.031 C 
ATOM     52  C   UNL     1      13.800   1.035 -11.730  1.00  0.00     0.029 A 
ATOM     53  N   UNL     1      14.033  -0.017 -13.657  1.00  0.00    -0.354 N 
ATOM     54  C   UNL     1      13.387  -4.429 -13.844  1.00  0.00     0.074 A 
ATOM     55  C   UNL     1      12.065  -4.364 -13.281  1.00  0.00     0.031 C 
ATOM     56  C   UNL     1      13.688   1.970 -12.699  1.00  0.00     0.029 A 
ATOM     57  C   UNL     1      13.831   1.319 -13.986  1.00  0.00     0.049 A 
ATOM     58  H   UNL     1      14.297  -0.698 -14.317  1.00  0.00     0.167 HD
ATOM     59  C   UNL     1      13.846  -5.000 -14.993  1.00  0.00     0.034 A 
ATOM     60  C   UNL     1      13.726   1.836 -15.234  1.00  0.00     0.034 A 
ATOM     61  C   UNL     1      15.257  -4.755 -15.169  1.00  0.00     0.049 A 
ATOM     62  C   UNL     1      14.350   0.862 -16.159  1.00  0.00     0.074 A 
ATOM     63  C   UNL     1      16.392  -4.991 -14.417  1.00  0.00     0.029 A 
ATOM     64  N   UNL     1      15.614  -3.800 -16.092  1.00  0.00    -0.354 N 
ATOM     65  N   UNL     1      15.621   0.570 -16.145  1.00  0.00    -0.248 NA
ATOM     66  C   UNL     1      13.486  -0.124 -16.788  1.00  0.00     0.031 C 
ATOM     67  C   UNL     1      17.189  -3.821 -14.588  1.00  0.00     0.029 A 
ATOM     68  C   UNL     1      16.535  -2.983 -15.494  1.00  0.00     0.049 A 
ATOM     69  H   UNL     1      15.271  -3.719 -17.011  1.00  0.00     0.167 HD
ATOM     70  C   UNL     1      15.658  -0.807 -16.322  1.00  0.00     0.074 A 
ATOM     71  C   UNL     1      14.327  -1.161 -16.818  1.00  0.00     0.031 C 
ATOM     72  C   UNL     1      16.650  -1.568 -15.771  1.00  0.00     0.034 A 
BRANCH  59  73
ATOM     73  C   UNL     1      12.983  -5.446 -16.157  1.00  0.00     0.023 A 
ATOM     74  C   UNL     1      13.637  -6.111 -17.220  1.00  0.00     0.012 A 
ATOM     75  C   UNL     1      11.661  -5.009 -16.398  1.00  0.00     0.148 A 
ATOM     76  C   UNL     1      13.038  -6.263 -18.476  1.00  0.00     0.002 A 
ATOM     77  C   UNL     1      11.040  -5.234 -17.621  1.00  0.00     0.091 A 
ATOM     78  F   UNL     1      11.027  -4.253 -15.499  1.00  0.00    -0.205 F 
ATOM     79  C   UNL     1      11.736  -5.826 -18.676  1.00  0.00     0.022 A 
BRANCH  77  80
ATOM     80  S   UNL     1       9.337  -4.737 -17.918  1.00  0.00     0.127 S 
ATOM     81  O   UNL     1       9.519  -3.586 -18.797  1.00  0.00    -0.237 OA
ATOM     82  O   UNL     1       8.788  -5.931 -18.563  1.00  0.00    -0.237 OA
ATOM     83  O   UNL     1       8.776  -4.460 -16.602  1.00  0.00    -0.744 OA
ENDBRANCH  77  80
ENDBRANCH  59  73
BRANCH  60  84
ATOM     84  C   UNL     1      12.890   2.961 -15.714  1.00  0.00     0.023 A 
ATOM     85  C   UNL     1      13.191   3.579 -16.943  1.00  0.00     0.012 A 
ATOM     86  C   UNL     1      11.641   3.242 -15.116  1.00  0.00     0.148 A 
ATOM     87  C   UNL     1      12.267   4.423 -17.572  1.00  0.00     0.002 A 
ATOM     88  C   UNL     1      10.729   4.089 -15.740  1.00  0.00     0.091 A 
ATOM     89  F   UNL     1      11.309   2.607 -13.984  1.00  0.00    -0.205 F 
ATOM     90  C   UNL     1      11.034   4.671 -16.976  1.00  0.00     0.022 A 
BRANCH  88  91
ATOM     91  S   UNL     1       9.111   4.437 -15.037  1.00  0.00     0.127 S 
ATOM     92  O   UNL     1       9.042   5.895 -15.146  1.00  0.00    -0.237 OA
ATOM     93  O   UNL     1       8.226   3.713 -15.945  1.00  0.00    -0.237 OA
ATOM     94  O   UNL     1       9.160   3.940 -13.668  1.00  0.00    -0.744 OA
ENDBRANCH  88  91
ENDBRANCH  60  84
BRANCH  72  95
ATOM     95  C   UNL     1      17.847  -0.871 -15.170  1.00  0.00     0.023 A 
ATOM     96  C   UNL     1      17.744  -0.000 -14.065  1.00  0.00     0.012 A 
ATOM     97  C   UNL     1      19.124  -1.258 -15.610  1.00  0.00     0.148 A 
ATOM     98  C   UNL     1      18.889   0.487 -13.427  1.00  0.00     0.002 A 
ATOM     99  C   UNL     1      20.258  -0.811 -14.944  1.00  0.00     0.091 A 
ATOM    100  F   UNL     1      19.206  -2.090 -16.660  1.00  0.00    -0.205 F 
ATOM    101  C   UNL     1      20.146   0.069 -13.857  1.00  0.00     0.022 A 
BRANCH  99 102
ATOM    102  S   UNL     1      21.892  -1.417 -15.371  1.00  0.00     0.127 S 
ATOM    103  O   UNL     1      22.465  -0.275 -16.079  1.00  0.00    -0.237 OA
ATOM    104  O   UNL     1      22.483  -1.682 -14.058  1.00  0.00    -0.237 OA
ATOM    105  O   UNL     1      21.678  -2.613 -16.176  1.00  0.00    -0.744 OA
ENDBRANCH  99 102
ENDBRANCH  72  95
ENDBRANCH  46  47
ENDBRANCH  38  41
ENDBRANCH  36  37
ENDBRANCH  35  36
ENDBRANCH   1  35
TORSDOF 18
