REMARK SMILES CC1=C([C@H](NC(=O)[C@@H]2[C@H](C)c3cc(F)ccc3N2C)C(=O)NCCCNC(=O)c2ccc(-c3c4nc(c(-c5cccc(S(=O)(=O)[O-])c5F)c5ccc([nH]5)c(-c5cccc(S(=O)(=O)[O-])c5F)c5nc(c(-c6cccc(S(=O)(=O)[O-])c6F)c6ccc3[nH]6)C=C5)C=C4)cc2)[C@@H](C)N=N1
REMARK SMILES IDX 24 1 23 2 22 3 20 4 21 5 4 7 3 8 1 9 2 10 95 11 92 12 94 13
REMARK SMILES IDX 93 14 5 15 6 16 7 18 8 19 9 20 18 21 11 22 10 23 17 24 19 25
REMARK SMILES IDX 12 26 16 27 13 28 15 29 14 30 25 31 26 32 27 33 28 35 29 36
REMARK SMILES IDX 30 37 91 38 31 39 90 40 32 41 33 42 34 43 84 44 35 45 89 46
REMARK SMILES IDX 83 47 85 48 36 49 88 50 82 51 81 52 37 54 69 55 49 56 68 57
REMARK SMILES IDX 50 58 53 59 67 60 86 61 51 62 52 63 66 65 87 66 54 67 38 68
REMARK SMILES IDX 39 69 47 70 40 71 42 72 48 73 41 74 43 75 44 76 45 77 46 78
REMARK SMILES IDX 70 79 71 80 79 81 72 82 74 83 80 84 73 85 75 86 76 87 77 88
REMARK SMILES IDX 78 89 55 90 56 91 64 92 57 93 59 94 65 95 58 96 60 97 61 98
REMARK SMILES IDX 62 99 63 100
REMARK H PARENT 22 6 5 17 26 34 85 53 53 64
REMARK Flexibility Score: inf
ROOT
ATOM      1  C   UNL     1       1.520   5.585   4.288  1.00  0.00     0.042 C 
ENDROOT
BRANCH   1   2
ATOM      2  C   UNL     1       1.333   5.966   2.820  1.00  0.00     0.117 C 
BRANCH   2   3
ATOM      3  N   UNL     1       2.234   5.305   1.889  1.00  0.00    -0.354 N 
ATOM      4  C   UNL     1       2.063   4.305   0.976  1.00  0.00     0.247 C 
ATOM      5  O   UNL     1       3.047   4.093   0.247  1.00  0.00    -0.272 OA
ATOM      6  H   UNL     1       3.156   5.650   1.925  1.00  0.00     0.163 HD
BRANCH   4   7
ATOM      7  C   UNL     1       0.799   3.355   0.847  1.00  0.00     0.202 C 
BRANCH   7   8
ATOM      8  C   UNL     1      -0.442   4.009   0.321  1.00  0.00     0.011 C 
ATOM      9  C   UNL     1       0.328   4.481  -2.075  1.00  0.00     0.069 C 
ATOM     10  C   UNL     1      -0.639   4.432  -0.939  1.00  0.00     0.064 C 
ATOM     11  N   UNL     1      -1.941   4.779  -1.182  1.00  0.00    -0.160 NA
ATOM     12  C   UNL     1      -1.795   4.072   0.960  1.00  0.00     0.156 C 
ATOM     13  N   UNL     1      -2.648   4.556  -0.165  1.00  0.00    -0.181 NA
ATOM     14  C   UNL     1      -1.985   5.057   2.102  1.00  0.00     0.040 C 
ENDBRANCH   7   8
BRANCH   7  15
ATOM     15  N   UNL     1       0.503   2.069   1.524  1.00  0.00    -0.339 N 
ATOM     16  C   UNL     1       0.940   1.456   2.676  1.00  0.00     0.244 C 
ATOM     17  H   UNL     1      -0.158   1.528   1.035  1.00  0.00     0.164 HD
ATOM     18  O   UNL     1       0.505   0.335   2.935  1.00  0.00    -0.273 OA
BRANCH  16  19
ATOM     19  C   UNL     1       1.908   2.215   3.553  1.00  0.00     0.178 C 
ATOM     20  C   UNL     1       3.357   2.293   3.033  1.00  0.00     0.050 C 
ATOM     21  N   UNL     1       2.000   1.908   5.011  1.00  0.00    -0.362 N 
ATOM     22  C   UNL     1       4.059   2.708   4.286  1.00  0.00    -0.016 A 
ATOM     23  C   UNL     1       3.900   1.039   2.378  1.00  0.00     0.015 C 
ATOM     24  C   UNL     1       3.238   2.462   5.394  1.00  0.00     0.041 A 
ATOM     25  C   UNL     1       0.852   2.069   5.887  1.00  0.00     0.144 C 
ATOM     26  C   UNL     1       5.248   3.418   4.377  1.00  0.00     0.045 A 
ATOM     27  C   UNL     1       3.656   2.880   6.650  1.00  0.00     0.029 A 
ATOM     28  C   UNL     1       5.625   3.879   5.629  1.00  0.00     0.123 A 
ATOM     29  C   UNL     1       4.853   3.607   6.762  1.00  0.00     0.041 A 
ATOM     30  F   UNL     1       6.724   4.636   5.741  1.00  0.00    -0.207 F 
ENDBRANCH  16  19
ENDBRANCH   7  15
ENDBRANCH   4   7
ENDBRANCH   2   3
ENDBRANCH   1   2
BRANCH   1  31
ATOM     31  C   UNL     1       2.514   6.370   5.113  1.00  0.00     0.118 C 
BRANCH  31  32
ATOM     32  N   UNL     1       1.993   7.624   5.576  1.00  0.00    -0.352 N 
ATOM     33  C   UNL     1       2.014   7.974   6.905  1.00  0.00     0.251 C 
ATOM     34  H   UNL     1       1.609   8.252   4.922  1.00  0.00     0.163 HD
ATOM     35  O   UNL     1       2.703   8.928   7.255  1.00  0.00    -0.269 OA
BRANCH  33  36
ATOM     36  C   UNL     1       1.020   7.378   7.832  1.00  0.00     0.039 A 
ATOM     37  C   UNL     1       0.679   6.022   7.916  1.00  0.00     0.014 A 
ATOM     38  C   UNL     1       0.362   8.311   8.642  1.00  0.00     0.014 A 
ATOM     39  C   UNL     1      -0.368   5.622   8.754  1.00  0.00     0.010 A 
ATOM     40  C   UNL     1      -0.665   7.914   9.479  1.00  0.00     0.010 A 
ATOM     41  C   UNL     1      -1.072   6.579   9.496  1.00  0.00    -0.014 A 
BRANCH  41  42
ATOM     42  C   UNL     1      -2.200   6.184  10.349  1.00  0.00     0.031 A 
ATOM     43  C   UNL     1      -1.862   5.330  11.523  1.00  0.00     0.074 A 
ATOM     44  C   UNL     1      -3.421   6.757  10.219  1.00  0.00     0.049 A 
ATOM     45  N   UNL     1      -2.350   4.172  11.839  1.00  0.00    -0.248 NA
ATOM     46  C   UNL     1      -0.792   5.791  12.424  1.00  0.00     0.031 C 
ATOM     47  C   UNL     1      -3.773   7.844   9.295  1.00  0.00     0.029 A 
ATOM     48  N   UNL     1      -4.550   6.632  10.984  1.00  0.00    -0.354 N 
ATOM     49  C   UNL     1      -1.820   3.876  13.096  1.00  0.00     0.074 A 
ATOM     50  C   UNL     1      -0.752   4.812  13.330  1.00  0.00     0.031 C 
ATOM     51  C   UNL     1      -4.888   8.462   9.736  1.00  0.00     0.029 A 
ATOM     52  C   UNL     1      -5.416   7.722  10.866  1.00  0.00     0.049 A 
ATOM     53  H   UNL     1      -4.733   5.853  11.558  1.00  0.00     0.167 HD
ATOM     54  C   UNL     1      -2.469   3.070  13.981  1.00  0.00     0.034 A 
ATOM     55  C   UNL     1      -6.451   8.037  11.682  1.00  0.00     0.034 A 
ATOM     56  C   UNL     1      -3.565   2.370  13.380  1.00  0.00     0.049 A 
ATOM     57  C   UNL     1      -6.882   6.790  12.347  1.00  0.00     0.074 A 
ATOM     58  C   UNL     1      -3.748   1.275  12.569  1.00  0.00     0.029 A 
ATOM     59  N   UNL     1      -4.728   3.090  13.377  1.00  0.00    -0.354 N 
ATOM     60  N   UNL     1      -7.379   5.767  11.709  1.00  0.00    -0.248 NA
ATOM     61  C   UNL     1      -6.528   6.549  13.742  1.00  0.00     0.031 C 
ATOM     62  C   UNL     1      -5.010   1.463  11.930  1.00  0.00     0.029 A 
ATOM     63  C   UNL     1      -5.567   2.655  12.389  1.00  0.00     0.049 A 
ATOM     64  H   UNL     1      -4.933   3.822  14.002  1.00  0.00     0.167 HD
ATOM     65  C   UNL     1      -6.980   4.684  12.465  1.00  0.00     0.074 A 
ATOM     66  C   UNL     1      -6.655   5.221  13.777  1.00  0.00     0.031 C 
ATOM     67  C   UNL     1      -6.603   3.519  11.869  1.00  0.00     0.034 A 
BRANCH  54  68
ATOM     68  C   UNL     1      -2.420   3.247  15.480  1.00  0.00     0.023 A 
ATOM     69  C   UNL     1      -2.818   2.173  16.304  1.00  0.00     0.012 A 
ATOM     70  C   UNL     1      -2.272   4.511  16.096  1.00  0.00     0.148 A 
ATOM     71  C   UNL     1      -3.036   2.347  17.678  1.00  0.00     0.002 A 
ATOM     72  C   UNL     1      -2.412   4.662  17.471  1.00  0.00     0.091 A 
ATOM     73  F   UNL     1      -2.133   5.600  15.331  1.00  0.00    -0.205 F 
ATOM     74  C   UNL     1      -2.812   3.587  18.266  1.00  0.00     0.022 A 
BRANCH  72  75
ATOM     75  S   UNL     1      -2.088   6.237  18.273  1.00  0.00     0.127 S 
ATOM     76  O   UNL     1      -3.447   6.694  18.574  1.00  0.00    -0.237 OA
ATOM     77  O   UNL     1      -1.307   5.819  19.442  1.00  0.00    -0.237 OA
ATOM     78  O   UNL     1      -1.344   7.013  17.304  1.00  0.00    -0.744 OA
ENDBRANCH  72  75
ENDBRANCH  54  68
BRANCH  55  79
ATOM     79  C   UNL     1      -6.987   9.360  12.098  1.00  0.00     0.023 A 
ATOM     80  C   UNL     1      -8.239   9.414  12.749  1.00  0.00     0.012 A 
ATOM     81  C   UNL     1      -6.171  10.511  12.144  1.00  0.00     0.148 A 
ATOM     82  C   UNL     1      -8.626  10.538  13.488  1.00  0.00     0.002 A 
ATOM     83  C   UNL     1      -6.568  11.634  12.867  1.00  0.00     0.091 A 
ATOM     84  F   UNL     1      -4.963  10.477  11.565  1.00  0.00    -0.205 F 
ATOM     85  C   UNL     1      -7.784  11.642  13.560  1.00  0.00     0.022 A 
BRANCH  83  86
ATOM     86  S   UNL     1      -5.530  13.097  12.995  1.00  0.00     0.127 S 
ATOM     87  O   UNL     1      -6.506  14.181  12.866  1.00  0.00    -0.237 OA
ATOM     88  O   UNL     1      -4.956  12.947  14.328  1.00  0.00    -0.237 OA
ATOM     89  O   UNL     1      -4.593  13.008  11.882  1.00  0.00    -0.744 OA
ENDBRANCH  83  86
ENDBRANCH  55  79
BRANCH  67  90
ATOM     90  C   UNL     1      -7.131   3.233  10.498  1.00  0.00     0.023 A 
ATOM     91  C   UNL     1      -6.699   3.930   9.353  1.00  0.00     0.012 A 
ATOM     92  C   UNL     1      -8.014   2.151  10.354  1.00  0.00     0.148 A 
ATOM     93  C   UNL     1      -7.150   3.555   8.084  1.00  0.00     0.002 A 
ATOM     94  C   UNL     1      -8.431   1.760   9.090  1.00  0.00     0.091 A 
ATOM     95  F   UNL     1      -8.410   1.508  11.462  1.00  0.00    -0.205 F 
ATOM     96  C   UNL     1      -8.006   2.463   7.952  1.00  0.00     0.022 A 
BRANCH  94  97
ATOM     97  S   UNL     1      -9.454   0.308   8.844  1.00  0.00     0.127 S 
ATOM     98  O   UNL     1     -10.723   0.896   8.419  1.00  0.00    -0.237 OA
ATOM     99  O   UNL     1      -8.727  -0.408   7.794  1.00  0.00    -0.237 OA
ATOM    100  O   UNL     1      -9.488  -0.386  10.126  1.00  0.00    -0.744 OA
ENDBRANCH  94  97
ENDBRANCH  67  90
ENDBRANCH  41  42
ENDBRANCH  33  36
ENDBRANCH  31  32
ENDBRANCH   1  31
TORSDOF 16
