REMARK SMILES CCC(CC)Oc1cc(C(=O)NCCCNC(=O)c2ccc(-c3c4nc(c(-c5cccc(S(=O)(=O)[O-])c5F)c5ccc([nH]5)c(-c5cccc(S(=O)(=O)[O-])c5F)c5nc(c(-c6cccc(S(=O)(=O)[O-])c6F)c6ccc3[nH]6)C=C5)C=C4)cc2)c(N)cc1OC
REMARK SMILES IDX 14 1 13 2 12 3 10 4 11 5 9 7 7 8 8 9 85 10 84 11 82 12 6 13
REMARK SMILES IDX 3 14 2 15 1 16 4 17 5 18 86 19 87 20 83 21 15 24 16 25 17 26
REMARK SMILES IDX 18 28 19 29 20 30 81 31 21 32 80 33 22 34 23 35 24 36 74 37
REMARK SMILES IDX 25 38 79 39 73 40 75 41 26 42 78 43 72 44 71 45 27 47 59 48
REMARK SMILES IDX 39 49 58 50 40 51 43 52 57 53 76 54 41 55 42 56 56 58 77 59
REMARK SMILES IDX 44 60 28 61 29 62 37 63 30 64 32 65 38 66 31 67 33 68 34 69
REMARK SMILES IDX 35 70 36 71 60 72 61 73 69 74 62 75 64 76 70 77 63 78 65 79
REMARK SMILES IDX 66 80 67 81 68 82 45 83 46 84 54 85 47 86 49 87 55 88 48 89
REMARK SMILES IDX 50 90 51 91 52 92 53 93
REMARK H PARENT 12 6 83 22 83 23 16 27 75 46 43 57
REMARK Flexibility Score: inf
ROOT
ATOM      1  C   UNL     1      -7.128   0.568  -2.859  1.00  0.00     0.042 C 
ENDROOT
BRANCH   1   2
ATOM      2  C   UNL     1      -6.072   1.589  -3.256  1.00  0.00     0.118 C 
BRANCH   2   3
ATOM      3  N   UNL     1      -5.319   2.160  -2.149  1.00  0.00    -0.352 N 
ATOM      4  C   UNL     1      -4.009   2.577  -2.076  1.00  0.00     0.253 C 
ATOM      5  O   UNL     1      -3.622   3.079  -1.021  1.00  0.00    -0.269 OA
ATOM      6  H   UNL     1      -5.831   2.267  -1.315  1.00  0.00     0.163 HD
BRANCH   4   7
ATOM      7  C   UNL     1      -3.031   2.358  -3.178  1.00  0.00     0.066 A 
ATOM      8  C   UNL     1      -0.756   1.582  -3.686  1.00  0.00     0.162 A 
ATOM      9  C   UNL     1      -1.750   1.933  -2.768  1.00  0.00     0.066 A 
ATOM     10  C   UNL     1      -1.050   1.677  -5.052  1.00  0.00     0.162 A 
ATOM     11  C   UNL     1      -2.306   2.163  -5.453  1.00  0.00     0.076 A 
ATOM     12  C   UNL     1      -3.279   2.579  -4.537  1.00  0.00     0.048 A 
BRANCH   8  13
ATOM     13  O   UNL     1       0.511   1.290  -3.280  1.00  0.00    -0.487 OA
BRANCH  13  14
ATOM     14  C   UNL     1       0.794   0.241  -2.335  1.00  0.00     0.173 C 
BRANCH  14  15
ATOM     15  C   UNL     1       0.523   0.621  -0.869  1.00  0.00     0.042 C 
ATOM     16  C   UNL     1       1.288  -0.237   0.130  1.00  0.00     0.008 C 
ENDBRANCH  14  15
BRANCH  14  17
ATOM     17  C   UNL     1       0.337  -1.163  -2.775  1.00  0.00     0.042 C 
ATOM     18  C   UNL     1      -1.145  -1.472  -2.640  1.00  0.00     0.008 C 
ENDBRANCH  14  17
ENDBRANCH  13  14
ENDBRANCH   8  13
BRANCH  10  19
ATOM     19  O   UNL     1      -0.260   1.360  -6.125  1.00  0.00    -0.493 OA
ATOM     20  C   UNL     1       1.131   1.186  -5.923  1.00  0.00     0.278 C 
ENDBRANCH  10  19
BRANCH  12  21
ATOM     21  N   UNL     1      -4.396   3.240  -5.026  1.00  0.00    -0.398 N 
ATOM     22  H   UNL     1      -5.098   3.544  -4.406  1.00  0.00     0.156 HD
ATOM     23  H   UNL     1      -4.487   3.404  -5.992  1.00  0.00     0.156 HD
ENDBRANCH  12  21
ENDBRANCH   4   7
ENDBRANCH   2   3
ENDBRANCH   1   2
BRANCH   1  24
ATOM     24  C   UNL     1      -8.129   1.025  -1.806  1.00  0.00     0.118 C 
BRANCH  24  25
ATOM     25  N   UNL     1      -8.913   2.194  -2.186  1.00  0.00    -0.352 N 
ATOM     26  C   UNL     1     -10.220   2.335  -2.592  1.00  0.00     0.251 C 
ATOM     27  H   UNL     1      -8.413   3.042  -2.144  1.00  0.00     0.163 HD
ATOM     28  O   UNL     1     -10.612   3.446  -2.950  1.00  0.00    -0.269 OA
BRANCH  26  29
ATOM     29  C   UNL     1     -11.147   1.181  -2.649  1.00  0.00     0.039 A 
ATOM     30  C   UNL     1     -12.053   1.093  -3.713  1.00  0.00     0.014 A 
ATOM     31  C   UNL     1     -11.151   0.192  -1.669  1.00  0.00     0.014 A 
ATOM     32  C   UNL     1     -12.880  -0.029  -3.841  1.00  0.00     0.010 A 
ATOM     33  C   UNL     1     -11.883  -0.977  -1.860  1.00  0.00     0.010 A 
ATOM     34  C   UNL     1     -12.761  -1.103  -2.945  1.00  0.00    -0.014 A 
BRANCH  34  35
ATOM     35  C   UNL     1     -13.531  -2.367  -3.117  1.00  0.00     0.031 A 
ATOM     36  C   UNL     1     -14.426  -2.869  -2.012  1.00  0.00     0.074 A 
ATOM     37  C   UNL     1     -13.335  -3.126  -4.215  1.00  0.00     0.049 A 
ATOM     38  N   UNL     1     -15.075  -4.002  -1.925  1.00  0.00    -0.248 NA
ATOM     39  C   UNL     1     -14.578  -2.004  -0.830  1.00  0.00     0.031 C 
ATOM     40  C   UNL     1     -12.426  -2.805  -5.318  1.00  0.00     0.029 A 
ATOM     41  N   UNL     1     -13.865  -4.343  -4.570  1.00  0.00    -0.354 N 
ATOM     42  C   UNL     1     -15.660  -4.010  -0.663  1.00  0.00     0.074 A 
ATOM     43  C   UNL     1     -15.259  -2.786  -0.005  1.00  0.00     0.031 C 
ATOM     44  C   UNL     1     -12.470  -3.791  -6.229  1.00  0.00     0.029 A 
ATOM     45  C   UNL     1     -13.381  -4.831  -5.762  1.00  0.00     0.049 A 
ATOM     46  H   UNL     1     -14.528  -4.822  -4.022  1.00  0.00     0.167 HD
ATOM     47  C   UNL     1     -16.487  -4.930  -0.112  1.00  0.00     0.034 A 
ATOM     48  C   UNL     1     -13.635  -5.987  -6.406  1.00  0.00     0.034 A 
ATOM     49  C   UNL     1     -16.949  -6.107  -0.796  1.00  0.00     0.049 A 
ATOM     50  C   UNL     1     -14.617  -6.958  -5.808  1.00  0.00     0.074 A 
ATOM     51  C   UNL     1     -17.874  -7.043  -0.370  1.00  0.00     0.029 A 
ATOM     52  N   UNL     1     -16.524  -6.508  -2.053  1.00  0.00    -0.354 N 
ATOM     53  N   UNL     1     -15.285  -6.867  -4.684  1.00  0.00    -0.248 NA
ATOM     54  C   UNL     1     -14.908  -8.173  -6.583  1.00  0.00     0.031 C 
ATOM     55  C   UNL     1     -18.000  -8.018  -1.365  1.00  0.00     0.029 A 
ATOM     56  C   UNL     1     -17.166  -7.679  -2.418  1.00  0.00     0.049 A 
ATOM     57  H   UNL     1     -15.864  -6.031  -2.605  1.00  0.00     0.167 HD
ATOM     58  C   UNL     1     -16.100  -7.993  -4.633  1.00  0.00     0.074 A 
ATOM     59  C   UNL     1     -15.857  -8.740  -5.850  1.00  0.00     0.031 C 
ATOM     60  C   UNL     1     -16.958  -8.382  -3.658  1.00  0.00     0.034 A 
BRANCH  47  61
ATOM     61  C   UNL     1     -17.004  -4.662   1.278  1.00  0.00     0.023 A 
ATOM     62  C   UNL     1     -17.943  -3.630   1.482  1.00  0.00     0.012 A 
ATOM     63  C   UNL     1     -16.601  -5.454   2.372  1.00  0.00     0.148 A 
ATOM     64  C   UNL     1     -18.440  -3.361   2.757  1.00  0.00     0.002 A 
ATOM     65  C   UNL     1     -17.136  -5.210   3.632  1.00  0.00     0.091 A 
ATOM     66  F   UNL     1     -15.692  -6.418   2.165  1.00  0.00    -0.205 F 
ATOM     67  C   UNL     1     -18.045  -4.156   3.828  1.00  0.00     0.022 A 
BRANCH  65  68
ATOM     68  S   UNL     1     -16.752  -6.229   5.061  1.00  0.00     0.127 S 
ATOM     69  O   UNL     1     -15.875  -5.344   5.826  1.00  0.00    -0.237 OA
ATOM     70  O   UNL     1     -18.072  -6.440   5.654  1.00  0.00    -0.237 OA
ATOM     71  O   UNL     1     -16.125  -7.433   4.535  1.00  0.00    -0.744 OA
ENDBRANCH  65  68
ENDBRANCH  47  61
BRANCH  48  72
ATOM     72  C   UNL     1     -13.011  -6.251  -7.735  1.00  0.00     0.023 A 
ATOM     73  C   UNL     1     -13.815  -6.207  -8.890  1.00  0.00     0.012 A 
ATOM     74  C   UNL     1     -11.632  -6.504  -7.868  1.00  0.00     0.148 A 
ATOM     75  C   UNL     1     -13.265  -6.440 -10.151  1.00  0.00     0.002 A 
ATOM     76  C   UNL     1     -11.080  -6.682  -9.132  1.00  0.00     0.091 A 
ATOM     77  F   UNL     1     -10.885  -6.552  -6.756  1.00  0.00    -0.205 F 
ATOM     78  C   UNL     1     -11.897  -6.667 -10.273  1.00  0.00     0.022 A 
BRANCH  76  79
ATOM     79  S   UNL     1      -9.311  -6.847  -9.396  1.00  0.00     0.127 S 
ATOM     80  O   UNL     1      -9.193  -8.256  -9.764  1.00  0.00    -0.237 OA
ATOM     81  O   UNL     1      -9.078  -5.902 -10.489  1.00  0.00    -0.237 OA
ATOM     82  O   UNL     1      -8.689  -6.467  -8.134  1.00  0.00    -0.744 OA
ENDBRANCH  76  79
ENDBRANCH  48  72
BRANCH  60  83
ATOM     83  C   UNL     1     -17.729  -9.657  -3.873  1.00  0.00     0.023 A 
ATOM     84  C   UNL     1     -17.072 -10.898  -3.760  1.00  0.00     0.012 A 
ATOM     85  C   UNL     1     -19.119  -9.628  -4.104  1.00  0.00     0.148 A 
ATOM     86  C   UNL     1     -17.780 -12.090  -3.902  1.00  0.00     0.002 A 
ATOM     87  C   UNL     1     -19.826 -10.820  -4.197  1.00  0.00     0.091 A 
ATOM     88  F   UNL     1     -19.722  -8.437  -4.228  1.00  0.00    -0.205 F 
ATOM     89  C   UNL     1     -19.158 -12.052  -4.108  1.00  0.00     0.022 A 
BRANCH  87  90
ATOM     90  S   UNL     1     -21.615 -10.865  -4.366  1.00  0.00     0.127 S 
ATOM     91  O   UNL     1     -21.772 -11.245  -5.769  1.00  0.00    -0.237 OA
ATOM     92  O   UNL     1     -21.993 -11.903  -3.406  1.00  0.00    -0.237 OA
ATOM     93  O   UNL     1     -22.082  -9.528  -4.023  1.00  0.00    -0.744 OA
ENDBRANCH  87  90
ENDBRANCH  60  83
ENDBRANCH  34  35
ENDBRANCH  26  29
ENDBRANCH  24  25
ENDBRANCH   1  24
TORSDOF 19
