REMARK SMILES C[C@@]1(Oc2c[nH]c3ccc(Br)c(Cl)c23)O[C@@H](C(=O)NCCCNC(=O)c2ccc(-c3c4nc(c(-c5cccc(S(=O)(=O)[O-])c5F)c5ccc([nH]5)c(-c5cccc(S(=O)(=O)[O-])c5F)c5nc(c(-c6cccc(S(=O)(=O)[O-])c6F)c6ccc3[nH]6)C=C5)C=C4)cc2)[C@@](C)(O)[C@@](C)(O)[C@@]1(C)O
REMARK SMILES IDX 21 1 20 2 19 3 17 4 18 5 16 7 1 8 2 9 15 10 95 11 92 12
REMARK SMILES IDX 96 13 89 14 93 15 90 16 3 17 4 18 5 19 14 20 6 21 7 22 12 23
REMARK SMILES IDX 8 25 10 26 13 27 9 28 11 29 97 30 94 32 91 34 22 36 23 37
REMARK SMILES IDX 24 38 25 40 26 41 27 42 88 43 28 44 87 45 29 46 30 47 31 48
REMARK SMILES IDX 81 49 32 50 86 51 80 52 82 53 33 54 85 55 79 56 78 57 34 59
REMARK SMILES IDX 66 60 46 61 65 62 47 63 50 64 64 65 83 66 48 67 49 68 63 70
REMARK SMILES IDX 84 71 51 72 35 73 36 74 44 75 37 76 39 77 45 78 38 79 40 80
REMARK SMILES IDX 41 81 42 82 43 83 67 84 68 85 76 86 69 87 71 88 77 89 70 90
REMARK SMILES IDX 72 91 73 92 74 93 75 94 52 95 53 96 61 97 54 98 56 99 62 100
REMARK SMILES IDX 55 101 57 102 58 103 59 104 60 105
REMARK H PARENT 19 6 6 24 97 31 94 33 91 35 23 39 82 58 50 69
REMARK Flexibility Score: inf
ROOT
ATOM      1  C   UNL     1       4.364  -0.152  -0.153  1.00  0.00     0.042 C 
ENDROOT
BRANCH   1   2
ATOM      2  C   UNL     1       2.937   0.099   0.363  1.00  0.00     0.117 C 
BRANCH   2   3
ATOM      3  N   UNL     1       2.516   1.513   0.652  1.00  0.00    -0.354 N 
ATOM      4  C   UNL     1       1.407   2.292   0.360  1.00  0.00     0.252 C 
ATOM      5  O   UNL     1       0.980   2.956   1.319  1.00  0.00    -0.272 OA
ATOM      6  H   UNL     1       3.191   2.004   1.175  1.00  0.00     0.163 HD
BRANCH   4   7
ATOM      7  C   UNL     1       0.691   2.518  -1.087  1.00  0.00     0.246 C 
ATOM      8  C   UNL     1       0.118  -0.310  -0.581  1.00  0.00     0.094 C 
ATOM      9  C   UNL     1       0.280   0.356  -1.977  1.00  0.00     0.240 C 
ATOM     10  O   UNL     1      -0.274   1.652  -1.743  1.00  0.00    -0.322 OA
ATOM     11  C   UNL     1       1.620   0.610  -2.916  1.00  0.00     0.158 C 
ATOM     12  C   UNL     1       2.553   1.909  -2.655  1.00  0.00     0.128 C 
ATOM     13  C   UNL     1       1.140   0.832  -4.385  1.00  0.00     0.053 C 
ATOM     14  C   UNL     1       1.709   3.094  -2.126  1.00  0.00     0.129 C 
ATOM     15  C   UNL     1       3.526   2.248  -3.830  1.00  0.00     0.049 C 
ATOM     16  C   UNL     1       0.997   3.911  -3.218  1.00  0.00     0.049 C 
BRANCH   9  17
ATOM     17  O   UNL     1      -0.487  -0.761  -2.572  1.00  0.00    -0.457 OA
BRANCH  17  18
ATOM     18  C   UNL     1      -1.296  -0.607  -3.619  1.00  0.00     0.150 A 
ATOM     19  C   UNL     1      -2.481   0.075  -3.637  1.00  0.00     0.130 A 
ATOM     20  C   UNL     1      -1.074  -1.205  -4.893  1.00  0.00     0.061 A 
ATOM     21  N   UNL     1      -2.905   0.069  -4.942  1.00  0.00    -0.358 N 
ATOM     22  C   UNL     1      -1.966  -0.553  -5.744  1.00  0.00     0.051 A 
ATOM     23  C   UNL     1      -0.089  -2.050  -5.456  1.00  0.00     0.068 A 
ATOM     24  H   UNL     1      -3.753   0.453  -5.261  1.00  0.00     0.166 HD
ATOM     25  C   UNL     1      -1.812  -0.572  -7.134  1.00  0.00     0.028 A 
ATOM     26  C   UNL     1       0.143  -2.003  -6.832  1.00  0.00     0.037 A 
ATOM     27  Cl  UNL     1       0.852  -2.959  -4.346  1.00  0.00    -0.082 Cl
ATOM     28  C   UNL     1      -0.697  -1.248  -7.652  1.00  0.00     0.019 A 
ATOM     29  Br  UNL     1       1.660  -2.825  -7.625  1.00  0.00    -0.049 Br
ENDBRANCH  17  18
ENDBRANCH   9  17
BRANCH  11  30
ATOM     30  O   UNL     1       2.429  -0.578  -2.922  1.00  0.00    -0.380 OA
ATOM     31  H   UNL     1       2.751  -0.754  -2.024  1.00  0.00     0.211 HD
ENDBRANCH  11  30
BRANCH  12  32
ATOM     32  O   UNL     1       3.565   1.685  -1.684  1.00  0.00    -0.384 OA
ATOM     33  H   UNL     1       3.154   1.449  -0.837  1.00  0.00     0.211 HD
ENDBRANCH  12  32
BRANCH  14  34
ATOM     34  O   UNL     1       2.575   4.046  -1.468  1.00  0.00    -0.384 OA
ATOM     35  H   UNL     1       3.064   3.601  -0.758  1.00  0.00     0.211 HD
ENDBRANCH  14  34
ENDBRANCH   4   7
ENDBRANCH   2   3
ENDBRANCH   1   2
BRANCH   1  36
ATOM     36  C   UNL     1       5.037  -1.413   0.336  1.00  0.00     0.118 C 
BRANCH  36  37
ATOM     37  N   UNL     1       4.244  -2.635   0.210  1.00  0.00    -0.352 N 
ATOM     38  C   UNL     1       4.446  -3.812   0.920  1.00  0.00     0.251 C 
ATOM     39  H   UNL     1       3.501  -2.622  -0.435  1.00  0.00     0.163 HD
ATOM     40  O   UNL     1       3.959  -4.869   0.583  1.00  0.00    -0.269 OA
BRANCH  38  41
ATOM     41  C   UNL     1       5.335  -3.715   2.097  1.00  0.00     0.039 A 
ATOM     42  C   UNL     1       6.570  -4.362   2.070  1.00  0.00     0.014 A 
ATOM     43  C   UNL     1       5.039  -2.743   3.054  1.00  0.00     0.014 A 
ATOM     44  C   UNL     1       7.568  -3.921   2.932  1.00  0.00     0.010 A 
ATOM     45  C   UNL     1       6.070  -2.229   3.818  1.00  0.00     0.010 A 
ATOM     46  C   UNL     1       7.340  -2.807   3.762  1.00  0.00    -0.014 A 
BRANCH  46  47
ATOM     47  C   UNL     1       8.483  -2.185   4.440  1.00  0.00     0.031 A 
ATOM     48  C   UNL     1       9.677  -1.909   3.586  1.00  0.00     0.074 A 
ATOM     49  C   UNL     1       8.475  -1.720   5.707  1.00  0.00     0.049 A 
ATOM     50  N   UNL     1      10.801  -2.549   3.580  1.00  0.00    -0.248 NA
ATOM     51  C   UNL     1       9.585  -0.857   2.560  1.00  0.00     0.031 C 
ATOM     52  C   UNL     1       7.319  -1.560   6.595  1.00  0.00     0.029 A 
ATOM     53  N   UNL     1       9.498  -1.181   6.437  1.00  0.00    -0.354 N 
ATOM     54  C   UNL     1      11.642  -1.819   2.741  1.00  0.00     0.074 A 
ATOM     55  C   UNL     1      10.798  -0.915   2.003  1.00  0.00     0.031 C 
ATOM     56  C   UNL     1       7.651  -0.751   7.622  1.00  0.00     0.029 A 
ATOM     57  C   UNL     1       9.079  -0.511   7.579  1.00  0.00     0.049 A 
ATOM     58  H   UNL     1      10.445  -1.261   6.177  1.00  0.00     0.167 HD
ATOM     59  C   UNL     1      12.990  -1.806   2.933  1.00  0.00     0.034 A 
ATOM     60  C   UNL     1       9.843   0.187   8.447  1.00  0.00     0.034 A 
ATOM     61  C   UNL     1      13.405  -2.783   3.900  1.00  0.00     0.049 A 
ATOM     62  C   UNL     1      11.214  -0.363   8.373  1.00  0.00     0.074 A 
ATOM     63  C   UNL     1      13.645  -4.136   3.957  1.00  0.00     0.029 A 
ATOM     64  N   UNL     1      13.334  -2.320   5.183  1.00  0.00    -0.354 N 
ATOM     65  N   UNL     1      11.528  -1.582   8.722  1.00  0.00    -0.248 NA
ATOM     66  C   UNL     1      12.258   0.383   7.679  1.00  0.00     0.031 C 
ATOM     67  C   UNL     1      13.581  -4.494   5.338  1.00  0.00     0.029 A 
ATOM     68  C   UNL     1      13.313  -3.349   6.083  1.00  0.00     0.049 A 
ATOM     69  H   UNL     1      13.302  -1.367   5.429  1.00  0.00     0.167 HD
ATOM     70  C   UNL     1      12.621  -1.881   7.936  1.00  0.00     0.074 A 
ATOM     71  C   UNL     1      13.135  -0.602   7.473  1.00  0.00     0.031 C 
ATOM     72  C   UNL     1      12.803  -3.127   7.419  1.00  0.00     0.034 A 
BRANCH  59  73
ATOM     73  C   UNL     1      13.908  -0.640   2.634  1.00  0.00     0.023 A 
ATOM     74  C   UNL     1      15.302  -0.877   2.657  1.00  0.00     0.012 A 
ATOM     75  C   UNL     1      13.490   0.709   2.632  1.00  0.00     0.148 A 
ATOM     76  C   UNL     1      16.228   0.174   2.680  1.00  0.00     0.002 A 
ATOM     77  C   UNL     1      14.414   1.747   2.568  1.00  0.00     0.091 A 
ATOM     78  F   UNL     1      12.203   1.005   2.846  1.00  0.00    -0.205 F 
ATOM     79  C   UNL     1      15.785   1.488   2.616  1.00  0.00     0.022 A 
BRANCH  77  80
ATOM     80  S   UNL     1      13.880   3.456   2.422  1.00  0.00     0.127 S 
ATOM     81  O   UNL     1      14.051   3.936   3.789  1.00  0.00    -0.237 OA
ATOM     82  O   UNL     1      14.837   3.990   1.451  1.00  0.00    -0.237 OA
ATOM     83  O   UNL     1      12.512   3.381   1.925  1.00  0.00    -0.744 OA
ENDBRANCH  77  80
ENDBRANCH  59  73
BRANCH  60  84
ATOM     84  C   UNL     1       9.512   1.351   9.300  1.00  0.00     0.023 A 
ATOM     85  C   UNL     1      10.370   1.680  10.370  1.00  0.00     0.012 A 
ATOM     86  C   UNL     1       8.538   2.299   8.915  1.00  0.00     0.148 A 
ATOM     87  C   UNL     1      10.310   2.933  10.988  1.00  0.00     0.002 A 
ATOM     88  C   UNL     1       8.471   3.539   9.546  1.00  0.00     0.091 A 
ATOM     89  F   UNL     1       7.742   2.028   7.871  1.00  0.00    -0.205 F 
ATOM     90  C   UNL     1       9.369   3.867  10.568  1.00  0.00     0.022 A 
BRANCH  88  91
ATOM     91  S   UNL     1       7.268   4.784   9.059  1.00  0.00     0.127 S 
ATOM     92  O   UNL     1       6.900   5.381  10.345  1.00  0.00    -0.237 OA
ATOM     93  O   UNL     1       8.058   5.649   8.189  1.00  0.00    -0.237 OA
ATOM     94  O   UNL     1       6.187   4.044   8.419  1.00  0.00    -0.744 OA
ENDBRANCH  88  91
ENDBRANCH  60  84
BRANCH  72  95
ATOM     95  C   UNL     1      12.251  -4.304   8.156  1.00  0.00     0.023 A 
ATOM     96  C   UNL     1      10.876  -4.591   8.222  1.00  0.00     0.012 A 
ATOM     97  C   UNL     1      13.176  -5.227   8.675  1.00  0.00     0.148 A 
ATOM     98  C   UNL     1      10.433  -5.787   8.796  1.00  0.00     0.002 A 
ATOM     99  C   UNL     1      12.736  -6.430   9.205  1.00  0.00     0.091 A 
ATOM    100  F   UNL     1      14.480  -4.919   8.606  1.00  0.00    -0.205 F 
ATOM    101  C   UNL     1      11.363  -6.713   9.273  1.00  0.00     0.022 A 
BRANCH  99 102
ATOM    102  S   UNL     1      13.884  -7.708   9.723  1.00  0.00     0.127 S 
ATOM    103  O   UNL     1      13.696  -7.720  11.172  1.00  0.00    -0.237 OA
ATOM    104  O   UNL     1      13.369  -8.888   9.028  1.00  0.00    -0.237 OA
ATOM    105  O   UNL     1      15.201  -7.276   9.271  1.00  0.00    -0.744 OA
ENDBRANCH  99 102
ENDBRANCH  72  95
ENDBRANCH  46  47
ENDBRANCH  38  41
ENDBRANCH  36  37
ENDBRANCH   1  36
TORSDOF 18
