REMARK SMILES CCCOC(=O)c1c(NC(=O)[C@@H]2CC=CC[C@H]2C(=O)NCCCNC(=O)c2ccc(-c3c4nc(c(-c5cccc(S(=O)(=O)[O-])c5F)c5ccc([nH]5)c(-c5cccc(S(=O)(=O)[O-])c5F)c5nc(c(-c6cccc(S(=O)(=O)[O-])c6F)c6ccc3[nH]6)C=C5)C=C4)cc2)sc2c1CCCC2
REMARK SMILES IDX 18 1 19 2 20 3 17 5 12 6 13 7 14 8 16 9 15 10 10 11 9 12
REMARK SMILES IDX 11 14 8 15 7 16 92 17 90 18 91 19 93 20 96 21 94 22 95 23
REMARK SMILES IDX 5 24 6 25 4 26 3 27 2 28 1 29 21 30 22 31 23 32 24 33 25 34
REMARK SMILES IDX 26 36 27 37 28 38 89 39 29 40 88 41 30 42 31 43 32 44 82 45
REMARK SMILES IDX 33 46 87 47 81 48 83 49 34 50 86 51 80 52 79 53 35 55 67 56
REMARK SMILES IDX 47 57 66 58 48 59 51 60 65 61 84 62 49 63 50 64 64 66 85 67
REMARK SMILES IDX 52 68 36 69 37 70 45 71 38 72 40 73 46 74 39 75 41 76 42 77
REMARK SMILES IDX 43 78 44 79 68 80 69 81 77 82 70 83 72 84 78 85 71 86 73 87
REMARK SMILES IDX 74 88 75 89 76 90 53 91 54 92 62 93 55 94 57 95 63 96 56 97
REMARK SMILES IDX 58 98 59 99 60 100 61 101
REMARK H PARENT 20 4 9 13 24 35 83 54 51 65
REMARK Flexibility Score: inf
ROOT
ATOM      1  C   UNL     1       0.138   3.304   1.184  1.00  0.00     0.224 C 
ATOM      2  O   UNL     1       0.825   4.123   1.804  1.00  0.00    -0.275 OA
ATOM      3  N   UNL     1      -0.887   3.809   0.461  1.00  0.00    -0.356 N 
ATOM      4  H   UNL     1      -0.742   4.719   0.112  1.00  0.00     0.163 HD
ENDROOT
BRANCH   1   5
ATOM      5  C   UNL     1       0.513   1.830   1.213  1.00  0.00     0.095 C 
ATOM      6  C   UNL     1       0.368   1.161   2.564  1.00  0.00     0.095 C 
ATOM      7  C   UNL     1      -0.048  -0.334   2.547  1.00  0.00     0.041 C 
ATOM      8  C   UNL     1       0.525  -1.077   1.381  1.00  0.00    -0.030 C 
ATOM      9  C   UNL     1       0.041   0.936   0.089  1.00  0.00     0.041 C 
ATOM     10  C   UNL     1       0.601  -0.453   0.205  1.00  0.00    -0.030 C 
BRANCH   6  11
ATOM     11  C   UNL     1       1.653   1.212   3.349  1.00  0.00     0.229 C 
ATOM     12  N   UNL     1       2.861   0.770   2.942  1.00  0.00    -0.317 N 
ATOM     13  H   UNL     1       3.300   0.340   3.711  1.00  0.00     0.170 HD
ATOM     14  O   UNL     1       1.573   1.469   4.561  1.00  0.00    -0.274 OA
BRANCH  12  15
ATOM     15  C   UNL     1       3.720   0.690   1.864  1.00  0.00     0.110 A 
ATOM     16  C   UNL     1       3.989   1.011   0.521  1.00  0.00     0.098 A 
ATOM     17  C   UNL     1       5.458   1.184   0.420  1.00  0.00    -0.017 A 
ATOM     18  S   UNL     1       5.107  -0.085   2.575  1.00  0.00    -0.122 S 
ATOM     19  C   UNL     1       6.135   0.724   1.529  1.00  0.00     0.011 A 
ATOM     20  C   UNL     1       6.192   1.948  -0.653  1.00  0.00     0.038 C 
ATOM     21  C   UNL     1       7.585   0.896   1.835  1.00  0.00     0.047 C 
ATOM     22  C   UNL     1       7.722   1.835  -0.506  1.00  0.00     0.005 C 
ATOM     23  C   UNL     1       8.176   1.998   0.951  1.00  0.00     0.006 C 
BRANCH  16  24
ATOM     24  C   UNL     1       3.157   1.567  -0.574  1.00  0.00     0.341 C 
ATOM     25  O   UNL     1       3.059   2.778  -0.741  1.00  0.00    -0.246 OA
BRANCH  24  26
ATOM     26  O   UNL     1       2.668   0.650  -1.506  1.00  0.00    -0.462 OA
BRANCH  26  27
ATOM     27  C   UNL     1       2.087   1.256  -2.697  1.00  0.00     0.233 C 
BRANCH  27  28
ATOM     28  C   UNL     1       1.091   0.413  -3.539  1.00  0.00     0.038 C 
ATOM     29  C   UNL     1      -0.295   0.077  -2.990  1.00  0.00     0.007 C 
ENDBRANCH  27  28
ENDBRANCH  26  27
ENDBRANCH  24  26
ENDBRANCH  16  24
ENDBRANCH  12  15
ENDBRANCH   6  11
ENDBRANCH   1   5
BRANCH   3  30
ATOM     30  C   UNL     1      -2.165   3.222   0.119  1.00  0.00     0.117 C 
BRANCH  30  31
ATOM     31  C   UNL     1      -3.034   3.102   1.361  1.00  0.00     0.042 C 
BRANCH  31  32
ATOM     32  C   UNL     1      -3.405   4.482   1.888  1.00  0.00     0.118 C 
BRANCH  32  33
ATOM     33  N   UNL     1      -4.257   5.189   0.933  1.00  0.00    -0.352 N 
ATOM     34  C   UNL     1      -5.627   5.287   0.925  1.00  0.00     0.251 C 
ATOM     35  H   UNL     1      -3.789   5.654   0.202  1.00  0.00     0.163 HD
ATOM     36  O   UNL     1      -6.226   5.560  -0.109  1.00  0.00    -0.269 OA
BRANCH  34  37
ATOM     37  C   UNL     1      -6.351   5.064   2.188  1.00  0.00     0.039 A 
ATOM     38  C   UNL     1      -7.539   4.332   2.202  1.00  0.00     0.014 A 
ATOM     39  C   UNL     1      -5.821   5.583   3.371  1.00  0.00     0.014 A 
ATOM     40  C   UNL     1      -8.169   4.082   3.422  1.00  0.00     0.010 A 
ATOM     41  C   UNL     1      -6.372   5.221   4.585  1.00  0.00     0.010 A 
ATOM     42  C   UNL     1      -7.575   4.505   4.623  1.00  0.00    -0.014 A 
BRANCH  42  43
ATOM     43  C   UNL     1      -8.206   4.272   5.943  1.00  0.00     0.031 A 
ATOM     44  C   UNL     1      -8.545   5.456   6.813  1.00  0.00     0.074 A 
ATOM     45  C   UNL     1      -8.361   3.015   6.399  1.00  0.00     0.049 A 
ATOM     46  N   UNL     1      -8.989   5.477   8.041  1.00  0.00    -0.248 NA
ATOM     47  C   UNL     1      -8.301   6.796   6.247  1.00  0.00     0.031 C 
ATOM     48  C   UNL     1      -7.970   1.797   5.684  1.00  0.00     0.029 A 
ATOM     49  N   UNL     1      -8.863   2.554   7.588  1.00  0.00    -0.354 N 
ATOM     50  C   UNL     1      -9.018   6.817   8.409  1.00  0.00     0.074 A 
ATOM     51  C   UNL     1      -8.498   7.577   7.297  1.00  0.00     0.031 C 
ATOM     52  C   UNL     1      -8.261   0.729   6.443  1.00  0.00     0.029 A 
ATOM     53  C   UNL     1      -8.832   1.185   7.706  1.00  0.00     0.049 A 
ATOM     54  H   UNL     1      -9.213   3.148   8.291  1.00  0.00     0.167 HD
ATOM     55  C   UNL     1      -9.479   7.372   9.554  1.00  0.00     0.034 A 
ATOM     56  C   UNL     1      -9.224   0.391   8.721  1.00  0.00     0.034 A 
ATOM     57  C   UNL     1     -10.075   6.611  10.615  1.00  0.00     0.049 A 
ATOM     58  C   UNL     1      -9.826   1.032   9.942  1.00  0.00     0.074 A 
ATOM     59  C   UNL     1     -10.685   7.069  11.767  1.00  0.00     0.029 A 
ATOM     60  N   UNL     1     -10.145   5.226  10.644  1.00  0.00    -0.354 N 
ATOM     61  N   UNL     1     -10.002   2.305  10.204  1.00  0.00    -0.248 NA
ATOM     62  C   UNL     1     -10.324   0.129  10.989  1.00  0.00     0.031 C 
ATOM     63  C   UNL     1     -11.116   5.958  12.500  1.00  0.00     0.029 A 
ATOM     64  C   UNL     1     -10.790   4.810  11.793  1.00  0.00     0.049 A 
ATOM     65  H   UNL     1      -9.789   4.628   9.948  1.00  0.00     0.167 HD
ATOM     66  C   UNL     1     -10.660   2.357  11.427  1.00  0.00     0.074 A 
ATOM     67  C   UNL     1     -10.872   0.985  11.842  1.00  0.00     0.031 C 
ATOM     68  C   UNL     1     -11.040   3.438  12.152  1.00  0.00     0.034 A 
BRANCH  55  69
ATOM     69  C   UNL     1      -9.425   8.873   9.677  1.00  0.00     0.023 A 
ATOM     70  C   UNL     1     -10.272   9.667   8.875  1.00  0.00     0.012 A 
ATOM     71  C   UNL     1      -8.571   9.498  10.606  1.00  0.00     0.148 A 
ATOM     72  C   UNL     1     -10.239  11.058   8.963  1.00  0.00     0.002 A 
ATOM     73  C   UNL     1      -8.579  10.883  10.723  1.00  0.00     0.091 A 
ATOM     74  F   UNL     1      -7.756   8.731  11.344  1.00  0.00    -0.205 F 
ATOM     75  C   UNL     1      -9.401  11.665   9.894  1.00  0.00     0.022 A 
BRANCH  73  76
ATOM     76  S   UNL     1      -7.599  11.759  11.948  1.00  0.00     0.127 S 
ATOM     77  O   UNL     1      -6.585  12.399  11.112  1.00  0.00    -0.237 OA
ATOM     78  O   UNL     1      -8.580  12.678  12.526  1.00  0.00    -0.237 OA
ATOM     79  O   UNL     1      -7.104  10.744  12.867  1.00  0.00    -0.744 OA
ENDBRANCH  73  76
ENDBRANCH  55  69
BRANCH  56  80
ATOM     80  C   UNL     1      -9.152  -1.091   8.579  1.00  0.00     0.023 A 
ATOM     81  C   UNL     1     -10.345  -1.824   8.427  1.00  0.00     0.012 A 
ATOM     82  C   UNL     1      -7.920  -1.773   8.550  1.00  0.00     0.148 A 
ATOM     83  C   UNL     1     -10.317  -3.211   8.282  1.00  0.00     0.002 A 
ATOM     84  C   UNL     1      -7.896  -3.149   8.351  1.00  0.00     0.091 A 
ATOM     85  F   UNL     1      -6.795  -1.060   8.703  1.00  0.00    -0.205 F 
ATOM     86  C   UNL     1      -9.093  -3.872   8.234  1.00  0.00     0.022 A 
BRANCH  84  87
ATOM     87  S   UNL     1      -6.365  -4.066   8.141  1.00  0.00     0.127 S 
ATOM     88  O   UNL     1      -6.273  -4.790   9.404  1.00  0.00    -0.237 OA
ATOM     89  O   UNL     1      -6.665  -4.896   6.974  1.00  0.00    -0.237 OA
ATOM     90  O   UNL     1      -5.336  -3.058   7.908  1.00  0.00    -0.744 OA
ENDBRANCH  84  87
ENDBRANCH  56  80
BRANCH  68  91
ATOM     91  C   UNL     1     -11.756   3.187  13.450  1.00  0.00     0.023 A 
ATOM     92  C   UNL     1     -11.034   2.719  14.566  1.00  0.00     0.012 A 
ATOM     93  C   UNL     1     -13.123   3.499  13.587  1.00  0.00     0.148 A 
ATOM     94  C   UNL     1     -11.671   2.535  15.792  1.00  0.00     0.002 A 
ATOM     95  C   UNL     1     -13.738   3.360  14.824  1.00  0.00     0.091 A 
ATOM     96  F   UNL     1     -13.794   3.925  12.507  1.00  0.00    -0.205 F 
ATOM     97  C   UNL     1     -13.017   2.868  15.924  1.00  0.00     0.022 A 
BRANCH  95  98
ATOM     98  S   UNL     1     -15.440   3.858  15.108  1.00  0.00     0.127 S 
ATOM     99  O   UNL     1     -16.120   2.567  15.181  1.00  0.00    -0.237 OA
ATOM    100  O   UNL     1     -15.347   4.572  16.383  1.00  0.00    -0.237 OA
ATOM    101  O   UNL     1     -15.806   4.697  13.975  1.00  0.00    -0.744 OA
ENDBRANCH  95  98
ENDBRANCH  68  91
ENDBRANCH  42  43
ENDBRANCH  34  37
ENDBRANCH  32  33
ENDBRANCH  31  32
ENDBRANCH  30  31
ENDBRANCH   3  30
TORSDOF 19
