REMARK SMILES CC(C)C(=O)Nc1ccc(NC(=O)[C@@H]2[C@@H](C(=O)NCCCNC(=O)c3ccc(-c4c5nc(c(-c6cccc(S(=O)(=O)[O-])c6F)c6ccc([nH]6)c(-c6cccc(S(=O)(=O)[O-])c6F)c6nc(c(-c7cccc(S(=O)(=O)[O-])c7F)c7ccc4[nH]7)C=C6)C=C5)cc3)C2(C)C)cc1Cl
REMARK SMILES IDX 19 1 18 2 16 3 17 4 15 6 14 7 88 8 89 9 90 10 12 11 11 12
REMARK SMILES IDX 13 14 10 15 7 16 8 17 92 18 9 19 91 20 93 21 6 22 4 23 5 24
REMARK SMILES IDX 2 26 1 27 3 28 20 29 21 30 22 31 23 32 24 34 25 35 26 36
REMARK SMILES IDX 87 37 27 38 86 39 28 40 29 41 30 42 80 43 31 44 85 45 79 46
REMARK SMILES IDX 81 47 32 48 84 49 78 50 77 51 33 53 65 54 45 55 64 56 46 57
REMARK SMILES IDX 49 58 63 59 82 60 47 61 48 62 62 64 83 65 50 66 34 67 35 68
REMARK SMILES IDX 43 69 36 70 38 71 44 72 37 73 39 74 40 75 41 76 42 77 66 78
REMARK SMILES IDX 67 79 75 80 68 81 70 82 76 83 69 84 71 85 72 86 73 87 74 88
REMARK SMILES IDX 51 89 52 90 60 91 53 92 55 93 61 94 54 95 56 96 57 97 58 98
REMARK SMILES IDX 59 99
REMARK H PARENT 18 5 11 13 6 25 22 33 81 52 49 63
REMARK Flexibility Score: inf
ROOT
ATOM      1  C   UNL     1       0.262   0.942   8.723  1.00  0.00     0.117 C 
ENDROOT
BRANCH   1   2
ATOM      2  N   UNL     1      -0.465   0.020   9.576  1.00  0.00    -0.356 N 
ATOM      3  C   UNL     1      -1.186  -1.123   9.395  1.00  0.00     0.224 C 
ATOM      4  O   UNL     1      -1.727  -1.590  10.399  1.00  0.00    -0.275 OA
ATOM      5  H   UNL     1      -0.428   0.287  10.523  1.00  0.00     0.163 HD
BRANCH   3   6
ATOM      6  C   UNL     1      -1.369  -1.865   8.124  1.00  0.00     0.098 C 
ATOM      7  C   UNL     1      -0.725  -1.661   6.784  1.00  0.00     0.098 C 
ATOM      8  C   UNL     1      -2.212  -1.312   6.981  1.00  0.00    -0.011 C 
ATOM      9  C   UNL     1      -2.605   0.149   6.972  1.00  0.00     0.013 C 
ATOM     10  C   UNL     1      -3.294  -2.217   6.438  1.00  0.00     0.013 C 
BRANCH   7  11
ATOM     11  C   UNL     1      -0.246  -2.829   6.003  1.00  0.00     0.228 C 
ATOM     12  N   UNL     1      -0.275  -2.827   4.627  1.00  0.00    -0.326 N 
ATOM     13  H   UNL     1       0.186  -3.590   4.209  1.00  0.00     0.169 HD
ATOM     14  O   UNL     1       0.222  -3.804   6.595  1.00  0.00    -0.274 OA
BRANCH  12  15
ATOM     15  C   UNL     1      -0.850  -1.925   3.716  1.00  0.00     0.042 A 
ATOM     16  C   UNL     1      -2.665  -0.555   2.090  1.00  0.00     0.060 A 
ATOM     17  C   UNL     1      -2.167   0.048   3.239  1.00  0.00     0.030 A 
ATOM     18  C   UNL     1      -1.975  -1.663   1.597  1.00  0.00     0.066 A 
ATOM     19  C   UNL     1      -1.227  -0.623   4.022  1.00  0.00     0.028 A 
ATOM     20  C   UNL     1      -1.117  -2.387   2.430  1.00  0.00     0.048 A 
ATOM     21  Cl  UNL     1      -1.909  -2.004  -0.098  1.00  0.00    -0.082 Cl
BRANCH  16  22
ATOM     22  N   UNL     1      -3.788   0.037   1.500  1.00  0.00    -0.325 N 
ATOM     23  C   UNL     1      -4.968  -0.492   1.061  1.00  0.00     0.226 C 
ATOM     24  O   UNL     1      -5.748   0.294   0.506  1.00  0.00    -0.274 OA
ATOM     25  H   UNL     1      -3.713   1.011   1.380  1.00  0.00     0.169 HD
BRANCH  23  26
ATOM     26  C   UNL     1      -5.453  -1.928   1.318  1.00  0.00     0.072 C 
ATOM     27  C   UNL     1      -4.838  -3.011   0.451  1.00  0.00     0.018 C 
ATOM     28  C   UNL     1      -5.495  -2.329   2.789  1.00  0.00     0.018 C 
ENDBRANCH  23  26
ENDBRANCH  16  22
ENDBRANCH  12  15
ENDBRANCH   7  11
ENDBRANCH   3   6
ENDBRANCH   1   2
BRANCH   1  29
ATOM     29  C   UNL     1      -0.379   2.326   8.686  1.00  0.00     0.042 C 
BRANCH  29  30
ATOM     30  C   UNL     1      -0.304   3.074  10.007  1.00  0.00     0.118 C 
BRANCH  30  31
ATOM     31  N   UNL     1       1.063   3.429  10.358  1.00  0.00    -0.352 N 
ATOM     32  C   UNL     1       1.662   4.663  10.428  1.00  0.00     0.251 C 
ATOM     33  H   UNL     1       1.648   2.668  10.580  1.00  0.00     0.163 HD
ATOM     34  O   UNL     1       2.886   4.733  10.511  1.00  0.00    -0.269 OA
BRANCH  32  35
ATOM     35  C   UNL     1       0.847   5.898  10.390  1.00  0.00     0.039 A 
ATOM     36  C   UNL     1       1.324   7.002   9.679  1.00  0.00     0.014 A 
ATOM     37  C   UNL     1      -0.370   5.982  11.070  1.00  0.00     0.014 A 
ATOM     38  C   UNL     1       0.554   8.165   9.605  1.00  0.00     0.010 A 
ATOM     39  C   UNL     1      -1.181   7.101  10.911  1.00  0.00     0.010 A 
ATOM     40  C   UNL     1      -0.721   8.213  10.192  1.00  0.00    -0.014 A 
BRANCH  40  41
ATOM     41  C   UNL     1      -1.585   9.417  10.071  1.00  0.00     0.031 A 
ATOM     42  C   UNL     1      -2.030  10.160  11.303  1.00  0.00     0.074 A 
ATOM     43  C   UNL     1      -2.035   9.795   8.858  1.00  0.00     0.049 A 
ATOM     44  N   UNL     1      -2.824  11.194  11.400  1.00  0.00    -0.248 NA
ATOM     45  C   UNL     1      -1.542   9.659  12.599  1.00  0.00     0.031 C 
ATOM     46  C   UNL     1      -1.742   9.113   7.596  1.00  0.00     0.029 A 
ATOM     47  N   UNL     1      -2.857  10.831   8.491  1.00  0.00    -0.354 N 
ATOM     48  C   UNL     1      -2.962  11.443  12.761  1.00  0.00     0.074 A 
ATOM     49  C   UNL     1      -2.202  10.427  13.454  1.00  0.00     0.031 C 
ATOM     50  C   UNL     1      -2.366   9.752   6.595  1.00  0.00     0.029 A 
ATOM     51  C   UNL     1      -3.134  10.865   7.144  1.00  0.00     0.049 A 
ATOM     52  H   UNL     1      -3.215  11.488   9.131  1.00  0.00     0.167 HD
ATOM     53  C   UNL     1      -3.633  12.443  13.380  1.00  0.00     0.034 A 
ATOM     54  C   UNL     1      -3.926  11.689   6.431  1.00  0.00     0.034 A 
ATOM     55  C   UNL     1      -4.359  13.473  12.686  1.00  0.00     0.049 A 
ATOM     56  C   UNL     1      -4.640  12.809   7.137  1.00  0.00     0.074 A 
ATOM     57  C   UNL     1      -5.000  14.578  13.216  1.00  0.00     0.029 A 
ATOM     58  N   UNL     1      -4.553  13.518  11.314  1.00  0.00    -0.354 N 
ATOM     59  N   UNL     1      -4.631  13.120   8.411  1.00  0.00    -0.248 NA
ATOM     60  C   UNL     1      -5.443  13.716   6.304  1.00  0.00     0.031 C 
ATOM     61  C   UNL     1      -5.613  15.272  12.168  1.00  0.00     0.029 A 
ATOM     62  C   UNL     1      -5.316  14.623  10.980  1.00  0.00     0.049 A 
ATOM     63  H   UNL     1      -4.200  12.860  10.672  1.00  0.00     0.167 HD
ATOM     64  C   UNL     1      -5.393  14.276   8.527  1.00  0.00     0.074 A 
ATOM     65  C   UNL     1      -5.833  14.621   7.191  1.00  0.00     0.031 C 
ATOM     66  C   UNL     1      -5.709  14.982   9.641  1.00  0.00     0.034 A 
BRANCH  53  67
ATOM     67  C   UNL     1      -3.580  12.495  14.886  1.00  0.00     0.023 A 
ATOM     68  C   UNL     1      -2.369  12.820  15.533  1.00  0.00     0.012 A 
ATOM     69  C   UNL     1      -4.735  12.270  15.660  1.00  0.00     0.148 A 
ATOM     70  C   UNL     1      -2.298  12.877  16.924  1.00  0.00     0.002 A 
ATOM     71  C   UNL     1      -4.669  12.379  17.044  1.00  0.00     0.091 A 
ATOM     72  F   UNL     1      -5.873  11.943  15.031  1.00  0.00    -0.205 F 
ATOM     73  C   UNL     1      -3.449  12.667  17.678  1.00  0.00     0.022 A 
BRANCH  71  74
ATOM     74  S   UNL     1      -6.112  12.210  18.100  1.00  0.00     0.127 S 
ATOM     75  O   UNL     1      -5.838  10.940  18.771  1.00  0.00    -0.237 OA
ATOM     76  O   UNL     1      -6.003  13.389  18.959  1.00  0.00    -0.237 OA
ATOM     77  O   UNL     1      -7.264  12.210  17.210  1.00  0.00    -0.744 OA
ENDBRANCH  71  74
ENDBRANCH  53  67
BRANCH  54  78
ATOM     78  C   UNL     1      -4.043  11.515   4.956  1.00  0.00     0.023 A 
ATOM     79  C   UNL     1      -3.476  12.473   4.094  1.00  0.00     0.012 A 
ATOM     80  C   UNL     1      -4.684  10.389   4.404  1.00  0.00     0.148 A 
ATOM     81  C   UNL     1      -3.574  12.332   2.710  1.00  0.00     0.002 A 
ATOM     82  C   UNL     1      -4.725  10.223   3.025  1.00  0.00     0.091 A 
ATOM     83  F   UNL     1      -5.224   9.492   5.241  1.00  0.00    -0.205 F 
ATOM     84  C   UNL     1      -4.188  11.202   2.175  1.00  0.00     0.022 A 
BRANCH  82  85
ATOM     85  S   UNL     1      -5.368   8.734   2.254  1.00  0.00     0.127 S 
ATOM     86  O   UNL     1      -6.571   9.236   1.594  1.00  0.00    -0.237 OA
ATOM     87  O   UNL     1      -4.275   8.368   1.352  1.00  0.00    -0.237 OA
ATOM     88  O   UNL     1      -5.590   7.790   3.341  1.00  0.00    -0.744 OA
ENDBRANCH  82  85
ENDBRANCH  54  78
BRANCH  66  89
ATOM     89  C   UNL     1      -6.534  16.231   9.468  1.00  0.00     0.023 A 
ATOM     90  C   UNL     1      -7.898  16.137   9.128  1.00  0.00     0.012 A 
ATOM     91  C   UNL     1      -5.969  17.498   9.715  1.00  0.00     0.148 A 
ATOM     92  C   UNL     1      -8.678  17.286   9.003  1.00  0.00     0.002 A 
ATOM     93  C   UNL     1      -6.765  18.634   9.642  1.00  0.00     0.091 A 
ATOM     94  F   UNL     1      -4.665  17.568  10.020  1.00  0.00    -0.205 F 
ATOM     95  C   UNL     1      -8.116  18.532   9.272  1.00  0.00     0.022 A 
BRANCH  93  96
ATOM     96  S   UNL     1      -6.154  20.269  10.067  1.00  0.00     0.127 S 
ATOM     97  O   UNL     1      -6.117  20.922   8.760  1.00  0.00    -0.237 OA
ATOM     98  O   UNL     1      -7.196  20.763  10.968  1.00  0.00    -0.237 OA
ATOM     99  O   UNL     1      -4.857  20.063  10.698  1.00  0.00    -0.744 OA
ENDBRANCH  93  96
ENDBRANCH  66  89
ENDBRANCH  40  41
ENDBRANCH  32  35
ENDBRANCH  30  31
ENDBRANCH  29  30
ENDBRANCH   1  29
TORSDOF 17
