REMARK SMILES NC(=O)c1ccccc1NC(=O)[C@@H]1CC=CC[C@@H]1C(=O)NCCCNC(=O)c1ccc(-c2c3nc(c(-c4cccc(S(=O)(=O)[O-])c4F)c4ccc([nH]4)c(-c4cccc(S(=O)(=O)[O-])c4F)c4nc(c(-c5cccc(S(=O)(=O)[O-])c5F)c5ccc2[nH]5)C=C4)C=C3)cc1
REMARK SMILES IDX 23 1 22 2 21 3 19 4 20 5 18 7 13 8 14 9 15 10 17 11 16 12
REMARK SMILES IDX 11 13 10 14 12 16 9 17 4 18 5 19 6 20 8 21 7 22 2 23 1 24
REMARK SMILES IDX 3 27 24 28 25 29 26 30 27 32 28 33 29 34 90 35 30 36 89 37
REMARK SMILES IDX 31 38 32 39 33 40 83 41 34 42 88 43 82 44 84 45 35 46 87 47
REMARK SMILES IDX 81 48 80 49 36 51 68 52 48 53 67 54 49 55 52 56 66 57 85 58
REMARK SMILES IDX 50 59 51 60 65 62 86 63 53 64 37 65 38 66 46 67 39 68 41 69
REMARK SMILES IDX 47 70 40 71 42 72 43 73 44 74 45 75 69 76 70 77 78 78 71 79
REMARK SMILES IDX 73 80 79 81 72 82 74 83 75 84 76 85 77 86 54 87 55 88 63 89
REMARK SMILES IDX 56 90 58 91 64 92 57 93 59 94 60 95 61 96 62 97
REMARK H PARENT 21 6 10 15 1 25 1 26 25 31 84 50 52 61
REMARK Flexibility Score: inf
ROOT
ATOM      1  C   UNL     1       8.490  -3.772   1.042  1.00  0.00     0.042 C 
ENDROOT
BRANCH   1   2
ATOM      2  C   UNL     1       7.956  -3.799  -0.377  1.00  0.00     0.117 C 
BRANCH   2   3
ATOM      3  N   UNL     1       7.267  -5.045  -0.617  1.00  0.00    -0.356 N 
ATOM      4  C   UNL     1       5.956  -5.371  -0.465  1.00  0.00     0.224 C 
ATOM      5  O   UNL     1       5.671  -6.557  -0.639  1.00  0.00    -0.275 OA
ATOM      6  H   UNL     1       7.840  -5.777  -0.942  1.00  0.00     0.163 HD
BRANCH   4   7
ATOM      7  C   UNL     1       4.904  -4.283  -0.194  1.00  0.00     0.095 C 
ATOM      8  C   UNL     1       4.468  -4.074   1.275  1.00  0.00     0.095 C 
ATOM      9  C   UNL     1       3.933  -5.416   1.841  1.00  0.00     0.041 C 
ATOM     10  C   UNL     1       2.939  -6.077   0.928  1.00  0.00    -0.030 C 
ATOM     11  C   UNL     1       3.628  -4.654  -1.006  1.00  0.00     0.041 C 
ATOM     12  C   UNL     1       2.774  -5.708  -0.351  1.00  0.00    -0.030 C 
BRANCH   8  13
ATOM     13  C   UNL     1       5.384  -3.428   2.320  1.00  0.00     0.228 C 
ATOM     14  N   UNL     1       5.764  -2.114   2.354  1.00  0.00    -0.325 N 
ATOM     15  H   UNL     1       5.899  -1.763   3.264  1.00  0.00     0.169 HD
ATOM     16  O   UNL     1       5.800  -4.098   3.275  1.00  0.00    -0.274 OA
BRANCH  14  17
ATOM     17  C   UNL     1       5.998  -1.167   1.342  1.00  0.00     0.053 A 
ATOM     18  C   UNL     1       7.142  -0.333   1.407  1.00  0.00     0.063 A 
ATOM     19  C   UNL     1       7.507   0.415   0.270  1.00  0.00     0.016 A 
ATOM     20  C   UNL     1       6.722   0.404  -0.880  1.00  0.00     0.001 A 
ATOM     21  C   UNL     1       5.160  -1.065   0.229  1.00  0.00     0.027 A 
ATOM     22  C   UNL     1       5.526  -0.301  -0.883  1.00  0.00     0.002 A 
BRANCH  18  23
ATOM     23  C   UNL     1       8.050  -0.143   2.585  1.00  0.00     0.250 C 
ATOM     24  N   UNL     1       8.245  -1.149   3.493  1.00  0.00    -0.366 N 
ATOM     25  H   UNL     1       8.844  -1.008   4.262  1.00  0.00     0.159 HD
ATOM     26  H   UNL     1       7.786  -2.012   3.378  1.00  0.00     0.159 HD
ATOM     27  O   UNL     1       8.645   0.917   2.732  1.00  0.00    -0.269 OA
ENDBRANCH  18  23
ENDBRANCH  14  17
ENDBRANCH   8  13
ENDBRANCH   4   7
ENDBRANCH   2   3
ENDBRANCH   1   2
BRANCH   1  28
ATOM     28  C   UNL     1       9.997  -3.882   1.155  1.00  0.00     0.118 C 
BRANCH  28  29
ATOM     29  N   UNL     1      10.686  -2.727   0.598  1.00  0.00    -0.352 N 
ATOM     30  C   UNL     1      11.579  -1.835   1.142  1.00  0.00     0.251 C 
ATOM     31  H   UNL     1      10.473  -2.552  -0.347  1.00  0.00     0.163 HD
ATOM     32  O   UNL     1      11.932  -0.884   0.446  1.00  0.00    -0.269 OA
BRANCH  30  33
ATOM     33  C   UNL     1      12.110  -1.975   2.524  1.00  0.00     0.039 A 
ATOM     34  C   UNL     1      12.493  -0.818   3.214  1.00  0.00     0.014 A 
ATOM     35  C   UNL     1      12.290  -3.213   3.140  1.00  0.00     0.014 A 
ATOM     36  C   UNL     1      13.006  -0.905   4.515  1.00  0.00     0.010 A 
ATOM     37  C   UNL     1      12.674  -3.288   4.478  1.00  0.00     0.010 A 
ATOM     38  C   UNL     1      13.070  -2.141   5.177  1.00  0.00    -0.014 A 
BRANCH  38  39
ATOM     39  C   UNL     1      13.566  -2.273   6.576  1.00  0.00     0.031 A 
ATOM     40  C   UNL     1      14.709  -3.213   6.892  1.00  0.00     0.074 A 
ATOM     41  C   UNL     1      12.923  -1.647   7.583  1.00  0.00     0.049 A 
ATOM     42  N   UNL     1      15.192  -3.565   8.056  1.00  0.00    -0.248 NA
ATOM     43  C   UNL     1      15.368  -3.879   5.754  1.00  0.00     0.031 C 
ATOM     44  C   UNL     1      11.747  -0.786   7.436  1.00  0.00     0.029 A 
ATOM     45  N   UNL     1      13.146  -1.668   8.939  1.00  0.00    -0.354 N 
ATOM     46  C   UNL     1      16.149  -4.540   7.795  1.00  0.00     0.074 A 
ATOM     47  C   UNL     1      16.166  -4.743   6.364  1.00  0.00     0.031 C 
ATOM     48  C   UNL     1      11.352  -0.364   8.649  1.00  0.00     0.029 A 
ATOM     49  C   UNL     1      12.225  -0.946   9.663  1.00  0.00     0.049 A 
ATOM     50  H   UNL     1      13.895  -2.155   9.354  1.00  0.00     0.167 HD
ATOM     51  C   UNL     1      16.965  -5.188   8.661  1.00  0.00     0.034 A 
ATOM     52  C   UNL     1      12.090  -0.775  10.994  1.00  0.00     0.034 A 
ATOM     53  C   UNL     1      17.028  -4.906  10.069  1.00  0.00     0.049 A 
ATOM     54  C   UNL     1      13.091  -1.413  11.920  1.00  0.00     0.074 A 
ATOM     55  C   UNL     1      17.919  -5.403  11.005  1.00  0.00     0.029 A 
ATOM     56  N   UNL     1      16.175  -4.048  10.743  1.00  0.00    -0.354 N 
ATOM     57  N   UNL     1      14.104  -2.191  11.629  1.00  0.00    -0.248 NA
ATOM     58  C   UNL     1      12.957  -1.113  13.353  1.00  0.00     0.031 C 
ATOM     59  C   UNL     1      17.596  -4.853  12.249  1.00  0.00     0.029 A 
ATOM     60  C   UNL     1      16.517  -4.000  12.082  1.00  0.00     0.049 A 
ATOM     61  H   UNL     1      15.435  -3.547  10.330  1.00  0.00     0.167 HD
ATOM     62  C   UNL     1      14.752  -2.438  12.834  1.00  0.00     0.074 A 
ATOM     63  C   UNL     1      14.030  -1.710  13.856  1.00  0.00     0.031 C 
ATOM     64  C   UNL     1      15.838  -3.212  13.076  1.00  0.00     0.034 A 
BRANCH  51  65
ATOM     65  C   UNL     1      17.916  -6.220   8.111  1.00  0.00     0.023 A 
ATOM     66  C   UNL     1      19.039  -5.808   7.366  1.00  0.00     0.012 A 
ATOM     67  C   UNL     1      17.752  -7.586   8.415  1.00  0.00     0.148 A 
ATOM     68  C   UNL     1      19.968  -6.740   6.907  1.00  0.00     0.002 A 
ATOM     69  C   UNL     1      18.706  -8.505   7.994  1.00  0.00     0.091 A 
ATOM     70  F   UNL     1      16.668  -7.961   9.110  1.00  0.00    -0.205 F 
ATOM     71  C   UNL     1      19.809  -8.085   7.231  1.00  0.00     0.022 A 
BRANCH  69  72
ATOM     72  S   UNL     1      18.640 -10.246   8.431  1.00  0.00     0.127 S 
ATOM     73  O   UNL     1      18.347 -10.864   7.139  1.00  0.00    -0.237 OA
ATOM     74  O   UNL     1      19.994 -10.489   8.930  1.00  0.00    -0.237 OA
ATOM     75  O   UNL     1      17.591 -10.370   9.434  1.00  0.00    -0.744 OA
ENDBRANCH  69  72
ENDBRANCH  51  65
BRANCH  52  76
ATOM     76  C   UNL     1      11.007   0.098  11.530  1.00  0.00     0.023 A 
ATOM     77  C   UNL     1      11.342   1.338  12.107  1.00  0.00     0.012 A 
ATOM     78  C   UNL     1       9.653  -0.284  11.463  1.00  0.00     0.148 A 
ATOM     79  C   UNL     1      10.354   2.164  12.646  1.00  0.00     0.002 A 
ATOM     80  C   UNL     1       8.669   0.569  11.951  1.00  0.00     0.091 A 
ATOM     81  F   UNL     1       9.351  -1.474  10.924  1.00  0.00    -0.205 F 
ATOM     82  C   UNL     1       9.018   1.784  12.559  1.00  0.00     0.022 A 
BRANCH  80  83
ATOM     83  S   UNL     1       6.919   0.212  11.751  1.00  0.00     0.127 S 
ATOM     84  O   UNL     1       6.564  -0.294  13.074  1.00  0.00    -0.237 OA
ATOM     85  O   UNL     1       6.369   1.529  11.427  1.00  0.00    -0.237 OA
ATOM     86  O   UNL     1       6.848  -0.747  10.656  1.00  0.00    -0.744 OA
ENDBRANCH  80  83
ENDBRANCH  52  76
BRANCH  64  87
ATOM     87  C   UNL     1      16.356  -3.276  14.488  1.00  0.00     0.023 A 
ATOM     88  C   UNL     1      15.644  -4.000  15.464  1.00  0.00     0.012 A 
ATOM     89  C   UNL     1      17.589  -2.685  14.826  1.00  0.00     0.148 A 
ATOM     90  C   UNL     1      16.136  -4.106  16.765  1.00  0.00     0.002 A 
ATOM     91  C   UNL     1      18.096  -2.836  16.111  1.00  0.00     0.091 A 
ATOM     92  F   UNL     1      18.242  -1.983  13.888  1.00  0.00    -0.205 F 
ATOM     93  C   UNL     1      17.366  -3.535  17.084  1.00  0.00     0.022 A 
BRANCH  91  94
ATOM     94  S   UNL     1      19.718  -2.218  16.575  1.00  0.00     0.127 S 
ATOM     95  O   UNL     1      19.374  -1.013  17.328  1.00  0.00    -0.237 OA
ATOM     96  O   UNL     1      20.251  -3.313  17.387  1.00  0.00    -0.237 OA
ATOM     97  O   UNL     1      20.431  -1.998  15.324  1.00  0.00    -0.744 OA
ENDBRANCH  91  94
ENDBRANCH  64  87
ENDBRANCH  38  39
ENDBRANCH  30  33
ENDBRANCH  28  29
ENDBRANCH   1  28
TORSDOF 16
