REMARK SMILES O=C(NCCCNC(=O)c1cc(-c2ccc(Cl)cc2)nc2c3c(C4CC4)cc(C(F)(F)F)nc3nn12)c1ccc(-c2c3nc(c(-c4cccc(S(=O)(=O)[O-])c4F)c4ccc([nH]4)c(-c4cccc(S(=O)(=O)[O-])c4F)c4nc(c(-c5cccc(S(=O)(=O)[O-])c5F)c5ccc2[nH]5)C=C4)C=C3)cc1
REMARK SMILES IDX 4 1 3 2 1 3 2 4 37 6 38 7 99 8 39 9 98 10 40 11 41 12 42 13
REMARK SMILES IDX 92 14 43 15 97 16 91 17 93 18 44 19 96 20 90 21 89 22 45 24
REMARK SMILES IDX 77 25 57 26 76 27 58 28 61 29 75 30 94 31 59 32 60 33 74 35
REMARK SMILES IDX 95 36 62 37 46 38 47 39 55 40 48 41 50 42 56 43 49 44 51 45
REMARK SMILES IDX 52 46 53 47 54 48 78 49 79 50 87 51 80 52 82 53 88 54 81 55
REMARK SMILES IDX 83 56 84 57 85 58 86 59 63 60 64 61 72 62 65 63 67 64 73 65
REMARK SMILES IDX 66 66 68 67 69 68 70 69 71 70 5 71 6 72 7 73 8 74 9 76 10 77
REMARK SMILES IDX 11 78 36 79 12 80 21 81 35 82 20 83 22 84 34 85 23 86 33 87
REMARK SMILES IDX 27 88 28 89 13 90 14 91 19 92 15 93 18 94 16 95 17 96 24 97
REMARK SMILES IDX 25 98 26 99 29 100 30 101 31 102 32 103
REMARK H PARENT 3 5 93 23 61 34 7 75
REMARK Flexibility Score: inf
ROOT
ATOM      1  C   UNL     1       4.612  -1.338   0.651  1.00  0.00     0.118 C 
ENDROOT
BRANCH   1   2
ATOM      2  N   UNL     1       3.297  -0.880   0.227  1.00  0.00    -0.352 N 
ATOM      3  O   UNL     1       1.808   0.628  -0.567  1.00  0.00    -0.269 OA
ATOM      4  C   UNL     1       2.956   0.354  -0.282  1.00  0.00     0.251 C 
ATOM      5  H   UNL     1       2.563  -1.530   0.314  1.00  0.00     0.163 HD
BRANCH   4   6
ATOM      6  C   UNL     1       4.043   1.336  -0.462  1.00  0.00     0.039 A 
ATOM      7  C   UNL     1       5.046   1.089  -1.406  1.00  0.00     0.014 A 
ATOM      8  C   UNL     1       4.100   2.441   0.385  1.00  0.00     0.014 A 
ATOM      9  C   UNL     1       6.162   1.917  -1.448  1.00  0.00     0.010 A 
ATOM     10  C   UNL     1       5.208   3.282   0.323  1.00  0.00     0.010 A 
ATOM     11  C   UNL     1       6.245   3.016  -0.585  1.00  0.00    -0.014 A 
BRANCH  11  12
ATOM     12  C   UNL     1       7.388   3.929  -0.738  1.00  0.00     0.031 A 
ATOM     13  C   UNL     1       7.018   5.342  -1.020  1.00  0.00     0.074 A 
ATOM     14  C   UNL     1       8.602   3.675  -0.208  1.00  0.00     0.049 A 
ATOM     15  N   UNL     1       6.682   6.164  -0.072  1.00  0.00    -0.248 NA
ATOM     16  C   UNL     1       6.751   5.842  -2.367  1.00  0.00     0.031 C 
ATOM     17  C   UNL     1       8.832   2.787   0.939  1.00  0.00     0.029 A 
ATOM     18  N   UNL     1       9.809   4.306  -0.399  1.00  0.00    -0.354 N 
ATOM     19  C   UNL     1       6.076   7.247  -0.671  1.00  0.00     0.074 A 
ATOM     20  C   UNL     1       6.180   7.027  -2.098  1.00  0.00     0.031 C 
ATOM     21  C   UNL     1      10.037   3.079   1.472  1.00  0.00     0.029 A 
ATOM     22  C   UNL     1      10.725   4.040   0.616  1.00  0.00     0.049 A 
ATOM     23  H   UNL     1      10.005   4.885  -1.171  1.00  0.00     0.167 HD
ATOM     24  C   UNL     1       5.489   8.246   0.039  1.00  0.00     0.034 A 
ATOM     25  C   UNL     1      11.709   4.887   1.028  1.00  0.00     0.034 A 
ATOM     26  C   UNL     1       5.506   8.085   1.465  1.00  0.00     0.049 A 
ATOM     27  C   UNL     1      10.896   6.017   1.617  1.00  0.00     0.074 A 
ATOM     28  C   UNL     1       4.665   7.542   2.413  1.00  0.00     0.029 A 
ATOM     29  N   UNL     1       6.662   8.379   2.149  1.00  0.00    -0.354 N 
ATOM     30  N   UNL     1      10.293   6.005   2.779  1.00  0.00    -0.248 NA
ATOM     31  C   UNL     1      10.447   7.073   0.709  1.00  0.00     0.031 C 
ATOM     32  C   UNL     1       5.514   7.124   3.488  1.00  0.00     0.029 A 
ATOM     33  C   UNL     1       6.824   7.409   3.109  1.00  0.00     0.049 A 
ATOM     34  H   UNL     1       7.263   9.141   1.982  1.00  0.00     0.167 HD
ATOM     35  C   UNL     1       9.187   6.846   2.627  1.00  0.00     0.074 A 
ATOM     36  C   UNL     1       9.357   7.489   1.340  1.00  0.00     0.031 C 
ATOM     37  C   UNL     1       8.111   6.851   3.467  1.00  0.00     0.034 A 
BRANCH  24  38
ATOM     38  C   UNL     1       4.983   9.484  -0.584  1.00  0.00     0.023 A 
ATOM     39  C   UNL     1       5.907  10.531  -0.762  1.00  0.00     0.012 A 
ATOM     40  C   UNL     1       3.624   9.694  -0.867  1.00  0.00     0.148 A 
ATOM     41  C   UNL     1       5.484  11.786  -1.187  1.00  0.00     0.002 A 
ATOM     42  C   UNL     1       3.207  10.952  -1.294  1.00  0.00     0.091 A 
ATOM     43  F   UNL     1       2.766   8.680  -0.687  1.00  0.00    -0.205 F 
ATOM     44  C   UNL     1       4.134  11.998  -1.446  1.00  0.00     0.022 A 
BRANCH  42  45
ATOM     45  S   UNL     1       1.493  11.345  -1.660  1.00  0.00     0.127 S 
ATOM     46  O   UNL     1       1.165  12.288  -0.592  1.00  0.00    -0.237 OA
ATOM     47  O   UNL     1       1.598  11.944  -2.992  1.00  0.00    -0.237 OA
ATOM     48  O   UNL     1       0.773  10.080  -1.622  1.00  0.00    -0.744 OA
ENDBRANCH  42  45
ENDBRANCH  24  38
BRANCH  25  49
ATOM     49  C   UNL     1      12.810   5.107   0.022  1.00  0.00     0.023 A 
ATOM     50  C   UNL     1      13.297   3.971  -0.673  1.00  0.00     0.012 A 
ATOM     51  C   UNL     1      13.404   6.348  -0.277  1.00  0.00     0.148 A 
ATOM     52  C   UNL     1      14.242   4.076  -1.696  1.00  0.00     0.002 A 
ATOM     53  C   UNL     1      14.306   6.459  -1.337  1.00  0.00     0.091 A 
ATOM     54  F   UNL     1      13.079   7.417   0.459  1.00  0.00    -0.205 F 
ATOM     55  C   UNL     1      14.725   5.327  -2.048  1.00  0.00     0.022 A 
BRANCH  53  56
ATOM     56  S   UNL     1      14.924   8.046  -1.917  1.00  0.00     0.127 S 
ATOM     57  O   UNL     1      16.360   7.795  -2.027  1.00  0.00    -0.237 OA
ATOM     58  O   UNL     1      14.221   8.177  -3.192  1.00  0.00    -0.237 OA
ATOM     59  O   UNL     1      14.547   9.013  -0.896  1.00  0.00    -0.744 OA
ENDBRANCH  53  56
ENDBRANCH  25  49
BRANCH  37  60
ATOM     60  C   UNL     1       8.247   6.066   4.735  1.00  0.00     0.023 A 
ATOM     61  C   UNL     1       9.016   6.626   5.772  1.00  0.00     0.012 A 
ATOM     62  C   UNL     1       7.577   4.845   4.953  1.00  0.00     0.148 A 
ATOM     63  C   UNL     1       9.100   6.000   7.015  1.00  0.00     0.002 A 
ATOM     64  C   UNL     1       7.650   4.232   6.201  1.00  0.00     0.091 A 
ATOM     65  F   UNL     1       6.848   4.318   3.957  1.00  0.00    -0.205 F 
ATOM     66  C   UNL     1       8.410   4.810   7.232  1.00  0.00     0.022 A 
BRANCH  64  67
ATOM     67  S   UNL     1       6.785   2.704   6.592  1.00  0.00     0.127 S 
ATOM     68  O   UNL     1       7.836   1.901   7.218  1.00  0.00    -0.237 OA
ATOM     69  O   UNL     1       5.748   3.169   7.513  1.00  0.00    -0.237 OA
ATOM     70  O   UNL     1       6.300   2.166   5.327  1.00  0.00    -0.744 OA
ENDBRANCH  64  67
ENDBRANCH  37  60
ENDBRANCH  11  12
ENDBRANCH   4   6
ENDBRANCH   1   2
BRANCH   1  71
ATOM     71  C   UNL     1       4.884  -1.097   2.131  1.00  0.00     0.042 C 
BRANCH  71  72
ATOM     72  C   UNL     1       4.248  -2.152   3.030  1.00  0.00     0.118 C 
BRANCH  72  73
ATOM     73  N   UNL     1       4.745  -3.492   2.714  1.00  0.00    -0.351 N 
ATOM     74  C   UNL     1       5.590  -4.304   3.403  1.00  0.00     0.270 C 
ATOM     75  H   UNL     1       4.414  -3.865   1.866  1.00  0.00     0.163 HD
ATOM     76  O   UNL     1       6.046  -5.310   2.859  1.00  0.00    -0.268 OA
BRANCH  74  77
ATOM     77  C   UNL     1       5.980  -3.957   4.779  1.00  0.00     0.134 A 
ATOM     78  C   UNL     1       7.295  -3.896   5.035  1.00  0.00     0.063 A 
ATOM     79  N   UNL     1       5.050  -3.734   5.788  1.00  0.00    -0.207 N 
ATOM     80  C   UNL     1       7.655  -3.638   6.461  1.00  0.00     0.075 A 
ATOM     81  C   UNL     1       5.478  -3.359   7.075  1.00  0.00     0.166 A 
ATOM     82  N   UNL     1       3.697  -3.827   5.705  1.00  0.00    -0.145 NA
ATOM     83  N   UNL     1       6.806  -3.417   7.425  1.00  0.00    -0.228 NA
ATOM     84  C   UNL     1       4.333  -2.886   7.689  1.00  0.00     0.069 A 
ATOM     85  C   UNL     1       3.272  -3.189   6.787  1.00  0.00     0.184 A 
ATOM     86  C   UNL     1       4.218  -2.215   8.914  1.00  0.00    -0.028 A 
ATOM     87  N   UNL     1       1.982  -2.863   7.031  1.00  0.00    -0.222 NA
ATOM     88  C   UNL     1       2.873  -1.831   9.104  1.00  0.00     0.038 A 
ATOM     89  C   UNL     1       1.824  -2.152   8.193  1.00  0.00     0.147 A 
BRANCH  80  90
ATOM     90  C   UNL     1       9.105  -3.740   6.746  1.00  0.00     0.000 A 
ATOM     91  C   UNL     1       9.541  -4.682   7.684  1.00  0.00     0.012 A 
ATOM     92  C   UNL     1      10.031  -2.969   6.033  1.00  0.00     0.012 A 
ATOM     93  C   UNL     1      10.910  -4.880   7.881  1.00  0.00     0.021 A 
ATOM     94  C   UNL     1      11.400  -3.166   6.238  1.00  0.00     0.021 A 
ATOM     95  C   UNL     1      11.832  -4.127   7.152  1.00  0.00     0.041 A 
ATOM     96  Cl  UNL     1      13.518  -4.399   7.376  1.00  0.00    -0.084 Cl
ENDBRANCH  80  90
BRANCH  86  97
ATOM     97  C   UNL     1       5.380  -1.943   9.812  1.00  0.00     0.020 C 
ATOM     98  C   UNL     1       5.226  -1.297  11.170  1.00  0.00     0.009 C 
ATOM     99  C   UNL     1       5.519  -2.763  11.075  1.00  0.00     0.009 C 
ENDBRANCH  86  97
BRANCH  89 100
ATOM    100  C   UNL     1       0.411  -1.676   8.512  1.00  0.00     0.433 C 
ATOM    101  F   UNL     1      -0.035  -0.696   7.678  1.00  0.00    -0.165 F 
ATOM    102  F   UNL     1      -0.515  -2.679   8.439  1.00  0.00    -0.165 F 
ATOM    103  F   UNL     1       0.278  -1.171   9.776  1.00  0.00    -0.165 F 
ENDBRANCH  89 100
ENDBRANCH  74  77
ENDBRANCH  72  73
ENDBRANCH  71  72
ENDBRANCH   1  71
TORSDOF 16
