REMARK SMILES O=C(NCCCNC(=O)[C@@]1(Cc2cn3ccccc3n2)CCC[NH2+]C1)c1ccc(-c2c3nc(c(-c4cccc(S(=O)(=O)[O-])c4F)c4ccc([nH]4)c(-c4cccc(S(=O)(=O)[O-])c4F)c4nc(c(-c5cccc(S(=O)(=O)[O-])c5F)c5ccc2[nH]5)C=C4)C=C3)cc1
REMARK SMILES IDX 4 1 3 2 1 3 2 4 26 6 27 7 88 8 28 9 87 10 29 11 30 12 31 13
REMARK SMILES IDX 81 14 32 15 86 16 80 17 82 18 33 19 85 20 79 21 78 22 34 24
REMARK SMILES IDX 66 25 46 26 65 27 47 28 50 29 64 30 83 31 48 32 49 33 63 35
REMARK SMILES IDX 84 36 51 37 35 38 36 39 44 40 37 41 39 42 45 43 38 44 40 45
REMARK SMILES IDX 41 46 42 47 43 48 67 49 68 50 76 51 69 52 71 53 77 54 70 55
REMARK SMILES IDX 72 56 73 57 74 58 75 59 52 60 53 61 61 62 54 63 56 64 62 65
REMARK SMILES IDX 55 66 57 67 58 68 59 69 60 70 5 71 6 72 7 73 8 74 9 76 10 77
REMARK SMILES IDX 21 78 25 79 22 80 24 81 23 82 11 85 12 86 13 87 20 88 14 89
REMARK SMILES IDX 19 90 15 91 18 92 16 93 17 94
REMARK H PARENT 3 5 82 23 50 34 7 75 24 83 24 84
REMARK Flexibility Score: inf
ROOT
ATOM      1  C   UNL     1       9.149   7.235   0.601  1.00  0.00     0.118 C 
ENDROOT
BRANCH   1   2
ATOM      2  N   UNL     1       8.685   8.553   0.185  1.00  0.00    -0.352 N 
ATOM      3  O   UNL     1       8.899  10.736  -0.316  1.00  0.00    -0.269 OA
ATOM      4  C   UNL     1       9.420   9.626  -0.253  1.00  0.00     0.251 C 
ATOM      5  H   UNL     1       7.711   8.692   0.224  1.00  0.00     0.163 HD
BRANCH   4   6
ATOM      6  C   UNL     1      10.834   9.428  -0.631  1.00  0.00     0.039 A 
ATOM      7  C   UNL     1      11.207   8.304  -1.375  1.00  0.00     0.014 A 
ATOM      8  C   UNL     1      11.790  10.374  -0.255  1.00  0.00     0.014 A 
ATOM      9  C   UNL     1      12.547   8.053  -1.624  1.00  0.00     0.010 A 
ATOM     10  C   UNL     1      13.129  10.172  -0.599  1.00  0.00     0.010 A 
ATOM     11  C   UNL     1      13.517   9.004  -1.274  1.00  0.00    -0.014 A 
BRANCH  11  12
ATOM     12  C   UNL     1      14.903   8.825  -1.765  1.00  0.00     0.031 A 
ATOM     13  C   UNL     1      16.057   8.657  -0.821  1.00  0.00     0.074 A 
ATOM     14  C   UNL     1      15.101   8.852  -3.098  1.00  0.00     0.049 A 
ATOM     15  N   UNL     1      17.325   8.514  -1.103  1.00  0.00    -0.248 NA
ATOM     16  C   UNL     1      15.760   8.660   0.621  1.00  0.00     0.031 C 
ATOM     17  C   UNL     1      14.050   9.066  -4.099  1.00  0.00     0.029 A 
ATOM     18  N   UNL     1      16.243   8.720  -3.844  1.00  0.00    -0.354 N 
ATOM     19  C   UNL     1      17.985   8.459   0.117  1.00  0.00     0.074 A 
ATOM     20  C   UNL     1      16.976   8.572   1.148  1.00  0.00     0.031 C 
ATOM     21  C   UNL     1      14.592   9.045  -5.323  1.00  0.00     0.029 A 
ATOM     22  C   UNL     1      16.033   8.880  -5.194  1.00  0.00     0.049 A 
ATOM     23  H   UNL     1      17.126   8.530  -3.453  1.00  0.00     0.167 HD
ATOM     24  C   UNL     1      19.312   8.319   0.347  1.00  0.00     0.034 A 
ATOM     25  C   UNL     1      16.906   8.931  -6.217  1.00  0.00     0.034 A 
ATOM     26  C   UNL     1      20.296   8.157  -0.691  1.00  0.00     0.049 A 
ATOM     27  C   UNL     1      18.365   8.754  -5.923  1.00  0.00     0.074 A 
ATOM     28  C   UNL     1      21.646   7.883  -0.558  1.00  0.00     0.029 A 
ATOM     29  N   UNL     1      20.043   8.277  -2.049  1.00  0.00    -0.354 N 
ATOM     30  N   UNL     1      18.949   8.524  -4.772  1.00  0.00    -0.248 NA
ATOM     31  C   UNL     1      19.285   8.828  -7.065  1.00  0.00     0.031 C 
ATOM     32  C   UNL     1      22.216   7.869  -1.835  1.00  0.00     0.029 A 
ATOM     33  C   UNL     1      21.218   8.118  -2.764  1.00  0.00     0.049 A 
ATOM     34  H   UNL     1      19.159   8.450  -2.446  1.00  0.00     0.167 HD
ATOM     35  C   UNL     1      20.304   8.417  -5.050  1.00  0.00     0.074 A 
ATOM     36  C   UNL     1      20.450   8.569  -6.484  1.00  0.00     0.031 C 
ATOM     37  C   UNL     1      21.338   8.237  -4.194  1.00  0.00     0.034 A 
BRANCH  24  38
ATOM     38  C   UNL     1      19.796   8.299   1.772  1.00  0.00     0.023 A 
ATOM     39  C   UNL     1      19.635   7.133   2.546  1.00  0.00     0.012 A 
ATOM     40  C   UNL     1      20.517   9.389   2.300  1.00  0.00     0.148 A 
ATOM     41  C   UNL     1      20.177   7.055   3.829  1.00  0.00     0.002 A 
ATOM     42  C   UNL     1      21.082   9.291   3.566  1.00  0.00     0.091 A 
ATOM     43  F   UNL     1      20.641  10.494   1.551  1.00  0.00    -0.205 F 
ATOM     44  C   UNL     1      20.909   8.127   4.333  1.00  0.00     0.022 A 
BRANCH  42  45
ATOM     45  S   UNL     1      22.102  10.588   4.278  1.00  0.00     0.127 S 
ATOM     46  O   UNL     1      21.250  11.067   5.366  1.00  0.00    -0.237 OA
ATOM     47  O   UNL     1      23.285   9.845   4.713  1.00  0.00    -0.237 OA
ATOM     48  O   UNL     1      22.342  11.546   3.208  1.00  0.00    -0.744 OA
ENDBRANCH  42  45
ENDBRANCH  24  38
BRANCH  25  49
ATOM     49  C   UNL     1      16.408   9.155  -7.602  1.00  0.00     0.023 A 
ATOM     50  C   UNL     1      16.484   8.116  -8.546  1.00  0.00     0.012 A 
ATOM     51  C   UNL     1      15.812  10.377  -7.971  1.00  0.00     0.148 A 
ATOM     52  C   UNL     1      15.995   8.298  -9.841  1.00  0.00     0.002 A 
ATOM     53  C   UNL     1      15.271  10.530  -9.241  1.00  0.00     0.091 A 
ATOM     54  F   UNL     1      15.767  11.366  -7.065  1.00  0.00    -0.205 F 
ATOM     55  C   UNL     1      15.376   9.498 -10.184  1.00  0.00     0.022 A 
BRANCH  53  56
ATOM     56  S   UNL     1      14.324  11.989  -9.690  1.00  0.00     0.127 S 
ATOM     57  O   UNL     1      15.320  12.789 -10.396  1.00  0.00    -0.237 OA
ATOM     58  O   UNL     1      13.270  11.429 -10.537  1.00  0.00    -0.237 OA
ATOM     59  O   UNL     1      13.841  12.531  -8.426  1.00  0.00    -0.744 OA
ENDBRANCH  53  56
ENDBRANCH  25  49
BRANCH  37  60
ATOM     60  C   UNL     1      22.721   8.203  -4.783  1.00  0.00     0.023 A 
ATOM     61  C   UNL     1      23.314   9.405  -5.215  1.00  0.00     0.012 A 
ATOM     62  C   UNL     1      23.454   7.003  -4.844  1.00  0.00     0.148 A 
ATOM     63  C   UNL     1      24.611   9.410  -5.724  1.00  0.00     0.002 A 
ATOM     64  C   UNL     1      24.763   7.023  -5.310  1.00  0.00     0.091 A 
ATOM     65  F   UNL     1      22.861   5.870  -4.444  1.00  0.00    -0.205 F 
ATOM     66  C   UNL     1      25.339   8.223  -5.760  1.00  0.00     0.022 A 
BRANCH  64  67
ATOM     67  S   UNL     1      25.807   5.563  -5.313  1.00  0.00     0.127 S 
ATOM     68  O   UNL     1      25.914   5.275  -6.742  1.00  0.00    -0.237 OA
ATOM     69  O   UNL     1      27.037   6.060  -4.696  1.00  0.00    -0.237 OA
ATOM     70  O   UNL     1      25.099   4.561  -4.527  1.00  0.00    -0.744 OA
ENDBRANCH  64  67
ENDBRANCH  37  60
ENDBRANCH  11  12
ENDBRANCH   4   6
ENDBRANCH   1   2
BRANCH   1  71
ATOM     71  C   UNL     1       8.899   6.989   2.078  1.00  0.00     0.042 C 
BRANCH  71  72
ATOM     72  C   UNL     1       7.423   6.850   2.399  1.00  0.00     0.117 C 
BRANCH  72  73
ATOM     73  N   UNL     1       6.866   5.608   1.885  1.00  0.00    -0.355 N 
ATOM     74  C   UNL     1       6.177   4.602   2.496  1.00  0.00     0.232 C 
ATOM     75  H   UNL     1       7.013   5.469   0.922  1.00  0.00     0.163 HD
ATOM     76  O   UNL     1       5.794   3.692   1.756  1.00  0.00    -0.274 OA
BRANCH  74  77
ATOM     77  C   UNL     1       5.868   4.618   4.011  1.00  0.00     0.104 C 
ATOM     78  C   UNL     1       7.205   4.604   4.805  1.00  0.00     0.029 C 
ATOM     79  C   UNL     1       4.988   5.872   4.280  1.00  0.00     0.277 C 
ATOM     80  C   UNL     1       7.146   5.295   6.167  1.00  0.00     0.063 C 
ATOM     81  N   UNL     1       5.006   6.403   5.646  1.00  0.00    -0.345 N 
ATOM     82  C   UNL     1       6.360   6.598   6.150  1.00  0.00     0.260 C 
ATOM     83  H   UNL     1       4.521   7.301   5.654  1.00  0.00     0.346 HD
ATOM     84  H   UNL     1       4.544   5.723   6.250  1.00  0.00     0.346 HD
BRANCH  77  85
ATOM     85  C   UNL     1       5.060   3.304   4.301  1.00  0.00     0.080 C 
BRANCH  85  86
ATOM     86  C   UNL     1       4.702   3.065   5.728  1.00  0.00     0.061 A 
ATOM     87  C   UNL     1       3.789   3.735   6.514  1.00  0.00     0.116 A 
ATOM     88  N   UNL     1       5.351   2.096   6.465  1.00  0.00    -0.234 NA
ATOM     89  N   UNL     1       4.051   3.333   7.794  1.00  0.00    -0.307 N 
ATOM     90  C   UNL     1       4.943   2.272   7.705  1.00  0.00     0.136 A 
ATOM     91  C   UNL     1       3.603   3.868   8.997  1.00  0.00     0.093 A 
ATOM     92  C   UNL     1       5.313   1.638   8.923  1.00  0.00     0.048 A 
ATOM     93  C   UNL     1       4.013   3.313  10.150  1.00  0.00     0.018 A 
ATOM     94  C   UNL     1       4.873   2.138  10.095  1.00  0.00     0.005 A 
ENDBRANCH  85  86
ENDBRANCH  77  85
ENDBRANCH  74  77
ENDBRANCH  72  73
ENDBRANCH  71  72
ENDBRANCH   1  71
TORSDOF 15
