REMARK SMILES O=C(NCCCNC(=O)c1cc(-c2ccn(C(F)F)c(=O)c2)ccc1O)c1ccc(-c2c3nc(c(-c4cccc(S(=O)(=O)[O-])c4F)c4ccc([nH]4)c(-c4cccc(S(=O)(=O)[O-])c4F)c4nc(c(-c5cccc(S(=O)(=O)[O-])c5F)c5ccc2[nH]5)C=C4)C=C3)cc1
REMARK SMILES IDX 4 1 3 2 1 3 2 4 27 6 28 7 89 8 29 9 88 10 30 11 31 12 32 13
REMARK SMILES IDX 82 14 33 15 87 16 81 17 83 18 34 19 86 20 80 21 79 22 35 24
REMARK SMILES IDX 67 25 47 26 66 27 48 28 51 29 65 30 84 31 49 32 50 33 64 35
REMARK SMILES IDX 85 36 52 37 36 38 37 39 45 40 38 41 40 42 46 43 39 44 41 45
REMARK SMILES IDX 42 46 43 47 44 48 68 49 69 50 77 51 70 52 72 53 78 54 71 55
REMARK SMILES IDX 73 56 74 57 75 58 76 59 53 60 54 61 62 62 55 63 57 64 63 65
REMARK SMILES IDX 56 66 58 67 59 68 60 69 61 70 5 71 6 72 7 73 8 74 9 76 10 77
REMARK SMILES IDX 11 78 25 79 12 80 24 81 23 82 26 83 13 85 14 86 22 87 15 88
REMARK SMILES IDX 20 89 16 90 21 91 17 92 18 93 19 94
REMARK H PARENT 3 5 83 23 51 34 7 75 26 84
REMARK Flexibility Score: inf
ROOT
ATOM      1  C   UNL     1       4.561  -0.592   1.134  1.00  0.00     0.118 C 
ENDROOT
BRANCH   1   2
ATOM      2  N   UNL     1       3.112  -0.601   1.001  1.00  0.00    -0.352 N 
ATOM      3  O   UNL     1       1.097  -0.028   0.196  1.00  0.00    -0.269 OA
ATOM      4  C   UNL     1       2.309  -0.104   0.006  1.00  0.00     0.251 C 
ATOM      5  H   UNL     1       2.631  -1.032   1.744  1.00  0.00     0.163 HD
BRANCH   4   6
ATOM      6  C   UNL     1       2.882   0.340  -1.286  1.00  0.00     0.039 A 
ATOM      7  C   UNL     1       2.311   1.439  -1.935  1.00  0.00     0.014 A 
ATOM      8  C   UNL     1       3.928  -0.358  -1.895  1.00  0.00     0.014 A 
ATOM      9  C   UNL     1       2.799   1.844  -3.180  1.00  0.00     0.010 A 
ATOM     10  C   UNL     1       4.478   0.105  -3.086  1.00  0.00     0.010 A 
ATOM     11  C   UNL     1       3.891   1.183  -3.763  1.00  0.00    -0.014 A 
BRANCH  11  12
ATOM     12  C   UNL     1       4.376   1.529  -5.121  1.00  0.00     0.031 A 
ATOM     13  C   UNL     1       4.286   0.504  -6.223  1.00  0.00     0.074 A 
ATOM     14  C   UNL     1       4.928   2.733  -5.364  1.00  0.00     0.049 A 
ATOM     15  N   UNL     1       4.734   0.571  -7.449  1.00  0.00    -0.248 NA
ATOM     16  C   UNL     1       3.624  -0.772  -5.897  1.00  0.00     0.031 C 
ATOM     17  C   UNL     1       5.100   3.800  -4.378  1.00  0.00     0.029 A 
ATOM     18  N   UNL     1       5.460   3.253  -6.517  1.00  0.00    -0.354 N 
ATOM     19  C   UNL     1       4.440  -0.658  -8.026  1.00  0.00     0.074 A 
ATOM     20  C   UNL     1       3.810  -1.468  -7.009  1.00  0.00     0.031 C 
ATOM     21  C   UNL     1       5.680   4.856  -4.972  1.00  0.00     0.029 A 
ATOM     22  C   UNL     1       5.953   4.527  -6.369  1.00  0.00     0.049 A 
ATOM     23  H   UNL     1       5.486   2.760  -7.369  1.00  0.00     0.167 HD
ATOM     24  C   UNL     1       4.637  -1.066  -9.300  1.00  0.00     0.034 A 
ATOM     25  C   UNL     1       6.562   5.339  -7.256  1.00  0.00     0.034 A 
ATOM     26  C   UNL     1       5.208  -0.245 -10.329  1.00  0.00     0.049 A 
ATOM     27  C   UNL     1       6.769   4.868  -8.668  1.00  0.00     0.074 A 
ATOM     28  C   UNL     1       5.404  -0.555 -11.662  1.00  0.00     0.029 A 
ATOM     29  N   UNL     1       5.662   1.051 -10.145  1.00  0.00    -0.354 N 
ATOM     30  N   UNL     1       6.425   3.726  -9.211  1.00  0.00    -0.248 NA
ATOM     31  C   UNL     1       7.428   5.800  -9.594  1.00  0.00     0.031 C 
ATOM     32  C   UNL     1       5.985   0.553 -12.285  1.00  0.00     0.029 A 
ATOM     33  C   UNL     1       6.135   1.557 -11.341  1.00  0.00     0.049 A 
ATOM     34  H   UNL     1       5.650   1.538  -9.289  1.00  0.00     0.167 HD
ATOM     35  C   UNL     1       6.803   3.808 -10.545  1.00  0.00     0.074 A 
ATOM     36  C   UNL     1       7.394   5.118 -10.732  1.00  0.00     0.031 C 
ATOM     37  C   UNL     1       6.681   2.877 -11.522  1.00  0.00     0.034 A 
BRANCH  24  38
ATOM     38  C   UNL     1       4.163  -2.442  -9.677  1.00  0.00     0.023 A 
ATOM     39  C   UNL     1       2.784  -2.666  -9.863  1.00  0.00     0.012 A 
ATOM     40  C   UNL     1       5.076  -3.486  -9.921  1.00  0.00     0.148 A 
ATOM     41  C   UNL     1       2.318  -3.913 -10.274  1.00  0.00     0.002 A 
ATOM     42  C   UNL     1       4.606  -4.717 -10.362  1.00  0.00     0.091 A 
ATOM     43  F   UNL     1       6.381  -3.252  -9.722  1.00  0.00    -0.205 F 
ATOM     44  C   UNL     1       3.228  -4.933 -10.534  1.00  0.00     0.022 A 
BRANCH  42  45
ATOM     45  S   UNL     1       5.694  -6.085 -10.773  1.00  0.00     0.127 S 
ATOM     46  O   UNL     1       5.316  -7.075  -9.765  1.00  0.00    -0.237 OA
ATOM     47  O   UNL     1       5.274  -6.411 -12.136  1.00  0.00    -0.237 OA
ATOM     48  O   UNL     1       7.052  -5.572 -10.656  1.00  0.00    -0.744 OA
ENDBRANCH  42  45
ENDBRANCH  24  38
BRANCH  25  49
ATOM     49  C   UNL     1       6.946   6.712  -6.832  1.00  0.00     0.023 A 
ATOM     50  C   UNL     1       6.143   7.798  -7.226  1.00  0.00     0.012 A 
ATOM     51  C   UNL     1       8.035   6.933  -5.968  1.00  0.00     0.148 A 
ATOM     52  C   UNL     1       6.417   9.086  -6.765  1.00  0.00     0.002 A 
ATOM     53  C   UNL     1       8.282   8.212  -5.484  1.00  0.00     0.091 A 
ATOM     54  F   UNL     1       8.779   5.878  -5.606  1.00  0.00    -0.205 F 
ATOM     55  C   UNL     1       7.478   9.291  -5.887  1.00  0.00     0.022 A 
BRANCH  53  56
ATOM     56  S   UNL     1       9.562   8.564  -4.274  1.00  0.00     0.127 S 
ATOM     57  O   UNL     1      10.394   9.527  -4.992  1.00  0.00    -0.237 OA
ATOM     58  O   UNL     1       8.781   9.125  -3.172  1.00  0.00    -0.237 OA
ATOM     59  O   UNL     1      10.198   7.287  -3.984  1.00  0.00    -0.744 OA
ENDBRANCH  53  56
ENDBRANCH  25  49
BRANCH  37  60
ATOM     60  C   UNL     1       7.176   3.223 -12.899  1.00  0.00     0.023 A 
ATOM     61  C   UNL     1       8.556   3.166 -13.172  1.00  0.00     0.012 A 
ATOM     62  C   UNL     1       6.267   3.467 -13.947  1.00  0.00     0.148 A 
ATOM     63  C   UNL     1       9.026   3.356 -14.470  1.00  0.00     0.002 A 
ATOM     64  C   UNL     1       6.740   3.622 -15.244  1.00  0.00     0.091 A 
ATOM     65  F   UNL     1       4.959   3.518 -13.658  1.00  0.00    -0.205 F 
ATOM     66  C   UNL     1       8.120   3.571 -15.507  1.00  0.00     0.022 A 
BRANCH  64  67
ATOM     67  S   UNL     1       5.650   3.832 -16.656  1.00  0.00     0.127 S 
ATOM     68  O   UNL     1       5.974   5.193 -17.081  1.00  0.00    -0.237 OA
ATOM     69  O   UNL     1       6.114   2.783 -17.563  1.00  0.00    -0.237 OA
ATOM     70  O   UNL     1       4.295   3.648 -16.153  1.00  0.00    -0.744 OA
ENDBRANCH  64  67
ENDBRANCH  37  60
ENDBRANCH  11  12
ENDBRANCH   4   6
ENDBRANCH   1   2
BRANCH   1  71
ATOM     71  C   UNL     1       5.036   0.263   2.298  1.00  0.00     0.042 C 
BRANCH  71  72
ATOM     72  C   UNL     1       4.558  -0.213   3.660  1.00  0.00     0.118 C 
BRANCH  72  73
ATOM     73  N   UNL     1       5.043  -1.540   4.002  1.00  0.00    -0.352 N 
ATOM     74  C   UNL     1       5.677  -1.958   5.145  1.00  0.00     0.255 C 
ATOM     75  H   UNL     1       4.895  -2.235   3.321  1.00  0.00     0.163 HD
ATOM     76  O   UNL     1       6.072  -3.118   5.243  1.00  0.00    -0.269 OA
BRANCH  74  77
ATOM     77  C   UNL     1       5.958  -1.006   6.240  1.00  0.00     0.082 A 
ATOM     78  C   UNL     1       7.282  -0.936   6.702  1.00  0.00     0.026 A 
ATOM     79  C   UNL     1       4.966  -0.218   6.838  1.00  0.00     0.128 A 
ATOM     80  C   UNL     1       7.620  -0.043   7.723  1.00  0.00    -0.017 A 
ATOM     81  C   UNL     1       5.304   0.701   7.827  1.00  0.00     0.047 A 
ATOM     82  C   UNL     1       6.627   0.791   8.260  1.00  0.00     0.012 A 
BRANCH  79  83
ATOM     83  O   UNL     1       3.656  -0.344   6.467  1.00  0.00    -0.507 OA
ATOM     84  H   UNL     1       3.414  -0.959   5.803  1.00  0.00     0.293 HD
ENDBRANCH  79  83
BRANCH  80  85
ATOM     85  C   UNL     1       8.976   0.009   8.298  1.00  0.00    -0.011 A 
ATOM     86  C   UNL     1       9.222  -0.363   9.679  1.00  0.00     0.027 A 
ATOM     87  C   UNL     1       9.996   0.465   7.551  1.00  0.00     0.080 A 
ATOM     88  C   UNL     1      10.430  -0.195  10.225  1.00  0.00     0.095 A 
ATOM     89  C   UNL     1      11.354   0.640   8.143  1.00  0.00     0.255 A 
ATOM     90  N   UNL     1      11.479   0.313   9.484  1.00  0.00    -0.258 N 
ATOM     91  O   UNL     1      12.256   1.076   7.433  1.00  0.00    -0.269 OA
BRANCH  90  92
ATOM     92  C   UNL     1      12.757   0.552  10.103  1.00  0.00     0.451 C 
ATOM     93  F   UNL     1      13.750  -0.126   9.478  1.00  0.00    -0.185 F 
ATOM     94  F   UNL     1      13.067   1.872  10.082  1.00  0.00    -0.185 F 
ENDBRANCH  90  92
ENDBRANCH  80  85
ENDBRANCH  74  77
ENDBRANCH  72  73
ENDBRANCH  71  72
ENDBRANCH   1  71
TORSDOF 16
