REMARK SMILES Cc1nsc(NC(=O)[C@H]2Cc3[nH]cnc3C[NH2+]2)c1C(=O)NCCCNC(=O)c1ccc(-c2c3nc(c(-c4cccc(S(=O)(=O)[O-])c4F)c4ccc([nH]4)c(-c4cccc(S(=O)(=O)[O-])c4F)c4nc(c(-c5cccc(S(=O)(=O)[O-])c5F)c5ccc2[nH]5)C=C4)C=C3)cc1
REMARK SMILES IDX 23 1 22 2 21 3 19 4 20 5 18 7 1 8 2 9 3 10 4 11 5 12 6 13
REMARK SMILES IDX 7 14 8 16 9 17 10 18 17 19 11 20 16 21 12 24 15 25 13 26
REMARK SMILES IDX 14 28 24 29 25 30 26 31 27 33 28 34 29 35 90 36 30 37 89 38
REMARK SMILES IDX 31 39 32 40 33 41 83 42 34 43 88 44 82 45 84 46 35 47 87 48
REMARK SMILES IDX 81 49 80 50 36 52 68 53 48 54 67 55 49 56 52 57 66 58 85 59
REMARK SMILES IDX 50 60 51 61 65 63 86 64 53 65 37 66 38 67 46 68 39 69 41 70
REMARK SMILES IDX 47 71 40 72 42 73 43 74 44 75 45 76 69 77 70 78 78 79 71 80
REMARK SMILES IDX 73 81 79 82 72 83 74 84 75 85 76 86 77 87 54 88 55 89 63 90
REMARK SMILES IDX 56 91 58 92 64 93 57 94 59 95 60 96 61 97 62 98
REMARK H PARENT 21 6 6 15 17 22 17 23 12 27 25 32 84 51 52 62
REMARK Flexibility Score: inf
ROOT
ATOM      1  C   UNL     1       0.300   2.069  -1.050  1.00  0.00     0.042 C 
ENDROOT
BRANCH   1   2
ATOM      2  C   UNL     1      -0.833   1.629  -0.125  1.00  0.00     0.118 C 
BRANCH   2   3
ATOM      3  N   UNL     1      -1.789   0.695  -0.678  1.00  0.00    -0.352 N 
ATOM      4  C   UNL     1      -1.770  -0.674  -0.780  1.00  0.00     0.256 C 
ATOM      5  O   UNL     1      -2.866  -1.235  -0.728  1.00  0.00    -0.269 OA
ATOM      6  H   UNL     1      -2.598   1.117  -1.047  1.00  0.00     0.163 HD
BRANCH   4   7
ATOM      7  C   UNL     1      -0.573  -1.421  -1.143  1.00  0.00     0.097 A 
ATOM      8  C   UNL     1       1.611  -0.557   0.087  1.00  0.00     0.069 C 
ATOM      9  C   UNL     1       0.852  -1.242  -0.993  1.00  0.00     0.066 A 
ATOM     10  N   UNL     1       1.600  -1.861  -1.922  1.00  0.00    -0.195 NA
ATOM     11  S   UNL     1       0.563  -2.821  -2.824  1.00  0.00    -0.017 S 
ATOM     12  C   UNL     1      -0.671  -2.722  -1.632  1.00  0.00     0.129 A 
BRANCH  12  13
ATOM     13  N   UNL     1      -1.694  -3.628  -1.618  1.00  0.00    -0.311 N 
ATOM     14  C   UNL     1      -1.661  -4.937  -1.222  1.00  0.00     0.283 C 
ATOM     15  H   UNL     1      -2.566  -3.297  -1.933  1.00  0.00     0.171 HD
ATOM     16  O   UNL     1      -2.761  -5.514  -1.233  1.00  0.00    -0.268 OA
BRANCH  14  17
ATOM     17  C   UNL     1      -0.400  -5.747  -0.748  1.00  0.00     0.279 C 
ATOM     18  C   UNL     1       0.931  -5.036  -0.405  1.00  0.00     0.131 C 
ATOM     19  N   UNL     1      -0.794  -6.579   0.466  1.00  0.00    -0.331 N 
ATOM     20  C   UNL     1       1.916  -6.102  -0.121  1.00  0.00     0.050 A 
ATOM     21  C   UNL     1       0.179  -7.646   0.840  1.00  0.00     0.320 C 
ATOM     22  H   UNL     1      -1.691  -7.023   0.268  1.00  0.00     0.347 HD
ATOM     23  H   UNL     1      -0.829  -5.934   1.256  1.00  0.00     0.347 HD
ATOM     24  N   UNL     1       3.175  -6.240  -0.621  1.00  0.00    -0.348 N 
ATOM     25  C   UNL     1       1.574  -7.311   0.424  1.00  0.00     0.116 A 
ATOM     26  C   UNL     1       3.537  -7.541  -0.385  1.00  0.00     0.197 A 
ATOM     27  H   UNL     1       3.716  -5.547  -1.063  1.00  0.00     0.167 HD
ATOM     28  N   UNL     1       2.609  -8.200   0.283  1.00  0.00    -0.236 NA
ENDBRANCH  14  17
ENDBRANCH  12  13
ENDBRANCH   4   7
ENDBRANCH   2   3
ENDBRANCH   1   2
BRANCH   1  29
ATOM     29  C   UNL     1       0.060   3.407  -1.720  1.00  0.00     0.118 C 
BRANCH  29  30
ATOM     30  N   UNL     1      -0.010   4.493  -0.739  1.00  0.00    -0.352 N 
ATOM     31  C   UNL     1      -0.518   5.769  -0.895  1.00  0.00     0.251 C 
ATOM     32  H   UNL     1       0.353   4.286   0.152  1.00  0.00     0.163 HD
ATOM     33  O   UNL     1      -0.249   6.652  -0.106  1.00  0.00    -0.269 OA
BRANCH  31  34
ATOM     34  C   UNL     1      -1.373   6.024  -2.066  1.00  0.00     0.039 A 
ATOM     35  C   UNL     1      -1.115   7.112  -2.901  1.00  0.00     0.014 A 
ATOM     36  C   UNL     1      -2.345   5.079  -2.382  1.00  0.00     0.014 A 
ATOM     37  C   UNL     1      -1.771   7.177  -4.125  1.00  0.00     0.010 A 
ATOM     38  C   UNL     1      -2.864   5.061  -3.652  1.00  0.00     0.010 A 
ATOM     39  C   UNL     1      -2.612   6.123  -4.517  1.00  0.00    -0.014 A 
BRANCH  39  40
ATOM     40  C   UNL     1      -3.131   6.067  -5.880  1.00  0.00     0.031 A 
ATOM     41  C   UNL     1      -2.118   6.259  -6.955  1.00  0.00     0.074 A 
ATOM     42  C   UNL     1      -4.394   5.700  -6.180  1.00  0.00     0.049 A 
ATOM     43  N   UNL     1      -1.980   7.299  -7.709  1.00  0.00    -0.248 NA
ATOM     44  C   UNL     1      -1.056   5.258  -7.123  1.00  0.00     0.031 C 
ATOM     45  C   UNL     1      -5.439   5.204  -5.277  1.00  0.00     0.029 A 
ATOM     46  N   UNL     1      -4.971   5.570  -7.405  1.00  0.00    -0.354 N 
ATOM     47  C   UNL     1      -0.970   6.982  -8.614  1.00  0.00     0.074 A 
ATOM     48  C   UNL     1      -0.312   5.817  -8.083  1.00  0.00     0.031 C 
ATOM     49  C   UNL     1      -6.401   4.587  -5.996  1.00  0.00     0.029 A 
ATOM     50  C   UNL     1      -6.140   4.819  -7.402  1.00  0.00     0.049 A 
ATOM     51  H   UNL     1      -4.594   5.972  -8.221  1.00  0.00     0.167 HD
ATOM     52  C   UNL     1      -0.923   7.563  -9.847  1.00  0.00     0.034 A 
ATOM     53  C   UNL     1      -6.835   4.397  -8.483  1.00  0.00     0.034 A 
ATOM     54  C   UNL     1      -1.828   8.684  -9.931  1.00  0.00     0.049 A 
ATOM     55  C   UNL     1      -6.483   5.297  -9.602  1.00  0.00     0.074 A 
ATOM     56  C   UNL     1      -1.986   9.874  -9.248  1.00  0.00     0.029 A 
ATOM     57  N   UNL     1      -3.012   8.470 -10.596  1.00  0.00    -0.354 N 
ATOM     58  N   UNL     1      -6.811   6.559  -9.631  1.00  0.00    -0.248 NA
ATOM     59  C   UNL     1      -5.403   4.911 -10.494  1.00  0.00     0.031 C 
ATOM     60  C   UNL     1      -3.398  10.056  -9.154  1.00  0.00     0.029 A 
ATOM     61  C   UNL     1      -4.017   9.008  -9.839  1.00  0.00     0.049 A 
ATOM     62  H   UNL     1      -3.117   8.011 -11.461  1.00  0.00     0.167 HD
ATOM     63  C   UNL     1      -5.692   7.190 -10.157  1.00  0.00     0.074 A 
ATOM     64  C   UNL     1      -4.924   6.122 -10.794  1.00  0.00     0.031 C 
ATOM     65  C   UNL     1      -5.353   8.456  -9.768  1.00  0.00     0.034 A 
BRANCH  52  66
ATOM     66  C   UNL     1      -0.370   6.931 -11.106  1.00  0.00     0.023 A 
ATOM     67  C   UNL     1      -0.286   7.752 -12.256  1.00  0.00     0.012 A 
ATOM     68  C   UNL     1      -0.205   5.542 -11.303  1.00  0.00     0.148 A 
ATOM     69  C   UNL     1      -0.121   7.215 -13.537  1.00  0.00     0.002 A 
ATOM     70  C   UNL     1       0.037   5.019 -12.569  1.00  0.00     0.091 A 
ATOM     71  F   UNL     1      -0.414   4.693 -10.294  1.00  0.00    -0.205 F 
ATOM     72  C   UNL     1       0.044   5.846 -13.694  1.00  0.00     0.022 A 
BRANCH  70  73
ATOM     73  S   UNL     1       0.308   3.260 -12.824  1.00  0.00     0.127 S 
ATOM     74  O   UNL     1      -0.955   2.855 -13.432  1.00  0.00    -0.237 OA
ATOM     75  O   UNL     1       1.460   3.263 -13.725  1.00  0.00    -0.237 OA
ATOM     76  O   UNL     1       0.588   2.715 -11.501  1.00  0.00    -0.744 OA
ENDBRANCH  70  73
ENDBRANCH  52  66
BRANCH  53  77
ATOM     77  C   UNL     1      -7.645   3.176  -8.667  1.00  0.00     0.023 A 
ATOM     78  C   UNL     1      -8.618   3.129  -9.683  1.00  0.00     0.012 A 
ATOM     79  C   UNL     1      -7.271   1.968  -8.038  1.00  0.00     0.148 A 
ATOM     80  C   UNL     1      -9.170   1.910 -10.092  1.00  0.00     0.002 A 
ATOM     81  C   UNL     1      -7.823   0.759  -8.447  1.00  0.00     0.091 A 
ATOM     82  F   UNL     1      -6.307   1.997  -7.107  1.00  0.00    -0.205 F 
ATOM     83  C   UNL     1      -8.764   0.725  -9.484  1.00  0.00     0.022 A 
BRANCH  81  84
ATOM     84  S   UNL     1      -7.317  -0.813  -7.736  1.00  0.00     0.127 S 
ATOM     85  O   UNL     1      -8.606  -1.446  -7.456  1.00  0.00    -0.237 OA
ATOM     86  O   UNL     1      -6.565  -1.411  -8.835  1.00  0.00    -0.237 OA
ATOM     87  O   UNL     1      -6.541  -0.479  -6.548  1.00  0.00    -0.744 OA
ENDBRANCH  81  84
ENDBRANCH  53  77
BRANCH  65  88
ATOM     88  C   UNL     1      -6.362   9.243  -8.965  1.00  0.00     0.023 A 
ATOM     89  C   UNL     1      -6.816   8.819  -7.698  1.00  0.00     0.012 A 
ATOM     90  C   UNL     1      -6.740  10.515  -9.425  1.00  0.00     0.148 A 
ATOM     91  C   UNL     1      -7.655   9.627  -6.925  1.00  0.00     0.002 A 
ATOM     92  C   UNL     1      -7.536  11.336  -8.634  1.00  0.00     0.091 A 
ATOM     93  F   UNL     1      -6.297  10.914 -10.627  1.00  0.00    -0.205 F 
ATOM     94  C   UNL     1      -8.005  10.891  -7.388  1.00  0.00     0.022 A 
BRANCH  92  95
ATOM     95  S   UNL     1      -7.915  13.021  -9.120  1.00  0.00     0.127 S 
ATOM     96  O   UNL     1      -9.291  12.900  -9.597  1.00  0.00    -0.237 OA
ATOM     97  O   UNL     1      -7.765  13.755  -7.863  1.00  0.00    -0.237 OA
ATOM     98  O   UNL     1      -6.926  13.374 -10.132  1.00  0.00    -0.744 OA
ENDBRANCH  92  95
ENDBRANCH  65  88
ENDBRANCH  39  40
ENDBRANCH  31  34
ENDBRANCH  29  30
ENDBRANCH   1  29
TORSDOF 15
