REMARK SMILES CCOc1ccc(-c2nn(-c3ccccc3)cc2/C=C2/SC(=S)N(CC(=O)NCCCNC(=O)c3ccc(-c4c5nc(c(-c6cccc(S(=O)(=O)[O-])c6F)c6ccc([nH]6)c(-c6cccc(S(=O)(=O)[O-])c6F)c6nc(c(-c7cccc(S(=O)(=O)[O-])c7F)c7ccc4[nH]7)C=C6)C=C5)cc3)C2=O)cc1F
REMARK SMILES IDX 29 1 28 2 26 3 27 4 25 6 24 7 19 8 20 9 21 10 98 11 22 12
REMARK SMILES IDX 99 13 23 14 18 15 8 16 9 17 10 18 17 19 7 20 4 21 5 22
REMARK SMILES IDX 101 23 6 24 100 25 102 26 3 27 2 28 1 29 11 30 12 31 16 32
REMARK SMILES IDX 13 33 15 34 14 35 30 36 31 37 32 38 33 39 34 41 35 42 36 43
REMARK SMILES IDX 97 44 37 45 96 46 38 47 39 48 40 49 90 50 41 51 95 52 89 53
REMARK SMILES IDX 91 54 42 55 94 56 88 57 87 58 43 60 75 61 55 62 74 63 56 64
REMARK SMILES IDX 59 65 73 66 92 67 57 68 58 69 72 71 93 72 60 73 44 74 45 75
REMARK SMILES IDX 53 76 46 77 48 78 54 79 47 80 49 81 50 82 51 83 52 84 76 85
REMARK SMILES IDX 77 86 85 87 78 88 80 89 86 90 79 91 81 92 82 93 83 94 84 95
REMARK SMILES IDX 61 96 62 97 70 98 63 99 65 100 71 101 64 102 66 103 67 104
REMARK SMILES IDX 68 105 69 106
REMARK H PARENT 28 5 32 40 91 59 59 70
REMARK Flexibility Score: inf
ROOT
ATOM      1  C   UNL     1      10.571   8.053   4.046  1.00  0.00     0.117 C 
ENDROOT
BRANCH   1   2
ATOM      2  N   UNL     1      10.641   8.130   2.601  1.00  0.00    -0.354 N 
ATOM      3  C   UNL     1       9.696   8.591   1.726  1.00  0.00     0.240 C 
ATOM      4  O   UNL     1      10.094   9.062   0.659  1.00  0.00    -0.273 OA
ATOM      5  H   UNL     1      11.478   7.809   2.195  1.00  0.00     0.163 HD
BRANCH   3   6
ATOM      6  C   UNL     1       8.220   8.704   2.130  1.00  0.00     0.227 C 
BRANCH   6   7
ATOM      7  N   UNL     1       7.698   7.479   2.739  1.00  0.00    -0.283 N 
ATOM      8  C   UNL     1       7.093   3.922   2.223  1.00  0.00     0.033 C 
ATOM      9  C   UNL     1       7.163   5.179   2.687  1.00  0.00     0.081 C 
ATOM     10  S   UNL     1       6.714   5.660   4.277  1.00  0.00    -0.054 SA
ATOM     11  C   UNL     1       7.609   6.372   1.909  1.00  0.00     0.266 C 
ATOM     12  C   UNL     1       7.132   7.350   3.983  1.00  0.00     0.148 C 
ATOM     13  O   UNL     1       7.807   6.394   0.714  1.00  0.00    -0.268 OA
ATOM     14  S   UNL     1       6.817   8.540   5.110  1.00  0.00    -0.052 S 
BRANCH   8  15
ATOM     15  C   UNL     1       7.411   3.550   0.888  1.00  0.00     0.022 A 
ATOM     16  C   UNL     1       6.535   3.278  -0.190  1.00  0.00     0.100 A 
ATOM     17  N   UNL     1       7.213   3.174  -1.337  1.00  0.00    -0.167 NA
ATOM     18  N   UNL     1       8.520   3.209  -0.983  1.00  0.00    -0.240 N 
ATOM     19  C   UNL     1       8.677   3.394   0.375  1.00  0.00     0.123 A 
BRANCH  16  20
ATOM     20  C   UNL     1       5.099   3.055  -0.188  1.00  0.00     0.006 A 
ATOM     21  C   UNL     1       2.365   2.477  -0.177  1.00  0.00     0.154 A 
ATOM     22  C   UNL     1       2.820   3.691   0.341  1.00  0.00     0.050 A 
ATOM     23  C   UNL     1       3.270   1.588  -0.754  1.00  0.00     0.165 A 
ATOM     24  C   UNL     1       4.191   3.981   0.340  1.00  0.00     0.014 A 
ATOM     25  C   UNL     1       4.627   1.859  -0.745  1.00  0.00     0.053 A 
ATOM     26  F   UNL     1       2.846   0.461  -1.341  1.00  0.00    -0.203 F 
BRANCH  21  27
ATOM     27  O   UNL     1       1.018   2.234  -0.200  1.00  0.00    -0.491 OA
BRANCH  27  28
ATOM     28  C   UNL     1       0.617   1.295   0.807  1.00  0.00     0.226 C 
ATOM     29  C   UNL     1       0.683  -0.146   0.327  1.00  0.00     0.049 C 
ENDBRANCH  27  28
ENDBRANCH  21  27
ENDBRANCH  16  20
BRANCH  18  30
ATOM     30  C   UNL     1       9.522   3.005  -1.952  1.00  0.00     0.065 A 
ATOM     31  C   UNL     1       9.314   3.487  -3.251  1.00  0.00     0.028 A 
ATOM     32  C   UNL     1      10.689   2.302  -1.631  1.00  0.00     0.028 A 
ATOM     33  C   UNL     1      10.285   3.277  -4.225  1.00  0.00     0.002 A 
ATOM     34  C   UNL     1      11.631   2.051  -2.630  1.00  0.00     0.002 A 
ATOM     35  C   UNL     1      11.431   2.545  -3.920  1.00  0.00     0.000 A 
ENDBRANCH  18  30
ENDBRANCH   8  15
ENDBRANCH   6   7
ENDBRANCH   3   6
ENDBRANCH   1   2
BRANCH   1  36
ATOM     36  C   UNL     1      10.543   6.624   4.588  1.00  0.00     0.042 C 
BRANCH  36  37
ATOM     37  C   UNL     1      11.919   5.983   4.592  1.00  0.00     0.118 C 
BRANCH  37  38
ATOM     38  N   UNL     1      12.837   6.599   5.558  1.00  0.00    -0.352 N 
ATOM     39  C   UNL     1      14.151   6.258   5.831  1.00  0.00     0.251 C 
ATOM     40  H   UNL     1      12.472   7.351   6.079  1.00  0.00     0.163 HD
ATOM     41  O   UNL     1      14.694   6.631   6.864  1.00  0.00    -0.269 OA
BRANCH  39  42
ATOM     42  C   UNL     1      14.882   5.440   4.848  1.00  0.00     0.039 A 
ATOM     43  C   UNL     1      15.757   4.417   5.228  1.00  0.00     0.014 A 
ATOM     44  C   UNL     1      14.627   5.694   3.507  1.00  0.00     0.014 A 
ATOM     45  C   UNL     1      16.303   3.605   4.235  1.00  0.00     0.010 A 
ATOM     46  C   UNL     1      14.972   4.767   2.569  1.00  0.00     0.010 A 
ATOM     47  C   UNL     1      15.887   3.781   2.907  1.00  0.00    -0.014 A 
BRANCH  47  48
ATOM     48  C   UNL     1      16.312   2.897   1.834  1.00  0.00     0.031 A 
ATOM     49  C   UNL     1      15.955   1.470   2.045  1.00  0.00     0.074 A 
ATOM     50  C   UNL     1      16.741   3.379   0.646  1.00  0.00     0.049 A 
ATOM     51  N   UNL     1      16.758   0.491   2.296  1.00  0.00    -0.248 NA
ATOM     52  C   UNL     1      14.532   1.116   2.168  1.00  0.00     0.031 C 
ATOM     53  C   UNL     1      16.808   4.780   0.202  1.00  0.00     0.029 A 
ATOM     54  N   UNL     1      17.059   2.703  -0.487  1.00  0.00    -0.354 N 
ATOM     55  C   UNL     1      15.956  -0.648   2.345  1.00  0.00     0.074 A 
ATOM     56  C   UNL     1      14.610  -0.172   2.510  1.00  0.00     0.031 C 
ATOM     57  C   UNL     1      16.882   4.824  -1.145  1.00  0.00     0.029 A 
ATOM     58  C   UNL     1      17.038   3.475  -1.649  1.00  0.00     0.049 A 
ATOM     59  H   UNL     1      17.286   1.745  -0.488  1.00  0.00     0.167 HD
ATOM     60  C   UNL     1      16.443  -1.863   1.963  1.00  0.00     0.034 A 
ATOM     61  C   UNL     1      17.100   3.015  -2.925  1.00  0.00     0.034 A 
ATOM     62  C   UNL     1      17.881  -1.818   1.831  1.00  0.00     0.049 A 
ATOM     63  C   UNL     1      17.677   1.650  -2.836  1.00  0.00     0.074 A 
ATOM     64  C   UNL     1      18.933  -1.508   2.669  1.00  0.00     0.029 A 
ATOM     65  N   UNL     1      18.378  -1.730   0.551  1.00  0.00    -0.354 N 
ATOM     66  N   UNL     1      18.899   1.407  -2.451  1.00  0.00    -0.248 NA
ATOM     67  C   UNL     1      16.754   0.529  -2.743  1.00  0.00     0.031 C 
ATOM     68  C   UNL     1      19.847  -0.782   1.850  1.00  0.00     0.029 A 
ATOM     69  C   UNL     1      19.343  -0.762   0.547  1.00  0.00     0.049 A 
ATOM     70  H   UNL     1      18.091  -2.268  -0.222  1.00  0.00     0.167 HD
ATOM     71  C   UNL     1      18.787   0.281  -1.647  1.00  0.00     0.074 A 
ATOM     72  C   UNL     1      17.468  -0.276  -1.952  1.00  0.00     0.031 C 
ATOM     73  C   UNL     1      19.633   0.078  -0.594  1.00  0.00     0.034 A 
BRANCH  60  74
ATOM     74  C   UNL     1      15.648  -2.980   1.311  1.00  0.00     0.023 A 
ATOM     75  C   UNL     1      16.356  -4.171   1.016  1.00  0.00     0.012 A 
ATOM     76  C   UNL     1      14.371  -2.844   0.722  1.00  0.00     0.148 A 
ATOM     77  C   UNL     1      15.868  -5.119   0.111  1.00  0.00     0.002 A 
ATOM     78  C   UNL     1      13.857  -3.824  -0.121  1.00  0.00     0.091 A 
ATOM     79  F   UNL     1      13.678  -1.714   0.862  1.00  0.00    -0.205 F 
ATOM     80  C   UNL     1      14.617  -4.945  -0.461  1.00  0.00     0.022 A 
BRANCH  78  81
ATOM     81  S   UNL     1      12.224  -3.668  -0.858  1.00  0.00     0.127 S 
ATOM     82  O   UNL     1      12.560  -3.391  -2.251  1.00  0.00    -0.237 OA
ATOM     83  O   UNL     1      11.657  -4.992  -0.604  1.00  0.00    -0.237 OA
ATOM     84  O   UNL     1      11.567  -2.587  -0.134  1.00  0.00    -0.744 OA
ENDBRANCH  78  81
ENDBRANCH  60  74
BRANCH  61  85
ATOM     85  C   UNL     1      16.540   3.542  -4.198  1.00  0.00     0.023 A 
ATOM     86  C   UNL     1      16.941   2.946  -5.414  1.00  0.00     0.012 A 
ATOM     87  C   UNL     1      15.430   4.414  -4.235  1.00  0.00     0.148 A 
ATOM     88  C   UNL     1      16.221   3.145  -6.599  1.00  0.00     0.002 A 
ATOM     89  C   UNL     1      14.726   4.624  -5.421  1.00  0.00     0.091 A 
ATOM     90  F   UNL     1      15.029   5.008  -3.104  1.00  0.00    -0.205 F 
ATOM     91  C   UNL     1      15.100   3.966  -6.599  1.00  0.00     0.022 A 
BRANCH  89  92
ATOM     92  S   UNL     1      13.266   5.677  -5.477  1.00  0.00     0.127 S 
ATOM     93  O   UNL     1      13.826   6.929  -5.981  1.00  0.00    -0.237 OA
ATOM     94  O   UNL     1      12.400   4.970  -6.422  1.00  0.00    -0.237 OA
ATOM     95  O   UNL     1      12.770   5.715  -4.109  1.00  0.00    -0.744 OA
ENDBRANCH  89  92
ENDBRANCH  61  85
BRANCH  73  96
ATOM     96  C   UNL     1      20.844   0.968  -0.455  1.00  0.00     0.023 A 
ATOM     97  C   UNL     1      20.745   2.352  -0.200  1.00  0.00     0.012 A 
ATOM     98  C   UNL     1      22.098   0.345  -0.344  1.00  0.00     0.148 A 
ATOM     99  C   UNL     1      21.874   3.096   0.157  1.00  0.00     0.002 A 
ATOM    100  C   UNL     1      23.205   1.075   0.066  1.00  0.00     0.091 A 
ATOM    101  F   UNL     1      22.173  -0.971  -0.593  1.00  0.00    -0.205 F 
ATOM    102  C   UNL     1      23.101   2.453   0.310  1.00  0.00     0.022 A 
BRANCH 100 103
ATOM    103  S   UNL     1      24.768   0.274   0.431  1.00  0.00     0.127 S 
ATOM    104  O   UNL     1      25.594   0.686  -0.702  1.00  0.00    -0.237 OA
ATOM    105  O   UNL     1      25.139   0.877   1.712  1.00  0.00    -0.237 OA
ATOM    106  O   UNL     1      24.479  -1.153   0.509  1.00  0.00    -0.744 OA
ENDBRANCH 100 103
ENDBRANCH  73  96
ENDBRANCH  47  48
ENDBRANCH  39  42
ENDBRANCH  37  38
ENDBRANCH  36  37
ENDBRANCH   1  36
TORSDOF 19
