REMARK SMILES CS(=O)(=O)c1ccc(/C=C(/C(=O)NCCCNC(=O)c2ccc(-c3c4nc(c(-c5cccc(S(=O)(=O)[O-])c5F)c5ccc([nH]5)c(-c5cccc(S(=O)(=O)[O-])c5F)c5nc(c(-c6cccc(S(=O)(=O)[O-])c6F)c6ccc3[nH]6)C=C5)C=C4)cc2)c2cccc(Br)c2)cc1
REMARK SMILES IDX 15 1 14 2 13 3 11 4 12 5 10 7 9 8 8 9 5 10 6 11 91 12 7 13
REMARK SMILES IDX 90 14 2 15 1 16 3 17 4 18 83 19 84 20 89 21 85 22 87 23
REMARK SMILES IDX 86 24 88 25 16 26 17 27 18 28 19 30 20 31 21 32 82 33 22 34
REMARK SMILES IDX 81 35 23 36 24 37 25 38 75 39 26 40 80 41 74 42 76 43 27 44
REMARK SMILES IDX 79 45 73 46 72 47 28 49 60 50 40 51 59 52 41 53 44 54 58 55
REMARK SMILES IDX 77 56 42 57 43 58 57 60 78 61 45 62 29 63 30 64 38 65 31 66
REMARK SMILES IDX 33 67 39 68 32 69 34 70 35 71 36 72 37 73 61 74 62 75 70 76
REMARK SMILES IDX 63 77 65 78 71 79 64 80 66 81 67 82 68 83 69 84 46 85 47 86
REMARK SMILES IDX 55 87 48 88 50 89 56 90 49 91 51 92 52 93 53 94 54 95
REMARK H PARENT 13 6 17 29 76 48 44 59
REMARK Flexibility Score: inf
ROOT
ATOM      1  C   UNL     1       1.193   8.507   5.509  1.00  0.00     0.042 C 
ENDROOT
BRANCH   1   2
ATOM      2  C   UNL     1       2.449   7.637   5.599  1.00  0.00     0.118 C 
BRANCH   2   3
ATOM      3  N   UNL     1       2.411   6.775   6.767  1.00  0.00    -0.352 N 
ATOM      4  C   UNL     1       2.165   5.453   6.962  1.00  0.00     0.251 C 
ATOM      5  O   UNL     1       2.255   5.054   8.126  1.00  0.00    -0.269 OA
ATOM      6  H   UNL     1       2.607   7.256   7.604  1.00  0.00     0.163 HD
BRANCH   4   7
ATOM      7  C   UNL     1       1.887   4.475   5.842  1.00  0.00     0.047 C 
ATOM      8  C   UNL     1       1.190   4.832   4.740  1.00  0.00     0.022 C 
BRANCH   8   9
ATOM      9  C   UNL     1       0.893   4.046   3.522  1.00  0.00    -0.025 A 
ATOM     10  C   UNL     1       0.456   2.655   1.121  1.00  0.00     0.067 A 
ATOM     11  C   UNL     1       0.202   2.030   2.342  1.00  0.00     0.021 A 
ATOM     12  C   UNL     1       0.881   3.983   1.084  1.00  0.00     0.021 A 
ATOM     13  C   UNL     1       0.405   2.734   3.535  1.00  0.00     0.009 A 
ATOM     14  C   UNL     1       1.095   4.672   2.281  1.00  0.00     0.009 A 
BRANCH  10  15
ATOM     15  S   UNL     1       0.254   1.766  -0.404  1.00  0.00     0.175 S 
ATOM     16  C   UNL     1       1.045   0.201  -0.144  1.00  0.00     0.163 C 
ATOM     17  O   UNL     1       1.026   2.455  -1.418  1.00  0.00    -0.224 OA
ATOM     18  O   UNL     1      -1.168   1.526  -0.573  1.00  0.00    -0.224 OA
ENDBRANCH  10  15
ENDBRANCH   8   9
BRANCH   7  19
ATOM     19  C   UNL     1       2.253   3.055   6.083  1.00  0.00    -0.012 A 
ATOM     20  C   UNL     1       1.572   2.343   7.087  1.00  0.00     0.009 A 
ATOM     21  C   UNL     1       3.194   2.382   5.294  1.00  0.00     0.024 A 
ATOM     22  C   UNL     1       1.807   0.983   7.288  1.00  0.00     0.002 A 
ATOM     23  C   UNL     1       3.409   1.016   5.488  1.00  0.00     0.018 A 
ATOM     24  C   UNL     1       2.720   0.314   6.478  1.00  0.00     0.016 A 
ATOM     25  Br  UNL     1       4.615   0.089   4.364  1.00  0.00    -0.051 Br
ENDBRANCH   7  19
ENDBRANCH   4   7
ENDBRANCH   2   3
ENDBRANCH   1   2
BRANCH   1  26
ATOM     26  C   UNL     1       1.080   9.555   6.619  1.00  0.00     0.118 C 
BRANCH  26  27
ATOM     27  N   UNL     1       2.104  10.585   6.514  1.00  0.00    -0.352 N 
ATOM     28  C   UNL     1       1.978  11.949   6.411  1.00  0.00     0.251 C 
ATOM     29  H   UNL     1       3.031  10.252   6.517  1.00  0.00     0.163 HD
ATOM     30  O   UNL     1       2.967  12.621   6.126  1.00  0.00    -0.269 OA
BRANCH  28  31
ATOM     31  C   UNL     1       0.673  12.613   6.631  1.00  0.00     0.039 A 
ATOM     32  C   UNL     1       0.304  13.666   5.787  1.00  0.00     0.014 A 
ATOM     33  C   UNL     1      -0.160  12.246   7.692  1.00  0.00     0.014 A 
ATOM     34  C   UNL     1      -0.919  14.316   5.976  1.00  0.00     0.010 A 
ATOM     35  C   UNL     1      -1.405  12.855   7.842  1.00  0.00     0.010 A 
ATOM     36  C   UNL     1      -1.795  13.901   6.991  1.00  0.00    -0.014 A 
BRANCH  36  37
ATOM     37  C   UNL     1      -3.127  14.535   7.168  1.00  0.00     0.031 A 
ATOM     38  C   UNL     1      -3.451  15.297   8.424  1.00  0.00     0.074 A 
ATOM     39  C   UNL     1      -4.082  14.338   6.238  1.00  0.00     0.049 A 
ATOM     40  N   UNL     1      -4.577  15.862   8.777  1.00  0.00    -0.248 NA
ATOM     41  C   UNL     1      -2.381  15.414   9.426  1.00  0.00     0.031 C 
ATOM     42  C   UNL     1      -3.920  13.541   5.021  1.00  0.00     0.029 A 
ATOM     43  N   UNL     1      -5.387  14.760   6.190  1.00  0.00    -0.354 N 
ATOM     44  C   UNL     1      -4.366  16.365  10.055  1.00  0.00     0.074 A 
ATOM     45  C   UNL     1      -3.011  16.014  10.426  1.00  0.00     0.031 C 
ATOM     46  C   UNL     1      -5.083  13.525   4.350  1.00  0.00     0.029 A 
ATOM     47  C   UNL     1      -6.077  14.291   5.097  1.00  0.00     0.049 A 
ATOM     48  H   UNL     1      -5.790  15.344   6.873  1.00  0.00     0.167 HD
ATOM     49  C   UNL     1      -5.210  17.078  10.839  1.00  0.00     0.034 A 
ATOM     50  C   UNL     1      -7.365  14.452   4.737  1.00  0.00     0.034 A 
ATOM     51  C   UNL     1      -6.536  17.472  10.446  1.00  0.00     0.049 A 
ATOM     52  C   UNL     1      -8.263  15.307   5.588  1.00  0.00     0.074 A 
ATOM     53  C   UNL     1      -7.426  18.292  11.118  1.00  0.00     0.029 A 
ATOM     54  N   UNL     1      -7.167  17.071   9.278  1.00  0.00    -0.354 N 
ATOM     55  N   UNL     1      -7.988  15.928   6.708  1.00  0.00    -0.248 NA
ATOM     56  C   UNL     1      -9.636  15.517   5.105  1.00  0.00     0.031 C 
ATOM     57  C   UNL     1      -8.601  18.376  10.361  1.00  0.00     0.029 A 
ATOM     58  C   UNL     1      -8.438  17.618   9.213  1.00  0.00     0.049 A 
ATOM     59  H   UNL     1      -6.770  16.484   8.595  1.00  0.00     0.167 HD
ATOM     60  C   UNL     1      -9.141  16.624   7.053  1.00  0.00     0.074 A 
ATOM     61  C   UNL     1     -10.112  16.365   6.008  1.00  0.00     0.031 C 
ATOM     62  C   UNL     1      -9.379  17.393   8.144  1.00  0.00     0.034 A 
BRANCH  49  63
ATOM     63  C   UNL     1      -4.697  17.531  12.181  1.00  0.00     0.023 A 
ATOM     64  C   UNL     1      -3.734  18.559  12.242  1.00  0.00     0.012 A 
ATOM     65  C   UNL     1      -5.186  16.974  13.378  1.00  0.00     0.148 A 
ATOM     66  C   UNL     1      -3.236  18.997  13.468  1.00  0.00     0.002 A 
ATOM     67  C   UNL     1      -4.715  17.444  14.600  1.00  0.00     0.091 A 
ATOM     68  F   UNL     1      -6.083  15.979  13.305  1.00  0.00    -0.205 F 
ATOM     69  C   UNL     1      -3.733  18.447  14.646  1.00  0.00     0.022 A 
BRANCH  67  70
ATOM     70  S   UNL     1      -5.354  16.843  16.167  1.00  0.00     0.127 S 
ATOM     71  O   UNL     1      -4.318  15.892  16.565  1.00  0.00    -0.237 OA
ATOM     72  O   UNL     1      -5.404  18.062  16.976  1.00  0.00    -0.237 OA
ATOM     73  O   UNL     1      -6.659  16.271  15.865  1.00  0.00    -0.744 OA
ENDBRANCH  67  70
ENDBRANCH  49  63
BRANCH  50  74
ATOM     74  C   UNL     1      -7.847  13.848   3.464  1.00  0.00     0.023 A 
ATOM     75  C   UNL     1      -8.087  14.682   2.355  1.00  0.00     0.012 A 
ATOM     76  C   UNL     1      -7.994  12.455   3.324  1.00  0.00     0.148 A 
ATOM     77  C   UNL     1      -8.481  14.140   1.131  1.00  0.00     0.002 A 
ATOM     78  C   UNL     1      -8.335  11.917   2.088  1.00  0.00     0.091 A 
ATOM     79  F   UNL     1      -7.770  11.682   4.396  1.00  0.00    -0.205 F 
ATOM     80  C   UNL     1      -8.592  12.758   0.995  1.00  0.00     0.022 A 
BRANCH  78  81
ATOM     81  S   UNL     1      -8.365  10.147   1.782  1.00  0.00     0.127 S 
ATOM     82  O   UNL     1      -9.794   9.898   1.611  1.00  0.00    -0.237 OA
ATOM     83  O   UNL     1      -7.569  10.040   0.559  1.00  0.00    -0.237 OA
ATOM     84  O   UNL     1      -7.752   9.535   2.953  1.00  0.00    -0.744 OA
ENDBRANCH  78  81
ENDBRANCH  50  74
BRANCH  62  85
ATOM     85  C   UNL     1     -10.739  18.027   8.268  1.00  0.00     0.023 A 
ATOM     86  C   UNL     1     -11.846  17.232   8.624  1.00  0.00     0.012 A 
ATOM     87  C   UNL     1     -10.908  19.417   8.111  1.00  0.00     0.148 A 
ATOM     88  C   UNL     1     -13.105  17.806   8.797  1.00  0.00     0.002 A 
ATOM     89  C   UNL     1     -12.157  19.989   8.327  1.00  0.00     0.091 A 
ATOM     90  F   UNL     1      -9.847  20.154   7.750  1.00  0.00    -0.205 F 
ATOM     91  C   UNL     1     -13.258  19.184   8.661  1.00  0.00     0.022 A 
BRANCH  89  92
ATOM     92  S   UNL     1     -12.421  21.765   8.261  1.00  0.00     0.127 S 
ATOM     93  O   UNL     1     -13.076  21.921   6.964  1.00  0.00    -0.237 OA
ATOM     94  O   UNL     1     -13.291  21.996   9.415  1.00  0.00    -0.237 OA
ATOM     95  O   UNL     1     -11.100  22.367   8.376  1.00  0.00    -0.744 OA
ENDBRANCH  89  92
ENDBRANCH  62  85
ENDBRANCH  36  37
ENDBRANCH  28  31
ENDBRANCH  26  27
ENDBRANCH   1  26
TORSDOF 16
