REMARK SMILES CC[C@](C)(NS(=O)(=O)c1cc(C)c(Br)s1)C(=O)NCCCNC(=O)c1ccc(-c2c3nc(c(-c4cccc(S(=O)(=O)[O-])c4F)c4ccc([nH]4)c(-c4cccc(S(=O)(=O)[O-])c4F)c4nc(c(-c5cccc(S(=O)(=O)[O-])c5F)c5ccc2[nH]5)C=C4)C=C3)cc1
REMARK SMILES IDX 20 1 19 2 18 3 16 4 17 5 3 7 4 8 2 9 1 10 5 11 6 13 7 14
REMARK SMILES IDX 8 15 9 16 10 17 15 18 11 19 13 20 12 21 14 22 21 23 22 24
REMARK SMILES IDX 23 25 24 27 25 28 26 29 87 30 27 31 86 32 28 33 29 34 30 35
REMARK SMILES IDX 80 36 31 37 85 38 79 39 81 40 32 41 84 42 78 43 77 44 33 46
REMARK SMILES IDX 65 47 45 48 64 49 46 50 49 51 63 52 82 53 47 54 48 55 62 57
REMARK SMILES IDX 83 58 50 59 34 60 35 61 43 62 36 63 38 64 44 65 37 66 39 67
REMARK SMILES IDX 40 68 41 69 42 70 66 71 67 72 75 73 68 74 70 75 76 76 69 77
REMARK SMILES IDX 71 78 72 79 73 80 74 81 51 82 52 83 60 84 53 85 55 86 61 87
REMARK SMILES IDX 54 88 56 89 57 90 58 91 59 92
REMARK H PARENT 18 6 5 12 22 26 81 45 49 56
REMARK Flexibility Score: inf
ROOT
ATOM      1  C   UNL     1       1.916   5.050   4.650  1.00  0.00     0.042 C 
ENDROOT
BRANCH   1   2
ATOM      2  C   UNL     1       1.865   4.608   3.157  1.00  0.00     0.117 C 
BRANCH   2   3
ATOM      3  N   UNL     1       2.528   3.433   2.578  1.00  0.00    -0.354 N 
ATOM      4  C   UNL     1       2.215   2.222   2.017  1.00  0.00     0.241 C 
ATOM      5  O   UNL     1       3.127   1.755   1.318  1.00  0.00    -0.273 OA
ATOM      6  H   UNL     1       3.505   3.552   2.599  1.00  0.00     0.163 HD
BRANCH   4   7
ATOM      7  C   UNL     1       0.905   1.409   2.180  1.00  0.00     0.108 C 
ATOM      8  C   UNL     1       0.977   0.087   1.341  1.00  0.00     0.040 C 
BRANCH   7   9
ATOM      9  C   UNL     1      -0.302   2.236   1.665  1.00  0.00     0.030 C 
ATOM     10  C   UNL     1      -0.513   2.228   0.150  1.00  0.00     0.006 C 
ENDBRANCH   7   9
BRANCH   7  11
ATOM     11  N   UNL     1       0.598   0.911   3.534  1.00  0.00    -0.195 NA
ATOM     12  H   UNL     1       0.415  -0.083   3.399  1.00  0.00     0.142 HD
BRANCH  11  13
ATOM     13  S   UNL     1       1.511   0.973   4.920  1.00  0.00     0.251 S 
ATOM     14  O   UNL     1       1.277   2.285   5.468  1.00  0.00    -0.206 OA
ATOM     15  O   UNL     1       1.101  -0.191   5.686  1.00  0.00    -0.206 OA
BRANCH  13  16
ATOM     16  C   UNL     1       3.264   0.895   4.699  1.00  0.00     0.136 A 
ATOM     17  C   UNL     1       4.182   1.873   4.379  1.00  0.00     0.038 A 
ATOM     18  S   UNL     1       4.089  -0.548   5.062  1.00  0.00    -0.115 S 
ATOM     19  C   UNL     1       5.521   1.439   4.230  1.00  0.00    -0.025 A 
ATOM     20  C   UNL     1       5.606   0.171   4.757  1.00  0.00     0.074 A 
ATOM     21  C   UNL     1       6.579   2.340   3.686  1.00  0.00     0.046 C 
ATOM     22  Br  UNL     1       7.191  -0.703   5.220  1.00  0.00    -0.039 Br
ENDBRANCH  13  16
ENDBRANCH  11  13
ENDBRANCH   7  11
ENDBRANCH   4   7
ENDBRANCH   2   3
ENDBRANCH   1   2
BRANCH   1  23
ATOM     23  C   UNL     1       3.156   5.086   5.558  1.00  0.00     0.118 C 
BRANCH  23  24
ATOM     24  N   UNL     1       4.214   6.016   5.174  1.00  0.00    -0.352 N 
ATOM     25  C   UNL     1       5.362   6.397   5.861  1.00  0.00     0.251 C 
ATOM     26  H   UNL     1       4.096   6.439   4.293  1.00  0.00     0.163 HD
ATOM     27  O   UNL     1       5.698   7.581   5.772  1.00  0.00    -0.269 OA
BRANCH  25  28
ATOM     28  C   UNL     1       6.298   5.442   6.526  1.00  0.00     0.039 A 
ATOM     29  C   UNL     1       7.583   5.882   6.919  1.00  0.00     0.014 A 
ATOM     30  C   UNL     1       6.041   4.088   6.574  1.00  0.00     0.014 A 
ATOM     31  C   UNL     1       8.624   4.967   7.147  1.00  0.00     0.010 A 
ATOM     32  C   UNL     1       7.073   3.193   6.739  1.00  0.00     0.010 A 
ATOM     33  C   UNL     1       8.379   3.615   6.946  1.00  0.00    -0.014 A 
BRANCH  33  34
ATOM     34  C   UNL     1       9.362   2.547   7.119  1.00  0.00     0.031 A 
ATOM     35  C   UNL     1       9.287   1.948   8.483  1.00  0.00     0.074 A 
ATOM     36  C   UNL     1      10.014   1.952   6.093  1.00  0.00     0.049 A 
ATOM     37  N   UNL     1      10.075   2.207   9.478  1.00  0.00    -0.248 NA
ATOM     38  C   UNL     1       8.075   1.204   8.880  1.00  0.00     0.031 C 
ATOM     39  C   UNL     1       9.937   2.241   4.660  1.00  0.00     0.029 A 
ATOM     40  N   UNL     1      10.786   0.827   6.114  1.00  0.00    -0.354 N 
ATOM     41  C   UNL     1       9.574   1.442  10.528  1.00  0.00     0.074 A 
ATOM     42  C   UNL     1       8.202   1.192  10.207  1.00  0.00     0.031 C 
ATOM     43  C   UNL     1      10.397   1.179   3.955  1.00  0.00     0.029 A 
ATOM     44  C   UNL     1      10.934   0.192   4.876  1.00  0.00     0.049 A 
ATOM     45  H   UNL     1      11.207   0.488   6.936  1.00  0.00     0.167 HD
ATOM     46  C   UNL     1      10.394   0.753  11.370  1.00  0.00     0.034 A 
ATOM     47  C   UNL     1      11.408  -1.067   4.652  1.00  0.00     0.034 A 
ATOM     48  C   UNL     1      11.771   1.127  11.149  1.00  0.00     0.049 A 
ATOM     49  C   UNL     1      12.164  -1.451   5.874  1.00  0.00     0.074 A 
ATOM     50  C   UNL     1      12.469   2.317  11.165  1.00  0.00     0.029 A 
ATOM     51  N   UNL     1      12.531   0.242  10.417  1.00  0.00    -0.354 N 
ATOM     52  N   UNL     1      13.273  -0.866   6.232  1.00  0.00    -0.248 NA
ATOM     53  C   UNL     1      11.444  -2.130   6.944  1.00  0.00     0.031 C 
ATOM     54  C   UNL     1      13.360   2.229  10.057  1.00  0.00     0.029 A 
ATOM     55  C   UNL     1      13.236   0.959   9.489  1.00  0.00     0.049 A 
ATOM     56  H   UNL     1      12.561  -0.735  10.540  1.00  0.00     0.167 HD
ATOM     57  C   UNL     1      13.128  -0.672   7.600  1.00  0.00     0.074 A 
ATOM     58  C   UNL     1      12.046  -1.573   8.002  1.00  0.00     0.031 C 
ATOM     59  C   UNL     1      13.662   0.427   8.212  1.00  0.00     0.034 A 
BRANCH  46  60
ATOM     60  C   UNL     1      10.050  -0.534  12.097  1.00  0.00     0.023 A 
ATOM     61  C   UNL     1      11.000  -0.993  13.037  1.00  0.00     0.012 A 
ATOM     62  C   UNL     1       9.013  -1.435  11.756  1.00  0.00     0.148 A 
ATOM     63  C   UNL     1      10.963  -2.294  13.550  1.00  0.00     0.002 A 
ATOM     64  C   UNL     1       8.935  -2.701  12.327  1.00  0.00     0.091 A 
ATOM     65  F   UNL     1       8.155  -1.149  10.778  1.00  0.00    -0.205 F 
ATOM     66  C   UNL     1       9.928  -3.148  13.198  1.00  0.00     0.022 A 
BRANCH  64  67
ATOM     67  S   UNL     1       7.593  -3.833  11.933  1.00  0.00     0.127 S 
ATOM     68  O   UNL     1       8.277  -4.819  11.103  1.00  0.00    -0.237 OA
ATOM     69  O   UNL     1       7.200  -4.303  13.261  1.00  0.00    -0.237 OA
ATOM     70  O   UNL     1       6.580  -3.027  11.262  1.00  0.00    -0.744 OA
ENDBRANCH  64  67
ENDBRANCH  46  60
BRANCH  47  71
ATOM     71  C   UNL     1      11.101  -2.069   3.585  1.00  0.00     0.023 A 
ATOM     72  C   UNL     1      11.920  -3.208   3.414  1.00  0.00     0.012 A 
ATOM     73  C   UNL     1       9.854  -2.072   2.925  1.00  0.00     0.148 A 
ATOM     74  C   UNL     1      11.484  -4.320   2.672  1.00  0.00     0.002 A 
ATOM     75  C   UNL     1       9.399  -3.197   2.239  1.00  0.00     0.091 A 
ATOM     76  F   UNL     1       9.089  -0.981   2.999  1.00  0.00    -0.205 F 
ATOM     77  C   UNL     1      10.211  -4.327   2.111  1.00  0.00     0.022 A 
BRANCH  75  78
ATOM     78  S   UNL     1       7.729  -3.293   1.570  1.00  0.00     0.127 S 
ATOM     79  O   UNL     1       7.967  -3.826   0.228  1.00  0.00    -0.237 OA
ATOM     80  O   UNL     1       7.088  -4.225   2.494  1.00  0.00    -0.237 OA
ATOM     81  O   UNL     1       7.214  -1.930   1.591  1.00  0.00    -0.744 OA
ENDBRANCH  75  78
ENDBRANCH  47  71
BRANCH  59  82
ATOM     82  C   UNL     1      14.589   1.311   7.411  1.00  0.00     0.023 A 
ATOM     83  C   UNL     1      14.161   2.030   6.275  1.00  0.00     0.012 A 
ATOM     84  C   UNL     1      15.858   1.586   7.944  1.00  0.00     0.148 A 
ATOM     85  C   UNL     1      14.982   2.990   5.677  1.00  0.00     0.002 A 
ATOM     86  C   UNL     1      16.651   2.577   7.380  1.00  0.00     0.091 A 
ATOM     87  F   UNL     1      16.251   0.898   9.027  1.00  0.00    -0.205 F 
ATOM     88  C   UNL     1      16.222   3.276   6.240  1.00  0.00     0.022 A 
BRANCH  86  89
ATOM     89  S   UNL     1      18.189   3.086   8.146  1.00  0.00     0.127 S 
ATOM     90  O   UNL     1      19.184   2.483   7.261  1.00  0.00    -0.237 OA
ATOM     91  O   UNL     1      18.109   4.546   8.075  1.00  0.00    -0.237 OA
ATOM     92  O   UNL     1      18.155   2.556   9.504  1.00  0.00    -0.744 OA
ENDBRANCH  86  89
ENDBRANCH  59  82
ENDBRANCH  33  34
ENDBRANCH  25  28
ENDBRANCH  23  24
ENDBRANCH   1  23
TORSDOF 17
