REMARK SMILES CCS(=O)(=O)N1CCC[C@@H](C(=O)NCCCNC(=O)c2ccc(-c3c4nc(c(-c5cccc(S(=O)(=O)[O-])c5F)c5ccc([nH]5)c(-c5cccc(S(=O)(=O)[O-])c5F)c5nc(c(-c6cccc(S(=O)(=O)[O-])c6F)c6ccc3[nH]6)C=C5)C=C4)cc2)C1
REMARK SMILES IDX 15 1 14 2 13 3 11 4 12 5 10 7 6 8 7 9 83 10 8 11 9 12 3 13
REMARK SMILES IDX 4 14 5 15 2 16 1 17 16 18 17 19 18 20 19 22 20 23 21 24
REMARK SMILES IDX 82 25 22 26 81 27 23 28 24 29 25 30 75 31 26 32 80 33 74 34
REMARK SMILES IDX 76 35 27 36 79 37 73 38 72 39 28 41 60 42 40 43 59 44 41 45
REMARK SMILES IDX 44 46 58 47 77 48 42 49 43 50 57 52 78 53 45 54 29 55 30 56
REMARK SMILES IDX 38 57 31 58 33 59 39 60 32 61 34 62 35 63 36 64 37 65 61 66
REMARK SMILES IDX 62 67 70 68 63 69 65 70 71 71 64 72 66 73 67 74 68 75 69 76
REMARK SMILES IDX 46 77 47 78 55 79 48 80 50 81 56 82 49 83 51 84 52 85 53 86
REMARK SMILES IDX 54 87
REMARK H PARENT 13 6 17 21 76 40 44 51
REMARK Flexibility Score: inf
ROOT
ATOM      1  C   UNL     1       3.521   3.673  -6.803  1.00  0.00     0.042 C 
ENDROOT
BRANCH   1   2
ATOM      2  C   UNL     1       4.610   2.929  -6.044  1.00  0.00     0.117 C 
BRANCH   2   3
ATOM      3  N   UNL     1       5.288   3.773  -5.070  1.00  0.00    -0.356 N 
ATOM      4  C   UNL     1       5.459   3.637  -3.727  1.00  0.00     0.224 C 
ATOM      5  O   UNL     1       6.111   4.504  -3.140  1.00  0.00    -0.275 OA
ATOM      6  H   UNL     1       5.694   4.586  -5.450  1.00  0.00     0.163 HD
BRANCH   4   7
ATOM      7  C   UNL     1       4.896   2.450  -2.961  1.00  0.00     0.093 C 
ATOM      8  N   UNL     1       2.756   1.205  -2.492  1.00  0.00    -0.201 NA
ATOM      9  C   UNL     1       3.345  -0.017  -3.093  1.00  0.00     0.102 C 
ATOM     10  C   UNL     1       3.367   2.481  -2.973  1.00  0.00     0.115 C 
ATOM     11  C   UNL     1       4.840  -0.064  -2.809  1.00  0.00     0.018 C 
ATOM     12  C   UNL     1       5.546   1.139  -3.410  1.00  0.00     0.016 C 
BRANCH   8  13
ATOM     13  S   UNL     1       1.031   1.223  -2.493  1.00  0.00     0.213 S 
ATOM     14  O   UNL     1       0.559  -0.053  -2.980  1.00  0.00    -0.212 OA
ATOM     15  O   UNL     1       0.598   2.471  -3.085  1.00  0.00    -0.212 OA
BRANCH  13  16
ATOM     16  C   UNL     1       0.691   1.311  -0.742  1.00  0.00     0.151 C 
ATOM     17  C   UNL     1       1.170   0.091   0.017  1.00  0.00     0.022 C 
ENDBRANCH  13  16
ENDBRANCH   8  13
ENDBRANCH   4   7
ENDBRANCH   2   3
ENDBRANCH   1   2
BRANCH   1  18
ATOM     18  C   UNL     1       4.044   4.774  -7.714  1.00  0.00     0.118 C 
BRANCH  18  19
ATOM     19  N   UNL     1       4.913   4.267  -8.769  1.00  0.00    -0.352 N 
ATOM     20  C   UNL     1       4.783   4.348 -10.134  1.00  0.00     0.251 C 
ATOM     21  H   UNL     1       5.717   3.793  -8.455  1.00  0.00     0.163 HD
ATOM     22  O   UNL     1       5.533   3.693 -10.853  1.00  0.00    -0.269 OA
BRANCH  20  23
ATOM     23  C   UNL     1       3.738   5.205 -10.734  1.00  0.00     0.039 A 
ATOM     24  C   UNL     1       3.016   4.726 -11.830  1.00  0.00     0.014 A 
ATOM     25  C   UNL     1       3.471   6.477 -10.222  1.00  0.00     0.014 A 
ATOM     26  C   UNL     1       1.981   5.497 -12.367  1.00  0.00     0.010 A 
ATOM     27  C   UNL     1       2.380   7.199 -10.694  1.00  0.00     0.010 A 
ATOM     28  C   UNL     1       1.629   6.722 -11.778  1.00  0.00    -0.014 A 
BRANCH  28  29
ATOM     29  C   UNL     1       0.471   7.513 -12.271  1.00  0.00     0.031 A 
ATOM     30  C   UNL     1       0.671   8.909 -12.795  1.00  0.00     0.074 A 
ATOM     31  C   UNL     1      -0.773   7.007 -12.163  1.00  0.00     0.049 A 
ATOM     32  N   UNL     1      -0.223   9.767 -13.216  1.00  0.00    -0.248 NA
ATOM     33  C   UNL     1       2.051   9.421 -12.822  1.00  0.00     0.031 C 
ATOM     34  C   UNL     1      -1.108   5.699 -11.594  1.00  0.00     0.029 A 
ATOM     35  N   UNL     1      -1.991   7.543 -12.499  1.00  0.00    -0.354 N 
ATOM     36  C   UNL     1       0.478  10.928 -13.518  1.00  0.00     0.074 A 
ATOM     37  C   UNL     1       1.866  10.678 -13.197  1.00  0.00     0.031 C 
ATOM     38  C   UNL     1      -2.439   5.532 -11.628  1.00  0.00     0.029 A 
ATOM     39  C   UNL     1      -3.056   6.733 -12.182  1.00  0.00     0.049 A 
ATOM     40  H   UNL     1      -2.093   8.425 -12.925  1.00  0.00     0.167 HD
ATOM     41  C   UNL     1       0.015  12.090 -14.039  1.00  0.00     0.034 A 
ATOM     42  C   UNL     1      -4.382   6.936 -12.309  1.00  0.00     0.034 A 
ATOM     43  C   UNL     1      -1.362  12.324 -14.382  1.00  0.00     0.049 A 
ATOM     44  C   UNL     1      -4.871   8.221 -12.917  1.00  0.00     0.074 A 
ATOM     45  C   UNL     1      -1.917  13.429 -15.002  1.00  0.00     0.029 A 
ATOM     46  N   UNL     1      -2.404  11.449 -14.117  1.00  0.00    -0.354 N 
ATOM     47  N   UNL     1      -4.177   9.246 -13.347  1.00  0.00    -0.248 NA
ATOM     48  C   UNL     1      -6.323   8.363 -13.091  1.00  0.00     0.031 C 
ATOM     49  C   UNL     1      -3.301  13.241 -15.072  1.00  0.00     0.029 A 
ATOM     50  C   UNL     1      -3.603  11.997 -14.542  1.00  0.00     0.049 A 
ATOM     51  H   UNL     1      -2.306  10.568 -13.690  1.00  0.00     0.167 HD
ATOM     52  C   UNL     1      -5.102  10.140 -13.874  1.00  0.00     0.074 A 
ATOM     53  C   UNL     1      -6.406   9.525 -13.725  1.00  0.00     0.031 C 
ATOM     54  C   UNL     1      -4.891  11.361 -14.425  1.00  0.00     0.034 A 
BRANCH  41  55
ATOM     55  C   UNL     1       1.017  13.188 -14.295  1.00  0.00     0.023 A 
ATOM     56  C   UNL     1       1.988  13.031 -15.306  1.00  0.00     0.012 A 
ATOM     57  C   UNL     1       0.974  14.390 -13.562  1.00  0.00     0.148 A 
ATOM     58  C   UNL     1       2.931  14.030 -15.549  1.00  0.00     0.002 A 
ATOM     59  C   UNL     1       1.884  15.402 -13.845  1.00  0.00     0.091 A 
ATOM     60  F   UNL     1       0.058  14.517 -12.592  1.00  0.00    -0.205 F 
ATOM     61  C   UNL     1       2.872  15.218 -14.826  1.00  0.00     0.022 A 
BRANCH  59  62
ATOM     62  S   UNL     1       1.837  17.002 -13.030  1.00  0.00     0.127 S 
ATOM     63  O   UNL     1       3.031  16.939 -12.188  1.00  0.00    -0.237 OA
ATOM     64  O   UNL     1       1.937  17.926 -14.161  1.00  0.00    -0.237 OA
ATOM     65  O   UNL     1       0.569  17.052 -12.316  1.00  0.00    -0.744 OA
ENDBRANCH  59  62
ENDBRANCH  41  55
BRANCH  42  66
ATOM     66  C   UNL     1      -5.335   5.868 -11.895  1.00  0.00     0.023 A 
ATOM     67  C   UNL     1      -6.048   5.154 -12.877  1.00  0.00     0.012 A 
ATOM     68  C   UNL     1      -5.503   5.529 -10.539  1.00  0.00     0.148 A 
ATOM     69  C   UNL     1      -6.932   4.138 -12.514  1.00  0.00     0.002 A 
ATOM     70  C   UNL     1      -6.343   4.479 -10.188  1.00  0.00     0.091 A 
ATOM     71  F   UNL     1      -4.818   6.226  -9.621  1.00  0.00    -0.205 F 
ATOM     72  C   UNL     1      -7.072   3.793 -11.173  1.00  0.00     0.022 A 
BRANCH  70  73
ATOM     73  S   UNL     1      -6.489   3.878  -8.502  1.00  0.00     0.127 S 
ATOM     74  O   UNL     1      -7.881   4.194  -8.192  1.00  0.00    -0.237 OA
ATOM     75  O   UNL     1      -6.201   2.453  -8.668  1.00  0.00    -0.237 OA
ATOM     76  O   UNL     1      -5.492   4.611  -7.733  1.00  0.00    -0.744 OA
ENDBRANCH  70  73
ENDBRANCH  42  66
BRANCH  54  77
ATOM     77  C   UNL     1      -6.089  12.108 -14.953  1.00  0.00     0.023 A 
ATOM     78  C   UNL     1      -7.032  12.656 -14.061  1.00  0.00     0.012 A 
ATOM     79  C   UNL     1      -6.237  12.329 -16.337  1.00  0.00     0.148 A 
ATOM     80  C   UNL     1      -8.123  13.381 -14.541  1.00  0.00     0.002 A 
ATOM     81  C   UNL     1      -7.295  13.098 -16.804  1.00  0.00     0.091 A 
ATOM     82  F   UNL     1      -5.339  11.785 -17.171  1.00  0.00    -0.205 F 
ATOM     83  C   UNL     1      -8.247  13.613 -15.909  1.00  0.00     0.022 A 
BRANCH  81  84
ATOM     84  S   UNL     1      -7.481  13.533 -18.537  1.00  0.00     0.127 S 
ATOM     85  O   UNL     1      -8.658  12.753 -18.915  1.00  0.00    -0.237 OA
ATOM     86  O   UNL     1      -7.701  14.978 -18.470  1.00  0.00    -0.237 OA
ATOM     87  O   UNL     1      -6.238  13.140 -19.187  1.00  0.00    -0.744 OA
ENDBRANCH  81  84
ENDBRANCH  54  77
ENDBRANCH  28  29
ENDBRANCH  20  23
ENDBRANCH  18  19
ENDBRANCH   1  18
TORSDOF 15
