REMARK SMILES C[C@@H]([NH+]1CCC(CCC(=O)NCCCNC(=O)c2ccc(-c3c4nc(c(-c5cccc(S(=O)(=O)[O-])c5F)c5ccc([nH]5)c(-c5cccc(S(=O)(=O)[O-])c5F)c5nc(c(-c6cccc(S(=O)(=O)[O-])c6F)c6ccc3[nH]6)C=C5)C=C4)cc2)CC1)C1(C)CC1
REMARK SMILES IDX 12 1 11 2 9 3 10 4 8 6 7 7 6 8 3 9 4 10 82 11 5 13 81 14
REMARK SMILES IDX 2 15 1 16 83 17 84 18 85 19 86 20 13 21 14 22 15 23 16 24
REMARK SMILES IDX 17 26 18 27 19 28 80 29 20 30 79 31 21 32 22 33 23 34 73 35
REMARK SMILES IDX 24 36 78 37 72 38 74 39 25 40 77 41 71 42 70 43 26 45 58 46
REMARK SMILES IDX 38 47 57 48 39 49 42 50 56 51 75 52 40 53 41 54 55 56 76 57
REMARK SMILES IDX 43 58 27 59 28 60 36 61 29 62 31 63 37 64 30 65 32 66 33 67
REMARK SMILES IDX 34 68 35 69 59 70 60 71 68 72 61 73 63 74 69 75 62 76 64 77
REMARK SMILES IDX 65 78 66 79 67 80 44 81 45 82 53 83 46 84 48 85 54 86 47 87
REMARK SMILES IDX 49 88 50 89 51 90 52 91
REMARK H PARENT 11 5 3 12 15 25 74 44 42 55
REMARK Flexibility Score: inf
ROOT
ATOM      1  C   UNL     1      -2.007  -5.043  -1.921  1.00  0.00     0.117 C 
ENDROOT
BRANCH   1   2
ATOM      2  N   UNL     1      -1.927  -6.066  -2.951  1.00  0.00    -0.356 N 
ATOM      3  C   UNL     1      -0.848  -6.638  -3.558  1.00  0.00     0.220 C 
ATOM      4  O   UNL     1      -1.062  -7.441  -4.469  1.00  0.00    -0.275 OA
ATOM      5  H   UNL     1      -2.798  -6.403  -3.262  1.00  0.00     0.163 HD
BRANCH   3   6
ATOM      6  C   UNL     1       0.573  -6.349  -3.102  1.00  0.00     0.100 C 
BRANCH   6   7
ATOM      7  C   UNL     1       1.283  -5.213  -3.853  1.00  0.00     0.014 C 
BRANCH   7   8
ATOM      8  C   UNL     1       1.081  -3.819  -3.247  1.00  0.00     0.000 C 
ATOM      9  N   UNL     1       1.528  -1.202  -2.036  1.00  0.00    -0.332 N 
ATOM     10  C   UNL     1       1.123  -2.344  -1.233  1.00  0.00     0.262 C 
ATOM     11  C   UNL     1       1.372  -1.327  -3.492  1.00  0.00     0.262 C 
ATOM     12  H   UNL     1       2.540  -1.225  -1.913  1.00  0.00     0.348 HD
ATOM     13  C   UNL     1       1.604  -3.673  -1.817  1.00  0.00     0.065 C 
ATOM     14  C   UNL     1       1.735  -2.704  -4.071  1.00  0.00     0.065 C 
BRANCH   9  15
ATOM     15  C   UNL     1       1.088   0.107  -1.511  1.00  0.00     0.186 C 
ATOM     16  C   UNL     1       1.987   0.484  -0.319  1.00  0.00     0.076 C 
BRANCH  15  17
ATOM     17  C   UNL     1      -0.418   0.264  -1.177  1.00  0.00     0.019 C 
ATOM     18  C   UNL     1      -0.811   0.252   0.289  1.00  0.00     0.018 C 
ATOM     19  C   UNL     1      -1.158   1.280  -2.028  1.00  0.00     0.013 C 
ATOM     20  C   UNL     1      -1.526  -0.162  -2.130  1.00  0.00     0.013 C 
ENDBRANCH  15  17
ENDBRANCH   9  15
ENDBRANCH   7   8
ENDBRANCH   6   7
ENDBRANCH   3   6
ENDBRANCH   1   2
BRANCH   1  21
ATOM     21  C   UNL     1      -2.425  -3.693  -2.504  1.00  0.00     0.042 C 
BRANCH  21  22
ATOM     22  C   UNL     1      -3.928  -3.460  -2.605  1.00  0.00     0.118 C 
BRANCH  22  23
ATOM     23  N   UNL     1      -4.516  -3.002  -1.353  1.00  0.00    -0.352 N 
ATOM     24  C   UNL     1      -5.037  -1.786  -0.962  1.00  0.00     0.251 C 
ATOM     25  H   UNL     1      -4.547  -3.692  -0.652  1.00  0.00     0.163 HD
ATOM     26  O   UNL     1      -5.334  -1.643   0.221  1.00  0.00    -0.269 OA
BRANCH  24  27
ATOM     27  C   UNL     1      -5.213  -0.638  -1.897  1.00  0.00     0.039 A 
ATOM     28  C   UNL     1      -5.025   0.660  -1.395  1.00  0.00     0.014 A 
ATOM     29  C   UNL     1      -5.585  -0.793  -3.232  1.00  0.00     0.014 A 
ATOM     30  C   UNL     1      -5.127   1.777  -2.238  1.00  0.00     0.010 A 
ATOM     31  C   UNL     1      -5.625   0.313  -4.087  1.00  0.00     0.010 A 
ATOM     32  C   UNL     1      -5.400   1.610  -3.601  1.00  0.00    -0.014 A 
BRANCH  32  33
ATOM     33  C   UNL     1      -5.491   2.764  -4.538  1.00  0.00     0.031 A 
ATOM     34  C   UNL     1      -6.809   3.112  -5.168  1.00  0.00     0.074 A 
ATOM     35  C   UNL     1      -4.384   3.437  -4.909  1.00  0.00     0.049 A 
ATOM     36  N   UNL     1      -7.070   3.994  -6.096  1.00  0.00    -0.248 NA
ATOM     37  C   UNL     1      -7.982   2.352  -4.708  1.00  0.00     0.031 C 
ATOM     38  C   UNL     1      -3.041   3.163  -4.413  1.00  0.00     0.029 A 
ATOM     39  N   UNL     1      -4.198   4.454  -5.814  1.00  0.00    -0.354 N 
ATOM     40  C   UNL     1      -8.427   3.871  -6.361  1.00  0.00     0.074 A 
ATOM     41  C   UNL     1      -8.931   2.814  -5.510  1.00  0.00     0.031 C 
ATOM     42  C   UNL     1      -2.162   3.974  -5.022  1.00  0.00     0.029 A 
ATOM     43  C   UNL     1      -2.876   4.804  -5.987  1.00  0.00     0.049 A 
ATOM     44  H   UNL     1      -4.938   4.892  -6.293  1.00  0.00     0.167 HD
ATOM     45  C   UNL     1      -9.191   4.591  -7.216  1.00  0.00     0.034 A 
ATOM     46  C   UNL     1      -2.300   5.672  -6.842  1.00  0.00     0.034 A 
ATOM     47  C   UNL     1      -8.701   5.667  -8.033  1.00  0.00     0.049 A 
ATOM     48  C   UNL     1      -3.172   6.456  -7.785  1.00  0.00     0.074 A 
ATOM     49  C   UNL     1      -9.417   6.512  -8.861  1.00  0.00     0.029 A 
ATOM     50  N   UNL     1      -7.370   6.041  -8.134  1.00  0.00    -0.354 N 
ATOM     51  N   UNL     1      -4.476   6.434  -7.910  1.00  0.00    -0.248 NA
ATOM     52  C   UNL     1      -2.498   7.401  -8.688  1.00  0.00     0.031 C 
ATOM     53  C   UNL     1      -8.516   7.387  -9.477  1.00  0.00     0.029 A 
ATOM     54  C   UNL     1      -7.240   7.095  -9.023  1.00  0.00     0.049 A 
ATOM     55  H   UNL     1      -6.626   5.619  -7.646  1.00  0.00     0.167 HD
ATOM     56  C   UNL     1      -4.783   7.379  -8.882  1.00  0.00     0.074 A 
ATOM     57  C   UNL     1      -3.529   7.973  -9.298  1.00  0.00     0.031 C 
ATOM     58  C   UNL     1      -5.993   7.712  -9.395  1.00  0.00     0.034 A 
BRANCH  45  59
ATOM     59  C   UNL     1     -10.658   4.265  -7.268  1.00  0.00     0.023 A 
ATOM     60  C   UNL     1     -11.490   4.658  -6.200  1.00  0.00     0.012 A 
ATOM     61  C   UNL     1     -11.219   3.606  -8.378  1.00  0.00     0.148 A 
ATOM     62  C   UNL     1     -12.854   4.372  -6.221  1.00  0.00     0.002 A 
ATOM     63  C   UNL     1     -12.586   3.358  -8.409  1.00  0.00     0.091 A 
ATOM     64  F   UNL     1     -10.405   3.216  -9.370  1.00  0.00    -0.205 F 
ATOM     65  C   UNL     1     -13.402   3.731  -7.328  1.00  0.00     0.022 A 
BRANCH  63  66
ATOM     66  S   UNL     1     -13.398   2.594  -9.816  1.00  0.00     0.127 S 
ATOM     67  O   UNL     1     -13.681   1.256  -9.304  1.00  0.00    -0.237 OA
ATOM     68  O   UNL     1     -14.575   3.443  -9.994  1.00  0.00    -0.237 OA
ATOM     69  O   UNL     1     -12.437   2.656 -10.912  1.00  0.00    -0.744 OA
ENDBRANCH  63  66
ENDBRANCH  45  59
BRANCH  46  70
ATOM     70  C   UNL     1      -0.823   5.881  -6.817  1.00  0.00     0.023 A 
ATOM     71  C   UNL     1      -0.308   7.098  -6.331  1.00  0.00     0.012 A 
ATOM     72  C   UNL     1       0.071   4.881  -7.245  1.00  0.00     0.148 A 
ATOM     73  C   UNL     1       1.068   7.326  -6.296  1.00  0.00     0.002 A 
ATOM     74  C   UNL     1       1.443   5.094  -7.158  1.00  0.00     0.091 A 
ATOM     75  F   UNL     1      -0.436   3.736  -7.724  1.00  0.00    -0.205 F 
ATOM     76  C   UNL     1       1.944   6.322  -6.698  1.00  0.00     0.022 A 
BRANCH  74  77
ATOM     77  S   UNL     1       2.640   3.808  -7.535  1.00  0.00     0.127 S 
ATOM     78  O   UNL     1       3.151   4.242  -8.830  1.00  0.00    -0.237 OA
ATOM     79  O   UNL     1       3.583   3.933  -6.424  1.00  0.00    -0.237 OA
ATOM     80  O   UNL     1       1.881   2.561  -7.533  1.00  0.00    -0.744 OA
ENDBRANCH  74  77
ENDBRANCH  46  70
BRANCH  58  81
ATOM     81  C   UNL     1      -6.032   8.781 -10.454  1.00  0.00     0.023 A 
ATOM     82  C   UNL     1      -5.602   8.479 -11.761  1.00  0.00     0.012 A 
ATOM     83  C   UNL     1      -6.568  10.054 -10.178  1.00  0.00     0.148 A 
ATOM     84  C   UNL     1      -5.684   9.434 -12.773  1.00  0.00     0.002 A 
ATOM     85  C   UNL     1      -6.687  10.987 -11.201  1.00  0.00     0.091 A 
ATOM     86  F   UNL     1      -6.952  10.328  -8.923  1.00  0.00    -0.205 F 
ATOM     87  C   UNL     1      -6.237  10.683 -12.496  1.00  0.00     0.022 A 
BRANCH  85  88
ATOM     88  S   UNL     1      -7.469  12.587 -10.959  1.00  0.00     0.127 S 
ATOM     89  O   UNL     1      -6.318  13.487 -10.978  1.00  0.00    -0.237 OA
ATOM     90  O   UNL     1      -8.342  12.687 -12.129  1.00  0.00    -0.237 OA
ATOM     91  O   UNL     1      -8.174  12.498  -9.687  1.00  0.00    -0.744 OA
ENDBRANCH  85  88
ENDBRANCH  58  81
ENDBRANCH  32  33
ENDBRANCH  24  27
ENDBRANCH  22  23
ENDBRANCH  21  22
ENDBRANCH   1  21
TORSDOF 17
