REMARK SMILES CCc1ccc(O[C@H](C)C(=O)Oc2cccc(C(=O)NCCCNC(=O)c3ccc(-c4c5nc(c(-c6cccc(S(=O)(=O)[O-])c6F)c6ccc([nH]6)c(-c6cccc(S(=O)(=O)[O-])c6F)c6nc(c(-c7cccc(S(=O)(=O)[O-])c7F)c7ccc4[nH]7)C=C6)C=C5)cc3)c2)cc1
REMARK SMILES IDX 18 1 19 2 20 3 17 5 13 6 14 7 90 8 15 9 16 10 12 11 10 12
REMARK SMILES IDX 11 13 8 14 9 15 7 16 6 17 3 18 4 19 92 20 5 21 91 22 2 23
REMARK SMILES IDX 1 24 21 25 22 26 23 27 24 28 25 29 26 31 27 32 28 33 89 34
REMARK SMILES IDX 29 35 88 36 30 37 31 38 32 39 82 40 33 41 87 42 81 43 83 44
REMARK SMILES IDX 34 45 86 46 80 47 79 48 35 50 67 51 47 52 66 53 48 54 51 55
REMARK SMILES IDX 65 56 84 57 49 58 50 59 64 61 85 62 52 63 36 64 37 65 45 66
REMARK SMILES IDX 38 67 40 68 46 69 39 70 41 71 42 72 43 73 44 74 68 75 69 76
REMARK SMILES IDX 77 77 70 78 72 79 78 80 71 81 73 82 74 83 75 84 76 85 53 86
REMARK SMILES IDX 54 87 62 88 55 89 57 90 63 91 56 92 58 93 59 94 60 95 61 96
REMARK H PARENT 20 4 24 30 83 49 51 60
REMARK Flexibility Score: inf
ROOT
ATOM      1  C   UNL     1      -1.228   1.220   8.552  1.00  0.00     0.251 C 
ATOM      2  O   UNL     1      -1.933   2.212   8.751  1.00  0.00    -0.269 OA
ATOM      3  N   UNL     1      -0.504   0.751   9.619  1.00  0.00    -0.352 N 
ATOM      4  H   UNL     1      -0.591   1.310  10.425  1.00  0.00     0.163 HD
ENDROOT
BRANCH   1   5
ATOM      5  C   UNL     1      -1.250   0.583   7.203  1.00  0.00     0.043 A 
ATOM      6  C   UNL     1      -0.464  -0.945   5.504  1.00  0.00     0.131 A 
ATOM      7  C   UNL     1      -1.501  -0.596   4.647  1.00  0.00     0.047 A 
ATOM      8  C   UNL     1      -0.294  -0.314   6.737  1.00  0.00     0.061 A 
ATOM      9  C   UNL     1      -2.416   0.368   5.062  1.00  0.00     0.005 A 
ATOM     10  C   UNL     1      -2.300   0.938   6.336  1.00  0.00     0.014 A 
BRANCH   6  11
ATOM     11  O   UNL     1       0.489  -1.873   5.069  1.00  0.00    -0.424 OA
BRANCH  11  12
ATOM     12  C   UNL     1       0.699  -2.966   5.902  1.00  0.00     0.352 C 
ATOM     13  O   UNL     1      -0.041  -3.316   6.818  1.00  0.00    -0.247 OA
BRANCH  12  14
ATOM     14  C   UNL     1       1.976  -3.724   5.517  1.00  0.00     0.279 C 
ATOM     15  C   UNL     1       1.697  -4.920   4.612  1.00  0.00     0.066 C 
BRANCH  14  16
ATOM     16  O   UNL     1       3.131  -2.977   5.167  1.00  0.00    -0.479 OA
BRANCH  16  17
ATOM     17  C   UNL     1       3.296  -2.333   3.981  1.00  0.00     0.120 A 
ATOM     18  C   UNL     1       3.943  -0.886   1.636  1.00  0.00    -0.048 A 
ATOM     19  C   UNL     1       2.713  -1.545   1.768  1.00  0.00     0.007 A 
ATOM     20  C   UNL     1       4.840  -0.949   2.705  1.00  0.00     0.007 A 
ATOM     21  C   UNL     1       2.397  -2.268   2.923  1.00  0.00     0.047 A 
ATOM     22  C   UNL     1       4.517  -1.667   3.861  1.00  0.00     0.047 A 
BRANCH  18  23
ATOM     23  C   UNL     1       4.207  -0.108   0.369  1.00  0.00     0.032 C 
ATOM     24  C   UNL     1       5.653   0.285   0.100  1.00  0.00     0.009 C 
ENDBRANCH  18  23
ENDBRANCH  16  17
ENDBRANCH  14  16
ENDBRANCH  12  14
ENDBRANCH  11  12
ENDBRANCH   6  11
ENDBRANCH   1   5
BRANCH   3  25
ATOM     25  C   UNL     1       0.363  -0.399   9.808  1.00  0.00     0.118 C 
BRANCH  25  26
ATOM     26  C   UNL     1       1.836  -0.019   9.649  1.00  0.00     0.042 C 
BRANCH  26  27
ATOM     27  C   UNL     1       2.413   0.662  10.889  1.00  0.00     0.118 C 
BRANCH  27  28
ATOM     28  N   UNL     1       2.482  -0.253  12.023  1.00  0.00    -0.352 N 
ATOM     29  C   UNL     1       3.562  -0.695  12.745  1.00  0.00     0.251 C 
ATOM     30  H   UNL     1       1.614  -0.612  12.318  1.00  0.00     0.163 HD
ATOM     31  O   UNL     1       3.428  -1.658  13.495  1.00  0.00    -0.269 OA
BRANCH  29  32
ATOM     32  C   UNL     1       4.873  -0.022  12.634  1.00  0.00     0.039 A 
ATOM     33  C   UNL     1       6.037  -0.798  12.664  1.00  0.00     0.014 A 
ATOM     34  C   UNL     1       4.964   1.370  12.560  1.00  0.00     0.014 A 
ATOM     35  C   UNL     1       7.287  -0.181  12.575  1.00  0.00     0.010 A 
ATOM     36  C   UNL     1       6.205   1.976  12.392  1.00  0.00     0.010 A 
ATOM     37  C   UNL     1       7.379   1.210  12.413  1.00  0.00    -0.014 A 
BRANCH  37  38
ATOM     38  C   UNL     1       8.692   1.887  12.262  1.00  0.00     0.031 A 
ATOM     39  C   UNL     1       9.144   2.899  13.280  1.00  0.00     0.074 A 
ATOM     40  C   UNL     1       9.428   1.664  11.156  1.00  0.00     0.049 A 
ATOM     41  N   UNL     1      10.221   3.640  13.285  1.00  0.00    -0.248 NA
ATOM     42  C   UNL     1       8.252   3.134  14.428  1.00  0.00     0.031 C 
ATOM     43  C   UNL     1       9.056   0.765  10.062  1.00  0.00     0.029 A 
ATOM     44  N   UNL     1      10.628   2.195  10.757  1.00  0.00    -0.354 N 
ATOM     45  C   UNL     1      10.113   4.461  14.401  1.00  0.00     0.074 A 
ATOM     46  C   UNL     1       8.850   4.149  15.033  1.00  0.00     0.031 C 
ATOM     47  C   UNL     1      10.014   0.797   9.122  1.00  0.00     0.029 A 
ATOM     48  C   UNL     1      11.050   1.740   9.530  1.00  0.00     0.049 A 
ATOM     49  H   UNL     1      11.139   2.841  11.297  1.00  0.00     0.167 HD
ATOM     50  C   UNL     1      10.997   5.373  14.874  1.00  0.00     0.034 A 
ATOM     51  C   UNL     1      12.148   2.050   8.813  1.00  0.00     0.034 A 
ATOM     52  C   UNL     1      12.273   5.639  14.268  1.00  0.00     0.049 A 
ATOM     53  C   UNL     1      13.139   3.027   9.384  1.00  0.00     0.074 A 
ATOM     54  C   UNL     1      13.290   6.458  14.725  1.00  0.00     0.029 A 
ATOM     55  N   UNL     1      12.706   5.098  13.067  1.00  0.00    -0.354 N 
ATOM     56  N   UNL     1      13.099   3.669  10.526  1.00  0.00    -0.248 NA
ATOM     57  C   UNL     1      14.341   3.296   8.584  1.00  0.00     0.031 C 
ATOM     58  C   UNL     1      14.327   6.432  13.785  1.00  0.00     0.029 A 
ATOM     59  C   UNL     1      13.967   5.575  12.757  1.00  0.00     0.049 A 
ATOM     60  H   UNL     1      12.190   4.465  12.515  1.00  0.00     0.167 HD
ATOM     61  C   UNL     1      14.286   4.390  10.600  1.00  0.00     0.074 A 
ATOM     62  C   UNL     1      15.030   4.090   9.393  1.00  0.00     0.031 C 
ATOM     63  C   UNL     1      14.715   5.232  11.573  1.00  0.00     0.034 A 
BRANCH  50  64
ATOM     64  C   UNL     1      10.626   6.116  16.134  1.00  0.00     0.023 A 
ATOM     65  C   UNL     1      10.582   5.428  17.364  1.00  0.00     0.012 A 
ATOM     66  C   UNL     1      10.350   7.497  16.108  1.00  0.00     0.148 A 
ATOM     67  C   UNL     1      10.221   6.089  18.538  1.00  0.00     0.002 A 
ATOM     68  C   UNL     1      10.038   8.160  17.290  1.00  0.00     0.091 A 
ATOM     69  F   UNL     1      10.374   8.134  14.928  1.00  0.00    -0.205 F 
ATOM     70  C   UNL     1       9.958   7.455  18.502  1.00  0.00     0.022 A 
BRANCH  68  71
ATOM     71  S   UNL     1       9.764   9.934  17.357  1.00  0.00     0.127 S 
ATOM     72  O   UNL     1       8.311  10.004  17.496  1.00  0.00    -0.237 OA
ATOM     73  O   UNL     1      10.510  10.318  18.557  1.00  0.00    -0.237 OA
ATOM     74  O   UNL     1      10.306  10.467  16.115  1.00  0.00    -0.744 OA
ENDBRANCH  68  71
ENDBRANCH  50  64
BRANCH  51  75
ATOM     75  C   UNL     1      12.407   1.351   7.522  1.00  0.00     0.023 A 
ATOM     76  C   UNL     1      13.438   0.394   7.459  1.00  0.00     0.012 A 
ATOM     77  C   UNL     1      11.611   1.580   6.383  1.00  0.00     0.148 A 
ATOM     78  C   UNL     1      13.689  -0.306   6.279  1.00  0.00     0.002 A 
ATOM     79  C   UNL     1      11.832   0.841   5.226  1.00  0.00     0.091 A 
ATOM     80  F   UNL     1      10.637   2.497   6.463  1.00  0.00    -0.205 F 
ATOM     81  C   UNL     1      12.880  -0.091   5.167  1.00  0.00     0.022 A 
BRANCH  79  82
ATOM     82  S   UNL     1      10.763   0.952   3.785  1.00  0.00     0.127 S 
ATOM     83  O   UNL     1      11.659   1.537   2.791  1.00  0.00    -0.237 OA
ATOM     84  O   UNL     1      10.420  -0.452   3.556  1.00  0.00    -0.237 OA
ATOM     85  O   UNL     1       9.639   1.787   4.187  1.00  0.00    -0.744 OA
ENDBRANCH  79  82
ENDBRANCH  51  75
BRANCH  63  86
ATOM     86  C   UNL     1      16.067   5.872  11.395  1.00  0.00     0.023 A 
ATOM     87  C   UNL     1      16.238   6.894  10.441  1.00  0.00     0.012 A 
ATOM     88  C   UNL     1      17.146   5.514  12.226  1.00  0.00     0.148 A 
ATOM     89  C   UNL     1      17.471   7.529  10.296  1.00  0.00     0.002 A 
ATOM     90  C   UNL     1      18.357   6.186  12.111  1.00  0.00     0.091 A 
ATOM     91  F   UNL     1      16.969   4.526  13.115  1.00  0.00    -0.205 F 
ATOM     92  C   UNL     1      18.525   7.184  11.138  1.00  0.00     0.022 A 
BRANCH  90  93
ATOM     93  S   UNL     1      19.738   5.877  13.218  1.00  0.00     0.127 S 
ATOM     94  O   UNL     1      20.663   5.155  12.347  1.00  0.00    -0.237 OA
ATOM     95  O   UNL     1      20.163   7.233  13.570  1.00  0.00    -0.237 OA
ATOM     96  O   UNL     1      19.195   5.108  14.330  1.00  0.00    -0.744 OA
ENDBRANCH  90  93
ENDBRANCH  63  86
ENDBRANCH  37  38
ENDBRANCH  29  32
ENDBRANCH  27  28
ENDBRANCH  26  27
ENDBRANCH  25  26
ENDBRANCH   3  25
TORSDOF 19
