REMARK SMILES CC[NH2+][C@]1(C(=O)NCCCNC(=O)c2ccc(-c3c4nc(c(-c5cccc(S(=O)(=O)[O-])c5F)c5ccc([nH]5)c(-c5cccc(S(=O)(=O)[O-])c5F)c5nc(c(-c6cccc(S(=O)(=O)[O-])c6F)c6ccc3[nH]6)C=C5)C=C4)cc2)CCC[C@@H]1CC[N@H+]1C[C@H](C)OC[C@@H]1C
REMARK SMILES IDX 9 1 8 2 7 3 5 4 6 5 4 7 77 8 80 9 78 10 79 11 3 12 2 15 1 16
REMARK SMILES IDX 81 17 82 18 83 19 84 20 89 21 85 23 88 24 90 25 87 26 86 27
REMARK SMILES IDX 10 28 11 29 12 30 13 32 14 33 15 34 76 35 16 36 75 37 17 38
REMARK SMILES IDX 18 39 19 40 69 41 20 42 74 43 68 44 70 45 21 46 73 47 67 48
REMARK SMILES IDX 66 49 22 51 54 52 34 53 53 54 35 55 38 56 52 57 71 58 36 59
REMARK SMILES IDX 37 60 51 62 72 63 39 64 23 65 24 66 32 67 25 68 27 69 33 70
REMARK SMILES IDX 26 71 28 72 29 73 30 74 31 75 55 76 56 77 64 78 57 79 59 80
REMARK SMILES IDX 65 81 58 82 60 83 61 84 62 85 63 86 40 87 41 88 49 89 42 90
REMARK SMILES IDX 44 91 50 92 43 93 45 94 46 95 47 96 48 97
REMARK H PARENT 7 6 3 13 3 14 83 22 11 31 70 50 38 61
REMARK Flexibility Score: inf
ROOT
ATOM      1  C   UNL     1       4.003   1.190  -3.239  1.00  0.00     0.042 C 
ENDROOT
BRANCH   1   2
ATOM      2  C   UNL     1       3.677  -0.224  -3.705  1.00  0.00     0.118 C 
BRANCH   2   3
ATOM      3  N   UNL     1       2.416  -0.748  -3.224  1.00  0.00    -0.351 N 
ATOM      4  C   UNL     1       1.204  -0.412  -3.779  1.00  0.00     0.281 C 
ATOM      5  O   UNL     1       0.786   0.745  -3.725  1.00  0.00    -0.268 OA
ATOM      6  H   UNL     1       2.427  -1.374  -2.464  1.00  0.00     0.163 HD
BRANCH   4   7
ATOM      7  C   UNL     1       0.393  -1.579  -4.519  1.00  0.00     0.178 C 
ATOM      8  C   UNL     1       0.767  -1.192  -5.979  1.00  0.00     0.079 C 
ATOM      9  C   UNL     1       0.939  -3.055  -4.365  1.00  0.00     0.066 C 
ATOM     10  C   UNL     1       0.733  -2.443  -6.806  1.00  0.00     0.008 C 
ATOM     11  C   UNL     1       0.938  -3.592  -5.838  1.00  0.00     0.011 C 
BRANCH   7  12
ATOM     12  N   UNL     1      -1.039  -1.352  -4.244  1.00  0.00    -0.334 N 
ATOM     13  H   UNL     1      -1.115  -1.136  -3.250  1.00  0.00     0.347 HD
ATOM     14  H   UNL     1      -1.288  -0.620  -4.910  1.00  0.00     0.347 HD
BRANCH  12  15
ATOM     15  C   UNL     1      -2.011  -2.384  -4.519  1.00  0.00     0.257 C 
ATOM     16  C   UNL     1      -3.370  -1.967  -3.967  1.00  0.00     0.071 C 
ENDBRANCH  12  15
ENDBRANCH   7  12
BRANCH   9  17
ATOM     17  C   UNL     1       0.470  -4.281  -3.449  1.00  0.00     0.072 C 
BRANCH  17  18
ATOM     18  C   UNL     1      -0.284  -4.523  -2.082  1.00  0.00     0.263 C 
BRANCH  18  19
ATOM     19  N   UNL     1      -0.212  -3.911  -0.741  1.00  0.00    -0.329 N 
ATOM     20  C   UNL     1       1.127  -3.927  -0.124  1.00  0.00     0.294 C 
ATOM     21  C   UNL     1      -0.815  -2.564  -0.696  1.00  0.00     0.207 C 
ATOM     22  H   UNL     1      -0.782  -4.526  -0.160  1.00  0.00     0.348 HD
ATOM     23  C   UNL     1       2.053  -2.926  -0.810  1.00  0.00     0.170 C 
ATOM     24  C   UNL     1       0.179  -1.530  -1.194  1.00  0.00     0.225 C 
ATOM     25  C   UNL     1      -1.353  -2.134   0.667  1.00  0.00     0.078 C 
ATOM     26  O   UNL     1       1.510  -1.602  -0.653  1.00  0.00    -0.366 OA
ATOM     27  C   UNL     1       3.483  -2.937  -0.301  1.00  0.00     0.045 C 
ENDBRANCH  18  19
ENDBRANCH  17  18
ENDBRANCH   9  17
ENDBRANCH   4   7
ENDBRANCH   2   3
ENDBRANCH   1   2
BRANCH   1  28
ATOM     28  C   UNL     1       4.263   1.307  -1.740  1.00  0.00     0.118 C 
BRANCH  28  29
ATOM     29  N   UNL     1       5.506   0.656  -1.329  1.00  0.00    -0.352 N 
ATOM     30  C   UNL     1       6.750   1.190  -1.087  1.00  0.00     0.251 C 
ATOM     31  H   UNL     1       5.442  -0.319  -1.207  1.00  0.00     0.163 HD
ATOM     32  O   UNL     1       7.718   0.441  -0.952  1.00  0.00    -0.269 OA
BRANCH  30  33
ATOM     33  C   UNL     1       6.935   2.654  -1.004  1.00  0.00     0.039 A 
ATOM     34  C   UNL     1       8.004   3.253  -1.679  1.00  0.00     0.014 A 
ATOM     35  C   UNL     1       6.064   3.438  -0.246  1.00  0.00     0.014 A 
ATOM     36  C   UNL     1       8.144   4.645  -1.662  1.00  0.00     0.010 A 
ATOM     37  C   UNL     1       6.155   4.825  -0.299  1.00  0.00     0.010 A 
ATOM     38  C   UNL     1       7.196   5.447  -1.006  1.00  0.00    -0.014 A 
BRANCH  38  39
ATOM     39  C   UNL     1       7.257   6.933  -1.049  1.00  0.00     0.031 A 
ATOM     40  C   UNL     1       7.396   7.721   0.228  1.00  0.00     0.074 A 
ATOM     41  C   UNL     1       7.069   7.576  -2.219  1.00  0.00     0.049 A 
ATOM     42  N   UNL     1       7.358   9.016   0.408  1.00  0.00    -0.248 NA
ATOM     43  C   UNL     1       7.568   6.949   1.470  1.00  0.00     0.031 C 
ATOM     44  C   UNL     1       6.838   6.931  -3.513  1.00  0.00     0.029 A 
ATOM     45  N   UNL     1       7.006   8.918  -2.505  1.00  0.00    -0.354 N 
ATOM     46  C   UNL     1       7.451   9.212   1.781  1.00  0.00     0.074 A 
ATOM     47  C   UNL     1       7.515   7.902   2.390  1.00  0.00     0.031 C 
ATOM     48  C   UNL     1       6.660   7.874  -4.452  1.00  0.00     0.029 A 
ATOM     49  C   UNL     1       6.731   9.190  -3.826  1.00  0.00     0.049 A 
ATOM     50  H   UNL     1       7.145   9.620  -1.828  1.00  0.00     0.167 HD
ATOM     51  C   UNL     1       7.508  10.375   2.473  1.00  0.00     0.034 A 
ATOM     52  C   UNL     1       6.547  10.366  -4.460  1.00  0.00     0.034 A 
ATOM     53  C   UNL     1       7.499  11.676   1.859  1.00  0.00     0.049 A 
ATOM     54  C   UNL     1       6.671  11.645  -3.676  1.00  0.00     0.074 A 
ATOM     55  C   UNL     1       7.650  12.912   2.461  1.00  0.00     0.029 A 
ATOM     56  N   UNL     1       7.326  11.909   0.504  1.00  0.00    -0.354 N 
ATOM     57  N   UNL     1       6.921  11.811  -2.400  1.00  0.00    -0.248 NA
ATOM     58  C   UNL     1       6.526  12.902  -4.426  1.00  0.00     0.031 C 
ATOM     59  C   UNL     1       7.550  13.895   1.471  1.00  0.00     0.029 A 
ATOM     60  C   UNL     1       7.362  13.269   0.249  1.00  0.00     0.049 A 
ATOM     61  H   UNL     1       7.197  11.210  -0.177  1.00  0.00     0.167 HD
ATOM     62  C   UNL     1       7.001  13.185  -2.201  1.00  0.00     0.074 A 
ATOM     63  C   UNL     1       6.793  13.806  -3.493  1.00  0.00     0.031 C 
ATOM     64  C   UNL     1       7.214  13.870  -1.051  1.00  0.00     0.034 A 
BRANCH  51  65
ATOM     65  C   UNL     1       7.647  10.293   3.972  1.00  0.00     0.023 A 
ATOM     66  C   UNL     1       8.860   9.841   4.534  1.00  0.00     0.012 A 
ATOM     67  C   UNL     1       6.606  10.709   4.825  1.00  0.00     0.148 A 
ATOM     68  C   UNL     1       9.019   9.764   5.916  1.00  0.00     0.002 A 
ATOM     69  C   UNL     1       6.789  10.673   6.203  1.00  0.00     0.091 A 
ATOM     70  F   UNL     1       5.454  11.118   4.276  1.00  0.00    -0.205 F 
ATOM     71  C   UNL     1       7.989  10.189   6.750  1.00  0.00     0.022 A 
BRANCH  69  72
ATOM     72  S   UNL     1       5.556  11.275   7.362  1.00  0.00     0.127 S 
ATOM     73  O   UNL     1       5.082  10.029   7.963  1.00  0.00    -0.237 OA
ATOM     74  O   UNL     1       6.356  12.116   8.254  1.00  0.00    -0.237 OA
ATOM     75  O   UNL     1       4.574  11.998   6.566  1.00  0.00    -0.744 OA
ENDBRANCH  69  72
ENDBRANCH  51  65
BRANCH  52  76
ATOM     76  C   UNL     1       6.301  10.391  -5.931  1.00  0.00     0.023 A 
ATOM     77  C   UNL     1       7.309  10.876  -6.787  1.00  0.00     0.012 A 
ATOM     78  C   UNL     1       5.097   9.919  -6.487  1.00  0.00     0.148 A 
ATOM     79  C   UNL     1       7.110  10.922  -8.168  1.00  0.00     0.002 A 
ATOM     80  C   UNL     1       4.926   9.917  -7.867  1.00  0.00     0.091 A 
ATOM     81  F   UNL     1       4.145   9.471  -5.656  1.00  0.00    -0.205 F 
ATOM     82  C   UNL     1       5.924  10.434  -8.708  1.00  0.00     0.022 A 
BRANCH  80  83
ATOM     83  S   UNL     1       3.487   9.192  -8.662  1.00  0.00     0.127 S 
ATOM     84  O   UNL     1       2.795  10.375  -9.166  1.00  0.00    -0.237 OA
ATOM     85  O   UNL     1       4.102   8.353  -9.692  1.00  0.00    -0.237 OA
ATOM     86  O   UNL     1       2.795   8.448  -7.619  1.00  0.00    -0.744 OA
ENDBRANCH  80  83
ENDBRANCH  52  76
BRANCH  64  87
ATOM     87  C   UNL     1       7.279  15.373  -1.133  1.00  0.00     0.023 A 
ATOM     88  C   UNL     1       6.102  16.117  -1.345  1.00  0.00     0.012 A 
ATOM     89  C   UNL     1       8.496  16.050  -0.916  1.00  0.00     0.148 A 
ATOM     90  C   UNL     1       6.140  17.511  -1.371  1.00  0.00     0.002 A 
ATOM     91  C   UNL     1       8.518  17.439  -0.893  1.00  0.00     0.091 A 
ATOM     92  F   UNL     1       9.609  15.323  -0.735  1.00  0.00    -0.205 F 
ATOM     93  C   UNL     1       7.343  18.171  -1.132  1.00  0.00     0.022 A 
BRANCH  91  94
ATOM     94  S   UNL     1      10.001  18.372  -0.496  1.00  0.00     0.127 S 
ATOM     95  O   UNL     1      10.364  18.924  -1.801  1.00  0.00    -0.237 OA
ATOM     96  O   UNL     1       9.501  19.356   0.465  1.00  0.00    -0.237 OA
ATOM     97  O   UNL     1      10.943  17.410   0.060  1.00  0.00    -0.744 OA
ENDBRANCH  91  94
ENDBRANCH  64  87
ENDBRANCH  38  39
ENDBRANCH  30  33
ENDBRANCH  28  29
ENDBRANCH   1  28
TORSDOF 18
