REMARK SMILES C[C@@H]1[C@H](C(=O)NCCCNC(=O)c2ccc(-c3c4nc(c(-c5cccc(S(=O)(=O)[O-])c5F)c5ccc([nH]5)c(-c5cccc(S(=O)(=O)[O-])c5F)c5nc(c(-c6cccc(S(=O)(=O)[O-])c6F)c6ccc3[nH]6)C=C5)C=C4)cc2)CCN1C(=O)C1CC1
REMARK SMILES IDX 8 1 7 2 6 3 4 4 5 5 3 7 1 8 2 9 78 10 76 11 77 12 79 13
REMARK SMILES IDX 80 14 81 15 82 16 83 17 9 18 10 19 11 20 12 22 13 23 14 24
REMARK SMILES IDX 75 25 15 26 74 27 16 28 17 29 18 30 68 31 19 32 73 33 67 34
REMARK SMILES IDX 69 35 20 36 72 37 66 38 65 39 21 41 53 42 33 43 52 44 34 45
REMARK SMILES IDX 37 46 51 47 70 48 35 49 36 50 50 52 71 53 38 54 22 55 23 56
REMARK SMILES IDX 31 57 24 58 26 59 32 60 25 61 27 62 28 63 29 64 30 65 54 66
REMARK SMILES IDX 55 67 63 68 56 69 58 70 64 71 57 72 59 73 60 74 61 75 62 76
REMARK SMILES IDX 39 77 40 78 48 79 41 80 43 81 49 82 42 83 44 84 45 85 46 86
REMARK SMILES IDX 47 87
REMARK H PARENT 6 6 10 21 69 40 37 51
REMARK Flexibility Score: inf
ROOT
ATOM      1  C   UNL     1       2.506   1.522   2.900  1.00  0.00     0.042 C 
ENDROOT
BRANCH   1   2
ATOM      2  C   UNL     1       1.099   1.883   2.419  1.00  0.00     0.117 C 
BRANCH   2   3
ATOM      3  N   UNL     1       1.072   2.638   1.170  1.00  0.00    -0.356 N 
ATOM      4  C   UNL     1       0.596   2.394  -0.079  1.00  0.00     0.225 C 
ATOM      5  O   UNL     1       0.744   3.308  -0.901  1.00  0.00    -0.275 OA
ATOM      6  H   UNL     1       1.494   3.524   1.251  1.00  0.00     0.163 HD
BRANCH   4   7
ATOM      7  C   UNL     1      -0.080   1.103  -0.530  1.00  0.00     0.102 C 
ATOM      8  C   UNL     1       2.061  -0.175   0.077  1.00  0.00     0.032 C 
ATOM      9  C   UNL     1       0.801  -0.146  -0.767  1.00  0.00     0.094 C 
ATOM     10  N   UNL     1      -0.087  -1.280  -0.477  1.00  0.00    -0.339 N 
ATOM     11  C   UNL     1      -1.266   0.655   0.310  1.00  0.00     0.037 C 
ATOM     12  C   UNL     1      -1.362  -0.836   0.066  1.00  0.00     0.120 C 
BRANCH  10  13
ATOM     13  C   UNL     1       0.044  -2.646  -0.703  1.00  0.00     0.225 C 
ATOM     14  O   UNL     1      -0.831  -3.416  -0.302  1.00  0.00    -0.275 OA
BRANCH  13  15
ATOM     15  C   UNL     1       1.155  -3.285  -1.464  1.00  0.00     0.079 C 
ATOM     16  C   UNL     1       2.420  -2.747  -2.057  1.00  0.00     0.014 C 
ATOM     17  C   UNL     1       2.477  -3.517  -0.766  1.00  0.00     0.014 C 
ENDBRANCH  13  15
ENDBRANCH  10  13
ENDBRANCH   4   7
ENDBRANCH   2   3
ENDBRANCH   1   2
BRANCH   1  18
ATOM     18  C   UNL     1       3.414   2.704   3.192  1.00  0.00     0.118 C 
BRANCH  18  19
ATOM     19  N   UNL     1       3.185   3.247   4.518  1.00  0.00    -0.352 N 
ATOM     20  C   UNL     1       3.906   3.071   5.676  1.00  0.00     0.251 C 
ATOM     21  H   UNL     1       2.394   3.827   4.601  1.00  0.00     0.163 HD
ATOM     22  O   UNL     1       3.396   3.397   6.745  1.00  0.00    -0.269 OA
BRANCH  20  23
ATOM     23  C   UNL     1       5.274   2.491   5.656  1.00  0.00     0.039 A 
ATOM     24  C   UNL     1       5.665   1.651   6.704  1.00  0.00     0.014 A 
ATOM     25  C   UNL     1       6.197   2.817   4.660  1.00  0.00     0.014 A 
ATOM     26  C   UNL     1       6.958   1.115   6.731  1.00  0.00     0.010 A 
ATOM     27  C   UNL     1       7.452   2.209   4.636  1.00  0.00     0.010 A 
ATOM     28  C   UNL     1       7.859   1.373   5.685  1.00  0.00    -0.014 A 
BRANCH  28  29
ATOM     29  C   UNL     1       9.238   0.811   5.688  1.00  0.00     0.031 A 
ATOM     30  C   UNL     1      10.433   1.732   5.707  1.00  0.00     0.074 A 
ATOM     31  C   UNL     1       9.423  -0.521   5.598  1.00  0.00     0.049 A 
ATOM     32  N   UNL     1      11.706   1.435   5.652  1.00  0.00    -0.248 NA
ATOM     33  C   UNL     1      10.162   3.178   5.768  1.00  0.00     0.031 C 
ATOM     34  C   UNL     1       8.357  -1.519   5.497  1.00  0.00     0.029 A 
ATOM     35  N   UNL     1      10.577  -1.265   5.552  1.00  0.00    -0.354 N 
ATOM     36  C   UNL     1      12.382   2.651   5.628  1.00  0.00     0.074 A 
ATOM     37  C   UNL     1      11.377   3.691   5.638  1.00  0.00     0.031 C 
ATOM     38  C   UNL     1       8.905  -2.742   5.407  1.00  0.00     0.029 A 
ATOM     39  C   UNL     1      10.359  -2.617   5.416  1.00  0.00     0.049 A 
ATOM     40  H   UNL     1      11.476  -0.868   5.610  1.00  0.00     0.167 HD
ATOM     41  C   UNL     1      13.716   2.885   5.633  1.00  0.00     0.034 A 
ATOM     42  C   UNL     1      11.230  -3.640   5.307  1.00  0.00     0.034 A 
ATOM     43  C   UNL     1      14.715   1.853   5.684  1.00  0.00     0.049 A 
ATOM     44  C   UNL     1      12.707  -3.355   5.366  1.00  0.00     0.074 A 
ATOM     45  C   UNL     1      16.089   1.990   5.785  1.00  0.00     0.029 A 
ATOM     46  N   UNL     1      14.451   0.494   5.639  1.00  0.00    -0.354 N 
ATOM     47  N   UNL     1      13.322  -2.205   5.500  1.00  0.00    -0.248 NA
ATOM     48  C   UNL     1      13.611  -4.513   5.297  1.00  0.00     0.031 C 
ATOM     49  C   UNL     1      16.656   0.711   5.784  1.00  0.00     0.029 A 
ATOM     50  C   UNL     1      15.634  -0.221   5.705  1.00  0.00     0.049 A 
ATOM     51  H   UNL     1      13.553   0.095   5.571  1.00  0.00     0.167 HD
ATOM     52  C   UNL     1      14.678  -2.502   5.568  1.00  0.00     0.074 A 
ATOM     53  C   UNL     1      14.794  -3.944   5.482  1.00  0.00     0.031 C 
ATOM     54  C   UNL     1      15.733  -1.658   5.677  1.00  0.00     0.034 A 
BRANCH  41  55
ATOM     55  C   UNL     1      14.175   4.322   5.647  1.00  0.00     0.023 A 
ATOM     56  C   UNL     1      14.004   5.093   6.815  1.00  0.00     0.012 A 
ATOM     57  C   UNL     1      14.826   4.890   4.534  1.00  0.00     0.148 A 
ATOM     58  C   UNL     1      14.438   6.417   6.864  1.00  0.00     0.002 A 
ATOM     59  C   UNL     1      15.297   6.197   4.606  1.00  0.00     0.091 A 
ATOM     60  F   UNL     1      14.963   4.149   3.425  1.00  0.00    -0.205 F 
ATOM     61  C   UNL     1      15.093   6.965   5.764  1.00  0.00     0.022 A 
BRANCH  59  62
ATOM     62  S   UNL     1      16.222   6.969   3.273  1.00  0.00     0.127 S 
ATOM     63  O   UNL     1      15.249   7.929   2.756  1.00  0.00    -0.237 OA
ATOM     64  O   UNL     1      17.350   7.568   3.988  1.00  0.00    -0.237 OA
ATOM     65  O   UNL     1      16.585   5.893   2.362  1.00  0.00    -0.744 OA
ENDBRANCH  59  62
ENDBRANCH  41  55
BRANCH  42  66
ATOM     66  C   UNL     1      10.725  -5.039   5.208  1.00  0.00     0.023 A 
ATOM     67  C   UNL     1      10.897  -5.913   6.300  1.00  0.00     0.012 A 
ATOM     68  C   UNL     1      10.053  -5.499   4.059  1.00  0.00     0.148 A 
ATOM     69  C   UNL     1      10.436  -7.228   6.238  1.00  0.00     0.002 A 
ATOM     70  C   UNL     1       9.548  -6.794   4.026  1.00  0.00     0.091 A 
ATOM     71  F   UNL     1       9.912  -4.658   3.026  1.00  0.00    -0.205 F 
ATOM     72  C   UNL     1       9.753  -7.666   5.107  1.00  0.00     0.022 A 
BRANCH  70  73
ATOM     73  S   UNL     1       8.543  -7.399   2.665  1.00  0.00     0.127 S 
ATOM     74  O   UNL     1       9.458  -8.322   2.003  1.00  0.00    -0.237 OA
ATOM     75  O   UNL     1       7.428  -8.032   3.370  1.00  0.00    -0.237 OA
ATOM     76  O   UNL     1       8.170  -6.215   1.900  1.00  0.00    -0.744 OA
ENDBRANCH  70  73
ENDBRANCH  42  66
BRANCH  54  77
ATOM     77  C   UNL     1      17.111  -2.263   5.746  1.00  0.00     0.023 A 
ATOM     78  C   UNL     1      17.691  -2.816   4.588  1.00  0.00     0.012 A 
ATOM     79  C   UNL     1      17.860  -2.210   6.938  1.00  0.00     0.148 A 
ATOM     80  C   UNL     1      18.985  -3.335   4.622  1.00  0.00     0.002 A 
ATOM     81  C   UNL     1      19.165  -2.686   6.953  1.00  0.00     0.091 A 
ATOM     82  F   UNL     1      17.283  -1.697   8.034  1.00  0.00    -0.205 F 
ATOM     83  C   UNL     1      19.725  -3.259   5.800  1.00  0.00     0.022 A 
BRANCH  81  84
ATOM     84  S   UNL     1      20.225  -2.542   8.397  1.00  0.00     0.127 S 
ATOM     85  O   UNL     1      20.266  -3.922   8.875  1.00  0.00    -0.237 OA
ATOM     86  O   UNL     1      21.479  -2.060   7.816  1.00  0.00    -0.237 OA
ATOM     87  O   UNL     1      19.567  -1.591   9.283  1.00  0.00    -0.744 OA
ENDBRANCH  81  84
ENDBRANCH  54  77
ENDBRANCH  28  29
ENDBRANCH  20  23
ENDBRANCH  18  19
ENDBRANCH   1  18
TORSDOF 15
