REMARK SMILES CSc1ccc(C[C@H]([NH3+])C(=O)NCCCNC(=O)c2ccc(-c3c4nc(c(-c5cccc(S(=O)(=O)[O-])c5F)c5ccc([nH]5)c(-c5cccc(S(=O)(=O)[O-])c5F)c5nc(c(-c6cccc(S(=O)(=O)[O-])c6F)c6ccc3[nH]6)C=C5)C=C4)cc2)cc1
REMARK SMILES IDX 14 1 13 2 12 3 10 4 11 5 8 7 7 8 6 9 3 10 4 11 83 12 5 13
REMARK SMILES IDX 82 14 2 15 1 16 9 17 15 21 16 22 17 23 18 25 19 26 20 27
REMARK SMILES IDX 81 28 21 29 80 30 22 31 23 32 24 33 74 34 25 35 79 36 73 37
REMARK SMILES IDX 75 38 26 39 78 40 72 41 71 42 27 44 59 45 39 46 58 47 40 48
REMARK SMILES IDX 43 49 57 50 76 51 41 52 42 53 56 55 77 56 44 57 28 58 29 59
REMARK SMILES IDX 37 60 30 61 32 62 38 63 31 64 33 65 34 66 35 67 36 68 60 69
REMARK SMILES IDX 61 70 69 71 62 72 64 73 70 74 63 75 65 76 66 77 67 78 68 79
REMARK SMILES IDX 45 80 46 81 54 82 47 83 49 84 55 85 48 86 50 87 51 88 52 89
REMARK SMILES IDX 53 90
REMARK H PARENT 12 6 9 18 9 19 9 20 16 24 75 43 43 54
REMARK Flexibility Score: inf
ROOT
ATOM      1  C   UNL     1       5.177   8.192  -2.965  1.00  0.00     0.042 C 
ENDROOT
BRANCH   1   2
ATOM      2  C   UNL     1       5.245   7.739  -1.518  1.00  0.00     0.118 C 
BRANCH   2   3
ATOM      3  N   UNL     1       4.450   8.566  -0.624  1.00  0.00    -0.351 N 
ATOM      4  C   UNL     1       3.431   8.206   0.212  1.00  0.00     0.278 C 
ATOM      5  O   UNL     1       2.908   9.083   0.906  1.00  0.00    -0.268 OA
ATOM      6  H   UNL     1       4.679   9.523  -0.620  1.00  0.00     0.163 HD
BRANCH   4   7
ATOM      7  C   UNL     1       2.948   6.742   0.298  1.00  0.00     0.275 C 
BRANCH   7   8
ATOM      8  C   UNL     1       4.105   5.821   0.731  1.00  0.00     0.111 C 
BRANCH   8   9
ATOM      9  C   UNL     1       3.835   4.885   1.882  1.00  0.00    -0.041 A 
ATOM     10  C   UNL     1       3.660   3.141   4.084  1.00  0.00     0.007 A 
ATOM     11  C   UNL     1       3.358   4.499   4.229  1.00  0.00     0.015 A 
ATOM     12  C   UNL     1       4.041   2.659   2.831  1.00  0.00     0.015 A 
ATOM     13  C   UNL     1       3.445   5.367   3.136  1.00  0.00     0.005 A 
ATOM     14  C   UNL     1       4.124   3.521   1.738  1.00  0.00     0.005 A 
BRANCH  10  15
ATOM     15  S   UNL     1       3.664   2.009   5.464  1.00  0.00    -0.130 SA
ATOM     16  C   UNL     1       2.039   2.359   6.177  1.00  0.00     0.091 C 
ENDBRANCH  10  15
ENDBRANCH   8   9
ENDBRANCH   7   8
BRANCH   7  17
ATOM     17  N   UNL     1       2.363   6.343  -1.001  1.00  0.00    -0.347 N 
ATOM     18  H   UNL     1       3.071   6.421  -1.731  1.00  0.00     0.345 HD
ATOM     19  H   UNL     1       1.577   6.954  -1.222  1.00  0.00     0.345 HD
ATOM     20  H   UNL     1       2.038   5.377  -0.945  1.00  0.00     0.345 HD
ENDBRANCH   7  17
ENDBRANCH   4   7
ENDBRANCH   2   3
ENDBRANCH   1   2
BRANCH   1  21
ATOM     21  C   UNL     1       5.793   9.560  -3.214  1.00  0.00     0.118 C 
BRANCH  21  22
ATOM     22  N   UNL     1       7.226   9.598  -2.935  1.00  0.00    -0.352 N 
ATOM     23  C   UNL     1       8.288   9.803  -3.783  1.00  0.00     0.251 C 
ATOM     24  H   UNL     1       7.469   9.456  -1.992  1.00  0.00     0.163 HD
ATOM     25  O   UNL     1       9.434   9.626  -3.377  1.00  0.00    -0.269 OA
BRANCH  23  26
ATOM     26  C   UNL     1       8.053  10.209  -5.185  1.00  0.00     0.039 A 
ATOM     27  C   UNL     1       8.783   9.592  -6.205  1.00  0.00     0.014 A 
ATOM     28  C   UNL     1       7.107  11.188  -5.497  1.00  0.00     0.014 A 
ATOM     29  C   UNL     1       8.497   9.891  -7.539  1.00  0.00     0.010 A 
ATOM     30  C   UNL     1       6.760  11.415  -6.824  1.00  0.00     0.010 A 
ATOM     31  C   UNL     1       7.449  10.768  -7.860  1.00  0.00    -0.014 A 
BRANCH  31  32
ATOM     32  C   UNL     1       7.030  11.007  -9.265  1.00  0.00     0.031 A 
ATOM     33  C   UNL     1       7.087  12.394  -9.847  1.00  0.00     0.074 A 
ATOM     34  C   UNL     1       6.490   9.998  -9.978  1.00  0.00     0.049 A 
ATOM     35  N   UNL     1       6.669  12.817 -11.012  1.00  0.00    -0.248 NA
ATOM     36  C   UNL     1       7.661  13.451  -8.998  1.00  0.00     0.031 C 
ATOM     37  C   UNL     1       6.303   8.627  -9.498  1.00  0.00     0.029 A 
ATOM     38  N   UNL     1       5.965   9.977 -11.247  1.00  0.00    -0.354 N 
ATOM     39  C   UNL     1       6.889  14.189 -11.019  1.00  0.00     0.074 A 
ATOM     40  C   UNL     1       7.449  14.534  -9.731  1.00  0.00     0.031 C 
ATOM     41  C   UNL     1       5.708   7.900 -10.457  1.00  0.00     0.029 A 
ATOM     42  C   UNL     1       5.437   8.758 -11.606  1.00  0.00     0.049 A 
ATOM     43  H   UNL     1       5.965  10.760 -11.843  1.00  0.00     0.167 HD
ATOM     44  C   UNL     1       6.673  15.077 -12.018  1.00  0.00     0.034 A 
ATOM     45  C   UNL     1       4.795   8.376 -12.727  1.00  0.00     0.034 A 
ATOM     46  C   UNL     1       6.163  14.723 -13.314  1.00  0.00     0.049 A 
ATOM     47  C   UNL     1       4.601   9.375 -13.835  1.00  0.00     0.074 A 
ATOM     48  C   UNL     1       6.001  15.532 -14.425  1.00  0.00     0.029 A 
ATOM     49  N   UNL     1       5.725  13.457 -13.674  1.00  0.00    -0.354 N 
ATOM     50  N   UNL     1       4.967  10.633 -13.884  1.00  0.00    -0.248 NA
ATOM     51  C   UNL     1       3.936   8.896 -15.055  1.00  0.00     0.031 C 
ATOM     52  C   UNL     1       5.443  14.760 -15.450  1.00  0.00     0.029 A 
ATOM     53  C   UNL     1       5.281  13.465 -14.985  1.00  0.00     0.049 A 
ATOM     54  H   UNL     1       5.729  12.670 -13.083  1.00  0.00     0.167 HD
ATOM     55  C   UNL     1       4.608  11.086 -15.148  1.00  0.00     0.074 A 
ATOM     56  C   UNL     1       4.015   9.961 -15.842  1.00  0.00     0.031 C 
ATOM     57  C   UNL     1       4.743  12.325 -15.681  1.00  0.00     0.034 A 
BRANCH  44  58
ATOM     58  C   UNL     1       7.044  16.516 -11.768  1.00  0.00     0.023 A 
ATOM     59  C   UNL     1       8.405  16.880 -11.697  1.00  0.00     0.012 A 
ATOM     60  C   UNL     1       6.056  17.515 -11.666  1.00  0.00     0.148 A 
ATOM     61  C   UNL     1       8.776  18.207 -11.494  1.00  0.00     0.002 A 
ATOM     62  C   UNL     1       6.435  18.843 -11.508  1.00  0.00     0.091 A 
ATOM     63  F   UNL     1       4.768  17.148 -11.715  1.00  0.00    -0.205 F 
ATOM     64  C   UNL     1       7.793  19.189 -11.411  1.00  0.00     0.022 A 
BRANCH  62  65
ATOM     65  S   UNL     1       5.249  20.192 -11.470  1.00  0.00     0.127 S 
ATOM     66  O   UNL     1       5.306  20.594 -10.065  1.00  0.00    -0.237 OA
ATOM     67  O   UNL     1       5.842  21.150 -12.403  1.00  0.00    -0.237 OA
ATOM     68  O   UNL     1       3.981  19.624 -11.906  1.00  0.00    -0.744 OA
ENDBRANCH  62  65
ENDBRANCH  44  58
BRANCH  45  69
ATOM     69  C   UNL     1       4.345   6.963 -12.883  1.00  0.00     0.023 A 
ATOM     70  C   UNL     1       5.003   6.128 -13.807  1.00  0.00     0.012 A 
ATOM     71  C   UNL     1       3.295   6.435 -12.106  1.00  0.00     0.148 A 
ATOM     72  C   UNL     1       4.605   4.802 -13.978  1.00  0.00     0.002 A 
ATOM     73  C   UNL     1       2.940   5.098 -12.242  1.00  0.00     0.091 A 
ATOM     74  F   UNL     1       2.674   7.248 -11.241  1.00  0.00    -0.205 F 
ATOM     75  C   UNL     1       3.581   4.284 -13.189  1.00  0.00     0.022 A 
BRANCH  73  76
ATOM     76  S   UNL     1       1.724   4.311 -11.178  1.00  0.00     0.127 S 
ATOM     77  O   UNL     1       0.607   4.110 -12.096  1.00  0.00    -0.237 OA
ATOM     78  O   UNL     1       2.420   3.088 -10.776  1.00  0.00    -0.237 OA
ATOM     79  O   UNL     1       1.490   5.251 -10.089  1.00  0.00    -0.744 OA
ENDBRANCH  73  76
ENDBRANCH  45  69
BRANCH  57  80
ATOM     80  C   UNL     1       4.273  12.534 -17.097  1.00  0.00     0.023 A 
ATOM     81  C   UNL     1       2.893  12.584 -17.375  1.00  0.00     0.012 A 
ATOM     82  C   UNL     1       5.198  12.769 -18.134  1.00  0.00     0.148 A 
ATOM     83  C   UNL     1       2.440  12.837 -18.669  1.00  0.00     0.002 A 
ATOM     84  C   UNL     1       4.739  13.069 -19.410  1.00  0.00     0.091 A 
ATOM     85  F   UNL     1       6.507  12.700 -17.850  1.00  0.00    -0.205 F 
ATOM     86  C   UNL     1       3.361  13.092 -19.683  1.00  0.00     0.022 A 
BRANCH  84  87
ATOM     87  S   UNL     1       5.847  13.505 -20.756  1.00  0.00     0.127 S 
ATOM     88  O   UNL     1       5.747  12.327 -21.617  1.00  0.00    -0.237 OA
ATOM     89  O   UNL     1       5.218  14.710 -21.296  1.00  0.00    -0.237 OA
ATOM     90  O   UNL     1       7.152  13.724 -20.148  1.00  0.00    -0.744 OA
ENDBRANCH  84  87
ENDBRANCH  57  80
ENDBRANCH  31  32
ENDBRANCH  23  26
ENDBRANCH  21  22
ENDBRANCH   1  21
TORSDOF 17
