REMARK SMILES C[C@@H](C(=O)NCCCNC(=O)c1ccc(-c2c3nc(c(-c4cccc(S(=O)(=O)[O-])c4F)c4ccc([nH]4)c(-c4cccc(S(=O)(=O)[O-])c4F)c4nc(c(-c5cccc(S(=O)(=O)[O-])c5F)c5ccc2[nH]5)C=C4)C=C3)cc1)[C@H](C)[N@@H+](C)[C@@H](C)C1CC1
REMARK SMILES IDX 6 1 5 2 3 3 4 4 2 6 1 7 75 8 76 9 77 10 78 11 79 13 80 14
REMARK SMILES IDX 81 15 82 16 83 17 7 18 8 19 9 20 10 21 11 23 12 24 13 25
REMARK SMILES IDX 74 26 14 27 73 28 15 29 16 30 17 31 67 32 18 33 72 34 66 35
REMARK SMILES IDX 68 36 19 37 71 38 65 39 64 40 20 42 52 43 32 44 51 45 33 46
REMARK SMILES IDX 36 47 50 48 69 49 34 50 35 51 49 53 70 54 37 55 21 56 22 57
REMARK SMILES IDX 30 58 23 59 25 60 31 61 24 62 26 63 27 64 28 65 29 66 53 67
REMARK SMILES IDX 54 68 62 69 55 70 57 71 63 72 56 73 58 74 59 75 60 76 61 77
REMARK SMILES IDX 38 78 39 79 47 80 40 81 42 82 48 83 41 84 43 85 44 86 45 87
REMARK SMILES IDX 46 88
REMARK H PARENT 5 5 77 12 9 22 68 41 36 52
REMARK Flexibility Score: inf
ROOT
ATOM      1  C   UNL     1      -2.350  -3.982   0.729  1.00  0.00     0.117 C 
ENDROOT
BRANCH   1   2
ATOM      2  N   UNL     1      -1.270  -3.368   1.474  1.00  0.00    -0.356 N 
ATOM      3  C   UNL     1      -0.652  -2.175   1.244  1.00  0.00     0.228 C 
ATOM      4  O   UNL     1       0.521  -2.085   1.593  1.00  0.00    -0.275 OA
ATOM      5  H   UNL     1      -0.939  -3.879   2.247  1.00  0.00     0.163 HD
BRANCH   3   6
ATOM      6  C   UNL     1      -1.438  -1.053   0.588  1.00  0.00     0.133 C 
ATOM      7  C   UNL     1      -1.292  -1.184  -0.938  1.00  0.00     0.024 C 
BRANCH   6   8
ATOM      8  C   UNL     1      -1.056   0.385   1.063  1.00  0.00     0.193 C 
ATOM      9  C   UNL     1       0.260   0.918   0.473  1.00  0.00     0.076 C 
BRANCH   8  10
ATOM     10  N   UNL     1      -1.322   0.858   2.452  1.00  0.00    -0.332 N 
ATOM     11  C   UNL     1      -2.757   1.175   2.600  1.00  0.00     0.333 C 
ATOM     12  H   UNL     1      -0.677   1.648   2.469  1.00  0.00     0.348 HD
BRANCH  10  13
ATOM     13  C   UNL     1      -0.839   0.163   3.666  1.00  0.00     0.184 C 
ATOM     14  C   UNL     1      -1.616  -1.107   4.078  1.00  0.00     0.075 C 
BRANCH  13  15
ATOM     15  C   UNL     1       0.615   0.078   4.076  1.00  0.00     0.047 C 
ATOM     16  C   UNL     1       1.852  -0.107   3.237  1.00  0.00     0.010 C 
ATOM     17  C   UNL     1       1.563   1.234   3.845  1.00  0.00     0.010 C 
ENDBRANCH  13  15
ENDBRANCH  10  13
ENDBRANCH   8  10
ENDBRANCH   6   8
ENDBRANCH   3   6
ENDBRANCH   1   2
BRANCH   1  18
ATOM     18  C   UNL     1      -1.780  -4.895  -0.353  1.00  0.00     0.042 C 
BRANCH  18  19
ATOM     19  C   UNL     1      -0.871  -5.989   0.198  1.00  0.00     0.118 C 
BRANCH  19  20
ATOM     20  N   UNL     1      -1.579  -6.896   1.093  1.00  0.00    -0.352 N 
ATOM     21  C   UNL     1      -1.780  -8.247   0.962  1.00  0.00     0.251 C 
ATOM     22  H   UNL     1      -1.964  -6.485   1.900  1.00  0.00     0.163 HD
ATOM     23  O   UNL     1      -2.583  -8.827   1.689  1.00  0.00    -0.269 OA
BRANCH  21  24
ATOM     24  C   UNL     1      -1.034  -8.988  -0.074  1.00  0.00     0.039 A 
ATOM     25  C   UNL     1      -1.724  -9.856  -0.921  1.00  0.00     0.014 A 
ATOM     26  C   UNL     1       0.341  -8.790  -0.223  1.00  0.00     0.014 A 
ATOM     27  C   UNL     1      -1.040 -10.482  -1.965  1.00  0.00     0.010 A 
ATOM     28  C   UNL     1       0.999  -9.346  -1.313  1.00  0.00     0.010 A 
ATOM     29  C   UNL     1       0.319 -10.204  -2.190  1.00  0.00    -0.014 A 
BRANCH  29  30
ATOM     30  C   UNL     1       1.050 -10.791  -3.341  1.00  0.00     0.031 A 
ATOM     31  C   UNL     1       2.238 -11.681  -3.103  1.00  0.00     0.074 A 
ATOM     32  C   UNL     1       0.709 -10.440  -4.597  1.00  0.00     0.049 A 
ATOM     33  N   UNL     1       3.055 -12.216  -3.971  1.00  0.00    -0.248 NA
ATOM     34  C   UNL     1       2.573 -11.982  -1.700  1.00  0.00     0.031 C 
ATOM     35  C   UNL     1      -0.371  -9.517  -4.953  1.00  0.00     0.029 A 
ATOM     36  N   UNL     1       1.259 -10.788  -5.805  1.00  0.00    -0.354 N 
ATOM     37  C   UNL     1       4.020 -12.881  -3.225  1.00  0.00     0.074 A 
ATOM     38  C   UNL     1       3.709 -12.651  -1.831  1.00  0.00     0.031 C 
ATOM     39  C   UNL     1      -0.399  -9.366  -6.286  1.00  0.00     0.029 A 
ATOM     40  C   UNL     1       0.681 -10.150  -6.877  1.00  0.00     0.049 A 
ATOM     41  H   UNL     1       1.998 -11.433  -5.895  1.00  0.00     0.167 HD
ATOM     42  C   UNL     1       5.056 -13.638  -3.658  1.00  0.00     0.034 A 
ATOM     43  C   UNL     1       0.998 -10.175  -8.187  1.00  0.00     0.034 A 
ATOM     44  C   UNL     1       5.340 -13.889  -5.044  1.00  0.00     0.049 A 
ATOM     45  C   UNL     1       2.131 -11.049  -8.649  1.00  0.00     0.074 A 
ATOM     46  C   UNL     1       6.305 -14.718  -5.588  1.00  0.00     0.029 A 
ATOM     47  N   UNL     1       4.673 -13.300  -6.108  1.00  0.00    -0.354 N 
ATOM     48  N   UNL     1       2.931 -11.806  -7.937  1.00  0.00    -0.248 NA
ATOM     49  C   UNL     1       2.385 -11.104 -10.096  1.00  0.00     0.031 C 
ATOM     50  C   UNL     1       6.246 -14.601  -6.980  1.00  0.00     0.029 A 
ATOM     51  C   UNL     1       5.216 -13.733  -7.305  1.00  0.00     0.049 A 
ATOM     52  H   UNL     1       3.923 -12.668  -6.024  1.00  0.00     0.167 HD
ATOM     53  C   UNL     1       3.759 -12.451  -8.848  1.00  0.00     0.074 A 
ATOM     54  C   UNL     1       3.351 -12.009 -10.166  1.00  0.00     0.031 C 
ATOM     55  C   UNL     1       4.771 -13.322  -8.613  1.00  0.00     0.034 A 
BRANCH  42  56
ATOM     56  C   UNL     1       5.936 -14.278  -2.615  1.00  0.00     0.023 A 
ATOM     57  C   UNL     1       5.423 -15.313  -1.805  1.00  0.00     0.012 A 
ATOM     58  C   UNL     1       7.279 -13.883  -2.460  1.00  0.00     0.148 A 
ATOM     59  C   UNL     1       6.216 -15.910  -0.826  1.00  0.00     0.002 A 
ATOM     60  C   UNL     1       8.079 -14.519  -1.517  1.00  0.00     0.091 A 
ATOM     61  F   UNL     1       7.746 -12.885  -3.223  1.00  0.00    -0.205 F 
ATOM     62  C   UNL     1       7.545 -15.521  -0.690  1.00  0.00     0.022 A 
BRANCH  60  63
ATOM     63  S   UNL     1       9.825 -14.149  -1.323  1.00  0.00     0.127 S 
ATOM     64  O   UNL     1       9.837 -13.444  -0.042  1.00  0.00    -0.237 OA
ATOM     65  O   UNL     1      10.420 -15.486  -1.288  1.00  0.00    -0.237 OA
ATOM     66  O   UNL     1      10.198 -13.351  -2.482  1.00  0.00    -0.744 OA
ENDBRANCH  60  63
ENDBRANCH  42  56
BRANCH  43  67
ATOM     67  C   UNL     1       0.198  -9.372  -9.155  1.00  0.00     0.023 A 
ATOM     68  C   UNL     1      -0.657 -10.025 -10.063  1.00  0.00     0.012 A 
ATOM     69  C   UNL     1       0.248  -7.965  -9.148  1.00  0.00     0.148 A 
ATOM     70  C   UNL     1      -1.427  -9.291 -10.967  1.00  0.00     0.002 A 
ATOM     71  C   UNL     1      -0.563  -7.238 -10.011  1.00  0.00     0.091 A 
ATOM     72  F   UNL     1       1.075  -7.364  -8.280  1.00  0.00    -0.205 F 
ATOM     73  C   UNL     1      -1.388  -7.899 -10.934  1.00  0.00     0.022 A 
BRANCH  71  74
ATOM     74  S   UNL     1      -0.684  -5.447  -9.944  1.00  0.00     0.127 S 
ATOM     75  O   UNL     1      -0.077  -5.059 -11.214  1.00  0.00    -0.237 OA
ATOM     76  O   UNL     1      -2.131  -5.247  -9.864  1.00  0.00    -0.237 OA
ATOM     77  O   UNL     1       0.044  -5.046  -8.747  1.00  0.00    -0.744 OA
ENDBRANCH  71  74
ENDBRANCH  43  67
BRANCH  55  78
ATOM     78  C   UNL     1       5.493 -13.899  -9.803  1.00  0.00     0.023 A 
ATOM     79  C   UNL     1       6.373 -13.095 -10.552  1.00  0.00     0.012 A 
ATOM     80  C   UNL     1       5.365 -15.267 -10.118  1.00  0.00     0.148 A 
ATOM     81  C   UNL     1       7.096 -13.638 -11.614  1.00  0.00     0.002 A 
ATOM     82  C   UNL     1       6.127 -15.812 -11.143  1.00  0.00     0.091 A 
ATOM     83  F   UNL     1       4.508 -16.010  -9.402  1.00  0.00    -0.205 F 
ATOM     84  C   UNL     1       6.984 -14.997 -11.900  1.00  0.00     0.022 A 
BRANCH  82  85
ATOM     85  S   UNL     1       6.125 -17.568 -11.519  1.00  0.00     0.127 S 
ATOM     86  O   UNL     1       5.468 -17.592 -12.825  1.00  0.00    -0.237 OA
ATOM     87  O   UNL     1       7.554 -17.879 -11.548  1.00  0.00    -0.237 OA
ATOM     88  O   UNL     1       5.387 -18.212 -10.440  1.00  0.00    -0.744 OA
ENDBRANCH  82  85
ENDBRANCH  55  78
ENDBRANCH  29  30
ENDBRANCH  21  24
ENDBRANCH  19  20
ENDBRANCH  18  19
ENDBRANCH   1  18
TORSDOF 17
