REMARK SMILES COc1ccc(-c2ccc(CCC(=O)NCCCNC(=O)c3ccc(-c4c5nc(c(-c6cccc(S(=O)(=O)[O-])c6F)c6ccc([nH]6)c(-c6cccc(S(=O)(=O)[O-])c6F)c6nc(c(-c7cccc(S(=O)(=O)[O-])c7F)c7ccc4[nH]7)C=C6)C=C5)cc3)n2-c2ccc(C(C)=O)cc2)cc1
REMARK SMILES IDX 16 1 15 2 13 3 14 4 12 6 11 7 10 8 7 9 8 10 85 11 9 12 6 13
REMARK SMILES IDX 3 14 4 15 96 16 5 17 95 18 2 19 1 20 86 21 87 22 94 23 88 24
REMARK SMILES IDX 93 25 89 26 90 27 91 28 92 29 17 30 18 31 19 32 20 33 21 35
REMARK SMILES IDX 22 36 23 37 84 38 24 39 83 40 25 41 26 42 27 43 77 44 28 45
REMARK SMILES IDX 82 46 76 47 78 48 29 49 81 50 75 51 74 52 30 54 62 55 42 56
REMARK SMILES IDX 61 57 43 58 46 59 60 60 79 61 44 62 45 63 59 65 80 66 47 67
REMARK SMILES IDX 31 68 32 69 40 70 33 71 35 72 41 73 34 74 36 75 37 76 38 77
REMARK SMILES IDX 39 78 63 79 64 80 72 81 65 82 67 83 73 84 66 85 68 86 69 87
REMARK SMILES IDX 70 88 71 89 48 90 49 91 57 92 50 93 52 94 58 95 51 96 53 97
REMARK SMILES IDX 54 98 55 99 56 100
REMARK H PARENT 15 5 19 34 78 53 46 64
REMARK Flexibility Score: inf
ROOT
ATOM      1  C   UNL     1       5.024   1.983   8.052  1.00  0.00     0.117 C 
ENDROOT
BRANCH   1   2
ATOM      2  N   UNL     1       4.883   2.370   9.445  1.00  0.00    -0.356 N 
ATOM      3  C   UNL     1       3.818   2.210  10.282  1.00  0.00     0.220 C 
ATOM      4  O   UNL     1       3.861   2.726  11.400  1.00  0.00    -0.275 OA
ATOM      5  H   UNL     1       5.668   2.811   9.842  1.00  0.00     0.163 HD
BRANCH   3   6
ATOM      6  C   UNL     1       2.631   1.357   9.874  1.00  0.00     0.106 C 
BRANCH   6   7
ATOM      7  C   UNL     1       1.345   2.168   9.684  1.00  0.00     0.064 C 
BRANCH   7   8
ATOM      8  C   UNL     1       1.168   2.690   8.281  1.00  0.00     0.024 A 
ATOM      9  C   UNL     1       1.086   2.618   6.021  1.00  0.00     0.053 A 
ATOM     10  C   UNL     1       1.291   3.934   6.412  1.00  0.00     0.029 A 
ATOM     11  N   UNL     1       0.781   1.915   7.188  1.00  0.00    -0.314 N 
ATOM     12  C   UNL     1       1.314   3.984   7.822  1.00  0.00     0.024 A 
BRANCH   9  13
ATOM     13  C   UNL     1       0.925   2.140   4.648  1.00  0.00    -0.001 A 
ATOM     14  C   UNL     1       0.629   1.391   1.954  1.00  0.00     0.118 A 
ATOM     15  C   UNL     1      -0.442   1.944   2.657  1.00  0.00     0.047 A 
ATOM     16  C   UNL     1       1.859   1.229   2.593  1.00  0.00     0.047 A 
ATOM     17  C   UNL     1      -0.299   2.309   3.997  1.00  0.00     0.014 A 
ATOM     18  C   UNL     1       2.006   1.605   3.936  1.00  0.00     0.014 A 
BRANCH  14  19
ATOM     19  O   UNL     1       0.374   1.107   0.640  1.00  0.00    -0.497 OA
ATOM     20  C   UNL     1       1.119   0.030   0.089  1.00  0.00     0.278 C 
ENDBRANCH  14  19
ENDBRANCH   9  13
BRANCH  11  21
ATOM     21  C   UNL     1      -0.071   0.783   7.260  1.00  0.00     0.046 A 
ATOM     22  C   UNL     1      -1.243   0.919   8.013  1.00  0.00     0.027 A 
ATOM     23  C   UNL     1       0.158  -0.372   6.516  1.00  0.00     0.027 A 
ATOM     24  C   UNL     1      -2.200  -0.092   8.017  1.00  0.00     0.014 A 
ATOM     25  C   UNL     1      -0.797  -1.397   6.542  1.00  0.00     0.014 A 
ATOM     26  C   UNL     1      -1.991  -1.257   7.276  1.00  0.00     0.017 A 
BRANCH  26  27
ATOM     27  C   UNL     1      -2.997  -2.362   7.216  1.00  0.00     0.159 C 
ATOM     28  C   UNL     1      -4.375  -2.190   7.808  1.00  0.00     0.093 C 
ATOM     29  O   UNL     1      -2.699  -3.420   6.659  1.00  0.00    -0.295 OA
ENDBRANCH  26  27
ENDBRANCH  11  21
ENDBRANCH   7   8
ENDBRANCH   6   7
ENDBRANCH   3   6
ENDBRANCH   1   2
BRANCH   1  30
ATOM     30  C   UNL     1       4.495   3.076   7.134  1.00  0.00     0.042 C 
BRANCH  30  31
ATOM     31  C   UNL     1       5.545   4.075   6.682  1.00  0.00     0.118 C 
BRANCH  31  32
ATOM     32  N   UNL     1       6.220   3.619   5.479  1.00  0.00    -0.352 N 
ATOM     33  C   UNL     1       6.802   4.362   4.481  1.00  0.00     0.251 C 
ATOM     34  H   UNL     1       6.267   2.643   5.363  1.00  0.00     0.163 HD
ATOM     35  O   UNL     1       7.053   3.799   3.415  1.00  0.00    -0.269 OA
BRANCH  33  36
ATOM     36  C   UNL     1       7.126   5.802   4.654  1.00  0.00     0.039 A 
ATOM     37  C   UNL     1       7.191   6.603   3.503  1.00  0.00     0.014 A 
ATOM     38  C   UNL     1       7.432   6.362   5.898  1.00  0.00     0.014 A 
ATOM     39  C   UNL     1       7.505   7.958   3.605  1.00  0.00     0.010 A 
ATOM     40  C   UNL     1       7.723   7.716   6.008  1.00  0.00     0.010 A 
ATOM     41  C   UNL     1       7.746   8.517   4.865  1.00  0.00    -0.014 A 
BRANCH  41  42
ATOM     42  C   UNL     1       7.893   9.983   5.015  1.00  0.00     0.031 A 
ATOM     43  C   UNL     1       6.529  10.703   5.068  1.00  0.00     0.074 A 
ATOM     44  C   UNL     1       9.174  10.457   5.112  1.00  0.00     0.049 A 
ATOM     45  N   UNL     1       6.214  11.922   4.742  1.00  0.00    -0.248 NA
ATOM     46  C   UNL     1       5.314   9.925   5.442  1.00  0.00     0.031 C 
ATOM     47  C   UNL     1      10.382   9.602   5.078  1.00  0.00     0.029 A 
ATOM     48  N   UNL     1       9.735  11.711   5.272  1.00  0.00    -0.354 N 
ATOM     49  C   UNL     1       4.856  12.113   5.110  1.00  0.00     0.074 A 
ATOM     50  C   UNL     1       4.323  10.817   5.384  1.00  0.00     0.031 C 
ATOM     51  C   UNL     1      11.505  10.347   5.145  1.00  0.00     0.029 A 
ATOM     52  C   UNL     1      11.154  11.750   5.264  1.00  0.00     0.049 A 
ATOM     53  H   UNL     1       9.188  12.522   5.384  1.00  0.00     0.167 HD
ATOM     54  C   UNL     1       4.309  13.346   5.335  1.00  0.00     0.034 A 
ATOM     55  C   UNL     1      12.000  12.826   5.326  1.00  0.00     0.034 A 
ATOM     56  C   UNL     1       5.320  14.337   5.167  1.00  0.00     0.049 A 
ATOM     57  C   UNL     1      11.159  13.989   5.634  1.00  0.00     0.074 A 
ATOM     58  C   UNL     1       5.939  14.882   4.076  1.00  0.00     0.029 A 
ATOM     59  N   UNL     1       6.026  14.643   6.306  1.00  0.00    -0.354 N 
ATOM     60  N   UNL     1      10.637  14.225   6.801  1.00  0.00    -0.248 NA
ATOM     61  C   UNL     1      10.798  14.919   4.558  1.00  0.00     0.031 C 
ATOM     62  C   UNL     1       7.233  15.181   4.545  1.00  0.00     0.029 A 
ATOM     63  C   UNL     1       7.302  14.951   5.926  1.00  0.00     0.049 A 
ATOM     64  H   UNL     1       5.676  14.641   7.226  1.00  0.00     0.167 HD
ATOM     65  C   UNL     1       9.610  15.077   6.481  1.00  0.00     0.074 A 
ATOM     66  C   UNL     1       9.978  15.714   5.238  1.00  0.00     0.031 C 
ATOM     67  C   UNL     1       8.353  14.778   6.899  1.00  0.00     0.034 A 
BRANCH  54  68
ATOM     68  C   UNL     1       3.020  13.846   5.957  1.00  0.00     0.023 A 
ATOM     69  C   UNL     1       2.734  15.225   5.723  1.00  0.00     0.012 A 
ATOM     70  C   UNL     1       2.272  13.203   6.957  1.00  0.00     0.148 A 
ATOM     71  C   UNL     1       1.873  15.966   6.529  1.00  0.00     0.002 A 
ATOM     72  C   UNL     1       1.361  13.940   7.727  1.00  0.00     0.091 A 
ATOM     73  F   UNL     1       2.496  11.913   7.224  1.00  0.00    -0.205 F 
ATOM     74  C   UNL     1       1.197  15.322   7.545  1.00  0.00     0.022 A 
BRANCH  72  75
ATOM     75  S   UNL     1       0.336  13.180   8.994  1.00  0.00     0.127 S 
ATOM     76  O   UNL     1       1.054  13.545  10.222  1.00  0.00    -0.237 OA
ATOM     77  O   UNL     1      -0.940  13.891   8.819  1.00  0.00    -0.237 OA
ATOM     78  O   UNL     1       0.279  11.777   8.662  1.00  0.00    -0.744 OA
ENDBRANCH  72  75
ENDBRANCH  54  68
BRANCH  55  79
ATOM     79  C   UNL     1      13.472  13.093   5.094  1.00  0.00     0.023 A 
ATOM     80  C   UNL     1      14.454  12.097   5.014  1.00  0.00     0.012 A 
ATOM     81  C   UNL     1      13.924  14.424   4.840  1.00  0.00     0.148 A 
ATOM     82  C   UNL     1      15.769  12.393   4.598  1.00  0.00     0.002 A 
ATOM     83  C   UNL     1      15.178  14.698   4.308  1.00  0.00     0.091 A 
ATOM     84  F   UNL     1      13.144  15.464   5.149  1.00  0.00    -0.205 F 
ATOM     85  C   UNL     1      16.117  13.681   4.195  1.00  0.00     0.022 A 
BRANCH  83  86
ATOM     86  S   UNL     1      15.574  16.310   3.599  1.00  0.00     0.127 S 
ATOM     87  O   UNL     1      16.801  16.670   4.306  1.00  0.00    -0.237 OA
ATOM     88  O   UNL     1      15.754  15.969   2.187  1.00  0.00    -0.237 OA
ATOM     89  O   UNL     1      14.429  17.172   3.867  1.00  0.00    -0.744 OA
ENDBRANCH  83  86
ENDBRANCH  55  79
BRANCH  67  90
ATOM     90  C   UNL     1       8.294  13.967   8.194  1.00  0.00     0.023 A 
ATOM     91  C   UNL     1       8.894  14.540   9.335  1.00  0.00     0.012 A 
ATOM     92  C   UNL     1       7.800  12.646   8.320  1.00  0.00     0.148 A 
ATOM     93  C   UNL     1       9.021  13.835  10.535  1.00  0.00     0.002 A 
ATOM     94  C   UNL     1       7.932  11.936   9.519  1.00  0.00     0.091 A 
ATOM     95  F   UNL     1       7.220  12.078   7.264  1.00  0.00    -0.205 F 
ATOM     96  C   UNL     1       8.542  12.534  10.628  1.00  0.00     0.022 A 
BRANCH  94  97
ATOM     97  S   UNL     1       7.391  10.228   9.746  1.00  0.00     0.127 S 
ATOM     98  O   UNL     1       8.652   9.527   9.996  1.00  0.00    -0.237 OA
ATOM     99  O   UNL     1       6.523  10.330  10.918  1.00  0.00    -0.237 OA
ATOM    100  O   UNL     1       6.722   9.833   8.513  1.00  0.00    -0.744 OA
ENDBRANCH  94  97
ENDBRANCH  67  90
ENDBRANCH  41  42
ENDBRANCH  33  36
ENDBRANCH  31  32
ENDBRANCH  30  31
ENDBRANCH   1  30
TORSDOF 19
