REMARK SMILES CCOc1ccc2[nH]c(C)c/c(=N\c3cccc(C(=O)NCCCNC(=O)c4ccc(-c5c6nc(c(-c7cccc(S(=O)(=O)[O-])c7F)c7ccc([nH]7)c(-c7cccc(S(=O)(=O)[O-])c7F)c7nc(c(-c8cccc(S(=O)(=O)[O-])c8F)c8ccc5[nH]8)C=C7)C=C6)cc4)c3)c2c1
REMARK SMILES IDX 23 1 22 2 21 3 19 4 20 5 18 7 14 8 15 9 91 10 16 11 17 12
REMARK SMILES IDX 13 13 4 14 5 15 93 16 6 17 92 18 7 19 12 20 8 21 11 22 9 23
REMARK SMILES IDX 10 25 3 26 2 27 1 28 24 29 25 30 26 31 27 33 28 34 29 35
REMARK SMILES IDX 90 36 30 37 89 38 31 39 32 40 33 41 83 42 34 43 88 44 82 45
REMARK SMILES IDX 84 46 35 47 87 48 81 49 80 50 36 52 68 53 48 54 67 55 49 56
REMARK SMILES IDX 52 57 66 58 85 59 50 60 51 61 65 63 86 64 53 65 37 66 38 67
REMARK SMILES IDX 46 68 39 69 41 70 47 71 40 72 42 73 43 74 44 75 45 76 69 77
REMARK SMILES IDX 70 78 78 79 71 80 73 81 79 82 72 83 74 84 75 85 76 86 77 87
REMARK SMILES IDX 54 88 55 89 63 90 56 91 58 92 64 93 57 94 59 95 60 96 61 97
REMARK SMILES IDX 62 98
REMARK H PARENT 21 6 8 24 25 32 84 51 52 62
REMARK Flexibility Score: inf
ROOT
ATOM      1  C   UNL     1       4.687   1.070  -8.072  1.00  0.00     0.042 C 
ENDROOT
BRANCH   1   2
ATOM      2  C   UNL     1       3.964  -0.130  -8.665  1.00  0.00     0.118 C 
BRANCH   2   3
ATOM      3  N   UNL     1       4.757  -0.861  -9.646  1.00  0.00    -0.352 N 
ATOM      4  C   UNL     1       5.291  -2.121  -9.751  1.00  0.00     0.251 C 
ATOM      5  O   UNL     1       5.889  -2.364 -10.805  1.00  0.00    -0.269 OA
ATOM      6  H   UNL     1       4.962  -0.309 -10.435  1.00  0.00     0.163 HD
BRANCH   4   7
ATOM      7  C   UNL     1       5.253  -3.186  -8.706  1.00  0.00     0.041 A 
ATOM      8  C   UNL     1       4.622  -4.093  -6.539  1.00  0.00     0.064 A 
ATOM      9  C   UNL     1       5.432  -5.208  -6.742  1.00  0.00     0.028 A 
ATOM     10  C   UNL     1       4.456  -3.164  -7.568  1.00  0.00     0.042 A 
ATOM     11  C   UNL     1       6.181  -5.307  -7.913  1.00  0.00     0.003 A 
ATOM     12  C   UNL     1       6.118  -4.285  -8.868  1.00  0.00     0.014 A 
BRANCH   8  13
ATOM     13  N   UNL     1       4.047  -3.769  -5.298  1.00  0.00    -0.248 NA
ATOM     14  C   UNL     1       2.352  -1.946  -1.805  1.00  0.00     0.120 A 
ATOM     15  C   UNL     1       3.183  -1.768  -0.700  1.00  0.00     0.048 A 
ATOM     16  C   UNL     1       2.857  -2.488  -2.988  1.00  0.00     0.059 A 
ATOM     17  C   UNL     1       4.544  -2.049  -0.796  1.00  0.00     0.030 A 
ATOM     18  C   UNL     1       4.225  -2.784  -3.081  1.00  0.00     0.027 A 
ATOM     19  C   UNL     1       5.080  -2.536  -1.989  1.00  0.00     0.048 A 
ATOM     20  C   UNL     1       4.825  -3.315  -4.350  1.00  0.00     0.075 A 
ATOM     21  N   UNL     1       6.459  -2.747  -2.100  1.00  0.00    -0.359 N 
ATOM     22  C   UNL     1       6.329  -3.259  -4.415  1.00  0.00     0.050 A 
ATOM     23  C   UNL     1       7.048  -3.039  -3.304  1.00  0.00     0.014 A 
ATOM     24  H   UNL     1       7.020  -2.685  -1.294  1.00  0.00     0.166 HD
ATOM     25  C   UNL     1       8.550  -3.105  -3.334  1.00  0.00     0.064 C 
BRANCH  14  26
ATOM     26  O   UNL     1       1.012  -1.687  -1.714  1.00  0.00    -0.494 OA
BRANCH  26  27
ATOM     27  C   UNL     1       0.710  -0.283  -1.646  1.00  0.00     0.226 C 
ATOM     28  C   UNL     1       0.613   0.219  -0.213  1.00  0.00     0.049 C 
ENDBRANCH  26  27
ENDBRANCH  14  26
ENDBRANCH   8  13
ENDBRANCH   4   7
ENDBRANCH   2   3
ENDBRANCH   1   2
BRANCH   1  29
ATOM     29  C   UNL     1       4.880   2.217  -9.052  1.00  0.00     0.118 C 
BRANCH  29  30
ATOM     30  N   UNL     1       3.621   2.804  -9.504  1.00  0.00    -0.352 N 
ATOM     31  C   UNL     1       3.002   3.996  -9.198  1.00  0.00     0.251 C 
ATOM     32  H   UNL     1       3.124   2.245 -10.144  1.00  0.00     0.163 HD
ATOM     33  O   UNL     1       1.853   4.185  -9.579  1.00  0.00    -0.269 OA
BRANCH  31  34
ATOM     34  C   UNL     1       3.693   5.026  -8.387  1.00  0.00     0.039 A 
ATOM     35  C   UNL     1       5.051   5.276  -8.550  1.00  0.00     0.014 A 
ATOM     36  C   UNL     1       2.967   5.760  -7.441  1.00  0.00     0.014 A 
ATOM     37  C   UNL     1       5.725   6.060  -7.622  1.00  0.00     0.010 A 
ATOM     38  C   UNL     1       3.630   6.650  -6.586  1.00  0.00     0.010 A 
ATOM     39  C   UNL     1       5.028   6.753  -6.619  1.00  0.00    -0.014 A 
BRANCH  39  40
ATOM     40  C   UNL     1       5.800   7.545  -5.620  1.00  0.00     0.031 A 
ATOM     41  C   UNL     1       5.736   7.213  -4.148  1.00  0.00     0.074 A 
ATOM     42  C   UNL     1       6.640   8.510  -6.050  1.00  0.00     0.049 A 
ATOM     43  N   UNL     1       6.407   7.746  -3.159  1.00  0.00    -0.248 NA
ATOM     44  C   UNL     1       4.803   6.153  -3.724  1.00  0.00     0.031 C 
ATOM     45  C   UNL     1       6.787   8.941  -7.444  1.00  0.00     0.029 A 
ATOM     46  N   UNL     1       7.561   9.272  -5.374  1.00  0.00    -0.354 N 
ATOM     47  C   UNL     1       5.950   7.125  -2.002  1.00  0.00     0.074 A 
ATOM     48  C   UNL     1       4.939   6.175  -2.404  1.00  0.00     0.031 C 
ATOM     49  C   UNL     1       7.793   9.822  -7.531  1.00  0.00     0.029 A 
ATOM     50  C   UNL     1       8.324  10.071  -6.195  1.00  0.00     0.049 A 
ATOM     51  H   UNL     1       7.665   9.249  -4.395  1.00  0.00     0.167 HD
ATOM     52  C   UNL     1       6.356   7.306  -0.725  1.00  0.00     0.034 A 
ATOM     53  C   UNL     1       9.342  10.907  -5.912  1.00  0.00     0.034 A 
ATOM     54  C   UNL     1       7.418   8.188  -0.328  1.00  0.00     0.049 A 
ATOM     55  C   UNL     1       9.780  11.073  -4.486  1.00  0.00     0.074 A 
ATOM     56  C   UNL     1       7.924   8.399   0.944  1.00  0.00     0.029 A 
ATOM     57  N   UNL     1       8.148   8.988  -1.190  1.00  0.00    -0.354 N 
ATOM     58  N   UNL     1       9.373  10.427  -3.422  1.00  0.00    -0.248 NA
ATOM     59  C   UNL     1      10.816  12.083  -4.221  1.00  0.00     0.031 C 
ATOM     60  C   UNL     1       8.965   9.325   0.850  1.00  0.00     0.029 A 
ATOM     61  C   UNL     1       9.102   9.692  -0.478  1.00  0.00     0.049 A 
ATOM     62  H   UNL     1       8.009   9.047  -2.162  1.00  0.00     0.167 HD
ATOM     63  C   UNL     1      10.107  10.944  -2.363  1.00  0.00     0.074 A 
ATOM     64  C   UNL     1      11.002  11.939  -2.914  1.00  0.00     0.031 C 
ATOM     65  C   UNL     1      10.024  10.638  -1.047  1.00  0.00     0.034 A 
BRANCH  52  66
ATOM     66  C   UNL     1       5.708   6.488   0.358  1.00  0.00     0.023 A 
ATOM     67  C   UNL     1       6.169   5.177   0.589  1.00  0.00     0.012 A 
ATOM     68  C   UNL     1       4.762   7.059   1.230  1.00  0.00     0.148 A 
ATOM     69  C   UNL     1       5.696   4.444   1.676  1.00  0.00     0.002 A 
ATOM     70  C   UNL     1       4.314   6.331   2.326  1.00  0.00     0.091 A 
ATOM     71  F   UNL     1       4.341   8.308   0.986  1.00  0.00    -0.205 F 
ATOM     72  C   UNL     1       4.779   5.023   2.549  1.00  0.00     0.022 A 
BRANCH  70  73
ATOM     73  S   UNL     1       3.173   6.996   3.543  1.00  0.00     0.127 S 
ATOM     74  O   UNL     1       2.050   6.064   3.432  1.00  0.00    -0.237 OA
ATOM     75  O   UNL     1       3.943   6.877   4.780  1.00  0.00    -0.237 OA
ATOM     76  O   UNL     1       2.882   8.359   3.123  1.00  0.00    -0.744 OA
ENDBRANCH  70  73
ENDBRANCH  52  66
BRANCH  53  77
ATOM     77  C   UNL     1      10.050  11.611  -7.016  1.00  0.00     0.023 A 
ATOM     78  C   UNL     1      11.355  11.210  -7.359  1.00  0.00     0.012 A 
ATOM     79  C   UNL     1       9.427  12.635  -7.753  1.00  0.00     0.148 A 
ATOM     80  C   UNL     1      12.032  11.824  -8.413  1.00  0.00     0.002 A 
ATOM     81  C   UNL     1      10.089  13.211  -8.830  1.00  0.00     0.091 A 
ATOM     82  F   UNL     1       8.191  13.012  -7.395  1.00  0.00    -0.205 F 
ATOM     83  C   UNL     1      11.395  12.815  -9.156  1.00  0.00     0.022 A 
BRANCH  81  84
ATOM     84  S   UNL     1       9.302  14.413  -9.909  1.00  0.00     0.127 S 
ATOM     85  O   UNL     1       9.992  15.645  -9.535  1.00  0.00    -0.237 OA
ATOM     86  O   UNL     1       9.638  13.895 -11.235  1.00  0.00    -0.237 OA
ATOM     87  O   UNL     1       7.883  14.358  -9.585  1.00  0.00    -0.744 OA
ENDBRANCH  81  84
ENDBRANCH  53  77
BRANCH  65  88
ATOM     88  C   UNL     1      10.915  11.374  -0.090  1.00  0.00     0.023 A 
ATOM     89  C   UNL     1      10.534  12.657   0.346  1.00  0.00     0.012 A 
ATOM     90  C   UNL     1      12.035  10.743   0.483  1.00  0.00     0.148 A 
ATOM     91  C   UNL     1      11.258  13.305   1.345  1.00  0.00     0.002 A 
ATOM     92  C   UNL     1      12.733  11.382   1.500  1.00  0.00     0.091 A 
ATOM     93  F   UNL     1      12.373   9.522   0.044  1.00  0.00    -0.205 F 
ATOM     94  C   UNL     1      12.348  12.664   1.929  1.00  0.00     0.022 A 
BRANCH  92  95
ATOM     95  S   UNL     1      14.103  10.612   2.369  1.00  0.00     0.127 S 
ATOM     96  O   UNL     1      15.213  11.497   2.021  1.00  0.00    -0.237 OA
ATOM     97  O   UNL     1      13.668  10.696   3.763  1.00  0.00    -0.237 OA
ATOM     98  O   UNL     1      14.207   9.257   1.843  1.00  0.00    -0.744 OA
ENDBRANCH  92  95
ENDBRANCH  65  88
ENDBRANCH  39  40
ENDBRANCH  31  34
ENDBRANCH  29  30
ENDBRANCH   1  29
TORSDOF 16
