REMARK SMILES C[C@@](NC(=O)c1ccc(C[NH3+])o1)(C(=O)NCCCNC(=O)c1ccc(-c2c3nc(c(-c4cccc(S(=O)(=O)[O-])c4F)c4ccc([nH]4)c(-c4cccc(S(=O)(=O)[O-])c4F)c4nc(c(-c5cccc(S(=O)(=O)[O-])c5F)c5ccc2[nH]5)C=C4)C=C3)cc1)C1CC1
REMARK SMILES IDX 16 1 15 2 13 3 14 4 2 6 1 7 3 8 4 9 5 11 6 12 7 13 12 14
REMARK SMILES IDX 8 15 9 16 10 17 11 18 85 22 86 23 87 24 17 25 18 26 19 27
REMARK SMILES IDX 20 28 21 30 22 31 23 32 84 33 24 34 83 35 25 36 26 37 27 38
REMARK SMILES IDX 77 39 28 40 82 41 76 42 78 43 29 44 81 45 75 46 74 47 30 49
REMARK SMILES IDX 62 50 42 51 61 52 43 53 46 54 60 55 79 56 44 57 45 58 59 60
REMARK SMILES IDX 80 61 47 62 31 63 32 64 40 65 33 66 35 67 41 68 34 69 36 70
REMARK SMILES IDX 37 71 38 72 39 73 63 74 64 75 72 76 65 77 67 78 73 79 66 80
REMARK SMILES IDX 68 81 69 82 70 83 71 84 48 85 49 86 57 87 50 88 52 89 58 90
REMARK SMILES IDX 51 91 53 92 54 93 55 94 56 95
REMARK H PARENT 15 5 3 10 11 19 11 20 11 21 19 29 78 48 46 59
REMARK Flexibility Score: inf
ROOT
ATOM      1  C   UNL     1      -0.807  -1.271   1.874  1.00  0.00     0.117 C 
ENDROOT
BRANCH   1   2
ATOM      2  N   UNL     1      -1.352  -0.621   0.692  1.00  0.00    -0.354 N 
ATOM      3  C   UNL     1      -0.881  -0.554  -0.593  1.00  0.00     0.245 C 
ATOM      4  O   UNL     1      -1.569   0.102  -1.381  1.00  0.00    -0.272 OA
ATOM      5  H   UNL     1      -2.203  -0.148   0.840  1.00  0.00     0.163 HD
BRANCH   3   6
ATOM      6  C   UNL     1       0.525  -1.129  -0.968  1.00  0.00     0.119 C 
ATOM      7  C   UNL     1       1.548  -0.145  -0.329  1.00  0.00     0.046 C 
BRANCH   6   8
ATOM      8  N   UNL     1       0.775  -2.476  -0.412  1.00  0.00    -0.335 N 
ATOM      9  C   UNL     1       0.035  -3.635  -0.491  1.00  0.00     0.287 C 
ATOM     10  H   UNL     1       1.611  -2.559   0.100  1.00  0.00     0.165 HD
ATOM     11  O   UNL     1       0.627  -4.686  -0.229  1.00  0.00    -0.266 OA
BRANCH   9  12
ATOM     12  C   UNL     1      -1.380  -3.578  -0.760  1.00  0.00     0.191 A 
ATOM     13  C   UNL     1      -2.127  -3.441  -1.913  1.00  0.00     0.057 A 
ATOM     14  O   UNL     1      -2.230  -3.714   0.307  1.00  0.00    -0.450 OA
ATOM     15  C   UNL     1      -3.491  -3.423  -1.521  1.00  0.00     0.052 A 
ATOM     16  C   UNL     1      -3.508  -3.595  -0.154  1.00  0.00     0.159 A 
BRANCH  16  17
ATOM     17  C   UNL     1      -4.592  -3.644   0.863  1.00  0.00     0.335 C 
BRANCH  17  18
ATOM     18  N   UNL     1      -4.915  -5.018   1.228  1.00  0.00    -0.351 N 
ATOM     19  H   UNL     1      -5.239  -5.521   0.402  1.00  0.00     0.344 HD
ATOM     20  H   UNL     1      -5.649  -5.017   1.936  1.00  0.00     0.344 HD
ATOM     21  H   UNL     1      -4.083  -5.475   1.601  1.00  0.00     0.344 HD
ENDBRANCH  17  18
ENDBRANCH  16  17
ENDBRANCH   9  12
ENDBRANCH   6   8
BRANCH   6  22
ATOM     22  C   UNL     1       0.903  -1.206  -2.451  1.00  0.00     0.024 C 
ATOM     23  C   UNL     1      -0.046  -1.232  -3.625  1.00  0.00     0.007 C 
ATOM     24  C   UNL     1       0.781  -0.005  -3.365  1.00  0.00     0.007 C 
ENDBRANCH   6  22
ENDBRANCH   3   6
ENDBRANCH   1   2
BRANCH   1  25
ATOM     25  C   UNL     1      -1.023  -0.453   3.138  1.00  0.00     0.042 C 
BRANCH  25  26
ATOM     26  C   UNL     1      -2.480  -0.344   3.564  1.00  0.00     0.118 C 
BRANCH  26  27
ATOM     27  N   UNL     1      -3.086  -1.619   3.926  1.00  0.00    -0.352 N 
ATOM     28  C   UNL     1      -4.047  -1.863   4.880  1.00  0.00     0.251 C 
ATOM     29  H   UNL     1      -2.767  -2.404   3.426  1.00  0.00     0.163 HD
ATOM     30  O   UNL     1      -4.436  -3.007   5.094  1.00  0.00    -0.269 OA
BRANCH  28  31
ATOM     31  C   UNL     1      -4.573  -0.737   5.678  1.00  0.00     0.039 A 
ATOM     32  C   UNL     1      -4.564  -0.844   7.070  1.00  0.00     0.014 A 
ATOM     33  C   UNL     1      -5.014   0.436   5.059  1.00  0.00     0.014 A 
ATOM     34  C   UNL     1      -4.930   0.257   7.845  1.00  0.00     0.010 A 
ATOM     35  C   UNL     1      -5.305   1.555   5.833  1.00  0.00     0.010 A 
ATOM     36  C   UNL     1      -5.267   1.476   7.233  1.00  0.00    -0.014 A 
BRANCH  36  37
ATOM     37  C   UNL     1      -5.552   2.680   8.052  1.00  0.00     0.031 A 
ATOM     38  C   UNL     1      -6.918   3.306   8.039  1.00  0.00     0.074 A 
ATOM     39  C   UNL     1      -4.554   3.249   8.756  1.00  0.00     0.049 A 
ATOM     40  N   UNL     1      -7.358   4.332   8.721  1.00  0.00    -0.248 NA
ATOM     41  C   UNL     1      -7.913   2.728   7.120  1.00  0.00     0.031 C 
ATOM     42  C   UNL     1      -3.158   2.804   8.755  1.00  0.00     0.029 A 
ATOM     43  N   UNL     1      -4.556   4.331   9.599  1.00  0.00    -0.354 N 
ATOM     44  C   UNL     1      -8.664   4.539   8.296  1.00  0.00     0.074 A 
ATOM     45  C   UNL     1      -8.934   3.560   7.266  1.00  0.00     0.031 C 
ATOM     46  C   UNL     1      -2.444   3.593   9.574  1.00  0.00     0.029 A 
ATOM     47  C   UNL     1      -3.326   4.600  10.154  1.00  0.00     0.049 A 
ATOM     48  H   UNL     1      -5.361   4.865   9.788  1.00  0.00     0.167 HD
ATOM     49  C   UNL     1      -9.571   5.436   8.751  1.00  0.00     0.034 A 
ATOM     50  C   UNL     1      -2.960   5.536  11.051  1.00  0.00     0.034 A 
ATOM     51  C   UNL     1      -9.315   6.366   9.816  1.00  0.00     0.049 A 
ATOM     52  C   UNL     1      -4.014   6.444  11.624  1.00  0.00     0.074 A 
ATOM     53  C   UNL     1     -10.191   7.254  10.416  1.00  0.00     0.029 A 
ATOM     54  N   UNL     1      -8.091   6.525  10.447  1.00  0.00    -0.354 N 
ATOM     55  N   UNL     1      -5.294   6.498  11.346  1.00  0.00    -0.248 NA
ATOM     56  C   UNL     1      -3.585   7.382  12.671  1.00  0.00     0.031 C 
ATOM     57  C   UNL     1      -9.495   7.948  11.413  1.00  0.00     0.029 A 
ATOM     58  C   UNL     1      -8.187   7.490  11.434  1.00  0.00     0.049 A 
ATOM     59  H   UNL     1      -7.273   6.025  10.224  1.00  0.00     0.167 HD
ATOM     60  C   UNL     1      -5.830   7.452  12.204  1.00  0.00     0.074 A 
ATOM     61  C   UNL     1      -4.739   7.929  13.030  1.00  0.00     0.031 C 
ATOM     62  C   UNL     1      -7.104   7.908  12.286  1.00  0.00     0.034 A 
BRANCH  49  63
ATOM     63  C   UNL     1     -10.951   5.391   8.151  1.00  0.00     0.023 A 
ATOM     64  C   UNL     1     -11.811   4.325   8.488  1.00  0.00     0.012 A 
ATOM     65  C   UNL     1     -11.415   6.408   7.295  1.00  0.00     0.148 A 
ATOM     66  C   UNL     1     -13.098   4.254   7.958  1.00  0.00     0.002 A 
ATOM     67  C   UNL     1     -12.714   6.350   6.801  1.00  0.00     0.091 A 
ATOM     68  F   UNL     1     -10.575   7.399   6.963  1.00  0.00    -0.205 F 
ATOM     69  C   UNL     1     -13.552   5.270   7.124  1.00  0.00     0.022 A 
BRANCH  67  70
ATOM     70  S   UNL     1     -13.413   7.648   5.774  1.00  0.00     0.127 S 
ATOM     71  O   UNL     1     -13.376   7.029   4.450  1.00  0.00    -0.237 OA
ATOM     72  O   UNL     1     -14.755   7.803   6.337  1.00  0.00    -0.237 OA
ATOM     73  O   UNL     1     -12.547   8.805   5.953  1.00  0.00    -0.744 OA
ENDBRANCH  67  70
ENDBRANCH  49  63
BRANCH  50  74
ATOM     74  C   UNL     1      -1.557   5.570  11.553  1.00  0.00     0.023 A 
ATOM     75  C   UNL     1      -1.287   5.125  12.862  1.00  0.00     0.012 A 
ATOM     76  C   UNL     1      -0.490   5.992  10.738  1.00  0.00     0.148 A 
ATOM     77  C   UNL     1       0.016   5.126  13.361  1.00  0.00     0.002 A 
ATOM     78  C   UNL     1       0.813   5.942  11.223  1.00  0.00     0.091 A 
ATOM     79  F   UNL     1      -0.766   6.426   9.500  1.00  0.00    -0.205 F 
ATOM     80  C   UNL     1       1.067   5.524  12.538  1.00  0.00     0.022 A 
BRANCH  78  81
ATOM     81  S   UNL     1       2.230   6.307  10.181  1.00  0.00     0.127 S 
ATOM     82  O   UNL     1       2.569   7.665  10.599  1.00  0.00    -0.237 OA
ATOM     83  O   UNL     1       3.189   5.279  10.589  1.00  0.00    -0.237 OA
ATOM     84  O   UNL     1       1.748   6.159   8.813  1.00  0.00    -0.744 OA
ENDBRANCH  78  81
ENDBRANCH  50  74
BRANCH  62  85
ATOM     85  C   UNL     1      -7.395   8.966  13.316  1.00  0.00     0.023 A 
ATOM     86  C   UNL     1      -6.955  10.286  13.097  1.00  0.00     0.012 A 
ATOM     87  C   UNL     1      -8.150   8.670  14.467  1.00  0.00     0.148 A 
ATOM     88  C   UNL     1      -7.235  11.290  14.023  1.00  0.00     0.002 A 
ATOM     89  C   UNL     1      -8.461   9.685  15.366  1.00  0.00     0.091 A 
ATOM     90  F   UNL     1      -8.541   7.404  14.674  1.00  0.00    -0.205 F 
ATOM     91  C   UNL     1      -7.997  10.992  15.151  1.00  0.00     0.022 A 
BRANCH  89  92
ATOM     92  S   UNL     1      -9.513   9.386  16.791  1.00  0.00     0.127 S 
ATOM     93  O   UNL     1      -8.531   9.116  17.839  1.00  0.00    -0.237 OA
ATOM     94  O   UNL     1     -10.225  10.658  16.937  1.00  0.00    -0.237 OA
ATOM     95  O   UNL     1     -10.366   8.268  16.412  1.00  0.00    -0.744 OA
ENDBRANCH  89  92
ENDBRANCH  62  85
ENDBRANCH  36  37
ENDBRANCH  28  31
ENDBRANCH  26  27
ENDBRANCH  25  26
ENDBRANCH   1  25
TORSDOF 18
