REMARK SMILES O=C(NCCCNC(=O)[C@H]1CN(C(=O)N[C@H]2CCOC2)c2ccccc2O1)c1ccc(-c2c3nc(c(-c4cccc(S(=O)(=O)[O-])c4F)c4ccc([nH]4)c(-c4cccc(S(=O)(=O)[O-])c4F)c4nc(c(-c5cccc(S(=O)(=O)[O-])c5F)c5ccc2[nH]5)C=C4)C=C3)cc1
REMARK SMILES IDX 4 1 3 2 1 3 2 4 28 6 29 7 90 8 30 9 89 10 31 11 32 12 33 13
REMARK SMILES IDX 83 14 34 15 88 16 82 17 84 18 35 19 87 20 81 21 80 22 36 24
REMARK SMILES IDX 68 25 48 26 67 27 49 28 52 29 66 30 85 31 50 32 51 33 65 35
REMARK SMILES IDX 86 36 53 37 37 38 38 39 46 40 39 41 41 42 47 43 40 44 42 45
REMARK SMILES IDX 43 46 44 47 45 48 69 49 70 50 78 51 71 52 73 53 79 54 72 55
REMARK SMILES IDX 74 56 75 57 76 58 77 59 54 60 55 61 63 62 56 63 58 64 64 65
REMARK SMILES IDX 57 66 59 67 60 68 61 69 62 70 5 71 6 72 7 73 8 74 9 76 10 77
REMARK SMILES IDX 11 78 27 79 12 80 26 81 21 82 25 83 22 84 24 85 23 86 13 87
REMARK SMILES IDX 14 88 15 89 16 91 17 92 20 93 18 94 19 95
REMARK H PARENT 3 5 84 23 52 34 7 75 15 90
REMARK Flexibility Score: inf
ROOT
ATOM      1  C   UNL     1       6.546   3.002  -1.236  1.00  0.00     0.118 C 
ENDROOT
BRANCH   1   2
ATOM      2  N   UNL     1       7.293   1.779  -1.511  1.00  0.00    -0.352 N 
ATOM      3  O   UNL     1       8.788   0.130  -1.165  1.00  0.00    -0.269 OA
ATOM      4  C   UNL     1       8.134   1.058  -0.695  1.00  0.00     0.251 C 
ATOM      5  H   UNL     1       7.177   1.414  -2.418  1.00  0.00     0.163 HD
BRANCH   4   6
ATOM      6  C   UNL     1       8.275   1.425   0.731  1.00  0.00     0.039 A 
ATOM      7  C   UNL     1       7.156   1.782   1.483  1.00  0.00     0.014 A 
ATOM      8  C   UNL     1       9.542   1.428   1.322  1.00  0.00     0.014 A 
ATOM      9  C   UNL     1       7.323   2.332   2.746  1.00  0.00     0.010 A 
ATOM     10  C   UNL     1       9.693   1.869   2.642  1.00  0.00     0.010 A 
ATOM     11  C   UNL     1       8.591   2.368   3.350  1.00  0.00    -0.014 A 
BRANCH  11  12
ATOM     12  C   UNL     1       8.698   2.872   4.745  1.00  0.00     0.031 A 
ATOM     13  C   UNL     1       9.513   4.088   5.088  1.00  0.00     0.074 A 
ATOM     14  C   UNL     1       7.995   2.236   5.704  1.00  0.00     0.049 A 
ATOM     15  N   UNL     1       9.629   4.696   6.242  1.00  0.00    -0.248 NA
ATOM     16  C   UNL     1      10.310   4.699   4.011  1.00  0.00     0.031 C 
ATOM     17  C   UNL     1       7.215   1.011   5.500  1.00  0.00     0.029 A 
ATOM     18  N   UNL     1       7.800   2.534   7.027  1.00  0.00    -0.354 N 
ATOM     19  C   UNL     1      10.530   5.735   6.042  1.00  0.00     0.074 A 
ATOM     20  C   UNL     1      10.944   5.669   4.657  1.00  0.00     0.031 C 
ATOM     21  C   UNL     1       6.587   0.693   6.639  1.00  0.00     0.029 A 
ATOM     22  C   UNL     1       6.958   1.655   7.668  1.00  0.00     0.049 A 
ATOM     23  H   UNL     1       8.222   3.302   7.476  1.00  0.00     0.167 HD
ATOM     24  C   UNL     1      10.954   6.671   6.925  1.00  0.00     0.034 A 
ATOM     25  C   UNL     1       6.530   1.622   8.944  1.00  0.00     0.034 A 
ATOM     26  C   UNL     1      10.508   6.754   8.292  1.00  0.00     0.049 A 
ATOM     27  C   UNL     1       6.968   2.709   9.881  1.00  0.00     0.074 A 
ATOM     28  C   UNL     1      10.858   7.684   9.256  1.00  0.00     0.029 A 
ATOM     29  N   UNL     1       9.610   5.882   8.888  1.00  0.00    -0.354 N 
ATOM     30  N   UNL     1       7.733   3.745   9.638  1.00  0.00    -0.248 NA
ATOM     31  C   UNL     1       6.465   2.639  11.259  1.00  0.00     0.031 C 
ATOM     32  C   UNL     1      10.171   7.372  10.436  1.00  0.00     0.029 A 
ATOM     33  C   UNL     1       9.388   6.254  10.203  1.00  0.00     0.049 A 
ATOM     34  H   UNL     1       9.191   5.111   8.441  1.00  0.00     0.167 HD
ATOM     35  C   UNL     1       7.797   4.456  10.828  1.00  0.00     0.074 A 
ATOM     36  C   UNL     1       6.957   3.755  11.779  1.00  0.00     0.031 C 
ATOM     37  C   UNL     1       8.513   5.570  11.120  1.00  0.00     0.034 A 
BRANCH  24  38
ATOM     38  C   UNL     1      11.910   7.725   6.429  1.00  0.00     0.023 A 
ATOM     39  C   UNL     1      11.419   8.771   5.621  1.00  0.00     0.012 A 
ATOM     40  C   UNL     1      13.263   7.731   6.820  1.00  0.00     0.148 A 
ATOM     41  C   UNL     1      12.263   9.796   5.194  1.00  0.00     0.002 A 
ATOM     42  C   UNL     1      14.091   8.775   6.418  1.00  0.00     0.091 A 
ATOM     43  F   UNL     1      13.717   6.718   7.570  1.00  0.00    -0.205 F 
ATOM     44  C   UNL     1      13.594   9.803   5.600  1.00  0.00     0.022 A 
BRANCH  42  45
ATOM     45  S   UNL     1      15.804   8.912   6.945  1.00  0.00     0.127 S 
ATOM     46  O   UNL     1      16.519   8.566   5.718  1.00  0.00    -0.237 OA
ATOM     47  O   UNL     1      15.899  10.322   7.328  1.00  0.00    -0.237 OA
ATOM     48  O   UNL     1      15.959   7.974   8.048  1.00  0.00    -0.744 OA
ENDBRANCH  42  45
ENDBRANCH  24  38
BRANCH  25  49
ATOM     49  C   UNL     1       5.594   0.548   9.377  1.00  0.00     0.023 A 
ATOM     50  C   UNL     1       4.258   0.869   9.683  1.00  0.00     0.012 A 
ATOM     51  C   UNL     1       6.003  -0.799   9.421  1.00  0.00     0.148 A 
ATOM     52  C   UNL     1       3.353  -0.131  10.044  1.00  0.00     0.002 A 
ATOM     53  C   UNL     1       5.081  -1.795   9.719  1.00  0.00     0.091 A 
ATOM     54  F   UNL     1       7.285  -1.087   9.149  1.00  0.00    -0.205 F 
ATOM     55  C   UNL     1       3.760  -1.463  10.047  1.00  0.00     0.022 A 
BRANCH  53  56
ATOM     56  S   UNL     1       5.508  -3.534   9.571  1.00  0.00     0.127 S 
ATOM     57  O   UNL     1       5.873  -3.872  10.943  1.00  0.00    -0.237 OA
ATOM     58  O   UNL     1       4.255  -4.127   9.102  1.00  0.00    -0.237 OA
ATOM     59  O   UNL     1       6.584  -3.572   8.588  1.00  0.00    -0.744 OA
ENDBRANCH  53  56
ENDBRANCH  25  49
BRANCH  37  60
ATOM     60  C   UNL     1       8.417   6.095  12.526  1.00  0.00     0.023 A 
ATOM     61  C   UNL     1       9.082   5.412  13.564  1.00  0.00     0.012 A 
ATOM     62  C   UNL     1       7.712   7.279  12.815  1.00  0.00     0.148 A 
ATOM     63  C   UNL     1       9.018   5.881  14.875  1.00  0.00     0.002 A 
ATOM     64  C   UNL     1       7.687   7.762  14.118  1.00  0.00     0.091 A 
ATOM     65  F   UNL     1       7.064   7.900  11.818  1.00  0.00    -0.205 F 
ATOM     66  C   UNL     1       8.330   7.061  15.150  1.00  0.00     0.022 A 
BRANCH  64  67
ATOM     67  S   UNL     1       6.889   9.316  14.539  1.00  0.00     0.127 S 
ATOM     68  O   UNL     1       5.612   8.859  15.082  1.00  0.00    -0.237 OA
ATOM     69  O   UNL     1       7.805   9.883  15.530  1.00  0.00    -0.237 OA
ATOM     70  O   UNL     1       6.815  10.068  13.294  1.00  0.00    -0.744 OA
ENDBRANCH  64  67
ENDBRANCH  37  60
ENDBRANCH  11  12
ENDBRANCH   4   6
ENDBRANCH   1   2
BRANCH   1  71
ATOM     71  C   UNL     1       6.923   4.153  -2.155  1.00  0.00     0.042 C 
BRANCH  71  72
ATOM     72  C   UNL     1       6.517   3.923  -3.598  1.00  0.00     0.118 C 
BRANCH  72  73
ATOM     73  N   UNL     1       5.074   3.868  -3.768  1.00  0.00    -0.353 N 
ATOM     74  C   UNL     1       4.222   4.737  -4.392  1.00  0.00     0.262 C 
ATOM     75  H   UNL     1       4.640   3.079  -3.370  1.00  0.00     0.163 HD
ATOM     76  O   UNL     1       3.018   4.479  -4.361  1.00  0.00    -0.271 OA
BRANCH  74  77
ATOM     77  C   UNL     1       4.786   5.926  -5.173  1.00  0.00     0.281 C 
ATOM     78  C   UNL     1       4.925   5.468  -6.618  1.00  0.00     0.183 C 
ATOM     79  O   UNL     1       3.908   7.040  -5.117  1.00  0.00    -0.477 OA
ATOM     80  N   UNL     1       5.636   6.475  -7.417  1.00  0.00    -0.287 N 
ATOM     81  C   UNL     1       4.269   8.018  -6.016  1.00  0.00     0.144 A 
ATOM     82  C   UNL     1       5.113   7.812  -7.138  1.00  0.00     0.088 A 
ATOM     83  C   UNL     1       3.712   9.270  -5.731  1.00  0.00     0.049 A 
ATOM     84  C   UNL     1       5.364   8.930  -7.946  1.00  0.00     0.030 A 
ATOM     85  C   UNL     1       3.990  10.358  -6.546  1.00  0.00     0.004 A 
ATOM     86  C   UNL     1       4.814  10.187  -7.652  1.00  0.00     0.002 A 
BRANCH  80  87
ATOM     87  C   UNL     1       6.632   6.245  -8.345  1.00  0.00     0.322 C 
ATOM     88  O   UNL     1       7.231   7.132  -8.962  1.00  0.00    -0.248 OA
ATOM     89  N   UNL     1       7.095   5.015  -8.671  1.00  0.00    -0.333 N 
ATOM     90  H   UNL     1       7.726   5.058  -9.425  1.00  0.00     0.165 HD
BRANCH  89  91
ATOM     91  C   UNL     1       6.915   3.653  -8.210  1.00  0.00     0.112 C 
ATOM     92  C   UNL     1       7.497   2.582  -9.115  1.00  0.00     0.056 C 
ATOM     93  C   UNL     1       7.699   3.337  -6.944  1.00  0.00     0.185 C 
ATOM     94  C   UNL     1       7.518   1.389  -8.172  1.00  0.00     0.162 C 
ATOM     95  O   UNL     1       7.768   1.910  -6.857  1.00  0.00    -0.379 OA
ENDBRANCH  89  91
ENDBRANCH  80  87
ENDBRANCH  74  77
ENDBRANCH  72  73
ENDBRANCH  71  72
ENDBRANCH   1  71
TORSDOF 15
