REMARK SMILES Cc1[nH]ncc1S(=O)(=O)N1CC[C@@H](C(=O)NCCCNC(=O)c2ccc(-c3c4nc(c(-c5cccc(S(=O)(=O)[O-])c5F)c5ccc([nH]5)c(-c5cccc(S(=O)(=O)[O-])c5F)c5nc(c(-c6cccc(S(=O)(=O)[O-])c6F)c6ccc3[nH]6)C=C5)C=C4)cc2)[C@@H]1C
REMARK SMILES IDX 18 1 17 2 16 3 14 4 15 5 13 7 10 8 11 9 86 10 12 11 87 12
REMARK SMILES IDX 7 13 8 14 9 15 6 16 1 17 2 18 3 19 4 20 5 22 19 23 20 24
REMARK SMILES IDX 21 25 22 27 23 28 24 29 85 30 25 31 84 32 26 33 27 34 28 35
REMARK SMILES IDX 78 36 29 37 83 38 77 39 79 40 30 41 82 42 76 43 75 44 31 46
REMARK SMILES IDX 63 47 43 48 62 49 44 50 47 51 61 52 80 53 45 54 46 55 60 57
REMARK SMILES IDX 81 58 48 59 32 60 33 61 41 62 34 63 36 64 42 65 35 66 37 67
REMARK SMILES IDX 38 68 39 69 40 70 64 71 65 72 73 73 66 74 68 75 74 76 67 77
REMARK SMILES IDX 69 78 70 79 71 80 72 81 49 82 50 83 58 84 51 85 53 86 59 87
REMARK SMILES IDX 52 88 54 89 55 90 56 91 57 92
REMARK H PARENT 16 6 3 21 20 26 79 45 47 56
REMARK Flexibility Score: inf
ROOT
ATOM      1  C   UNL     1       0.021   0.671   2.579  1.00  0.00     0.042 C 
ENDROOT
BRANCH   1   2
ATOM      2  C   UNL     1      -1.041  -0.038   1.755  1.00  0.00     0.117 C 
BRANCH   2   3
ATOM      3  N   UNL     1      -2.333  -0.179   2.392  1.00  0.00    -0.356 N 
ATOM      4  C   UNL     1      -3.554   0.199   1.926  1.00  0.00     0.224 C 
ATOM      5  O   UNL     1      -4.504  -0.543   2.205  1.00  0.00    -0.275 OA
ATOM      6  H   UNL     1      -2.328  -0.604   3.280  1.00  0.00     0.163 HD
BRANCH   4   7
ATOM      7  C   UNL     1      -3.825   1.470   1.119  1.00  0.00     0.098 C 
ATOM      8  N   UNL     1      -2.360   2.472  -0.426  1.00  0.00    -0.194 NA
ATOM      9  C   UNL     1      -3.494   2.081  -1.240  1.00  0.00     0.104 C 
ATOM     10  C   UNL     1      -2.726   2.530   0.999  1.00  0.00     0.082 C 
ATOM     11  C   UNL     1      -4.303   1.178  -0.316  1.00  0.00     0.032 C 
ATOM     12  C   UNL     1      -3.278   3.916   1.347  1.00  0.00     0.026 C 
BRANCH   8  13
ATOM     13  S   UNL     1      -0.853   2.779  -1.047  1.00  0.00     0.246 S 
ATOM     14  O   UNL     1      -0.070   3.420  -0.013  1.00  0.00    -0.207 OA
ATOM     15  O   UNL     1      -1.020   3.358  -2.361  1.00  0.00    -0.207 OA
BRANCH  13  16
ATOM     16  C   UNL     1       0.044   1.339  -1.381  1.00  0.00     0.123 A 
ATOM     17  C   UNL     1      -1.576  -0.753  -1.636  1.00  0.00     0.067 C 
ATOM     18  C   UNL     1      -0.312   0.014  -1.607  1.00  0.00     0.052 A 
ATOM     19  N   UNL     1       0.879  -0.634  -1.836  1.00  0.00    -0.281 N 
ATOM     20  N   UNL     1       1.949   0.164  -1.799  1.00  0.00    -0.183 NA
ATOM     21  H   UNL     1       0.938  -1.601  -2.011  1.00  0.00     0.190 HD
ATOM     22  C   UNL     1       1.446   1.364  -1.510  1.00  0.00     0.157 A 
ENDBRANCH  13  16
ENDBRANCH   8  13
ENDBRANCH   4   7
ENDBRANCH   2   3
ENDBRANCH   1   2
BRANCH   1  23
ATOM     23  C   UNL     1       1.178  -0.230   2.985  1.00  0.00     0.118 C 
BRANCH  23  24
ATOM     24  N   UNL     1       1.868  -0.873   1.870  1.00  0.00    -0.352 N 
ATOM     25  C   UNL     1       3.199  -1.189   1.715  1.00  0.00     0.251 C 
ATOM     26  H   UNL     1       1.292  -1.118   1.110  1.00  0.00     0.163 HD
ATOM     27  O   UNL     1       3.561  -1.812   0.720  1.00  0.00    -0.269 OA
BRANCH  25  28
ATOM     28  C   UNL     1       4.191  -0.755   2.722  1.00  0.00     0.039 A 
ATOM     29  C   UNL     1       5.403  -0.206   2.288  1.00  0.00     0.014 A 
ATOM     30  C   UNL     1       3.920  -0.854   4.085  1.00  0.00     0.014 A 
ATOM     31  C   UNL     1       6.308   0.304   3.224  1.00  0.00     0.010 A 
ATOM     32  C   UNL     1       4.764  -0.244   5.002  1.00  0.00     0.010 A 
ATOM     33  C   UNL     1       5.978   0.323   4.587  1.00  0.00    -0.014 A 
BRANCH  33  34
ATOM     34  C   UNL     1       6.884   0.886   5.622  1.00  0.00     0.031 A 
ATOM     35  C   UNL     1       7.341   0.006   6.759  1.00  0.00     0.074 A 
ATOM     36  C   UNL     1       7.184   2.200   5.620  1.00  0.00     0.049 A 
ATOM     37  N   UNL     1       7.972   0.331   7.856  1.00  0.00    -0.248 NA
ATOM     38  C   UNL     1       6.986  -1.422   6.676  1.00  0.00     0.031 C 
ATOM     39  C   UNL     1       6.725   3.177   4.629  1.00  0.00     0.029 A 
ATOM     40  N   UNL     1       7.919   2.949   6.505  1.00  0.00    -0.354 N 
ATOM     41  C   UNL     1       8.020  -0.829   8.621  1.00  0.00     0.074 A 
ATOM     42  C   UNL     1       7.321  -1.855   7.881  1.00  0.00     0.031 C 
ATOM     43  C   UNL     1       7.195   4.392   4.956  1.00  0.00     0.029 A 
ATOM     44  C   UNL     1       7.963   4.289   6.192  1.00  0.00     0.049 A 
ATOM     45  H   UNL     1       8.372   2.564   7.289  1.00  0.00     0.167 HD
ATOM     46  C   UNL     1       8.626  -1.036   9.815  1.00  0.00     0.034 A 
ATOM     47  C   UNL     1       8.558   5.315   6.832  1.00  0.00     0.034 A 
ATOM     48  C   UNL     1       9.412  -0.041  10.489  1.00  0.00     0.049 A 
ATOM     49  C   UNL     1       9.338   5.031   8.088  1.00  0.00     0.074 A 
ATOM     50  C   UNL     1      10.165  -0.172  11.642  1.00  0.00     0.029 A 
ATOM     51  N   UNL     1       9.566   1.267  10.055  1.00  0.00    -0.354 N 
ATOM     52  N   UNL     1       9.492   3.894   8.724  1.00  0.00    -0.248 NA
ATOM     53  C   UNL     1      10.062   6.159   8.691  1.00  0.00     0.031 C 
ATOM     54  C   UNL     1      10.780   1.058  11.901  1.00  0.00     0.029 A 
ATOM     55  C   UNL     1      10.415   1.951  10.905  1.00  0.00     0.049 A 
ATOM     56  H   UNL     1       9.134   1.652   9.258  1.00  0.00     0.167 HD
ATOM     57  C   UNL     1      10.359   4.161   9.778  1.00  0.00     0.074 A 
ATOM     58  C   UNL     1      10.712   5.563   9.682  1.00  0.00     0.031 C 
ATOM     59  C   UNL     1      10.808   3.328  10.749  1.00  0.00     0.034 A 
BRANCH  46  60
ATOM     60  C   UNL     1       8.527  -2.412  10.421  1.00  0.00     0.023 A 
ATOM     61  C   UNL     1       9.218  -3.486   9.821  1.00  0.00     0.012 A 
ATOM     62  C   UNL     1       7.784  -2.642  11.595  1.00  0.00     0.148 A 
ATOM     63  C   UNL     1       9.134  -4.773  10.351  1.00  0.00     0.002 A 
ATOM     64  C   UNL     1       7.743  -3.920  12.145  1.00  0.00     0.091 A 
ATOM     65  F   UNL     1       7.115  -1.617  12.142  1.00  0.00    -0.205 F 
ATOM     66  C   UNL     1       8.405  -4.987  11.516  1.00  0.00     0.022 A 
BRANCH  64  67
ATOM     67  S   UNL     1       6.899  -4.284  13.688  1.00  0.00     0.127 S 
ATOM     68  O   UNL     1       5.724  -5.015  13.217  1.00  0.00    -0.237 OA
ATOM     69  O   UNL     1       7.884  -5.104  14.394  1.00  0.00    -0.237 OA
ATOM     70  O   UNL     1       6.629  -2.995  14.310  1.00  0.00    -0.744 OA
ENDBRANCH  64  67
ENDBRANCH  46  60
BRANCH  47  71
ATOM     71  C   UNL     1       8.527   6.682   6.239  1.00  0.00     0.023 A 
ATOM     72  C   UNL     1       9.703   7.203   5.664  1.00  0.00     0.012 A 
ATOM     73  C   UNL     1       7.348   7.452   6.203  1.00  0.00     0.148 A 
ATOM     74  C   UNL     1       9.717   8.476   5.094  1.00  0.00     0.002 A 
ATOM     75  C   UNL     1       7.356   8.700   5.589  1.00  0.00     0.091 A 
ATOM     76  F   UNL     1       6.241   6.946   6.764  1.00  0.00    -0.205 F 
ATOM     77  C   UNL     1       8.542   9.220   5.047  1.00  0.00     0.022 A 
BRANCH  75  78
ATOM     78  S   UNL     1       5.862   9.676   5.375  1.00  0.00     0.127 S 
ATOM     79  O   UNL     1       6.046  10.728   6.371  1.00  0.00    -0.237 OA
ATOM     80  O   UNL     1       5.982  10.117   3.985  1.00  0.00    -0.237 OA
ATOM     81  O   UNL     1       4.759   8.756   5.618  1.00  0.00    -0.744 OA
ENDBRANCH  75  78
ENDBRANCH  47  71
BRANCH  59  82
ATOM     82  C   UNL     1      11.765   3.891  11.764  1.00  0.00     0.023 A 
ATOM     83  C   UNL     1      11.287   4.750  12.772  1.00  0.00     0.012 A 
ATOM     84  C   UNL     1      13.118   3.500  11.768  1.00  0.00     0.148 A 
ATOM     85  C   UNL     1      12.148   5.236  13.754  1.00  0.00     0.002 A 
ATOM     86  C   UNL     1      13.961   3.952  12.777  1.00  0.00     0.091 A 
ATOM     87  F   UNL     1      13.558   2.699  10.787  1.00  0.00    -0.205 F 
ATOM     88  C   UNL     1      13.480   4.827  13.764  1.00  0.00     0.022 A 
BRANCH  86  89
ATOM     89  S   UNL     1      15.663   3.396  12.916  1.00  0.00     0.127 S 
ATOM     90  O   UNL     1      16.396   4.537  12.374  1.00  0.00    -0.237 OA
ATOM     91  O   UNL     1      15.814   3.204  14.360  1.00  0.00    -0.237 OA
ATOM     92  O   UNL     1      15.742   2.167  12.138  1.00  0.00    -0.744 OA
ENDBRANCH  86  89
ENDBRANCH  59  82
ENDBRANCH  33  34
ENDBRANCH  25  28
ENDBRANCH  23  24
ENDBRANCH   1  23
TORSDOF 15
