REMARK SMILES O=C(NCCCNC(=O)c1cc(S(=O)(=O)Nc2cccc(Cl)c2)ccc1O)c1ccc(-c2c3nc(c(-c4cccc(S(=O)(=O)[O-])c4F)c4ccc([nH]4)c(-c4cccc(S(=O)(=O)[O-])c4F)c4nc(c(-c5cccc(S(=O)(=O)[O-])c5F)c5ccc2[nH]5)C=C4)C=C3)cc1
REMARK SMILES IDX 5 1 4 2 3 3 1 4 2 5 28 7 29 8 90 9 30 10 89 11 31 12 32 13
REMARK SMILES IDX 33 14 83 15 34 16 88 17 82 18 84 19 35 20 87 21 81 22 80 23
REMARK SMILES IDX 36 25 68 26 48 27 67 28 49 29 52 30 66 31 85 32 50 33 51 34
REMARK SMILES IDX 65 36 86 37 53 38 37 39 38 40 46 41 39 42 41 43 47 44 40 45
REMARK SMILES IDX 42 46 43 47 44 48 45 49 69 50 70 51 78 52 71 53 73 54 79 55
REMARK SMILES IDX 72 56 74 57 75 58 76 59 77 60 54 61 55 62 63 63 56 64 58 65
REMARK SMILES IDX 64 66 57 67 59 68 60 69 61 70 62 71 6 72 7 73 8 74 9 76
REMARK SMILES IDX 10 77 11 78 26 79 12 80 25 81 24 82 27 83 13 85 14 86 15 87
REMARK SMILES IDX 16 88 17 90 18 91 23 92 19 93 21 94 20 95 22 96
REMARK H PARENT 3 6 84 24 52 35 7 75 27 84 16 89
REMARK Flexibility Score: inf
ROOT
ATOM      1  C   UNL     1       5.042   2.323  -0.531  1.00  0.00     0.042 C 
ENDROOT
BRANCH   1   2
ATOM      2  C   UNL     1       4.615   1.318   0.521  1.00  0.00     0.118 C 
BRANCH   2   3
ATOM      3  N   UNL     1       3.182   1.054   0.483  1.00  0.00    -0.352 N 
ATOM      4  O   UNL     1       1.264   0.061  -0.128  1.00  0.00    -0.269 OA
ATOM      5  C   UNL     1       2.479  -0.035   0.024  1.00  0.00     0.251 C 
ATOM      6  H   UNL     1       2.622   1.777   0.848  1.00  0.00     0.163 HD
BRANCH   5   7
ATOM      7  C   UNL     1       3.174  -1.300  -0.304  1.00  0.00     0.039 A 
ATOM      8  C   UNL     1       4.251  -1.745   0.462  1.00  0.00     0.014 A 
ATOM      9  C   UNL     1       2.716  -2.082  -1.370  1.00  0.00     0.014 A 
ATOM     10  C   UNL     1       4.977  -2.858   0.063  1.00  0.00     0.010 A 
ATOM     11  C   UNL     1       3.375  -3.272  -1.698  1.00  0.00     0.010 A 
ATOM     12  C   UNL     1       4.532  -3.653  -1.004  1.00  0.00    -0.014 A 
BRANCH  12  13
ATOM     13  C   UNL     1       5.243  -4.925  -1.291  1.00  0.00     0.031 A 
ATOM     14  C   UNL     1       5.924  -5.167  -2.608  1.00  0.00     0.074 A 
ATOM     15  C   UNL     1       5.282  -5.864  -0.323  1.00  0.00     0.049 A 
ATOM     16  N   UNL     1       6.627  -6.204  -2.986  1.00  0.00    -0.248 NA
ATOM     17  C   UNL     1       5.799  -4.124  -3.639  1.00  0.00     0.031 C 
ATOM     18  C   UNL     1       4.609  -5.759   0.976  1.00  0.00     0.029 A 
ATOM     19  N   UNL     1       5.914  -7.079  -0.269  1.00  0.00    -0.354 N 
ATOM     20  C   UNL     1       6.988  -5.964  -4.305  1.00  0.00     0.074 A 
ATOM     21  C   UNL     1       6.428  -4.679  -4.668  1.00  0.00     0.031 C 
ATOM     22  C   UNL     1       4.897  -6.841   1.712  1.00  0.00     0.029 A 
ATOM     23  C   UNL     1       5.726  -7.742   0.922  1.00  0.00     0.049 A 
ATOM     24  H   UNL     1       6.450  -7.442  -1.010  1.00  0.00     0.167 HD
ATOM     25  C   UNL     1       7.733  -6.737  -5.131  1.00  0.00     0.034 A 
ATOM     26  C   UNL     1       6.162  -8.947   1.333  1.00  0.00     0.034 A 
ATOM     27  C   UNL     1       8.333  -7.987  -4.745  1.00  0.00     0.049 A 
ATOM     28  C   UNL     1       7.027  -9.754   0.411  1.00  0.00     0.074 A 
ATOM     29  C   UNL     1       9.168  -8.804  -5.487  1.00  0.00     0.029 A 
ATOM     30  N   UNL     1       8.162  -8.602  -3.514  1.00  0.00    -0.354 N 
ATOM     31  N   UNL     1       7.471  -9.442  -0.782  1.00  0.00    -0.248 NA
ATOM     32  C   UNL     1       7.472 -11.066   0.898  1.00  0.00     0.031 C 
ATOM     33  C   UNL     1       9.494  -9.920  -4.708  1.00  0.00     0.029 A 
ATOM     34  C   UNL     1       8.868  -9.793  -3.479  1.00  0.00     0.049 A 
ATOM     35  H   UNL     1       7.619  -8.246  -2.775  1.00  0.00     0.167 HD
ATOM     36  C   UNL     1       8.258 -10.513  -1.185  1.00  0.00     0.074 A 
ATOM     37  C   UNL     1       8.259 -11.465  -0.093  1.00  0.00     0.031 C 
ATOM     38  C   UNL     1       8.898 -10.704  -2.364  1.00  0.00     0.034 A 
BRANCH  25  39
ATOM     39  C   UNL     1       7.995  -6.238  -6.527  1.00  0.00     0.023 A 
ATOM     40  C   UNL     1       8.959  -5.232  -6.732  1.00  0.00     0.012 A 
ATOM     41  C   UNL     1       7.364  -6.830  -7.639  1.00  0.00     0.148 A 
ATOM     42  C   UNL     1       9.284  -4.812  -8.022  1.00  0.00     0.002 A 
ATOM     43  C   UNL     1       7.716  -6.429  -8.923  1.00  0.00     0.091 A 
ATOM     44  F   UNL     1       6.433  -7.770  -7.421  1.00  0.00    -0.205 F 
ATOM     45  C   UNL     1       8.671  -5.418  -9.116  1.00  0.00     0.022 A 
BRANCH  43  46
ATOM     46  S   UNL     1       7.034  -7.194 -10.400  1.00  0.00     0.127 S 
ATOM     47  O   UNL     1       6.161  -6.134 -10.903  1.00  0.00    -0.237 OA
ATOM     48  O   UNL     1       8.231  -7.432 -11.207  1.00  0.00    -0.237 OA
ATOM     49  O   UNL     1       6.356  -8.401  -9.949  1.00  0.00    -0.744 OA
ENDBRANCH  43  46
ENDBRANCH  25  39
BRANCH  26  50
ATOM     50  C   UNL     1       5.821  -9.428   2.700  1.00  0.00     0.023 A 
ATOM     51  C   UNL     1       6.831  -9.520   3.676  1.00  0.00     0.012 A 
ATOM     52  C   UNL     1       4.494  -9.737   3.056  1.00  0.00     0.148 A 
ATOM     53  C   UNL     1       6.528  -9.929   4.976  1.00  0.00     0.002 A 
ATOM     54  C   UNL     1       4.189 -10.084   4.367  1.00  0.00     0.091 A 
ATOM     55  F   UNL     1       3.545  -9.668   2.110  1.00  0.00    -0.205 F 
ATOM     56  C   UNL     1       5.207 -10.197   5.325  1.00  0.00     0.022 A 
BRANCH  54  57
ATOM     57  S   UNL     1       2.488 -10.283   4.909  1.00  0.00     0.127 S 
ATOM     58  O   UNL     1       2.300 -11.726   4.790  1.00  0.00    -0.237 OA
ATOM     59  O   UNL     1       2.534  -9.779   6.282  1.00  0.00    -0.237 OA
ATOM     60  O   UNL     1       1.708  -9.452   4.000  1.00  0.00    -0.744 OA
ENDBRANCH  54  57
ENDBRANCH  26  50
BRANCH  38  61
ATOM     61  C   UNL     1       9.658 -11.990  -2.532  1.00  0.00     0.023 A 
ATOM     62  C   UNL     1       8.948 -13.186  -2.758  1.00  0.00     0.012 A 
ATOM     63  C   UNL     1      11.065 -12.008  -2.528  1.00  0.00     0.148 A 
ATOM     64  C   UNL     1       9.629 -14.387  -2.949  1.00  0.00     0.002 A 
ATOM     65  C   UNL     1      11.738 -13.202  -2.760  1.00  0.00     0.091 A 
ATOM     66  F   UNL     1      11.721 -10.863  -2.287  1.00  0.00    -0.205 F 
ATOM     67  C   UNL     1      11.022 -14.394  -2.961  1.00  0.00     0.022 A 
BRANCH  65  68
ATOM     68  S   UNL     1      13.528 -13.280  -2.877  1.00  0.00     0.127 S 
ATOM     69  O   UNL     1      13.891 -13.809  -1.564  1.00  0.00    -0.237 OA
ATOM     70  O   UNL     1      13.732 -14.211  -3.987  1.00  0.00    -0.237 OA
ATOM     71  O   UNL     1      13.965 -11.917  -3.151  1.00  0.00    -0.744 OA
ENDBRANCH  65  68
ENDBRANCH  38  61
ENDBRANCH  12  13
ENDBRANCH   5   7
ENDBRANCH   2   3
ENDBRANCH   1   2
BRANCH   1  72
ATOM     72  C   UNL     1       4.456   3.703  -0.308  1.00  0.00     0.118 C 
BRANCH  72  73
ATOM     73  N   UNL     1       5.008   4.389   0.857  1.00  0.00    -0.352 N 
ATOM     74  C   UNL     1       5.696   5.581   0.912  1.00  0.00     0.255 C 
ATOM     75  H   UNL     1       4.869   3.938   1.721  1.00  0.00     0.163 HD
ATOM     76  O   UNL     1       6.133   6.011   1.975  1.00  0.00    -0.269 OA
BRANCH  74  77
ATOM     77  C   UNL     1       6.004   6.281  -0.350  1.00  0.00     0.082 A 
ATOM     78  C   UNL     1       7.348   6.530  -0.648  1.00  0.00     0.040 A 
ATOM     79  C   UNL     1       5.010   6.585  -1.284  1.00  0.00     0.128 A 
ATOM     80  C   UNL     1       7.695   6.913  -1.945  1.00  0.00     0.088 A 
ATOM     81  C   UNL     1       5.364   6.839  -2.600  1.00  0.00     0.048 A 
ATOM     82  C   UNL     1       6.714   6.920  -2.939  1.00  0.00     0.026 A 
BRANCH  79  83
ATOM     83  O   UNL     1       3.691   6.551  -0.931  1.00  0.00    -0.507 OA
ATOM     84  H   UNL     1       3.447   6.379  -0.043  1.00  0.00     0.293 HD
ENDBRANCH  79  83
BRANCH  80  85
ATOM     85  S   UNL     1       9.354   7.520  -2.200  1.00  0.00     0.261 S 
ATOM     86  O   UNL     1       9.476   8.720  -1.394  1.00  0.00    -0.201 OA
ATOM     87  O   UNL     1      10.241   6.395  -2.014  1.00  0.00    -0.201 OA
BRANCH  85  88
ATOM     88  N   UNL     1       9.540   7.965  -3.810  1.00  0.00    -0.280 N 
ATOM     89  H   UNL     1      10.360   7.675  -4.273  1.00  0.00     0.180 HD
BRANCH  88  90
ATOM     90  C   UNL     1       8.598   8.730  -4.552  1.00  0.00     0.050 A 
ATOM     91  C   UNL     1       7.778   9.706  -3.979  1.00  0.00     0.027 A 
ATOM     92  C   UNL     1       8.406   8.357  -5.886  1.00  0.00     0.047 A 
ATOM     93  C   UNL     1       6.677  10.193  -4.692  1.00  0.00     0.004 A 
ATOM     94  C   UNL     1       7.314   8.854  -6.593  1.00  0.00     0.043 A 
ATOM     95  C   UNL     1       6.431   9.748  -5.992  1.00  0.00     0.020 A 
ATOM     96  Cl  UNL     1       7.012   8.296  -8.192  1.00  0.00    -0.084 Cl
ENDBRANCH  88  90
ENDBRANCH  85  88
ENDBRANCH  80  85
ENDBRANCH  74  77
ENDBRANCH  72  73
ENDBRANCH   1  72
TORSDOF 17
