REMARK SMILES Cc1c(CC(=O)NCCCNC(=O)c2ccc(-c3c4nc(c(-c5cccc(S(=O)(=O)[O-])c5F)c5ccc([nH]5)c(-c5cccc(S(=O)(=O)[O-])c5F)c5nc(c(-c6cccc(S(=O)(=O)[O-])c6F)c6ccc3[nH]6)C=C5)C=C4)cc2)c2ccccc2n1C(=O)c1ccc(Cl)cc1
REMARK SMILES IDX 9 1 8 2 7 3 5 4 6 5 4 7 3 8 1 9 2 10 83 11 77 12 82 13 78 14
REMARK SMILES IDX 81 15 79 16 80 17 84 18 85 19 86 20 87 21 92 22 88 23 91 24
REMARK SMILES IDX 89 25 90 26 10 27 11 28 12 29 13 31 14 32 15 33 76 34 16 35
REMARK SMILES IDX 75 36 17 37 18 38 19 39 69 40 20 41 74 42 68 43 70 44 21 45
REMARK SMILES IDX 73 46 67 47 66 48 22 50 54 51 34 52 53 53 35 54 38 55 52 56
REMARK SMILES IDX 71 57 36 58 37 59 51 61 72 62 39 63 23 64 24 65 32 66 25 67
REMARK SMILES IDX 27 68 33 69 26 70 28 71 29 72 30 73 31 74 55 75 56 76 64 77
REMARK SMILES IDX 57 78 59 79 65 80 58 81 60 82 61 83 62 84 63 85 40 86 41 87
REMARK SMILES IDX 49 88 42 89 44 90 50 91 43 92 45 93 46 94 47 95 48 96
REMARK H PARENT 7 6 11 30 70 49 38 60
REMARK Flexibility Score: inf
ROOT
ATOM      1  C   UNL     1      -3.031   1.204  -0.092  1.00  0.00     0.042 C 
ENDROOT
BRANCH   1   2
ATOM      2  C   UNL     1      -2.723  -0.240  -0.492  1.00  0.00     0.117 C 
BRANCH   2   3
ATOM      3  N   UNL     1      -2.992  -0.496  -1.897  1.00  0.00    -0.356 N 
ATOM      4  C   UNL     1      -2.122  -0.659  -2.934  1.00  0.00     0.224 C 
ATOM      5  O   UNL     1      -2.588  -0.847  -4.062  1.00  0.00    -0.275 OA
ATOM      6  H   UNL     1      -3.945  -0.562  -2.136  1.00  0.00     0.163 HD
BRANCH   4   7
ATOM      7  C   UNL     1      -0.623  -0.666  -2.688  1.00  0.00     0.138 C 
BRANCH   7   8
ATOM      8  C   UNL     1      -0.080   0.664  -2.256  1.00  0.00    -0.010 A 
ATOM      9  C   UNL     1       1.129  -0.016  -0.057  1.00  0.00     0.065 C 
ATOM     10  C   UNL     1       0.662   0.937  -1.115  1.00  0.00     0.028 A 
ATOM     11  N   UNL     1       0.902   2.319  -1.046  1.00  0.00    -0.280 N 
ATOM     12  C   UNL     1      -0.195   1.883  -2.982  1.00  0.00     0.004 A 
ATOM     13  C   UNL     1       0.474   2.880  -2.263  1.00  0.00     0.056 A 
ATOM     14  C   UNL     1      -0.799   2.207  -4.219  1.00  0.00     0.010 A 
ATOM     15  C   UNL     1       0.605   4.172  -2.815  1.00  0.00     0.027 A 
ATOM     16  C   UNL     1      -0.726   3.506  -4.721  1.00  0.00     0.001 A 
ATOM     17  C   UNL     1      -0.021   4.475  -4.028  1.00  0.00     0.002 A 
BRANCH  11  18
ATOM     18  C   UNL     1       1.486   2.998   0.065  1.00  0.00     0.262 C 
ATOM     19  O   UNL     1       1.898   2.328   1.010  1.00  0.00    -0.268 OA
BRANCH  18  20
ATOM     20  C   UNL     1       1.676   4.454   0.180  1.00  0.00     0.040 A 
ATOM     21  C   UNL     1       0.591   5.336   0.160  1.00  0.00     0.015 A 
ATOM     22  C   UNL     1       2.986   4.936   0.289  1.00  0.00     0.015 A 
ATOM     23  C   UNL     1       0.831   6.713   0.136  1.00  0.00     0.021 A 
ATOM     24  C   UNL     1       3.218   6.311   0.277  1.00  0.00     0.021 A 
ATOM     25  C   UNL     1       2.143   7.192   0.173  1.00  0.00     0.041 A 
ATOM     26  Cl  UNL     1       2.437   8.883   0.046  1.00  0.00    -0.084 Cl
ENDBRANCH  18  20
ENDBRANCH  11  18
ENDBRANCH   7   8
ENDBRANCH   4   7
ENDBRANCH   2   3
ENDBRANCH   1   2
BRANCH   1  27
ATOM     27  C   UNL     1      -4.496   1.594  -0.290  1.00  0.00     0.118 C 
BRANCH  27  28
ATOM     28  N   UNL     1      -5.442   0.735   0.395  1.00  0.00    -0.352 N 
ATOM     29  C   UNL     1      -5.969   0.679   1.654  1.00  0.00     0.251 C 
ATOM     30  H   UNL     1      -5.787   0.021  -0.188  1.00  0.00     0.163 HD
ATOM     31  O   UNL     1      -6.861  -0.159   1.819  1.00  0.00    -0.269 OA
BRANCH  29  32
ATOM     32  C   UNL     1      -5.505   1.477   2.819  1.00  0.00     0.039 A 
ATOM     33  C   UNL     1      -4.598   2.536   2.770  1.00  0.00     0.014 A 
ATOM     34  C   UNL     1      -6.002   1.073   4.074  1.00  0.00     0.014 A 
ATOM     35  C   UNL     1      -4.114   3.100   3.946  1.00  0.00     0.010 A 
ATOM     36  C   UNL     1      -5.539   1.647   5.250  1.00  0.00     0.010 A 
ATOM     37  C   UNL     1      -4.554   2.625   5.184  1.00  0.00    -0.014 A 
BRANCH  37  38
ATOM     38  C   UNL     1      -4.052   3.279   6.389  1.00  0.00     0.031 A 
ATOM     39  C   UNL     1      -4.422   4.719   6.491  1.00  0.00     0.074 A 
ATOM     40  C   UNL     1      -3.409   2.621   7.376  1.00  0.00     0.049 A 
ATOM     41  N   UNL     1      -3.635   5.746   6.473  1.00  0.00    -0.248 NA
ATOM     42  C   UNL     1      -5.854   5.060   6.464  1.00  0.00     0.031 C 
ATOM     43  C   UNL     1      -3.238   1.169   7.507  1.00  0.00     0.029 A 
ATOM     44  N   UNL     1      -2.878   3.097   8.541  1.00  0.00    -0.354 N 
ATOM     45  C   UNL     1      -4.465   6.848   6.671  1.00  0.00     0.074 A 
ATOM     46  C   UNL     1      -5.817   6.393   6.486  1.00  0.00     0.031 C 
ATOM     47  C   UNL     1      -2.880   0.874   8.777  1.00  0.00     0.029 A 
ATOM     48  C   UNL     1      -2.649   2.110   9.501  1.00  0.00     0.049 A 
ATOM     49  H   UNL     1      -2.675   4.048   8.690  1.00  0.00     0.167 HD
ATOM     50  C   UNL     1      -4.010   7.997   7.241  1.00  0.00     0.034 A 
ATOM     51  C   UNL     1      -2.345   2.310  10.806  1.00  0.00     0.034 A 
ATOM     52  C   UNL     1      -2.581   8.034   7.321  1.00  0.00     0.049 A 
ATOM     53  C   UNL     1      -1.773   3.668  10.913  1.00  0.00     0.074 A 
ATOM     54  C   UNL     1      -1.533   8.276   6.463  1.00  0.00     0.029 A 
ATOM     55  N   UNL     1      -2.080   7.397   8.425  1.00  0.00    -0.354 N 
ATOM     56  N   UNL     1      -0.631   4.011  10.387  1.00  0.00    -0.248 NA
ATOM     57  C   UNL     1      -2.604   4.767  11.390  1.00  0.00     0.031 C 
ATOM     58  C   UNL     1      -0.415   7.574   7.002  1.00  0.00     0.029 A 
ATOM     59  C   UNL     1      -0.808   6.955   8.187  1.00  0.00     0.049 A 
ATOM     60  H   UNL     1      -2.567   7.275   9.271  1.00  0.00     0.167 HD
ATOM     61  C   UNL     1      -0.802   5.343  10.072  1.00  0.00     0.074 A 
ATOM     62  C   UNL     1      -1.928   5.796  10.875  1.00  0.00     0.031 C 
ATOM     63  C   UNL     1      -0.240   5.868   8.950  1.00  0.00     0.034 A 
BRANCH  50  64
ATOM     64  C   UNL     1      -4.855   8.877   8.125  1.00  0.00     0.023 A 
ATOM     65  C   UNL     1      -4.449  10.207   8.355  1.00  0.00     0.012 A 
ATOM     66  C   UNL     1      -5.885   8.361   8.944  1.00  0.00     0.148 A 
ATOM     67  C   UNL     1      -5.067  10.995   9.336  1.00  0.00     0.002 A 
ATOM     68  C   UNL     1      -6.548   9.169   9.859  1.00  0.00     0.091 A 
ATOM     69  F   UNL     1      -6.136   7.046   8.930  1.00  0.00    -0.205 F 
ATOM     70  C   UNL     1      -6.131  10.484  10.072  1.00  0.00     0.022 A 
BRANCH  68  71
ATOM     71  S   UNL     1      -7.956   8.563  10.795  1.00  0.00     0.127 S 
ATOM     72  O   UNL     1      -7.392   8.466  12.143  1.00  0.00    -0.237 OA
ATOM     73  O   UNL     1      -8.923   9.649  10.608  1.00  0.00    -0.237 OA
ATOM     74  O   UNL     1      -8.333   7.313  10.165  1.00  0.00    -0.744 OA
ENDBRANCH  68  71
ENDBRANCH  50  64
BRANCH  51  75
ATOM     75  C   UNL     1      -2.636   1.525  12.033  1.00  0.00     0.023 A 
ATOM     76  C   UNL     1      -1.925   1.830  13.216  1.00  0.00     0.012 A 
ATOM     77  C   UNL     1      -3.804   0.744  12.144  1.00  0.00     0.148 A 
ATOM     78  C   UNL     1      -2.410   1.454  14.472  1.00  0.00     0.002 A 
ATOM     79  C   UNL     1      -4.279   0.366  13.399  1.00  0.00     0.091 A 
ATOM     80  F   UNL     1      -4.503   0.461  11.037  1.00  0.00    -0.205 F 
ATOM     81  C   UNL     1      -3.598   0.739  14.566  1.00  0.00     0.022 A 
BRANCH  79  82
ATOM     82  S   UNL     1      -5.817  -0.544  13.606  1.00  0.00     0.127 S 
ATOM     83  O   UNL     1      -5.455  -1.531  14.625  1.00  0.00    -0.237 OA
ATOM     84  O   UNL     1      -6.727   0.501  14.063  1.00  0.00    -0.237 OA
ATOM     85  O   UNL     1      -6.110  -1.118  12.299  1.00  0.00    -0.744 OA
ENDBRANCH  79  82
ENDBRANCH  51  75
BRANCH  63  86
ATOM     86  C   UNL     1       0.934   5.147   8.363  1.00  0.00     0.023 A 
ATOM     87  C   UNL     1       0.812   3.937   7.653  1.00  0.00     0.012 A 
ATOM     88  C   UNL     1       2.179   5.792   8.425  1.00  0.00     0.148 A 
ATOM     89  C   UNL     1       1.923   3.381   7.012  1.00  0.00     0.002 A 
ATOM     90  C   UNL     1       3.268   5.259   7.754  1.00  0.00     0.091 A 
ATOM     91  F   UNL     1       2.260   6.940   9.113  1.00  0.00    -0.205 F 
ATOM     92  C   UNL     1       3.147   4.050   7.050  1.00  0.00     0.022 A 
BRANCH  90  93
ATOM     93  S   UNL     1       4.837   6.123   7.674  1.00  0.00     0.127 S 
ATOM     94  O   UNL     1       5.713   5.240   8.441  1.00  0.00    -0.237 OA
ATOM     95  O   UNL     1       5.100   6.151   6.235  1.00  0.00    -0.237 OA
ATOM     96  O   UNL     1       4.608   7.436   8.265  1.00  0.00    -0.744 OA
ENDBRANCH  90  93
ENDBRANCH  63  86
ENDBRANCH  37  38
ENDBRANCH  29  32
ENDBRANCH  27  28
ENDBRANCH   1  27
TORSDOF 16
