REMARK SMILES CCc1ccc(S(=O)(=O)Cc2noc(C(=O)NCCCNC(=O)c3ccc(-c4c5nc(c(-c6cccc(S(=O)(=O)[O-])c6F)c6ccc([nH]6)c(-c6cccc(S(=O)(=O)[O-])c6F)c6nc(c(-c7cccc(S(=O)(=O)[O-])c7F)c7ccc4[nH]7)C=C6)C=C5)cc3)n2)cc1
REMARK SMILES IDX 18 1 17 2 15 3 16 4 14 6 11 7 12 8 87 9 13 10 10 11 7 12
REMARK SMILES IDX 8 13 9 14 6 15 3 16 4 17 89 18 5 19 88 20 2 21 1 22 19 23
REMARK SMILES IDX 20 24 21 25 22 26 23 28 24 29 25 30 86 31 26 32 85 33 27 34
REMARK SMILES IDX 28 35 29 36 79 37 30 38 84 39 78 40 80 41 31 42 83 43 77 44
REMARK SMILES IDX 76 45 32 47 64 48 44 49 63 50 45 51 48 52 62 53 81 54 46 55
REMARK SMILES IDX 47 56 61 58 82 59 49 60 33 61 34 62 42 63 35 64 37 65 43 66
REMARK SMILES IDX 36 67 38 68 39 69 40 70 41 71 65 72 66 73 74 74 67 75 69 76
REMARK SMILES IDX 75 77 68 78 70 79 71 80 72 81 73 82 50 83 51 84 59 85 52 86
REMARK SMILES IDX 54 87 60 88 53 89 55 90 56 91 57 92 58 93
REMARK H PARENT 17 5 21 27 80 46 48 57
REMARK Flexibility Score: inf
ROOT
ATOM      1  C   UNL     1      -1.825   2.162  -4.978  1.00  0.00     0.118 C 
ENDROOT
BRANCH   1   2
ATOM      2  N   UNL     1      -2.971   3.007  -4.676  1.00  0.00    -0.348 N 
ATOM      3  C   UNL     1      -3.046   4.380  -4.530  1.00  0.00     0.309 C 
ATOM      4  O   UNL     1      -4.171   4.849  -4.326  1.00  0.00    -0.264 OA
ATOM      5  H   UNL     1      -3.824   2.528  -4.559  1.00  0.00     0.163 HD
BRANCH   3   6
ATOM      6  C   UNL     1      -1.853   5.199  -4.627  1.00  0.00     0.315 A 
ATOM      7  C   UNL     1       0.092   5.976  -4.814  1.00  0.00     0.187 A 
ATOM      8  N   UNL     1      -0.671   7.076  -4.733  1.00  0.00    -0.061 NA
ATOM      9  N   UNL     1      -0.602   4.807  -4.730  1.00  0.00    -0.186 NA
ATOM     10  O   UNL     1      -1.970   6.562  -4.609  1.00  0.00    -0.329 OA
BRANCH   7  11
ATOM     11  C   UNL     1       1.562   6.051  -4.909  1.00  0.00     0.223 C 
BRANCH  11  12
ATOM     12  S   UNL     1       2.399   4.490  -4.874  1.00  0.00     0.185 S 
ATOM     13  O   UNL     1       3.819   4.784  -4.773  1.00  0.00    -0.223 OA
ATOM     14  O   UNL     1       1.913   3.688  -5.986  1.00  0.00    -0.223 OA
BRANCH  12  15
ATOM     15  C   UNL     1       1.978   3.620  -3.377  1.00  0.00     0.067 A 
ATOM     16  C   UNL     1       1.212   2.094  -1.140  1.00  0.00    -0.048 A 
ATOM     17  C   UNL     1       1.932   1.508  -2.188  1.00  0.00     0.005 A 
ATOM     18  C   UNL     1       0.922   3.467  -1.214  1.00  0.00     0.005 A 
ATOM     19  C   UNL     1       2.304   2.263  -3.307  1.00  0.00     0.020 A 
ATOM     20  C   UNL     1       1.314   4.234  -2.316  1.00  0.00     0.020 A 
BRANCH  16  21
ATOM     21  C   UNL     1       0.699   1.326   0.060  1.00  0.00     0.032 C 
ATOM     22  C   UNL     1       1.057  -0.152   0.146  1.00  0.00     0.009 C 
ENDBRANCH  16  21
ENDBRANCH  12  15
ENDBRANCH  11  12
ENDBRANCH   7  11
ENDBRANCH   3   6
ENDBRANCH   1   2
BRANCH   1  23
ATOM     23  C   UNL     1      -1.332   1.404  -3.752  1.00  0.00     0.042 C 
BRANCH  23  24
ATOM     24  C   UNL     1      -2.224   0.237  -3.343  1.00  0.00     0.118 C 
BRANCH  24  25
ATOM     25  N   UNL     1      -2.275  -0.796  -4.369  1.00  0.00    -0.352 N 
ATOM     26  C   UNL     1      -1.929  -2.121  -4.331  1.00  0.00     0.251 C 
ATOM     27  H   UNL     1      -2.617  -0.489  -5.240  1.00  0.00     0.163 HD
ATOM     28  O   UNL     1      -1.844  -2.737  -5.392  1.00  0.00    -0.269 OA
BRANCH  26  29
ATOM     29  C   UNL     1      -1.664  -2.819  -3.053  1.00  0.00     0.039 A 
ATOM     30  C   UNL     1      -0.712  -3.844  -3.041  1.00  0.00     0.014 A 
ATOM     31  C   UNL     1      -2.386  -2.535  -1.891  1.00  0.00     0.014 A 
ATOM     32  C   UNL     1      -0.469  -4.557  -1.866  1.00  0.00     0.010 A 
ATOM     33  C   UNL     1      -2.077  -3.184  -0.697  1.00  0.00     0.010 A 
ATOM     34  C   UNL     1      -1.133  -4.219  -0.675  1.00  0.00    -0.014 A 
BRANCH  34  35
ATOM     35  C   UNL     1      -0.847  -4.950   0.587  1.00  0.00     0.031 A 
ATOM     36  C   UNL     1      -1.929  -5.730   1.289  1.00  0.00     0.074 A 
ATOM     37  C   UNL     1       0.385  -4.876   1.128  1.00  0.00     0.049 A 
ATOM     38  N   UNL     1      -1.852  -6.439   2.386  1.00  0.00    -0.248 NA
ATOM     39  C   UNL     1      -3.277  -5.690   0.700  1.00  0.00     0.031 C 
ATOM     40  C   UNL     1       1.497  -4.088   0.591  1.00  0.00     0.029 A 
ATOM     41  N   UNL     1       0.907  -5.460   2.254  1.00  0.00    -0.354 N 
ATOM     42  C   UNL     1      -3.139  -6.902   2.635  1.00  0.00     0.074 A 
ATOM     43  C   UNL     1      -3.988  -6.359   1.597  1.00  0.00     0.031 C 
ATOM     44  C   UNL     1       2.573  -4.253   1.375  1.00  0.00     0.029 A 
ATOM     45  C   UNL     1       2.223  -5.133   2.485  1.00  0.00     0.049 A 
ATOM     46  H   UNL     1       0.389  -6.056   2.841  1.00  0.00     0.167 HD
ATOM     47  C   UNL     1      -3.574  -7.727   3.618  1.00  0.00     0.034 A 
ATOM     48  C   UNL     1       3.055  -5.501   3.478  1.00  0.00     0.034 A 
ATOM     49  C   UNL     1      -2.721  -8.292   4.630  1.00  0.00     0.049 A 
ATOM     50  C   UNL     1       2.560  -6.456   4.530  1.00  0.00     0.074 A 
ATOM     51  C   UNL     1      -3.048  -9.199   5.623  1.00  0.00     0.029 A 
ATOM     52  N   UNL     1      -1.376  -7.998   4.787  1.00  0.00    -0.354 N 
ATOM     53  N   UNL     1       1.376  -7.002   4.659  1.00  0.00    -0.248 NA
ATOM     54  C   UNL     1       3.532  -6.880   5.547  1.00  0.00     0.031 C 
ATOM     55  C   UNL     1      -1.907  -9.428   6.400  1.00  0.00     0.029 A 
ATOM     56  C   UNL     1      -0.859  -8.699   5.864  1.00  0.00     0.049 A 
ATOM     57  H   UNL     1      -0.863  -7.381   4.217  1.00  0.00     0.167 HD
ATOM     58  C   UNL     1       1.470  -7.865   5.744  1.00  0.00     0.074 A 
ATOM     59  C   UNL     1       2.836  -7.785   6.221  1.00  0.00     0.031 C 
ATOM     60  C   UNL     1       0.512  -8.645   6.303  1.00  0.00     0.034 A 
BRANCH  47  61
ATOM     61  C   UNL     1      -5.035  -8.105   3.623  1.00  0.00     0.023 A 
ATOM     62  C   UNL     1      -5.543  -8.948   2.613  1.00  0.00     0.012 A 
ATOM     63  C   UNL     1      -5.891  -7.677   4.657  1.00  0.00     0.148 A 
ATOM     64  C   UNL     1      -6.885  -9.326   2.608  1.00  0.00     0.002 A 
ATOM     65  C   UNL     1      -7.215  -8.099   4.674  1.00  0.00     0.091 A 
ATOM     66  F   UNL     1      -5.397  -6.861   5.599  1.00  0.00    -0.205 F 
ATOM     67  C   UNL     1      -7.718  -8.911   3.644  1.00  0.00     0.022 A 
BRANCH  65  68
ATOM     68  S   UNL     1      -8.348  -7.689   6.007  1.00  0.00     0.127 S 
ATOM     69  O   UNL     1      -9.274  -6.777   5.336  1.00  0.00    -0.237 OA
ATOM     70  O   UNL     1      -8.914  -8.996   6.341  1.00  0.00    -0.237 OA
ATOM     71  O   UNL     1      -7.535  -7.091   7.056  1.00  0.00    -0.744 OA
ENDBRANCH  65  68
ENDBRANCH  47  61
BRANCH  48  72
ATOM     72  C   UNL     1       4.464  -5.016   3.486  1.00  0.00     0.023 A 
ATOM     73  C   UNL     1       5.514  -5.922   3.241  1.00  0.00     0.012 A 
ATOM     74  C   UNL     1       4.765  -3.661   3.715  1.00  0.00     0.148 A 
ATOM     75  C   UNL     1       6.842  -5.493   3.262  1.00  0.00     0.002 A 
ATOM     76  C   UNL     1       6.085  -3.229   3.676  1.00  0.00     0.091 A 
ATOM     77  F   UNL     1       3.750  -2.817   3.954  1.00  0.00    -0.205 F 
ATOM     78  C   UNL     1       7.126  -4.146   3.470  1.00  0.00     0.022 A 
BRANCH  76  79
ATOM     79  S   UNL     1       6.531  -1.494   3.797  1.00  0.00     0.127 S 
ATOM     80  O   UNL     1       7.184  -1.444   5.103  1.00  0.00    -0.237 OA
ATOM     81  O   UNL     1       7.427  -1.334   2.651  1.00  0.00    -0.237 OA
ATOM     82  O   UNL     1       5.279  -0.757   3.688  1.00  0.00    -0.744 OA
ENDBRANCH  76  79
ENDBRANCH  48  72
BRANCH  60  83
ATOM     83  C   UNL     1       0.918  -9.519   7.463  1.00  0.00     0.023 A 
ATOM     84  C   UNL     1       1.241  -8.942   8.707  1.00  0.00     0.012 A 
ATOM     85  C   UNL     1       0.942 -10.921   7.326  1.00  0.00     0.148 A 
ATOM     86  C   UNL     1       1.633  -9.742   9.780  1.00  0.00     0.002 A 
ATOM     87  C   UNL     1       1.278 -11.715   8.415  1.00  0.00     0.091 A 
ATOM     88  F   UNL     1       0.649 -11.453   6.130  1.00  0.00    -0.205 F 
ATOM     89  C   UNL     1       1.642 -11.128   9.637  1.00  0.00     0.022 A 
BRANCH  87  90
ATOM     90  S   UNL     1       1.216 -13.509   8.348  1.00  0.00     0.127 S 
ATOM     91  O   UNL     1       2.635 -13.854   8.286  1.00  0.00    -0.237 OA
ATOM     92  O   UNL     1       0.562 -13.845   9.614  1.00  0.00    -0.237 OA
ATOM     93  O   UNL     1       0.437 -13.838   7.163  1.00  0.00    -0.744 OA
ENDBRANCH  87  90
ENDBRANCH  60  83
ENDBRANCH  34  35
ENDBRANCH  26  29
ENDBRANCH  24  25
ENDBRANCH  23  24
ENDBRANCH   1  23
TORSDOF 17
