REMARK SMILES Cc1cc(N2CC[NH+]([C@@H](C(=O)NCCCNC(=O)c3ccc(-c4c5nc(c(-c6cccc(S(=O)(=O)[O-])c6F)c6ccc([nH]6)c(-c6cccc(S(=O)(=O)[O-])c6F)c6nc(c(-c7cccc(S(=O)(=O)[O-])c7F)c7ccc4[nH]7)C=C6)C=C5)cc3)c3c[nH]c4ccccc34)CC2)nc2ccccc12
REMARK SMILES IDX 14 1 13 2 12 3 10 4 11 5 9 7 8 8 5 9 6 10 92 11 7 12 91 13
REMARK SMILES IDX 4 15 1 16 2 17 3 18 99 19 94 20 98 21 93 22 95 23 97 24
REMARK SMILES IDX 96 25 82 26 83 27 90 28 84 29 85 30 89 31 86 33 88 34 87 35
REMARK SMILES IDX 15 36 16 37 17 38 18 40 19 41 20 42 81 43 21 44 80 45 22 46
REMARK SMILES IDX 23 47 24 48 74 49 25 50 79 51 73 52 75 53 26 54 78 55 72 56
REMARK SMILES IDX 71 57 27 59 59 60 39 61 58 62 40 63 43 64 57 65 76 66 41 67
REMARK SMILES IDX 42 68 56 70 77 71 44 72 28 73 29 74 37 75 30 76 32 77 38 78
REMARK SMILES IDX 31 79 33 80 34 81 35 82 36 83 60 84 61 85 69 86 62 87 64 88
REMARK SMILES IDX 70 89 63 90 65 91 66 92 67 93 68 94 45 95 46 96 54 97 47 98
REMARK SMILES IDX 49 99 55 100 48 101 50 102 51 103 52 104 53 105
REMARK H PARENT 12 6 8 14 84 32 16 39 75 58 43 69
REMARK Flexibility Score: inf
ROOT
ATOM      1  C   UNL     1      -4.144  -2.492  -3.347  1.00  0.00     0.042 C 
ENDROOT
BRANCH   1   2
ATOM      2  C   UNL     1      -4.237  -3.997  -2.953  1.00  0.00     0.118 C 
BRANCH   2   3
ATOM      3  N   UNL     1      -3.233  -4.510  -2.020  1.00  0.00    -0.351 N 
ATOM      4  C   UNL     1      -3.199  -5.046  -0.752  1.00  0.00     0.283 C 
ATOM      5  O   UNL     1      -2.098  -5.542  -0.482  1.00  0.00    -0.268 OA
ATOM      6  H   UNL     1      -2.329  -4.455  -2.406  1.00  0.00     0.163 HD
BRANCH   4   7
ATOM      7  C   UNL     1      -4.414  -5.127   0.230  1.00  0.00     0.307 C 
BRANCH   7   8
ATOM      8  N   UNL     1      -4.910  -3.836   0.851  1.00  0.00    -0.318 N 
ATOM      9  N   UNL     1      -2.954  -1.655   1.024  1.00  0.00    -0.345 N 
ATOM     10  C   UNL     1      -2.825  -2.813   1.894  1.00  0.00     0.179 C 
ATOM     11  C   UNL     1      -3.677  -1.870  -0.223  1.00  0.00     0.179 C 
ATOM     12  C   UNL     1      -4.253  -3.344   2.090  1.00  0.00     0.284 C 
ATOM     13  C   UNL     1      -4.998  -2.663  -0.023  1.00  0.00     0.284 C 
ATOM     14  H   UNL     1      -5.835  -4.202   1.075  1.00  0.00     0.349 HD
BRANCH   9  15
ATOM     15  C   UNL     1      -1.847  -0.830   0.889  1.00  0.00     0.129 A 
ATOM     16  C   UNL     1      -1.375   2.875   0.515  1.00  0.00     0.045 C 
ATOM     17  C   UNL     1      -1.042   1.418   0.631  1.00  0.00    -0.038 A 
ATOM     18  C   UNL     1      -2.093   0.529   0.812  1.00  0.00     0.051 A 
ATOM     19  C   UNL     1       0.267   0.906   0.547  1.00  0.00     0.003 A 
ATOM     20  C   UNL     1       0.424  -0.499   0.592  1.00  0.00     0.073 A 
ATOM     21  C   UNL     1       1.405   1.728   0.392  1.00  0.00     0.010 A 
ATOM     22  N   UNL     1      -0.610  -1.346   0.767  1.00  0.00    -0.231 NA
ATOM     23  C   UNL     1       1.701  -1.023   0.418  1.00  0.00     0.029 A 
ATOM     24  C   UNL     1       2.671   1.175   0.219  1.00  0.00     0.001 A 
ATOM     25  C   UNL     1       2.819  -0.205   0.221  1.00  0.00     0.002 A 
ENDBRANCH   9  15
ENDBRANCH   7   8
BRANCH   7  26
ATOM     26  C   UNL     1      -4.284  -6.154   1.403  1.00  0.00     0.044 A 
ATOM     27  C   UNL     1      -5.354  -6.832   1.980  1.00  0.00     0.094 A 
ATOM     28  C   UNL     1      -3.242  -6.305   2.398  1.00  0.00     0.009 A 
ATOM     29  N   UNL     1      -5.237  -6.548   3.325  1.00  0.00    -0.361 N 
ATOM     30  C   UNL     1      -3.924  -6.272   3.622  1.00  0.00     0.046 A 
ATOM     31  C   UNL     1      -1.836  -6.231   2.443  1.00  0.00     0.011 A 
ATOM     32  H   UNL     1      -5.979  -6.545   3.972  1.00  0.00     0.166 HD
ATOM     33  C   UNL     1      -3.312  -5.893   4.825  1.00  0.00     0.026 A 
ATOM     34  C   UNL     1      -1.188  -6.016   3.667  1.00  0.00     0.001 A 
ATOM     35  C   UNL     1      -1.921  -5.770   4.823  1.00  0.00     0.002 A 
ENDBRANCH   7  26
ENDBRANCH   4   7
ENDBRANCH   2   3
ENDBRANCH   1   2
BRANCH   1  36
ATOM     36  C   UNL     1      -2.751  -1.832  -3.466  1.00  0.00     0.118 C 
BRANCH  36  37
ATOM     37  N   UNL     1      -2.449  -1.462  -4.839  1.00  0.00    -0.352 N 
ATOM     38  C   UNL     1      -2.042  -0.271  -5.393  1.00  0.00     0.251 C 
ATOM     39  H   UNL     1      -2.556  -2.195  -5.488  1.00  0.00     0.163 HD
ATOM     40  O   UNL     1      -2.116  -0.160  -6.617  1.00  0.00    -0.269 OA
BRANCH  38  41
ATOM     41  C   UNL     1      -1.494   0.871  -4.604  1.00  0.00     0.039 A 
ATOM     42  C   UNL     1      -1.727   2.176  -5.071  1.00  0.00     0.014 A 
ATOM     43  C   UNL     1      -0.608   0.696  -3.544  1.00  0.00     0.014 A 
ATOM     44  C   UNL     1      -1.083   3.285  -4.492  1.00  0.00     0.010 A 
ATOM     45  C   UNL     1       0.017   1.813  -2.959  1.00  0.00     0.010 A 
ATOM     46  C   UNL     1      -0.191   3.125  -3.422  1.00  0.00    -0.014 A 
BRANCH  46  47
ATOM     47  C   UNL     1       0.534   4.299  -2.818  1.00  0.00     0.031 A 
ATOM     48  C   UNL     1       2.049   4.362  -2.800  1.00  0.00     0.074 A 
ATOM     49  C   UNL     1      -0.146   5.304  -2.220  1.00  0.00     0.049 A 
ATOM     50  N   UNL     1       2.835   5.290  -2.307  1.00  0.00    -0.248 NA
ATOM     51  C   UNL     1       2.776   3.230  -3.394  1.00  0.00     0.031 C 
ATOM     52  C   UNL     1      -1.601   5.371  -2.071  1.00  0.00     0.029 A 
ATOM     53  N   UNL     1       0.297   6.445  -1.585  1.00  0.00    -0.354 N 
ATOM     54  C   UNL     1       4.139   4.847  -2.512  1.00  0.00     0.074 A 
ATOM     55  C   UNL     1       4.037   3.540  -3.126  1.00  0.00     0.031 C 
ATOM     56  C   UNL     1      -1.927   6.475  -1.378  1.00  0.00     0.029 A 
ATOM     57  C   UNL     1      -0.710   7.205  -1.031  1.00  0.00     0.049 A 
ATOM     58  H   UNL     1       1.248   6.694  -1.533  1.00  0.00     0.167 HD
ATOM     59  C   UNL     1       5.317   5.474  -2.261  1.00  0.00     0.034 A 
ATOM     60  C   UNL     1      -0.673   8.358  -0.330  1.00  0.00     0.034 A 
ATOM     61  C   UNL     1       5.442   6.797  -1.706  1.00  0.00     0.049 A 
ATOM     62  C   UNL     1       0.642   9.058  -0.099  1.00  0.00     0.074 A 
ATOM     63  C   UNL     1       6.594   7.542  -1.509  1.00  0.00     0.029 A 
ATOM     64  N   UNL     1       4.388   7.575  -1.259  1.00  0.00    -0.354 N 
ATOM     65  N   UNL     1       1.846   8.692  -0.462  1.00  0.00    -0.248 NA
ATOM     66  C   UNL     1       0.597  10.358   0.591  1.00  0.00     0.031 C 
ATOM     67  C   UNL     1       6.237   8.763  -0.926  1.00  0.00     0.029 A 
ATOM     68  C   UNL     1       4.861   8.789  -0.785  1.00  0.00     0.049 A 
ATOM     69  H   UNL     1       3.441   7.305  -1.275  1.00  0.00     0.167 HD
ATOM     70  C   UNL     1       2.689   9.739  -0.099  1.00  0.00     0.074 A 
ATOM     71  C   UNL     1       1.859  10.757   0.506  1.00  0.00     0.031 C 
ATOM     72  C   UNL     1       4.033   9.838  -0.249  1.00  0.00     0.034 A 
BRANCH  59  73
ATOM     73  C   UNL     1       6.590   4.762  -2.657  1.00  0.00     0.023 A 
ATOM     74  C   UNL     1       6.906   4.622  -4.024  1.00  0.00     0.012 A 
ATOM     75  C   UNL     1       7.504   4.302  -1.688  1.00  0.00     0.148 A 
ATOM     76  C   UNL     1       8.087   3.997  -4.422  1.00  0.00     0.002 A 
ATOM     77  C   UNL     1       8.703   3.723  -2.093  1.00  0.00     0.091 A 
ATOM     78  F   UNL     1       7.185   4.434  -0.393  1.00  0.00    -0.205 F 
ATOM     79  C   UNL     1       8.989   3.557  -3.458  1.00  0.00     0.022 A 
BRANCH  77  80
ATOM     80  S   UNL     1       9.970   3.201  -0.930  1.00  0.00     0.127 S 
ATOM     81  O   UNL     1       9.869   1.745  -1.020  1.00  0.00    -0.237 OA
ATOM     82  O   UNL     1      11.184   3.765  -1.522  1.00  0.00    -0.237 OA
ATOM     83  O   UNL     1       9.597   3.777   0.354  1.00  0.00    -0.744 OA
ENDBRANCH  77  80
ENDBRANCH  59  73
BRANCH  60  84
ATOM     84  C   UNL     1      -1.943   8.992   0.134  1.00  0.00     0.023 A 
ATOM     85  C   UNL     1      -2.389  10.177  -0.485  1.00  0.00     0.012 A 
ATOM     86  C   UNL     1      -2.708   8.433   1.176  1.00  0.00     0.148 A 
ATOM     87  C   UNL     1      -3.551  10.816  -0.050  1.00  0.00     0.002 A 
ATOM     88  C   UNL     1      -3.893   9.046   1.569  1.00  0.00     0.091 A 
ATOM     89  F   UNL     1      -2.261   7.312   1.759  1.00  0.00    -0.205 F 
ATOM     90  C   UNL     1      -4.306  10.246   0.970  1.00  0.00     0.022 A 
BRANCH  88  91
ATOM     91  S   UNL     1      -4.993   8.314   2.787  1.00  0.00     0.127 S 
ATOM     92  O   UNL     1      -4.838   9.235   3.917  1.00  0.00    -0.237 OA
ATOM     93  O   UNL     1      -6.291   8.399   2.106  1.00  0.00    -0.237 OA
ATOM     94  O   UNL     1      -4.511   6.967   2.995  1.00  0.00    -0.744 OA
ENDBRANCH  88  91
ENDBRANCH  60  84
BRANCH  72  95
ATOM     95  C   UNL     1       4.706  11.117   0.184  1.00  0.00     0.023 A 
ATOM     96  C   UNL     1       4.841  11.419   1.553  1.00  0.00     0.012 A 
ATOM     97  C   UNL     1       5.272  11.986  -0.772  1.00  0.00     0.148 A 
ATOM     98  C   UNL     1       5.498  12.580   1.964  1.00  0.00     0.002 A 
ATOM     99  C   UNL     1       5.968  13.116  -0.354  1.00  0.00     0.091 A 
ATOM    100  F   UNL     1       5.117  11.696  -2.072  1.00  0.00    -0.205 F 
ATOM    101  C   UNL     1       6.072  13.421   1.012  1.00  0.00     0.022 A 
BRANCH  99 102
ATOM    102  S   UNL     1       6.820  14.201  -1.505  1.00  0.00     0.127 S 
ATOM    103  O   UNL     1       5.945  15.372  -1.514  1.00  0.00    -0.237 OA
ATOM    104  O   UNL     1       8.108  14.409  -0.843  1.00  0.00    -0.237 OA
ATOM    105  O   UNL     1       6.900  13.469  -2.762  1.00  0.00    -0.744 OA
ENDBRANCH  99 102
ENDBRANCH  72  95
ENDBRANCH  46  47
ENDBRANCH  38  41
ENDBRANCH  36  37
ENDBRANCH   1  36
TORSDOF 16
