REMARK SMILES CC(C)(Cn1ccc2ccc([N+](=O)[O-])cc21)C(=O)NCCCNC(=O)c1ccc(-c2c3nc(c(-c4cccc(S(=O)(=O)[O-])c4F)c4ccc([nH]4)c(-c4cccc(S(=O)(=O)[O-])c4F)c4nc(c(-c5cccc(S(=O)(=O)[O-])c5F)c5ccc2[nH]5)C=C4)C=C3)cc1
REMARK SMILES IDX 21 1 20 2 19 3 17 4 18 5 2 7 1 8 3 9 4 10 5 11 6 12 16 13
REMARK SMILES IDX 7 14 8 15 15 16 9 17 11 18 10 19 12 20 13 21 14 22 22 23
REMARK SMILES IDX 23 24 24 25 25 27 26 28 27 29 88 30 28 31 87 32 29 33 30 34
REMARK SMILES IDX 31 35 81 36 32 37 86 38 80 39 82 40 33 41 85 42 79 43 78 44
REMARK SMILES IDX 34 46 66 47 46 48 65 49 47 50 50 51 64 52 83 53 48 54 49 55
REMARK SMILES IDX 63 57 84 58 51 59 35 60 36 61 44 62 37 63 39 64 45 65 38 66
REMARK SMILES IDX 40 67 41 68 42 69 43 70 67 71 68 72 76 73 69 74 71 75 77 76
REMARK SMILES IDX 70 77 72 78 73 79 74 80 75 81 52 82 53 83 61 84 54 85 56 86
REMARK SMILES IDX 62 87 55 88 57 89 58 90 59 91 60 92
REMARK H PARENT 19 6 23 26 82 45 50 56
REMARK Flexibility Score: inf
ROOT
ATOM      1  C   UNL     1      -1.534  -3.897   3.264  1.00  0.00     0.042 C 
ENDROOT
BRANCH   1   2
ATOM      2  C   UNL     1      -0.286  -3.017   3.339  1.00  0.00     0.117 C 
BRANCH   2   3
ATOM      3  N   UNL     1       0.563  -3.093   2.159  1.00  0.00    -0.356 N 
ATOM      4  C   UNL     1       0.951  -2.189   1.217  1.00  0.00     0.227 C 
ATOM      5  O   UNL     1       1.791  -2.592   0.406  1.00  0.00    -0.274 OA
ATOM      6  H   UNL     1       0.938  -3.991   2.010  1.00  0.00     0.163 HD
BRANCH   4   7
ATOM      7  C   UNL     1       0.398  -0.753   1.142  1.00  0.00     0.061 C 
ATOM      8  C   UNL     1       1.040  -0.025  -0.068  1.00  0.00     0.023 C 
ATOM      9  C   UNL     1       0.849   0.042   2.383  1.00  0.00     0.023 C 
BRANCH   7  10
ATOM     10  C   UNL     1      -1.142  -0.740   0.982  1.00  0.00     0.138 C 
BRANCH  10  11
ATOM     11  N   UNL     1      -1.639  -1.314  -0.269  1.00  0.00    -0.346 N 
ATOM     12  C   UNL     1      -1.653  -2.658  -0.548  1.00  0.00     0.087 A 
ATOM     13  C   UNL     1      -2.163  -0.612  -1.343  1.00  0.00     0.055 A 
ATOM     14  C   UNL     1      -2.085  -2.827  -1.840  1.00  0.00     0.028 A 
ATOM     15  C   UNL     1      -2.414  -1.548  -2.354  1.00  0.00     0.000 A 
ATOM     16  C   UNL     1      -2.425   0.758  -1.526  1.00  0.00     0.112 A 
ATOM     17  C   UNL     1      -2.914  -1.112  -3.597  1.00  0.00     0.017 A 
ATOM     18  C   UNL     1      -2.941   1.162  -2.771  1.00  0.00     0.271 A 
ATOM     19  C   UNL     1      -3.177   0.245  -3.799  1.00  0.00     0.086 A 
BRANCH  18  20
ATOM     20  N   UNL     1      -3.230   2.585  -2.999  1.00  0.00     0.062 N 
ATOM     21  O   UNL     1      -2.989   3.380  -2.080  1.00  0.00    -0.258 OA
ATOM     22  O   UNL     1      -3.685   2.912  -4.106  1.00  0.00    -0.258 OA
ENDBRANCH  18  20
ENDBRANCH  10  11
ENDBRANCH   7  10
ENDBRANCH   4   7
ENDBRANCH   2   3
ENDBRANCH   1   2
BRANCH   1  23
ATOM     23  C   UNL     1      -1.266  -5.393   3.117  1.00  0.00     0.118 C 
BRANCH  23  24
ATOM     24  N   UNL     1      -0.408  -5.955   4.140  1.00  0.00    -0.352 N 
ATOM     25  C   UNL     1      -0.598  -6.479   5.389  1.00  0.00     0.251 C 
ATOM     26  H   UNL     1       0.539  -5.960   3.872  1.00  0.00     0.163 HD
ATOM     27  O   UNL     1       0.395  -7.014   5.889  1.00  0.00    -0.269 OA
BRANCH  25  28
ATOM     28  C   UNL     1      -1.849  -6.389   6.191  1.00  0.00     0.039 A 
ATOM     29  C   UNL     1      -3.058  -5.846   5.761  1.00  0.00     0.014 A 
ATOM     30  C   UNL     1      -1.755  -6.844   7.523  1.00  0.00     0.014 A 
ATOM     31  C   UNL     1      -4.102  -5.658   6.664  1.00  0.00     0.010 A 
ATOM     32  C   UNL     1      -2.803  -6.679   8.423  1.00  0.00     0.010 A 
ATOM     33  C   UNL     1      -3.961  -6.038   8.004  1.00  0.00    -0.014 A 
BRANCH  33  34
ATOM     34  C   UNL     1      -5.106  -5.860   8.895  1.00  0.00     0.031 A 
ATOM     35  C   UNL     1      -6.316  -6.616   8.473  1.00  0.00     0.074 A 
ATOM     36  C   UNL     1      -5.083  -5.150  10.043  1.00  0.00     0.049 A 
ATOM     37  N   UNL     1      -7.416  -6.136   7.991  1.00  0.00    -0.248 NA
ATOM     38  C   UNL     1      -6.239  -8.084   8.445  1.00  0.00     0.031 C 
ATOM     39  C   UNL     1      -3.909  -4.603  10.730  1.00  0.00     0.029 A 
ATOM     40  N   UNL     1      -6.104  -4.858  10.905  1.00  0.00    -0.354 N 
ATOM     41  C   UNL     1      -8.259  -7.234   7.827  1.00  0.00     0.074 A 
ATOM     42  C   UNL     1      -7.436  -8.408   7.951  1.00  0.00     0.031 C 
ATOM     43  C   UNL     1      -4.247  -4.268  11.997  1.00  0.00     0.029 A 
ATOM     44  C   UNL     1      -5.681  -4.421  12.159  1.00  0.00     0.049 A 
ATOM     45  H   UNL     1      -7.053  -4.948  10.661  1.00  0.00     0.167 HD
ATOM     46  C   UNL     1      -9.612  -7.102   7.872  1.00  0.00     0.034 A 
ATOM     47  C   UNL     1      -6.460  -4.241  13.255  1.00  0.00     0.034 A 
ATOM     48  C   UNL     1     -10.018  -5.727   7.822  1.00  0.00     0.049 A 
ATOM     49  C   UNL     1      -7.837  -4.008  12.770  1.00  0.00     0.074 A 
ATOM     50  C   UNL     1     -10.159  -4.748   6.866  1.00  0.00     0.029 A 
ATOM     51  N   UNL     1     -10.002  -5.117   9.046  1.00  0.00    -0.354 N 
ATOM     52  N   UNL     1      -8.191  -2.958  12.084  1.00  0.00    -0.248 NA
ATOM     53  C   UNL     1      -8.815  -5.089  12.821  1.00  0.00     0.031 C 
ATOM     54  C   UNL     1     -10.040  -3.505   7.556  1.00  0.00     0.029 A 
ATOM     55  C   UNL     1      -9.859  -3.764   8.913  1.00  0.00     0.049 A 
ATOM     56  H   UNL     1     -10.082  -5.589   9.907  1.00  0.00     0.167 HD
ATOM     57  C   UNL     1      -9.210  -3.422  11.278  1.00  0.00     0.074 A 
ATOM     58  C   UNL     1      -9.676  -4.652  11.901  1.00  0.00     0.031 C 
ATOM     59  C   UNL     1      -9.355  -2.964  10.005  1.00  0.00     0.034 A 
BRANCH  46  60
ATOM     60  C   UNL     1     -10.553  -8.149   8.416  1.00  0.00     0.023 A 
ATOM     61  C   UNL     1     -11.930  -8.026   8.133  1.00  0.00     0.012 A 
ATOM     62  C   UNL     1     -10.181  -9.071   9.421  1.00  0.00     0.148 A 
ATOM     63  C   UNL     1     -12.888  -8.792   8.811  1.00  0.00     0.002 A 
ATOM     64  C   UNL     1     -11.126  -9.881  10.039  1.00  0.00     0.091 A 
ATOM     65  F   UNL     1      -8.926  -9.068   9.883  1.00  0.00    -0.205 F 
ATOM     66  C   UNL     1     -12.485  -9.733   9.752  1.00  0.00     0.022 A 
BRANCH  64  67
ATOM     67  S   UNL     1     -10.658 -11.129  11.243  1.00  0.00     0.127 S 
ATOM     68  O   UNL     1     -11.153 -10.543  12.483  1.00  0.00    -0.237 OA
ATOM     69  O   UNL     1     -11.398 -12.296  10.765  1.00  0.00    -0.237 OA
ATOM     70  O   UNL     1      -9.208 -11.253  11.125  1.00  0.00    -0.744 OA
ENDBRANCH  64  67
ENDBRANCH  46  60
BRANCH  47  71
ATOM     71  C   UNL     1      -6.196  -4.418  14.706  1.00  0.00     0.023 A 
ATOM     72  C   UNL     1      -7.131  -3.904  15.634  1.00  0.00     0.012 A 
ATOM     73  C   UNL     1      -5.252  -5.357  15.170  1.00  0.00     0.148 A 
ATOM     74  C   UNL     1      -7.189  -4.382  16.948  1.00  0.00     0.002 A 
ATOM     75  C   UNL     1      -5.309  -5.823  16.483  1.00  0.00     0.091 A 
ATOM     76  F   UNL     1      -4.368  -5.869  14.303  1.00  0.00    -0.205 F 
ATOM     77  C   UNL     1      -6.292  -5.356  17.366  1.00  0.00     0.022 A 
BRANCH  75  78
ATOM     78  S   UNL     1      -4.191  -7.090  17.096  1.00  0.00     0.127 S 
ATOM     79  O   UNL     1      -3.839  -6.574  18.421  1.00  0.00    -0.237 OA
ATOM     80  O   UNL     1      -5.049  -8.271  17.108  1.00  0.00    -0.237 OA
ATOM     81  O   UNL     1      -3.079  -7.119  16.154  1.00  0.00    -0.744 OA
ENDBRANCH  75  78
ENDBRANCH  47  71
BRANCH  59  82
ATOM     82  C   UNL     1      -8.780  -1.622   9.677  1.00  0.00     0.023 A 
ATOM     83  C   UNL     1      -7.397  -1.393   9.537  1.00  0.00     0.012 A 
ATOM     84  C   UNL     1      -9.686  -0.594   9.375  1.00  0.00     0.148 A 
ATOM     85  C   UNL     1      -6.931  -0.151   9.097  1.00  0.00     0.002 A 
ATOM     86  C   UNL     1      -9.222   0.622   8.901  1.00  0.00     0.091 A 
ATOM     87  F   UNL     1     -10.996  -0.846   9.524  1.00  0.00    -0.205 F 
ATOM     88  C   UNL     1      -7.843   0.851   8.765  1.00  0.00     0.022 A 
BRANCH  86  89
ATOM     89  S   UNL     1     -10.343   1.911   8.358  1.00  0.00     0.127 S 
ATOM     90  O   UNL     1     -10.095   2.966   9.338  1.00  0.00    -0.237 OA
ATOM     91  O   UNL     1      -9.849   2.196   7.010  1.00  0.00    -0.237 OA
ATOM     92  O   UNL     1     -11.679   1.330   8.396  1.00  0.00    -0.744 OA
ENDBRANCH  86  89
ENDBRANCH  59  82
ENDBRANCH  33  34
ENDBRANCH  25  28
ENDBRANCH  23  24
ENDBRANCH   1  23
TORSDOF 16
