REMARK SMILES C[C@@H](O)c1ccc(F)cc1OCC(C)(C)C(=O)NCCCNC(=O)c1ccc(-c2c3nc(c(-c4cccc(S(=O)(=O)[O-])c4F)c4ccc([nH]4)c(-c4cccc(S(=O)(=O)[O-])c4F)c4nc(c(-c5cccc(S(=O)(=O)[O-])c5F)c5ccc2[nH]5)C=C4)C=C3)cc1
REMARK SMILES IDX 19 1 18 2 16 3 17 4 13 6 14 7 15 8 12 9 11 10 10 11 4 12
REMARK SMILES IDX 5 13 6 14 9 15 7 16 8 17 2 18 1 19 3 20 20 22 21 23 22 24
REMARK SMILES IDX 23 25 24 27 25 28 26 29 87 30 27 31 86 32 28 33 29 34 30 35
REMARK SMILES IDX 80 36 31 37 85 38 79 39 81 40 32 41 84 42 78 43 77 44 33 46
REMARK SMILES IDX 65 47 45 48 64 49 46 50 49 51 63 52 82 53 47 54 48 55 62 57
REMARK SMILES IDX 83 58 50 59 34 60 35 61 43 62 36 63 38 64 44 65 37 66 39 67
REMARK SMILES IDX 40 68 41 69 42 70 66 71 67 72 75 73 68 74 70 75 76 76 69 77
REMARK SMILES IDX 71 78 72 79 73 80 74 81 51 82 52 83 60 84 53 85 55 86 61 87
REMARK SMILES IDX 54 88 56 89 57 90 58 91 59 92
REMARK H PARENT 18 5 3 21 22 26 81 45 49 56
REMARK Flexibility Score: inf
ROOT
ATOM      1  C   UNL     1       1.752   3.947  -0.498  1.00  0.00     0.117 C 
ENDROOT
BRANCH   1   2
ATOM      2  N   UNL     1       1.145   4.098  -1.818  1.00  0.00    -0.355 N 
ATOM      3  C   UNL     1       0.598   3.145  -2.645  1.00  0.00     0.229 C 
ATOM      4  O   UNL     1       0.003   3.533  -3.650  1.00  0.00    -0.274 OA
ATOM      5  H   UNL     1       1.125   5.019  -2.168  1.00  0.00     0.163 HD
BRANCH   3   6
ATOM      6  C   UNL     1       0.782   1.653  -2.304  1.00  0.00     0.077 C 
ATOM      7  C   UNL     1       0.268   1.442  -0.867  1.00  0.00     0.025 C 
ATOM      8  C   UNL     1       2.299   1.365  -2.463  1.00  0.00     0.025 C 
BRANCH   6   9
ATOM      9  C   UNL     1       0.096   0.722  -3.359  1.00  0.00     0.245 C 
BRANCH   9  10
ATOM     10  O   UNL     1      -1.287   0.462  -3.184  1.00  0.00    -0.492 OA
BRANCH  10  11
ATOM     11  C   UNL     1      -1.860  -0.438  -2.332  1.00  0.00     0.128 A 
ATOM     12  C   UNL     1      -1.315  -1.392  -1.436  1.00  0.00     0.022 A 
ATOM     13  C   UNL     1      -2.213  -2.031  -0.539  1.00  0.00     0.013 A 
ATOM     14  C   UNL     1      -3.576  -1.739  -0.511  1.00  0.00     0.040 A 
ATOM     15  C   UNL     1      -3.251  -0.211  -2.331  1.00  0.00     0.086 A 
ATOM     16  C   UNL     1      -4.087  -0.841  -1.424  1.00  0.00     0.126 A 
ATOM     17  F   UNL     1      -5.394  -0.553  -1.414  1.00  0.00    -0.207 F 
BRANCH  12  18
ATOM     18  C   UNL     1       0.147  -1.772  -1.283  1.00  0.00     0.145 C 
ATOM     19  C   UNL     1       0.670  -1.758   0.162  1.00  0.00     0.044 C 
BRANCH  18  20
ATOM     20  O   UNL     1       0.336  -3.082  -1.816  1.00  0.00    -0.389 OA
ATOM     21  H   UNL     1      -0.188  -3.718  -1.304  1.00  0.00     0.211 HD
ENDBRANCH  18  20
ENDBRANCH  12  18
ENDBRANCH  10  11
ENDBRANCH   9  10
ENDBRANCH   6   9
ENDBRANCH   3   6
ENDBRANCH   1   2
BRANCH   1  22
ATOM     22  C   UNL     1       3.005   4.763  -0.305  1.00  0.00     0.042 C 
BRANCH  22  23
ATOM     23  C   UNL     1       2.697   6.229  -0.098  1.00  0.00     0.118 C 
BRANCH  23  24
ATOM     24  N   UNL     1       1.940   6.479   1.129  1.00  0.00    -0.352 N 
ATOM     25  C   UNL     1       2.283   7.235   2.228  1.00  0.00     0.251 C 
ATOM     26  H   UNL     1       1.058   6.044   1.176  1.00  0.00     0.163 HD
ATOM     27  O   UNL     1       1.609   7.196   3.245  1.00  0.00    -0.269 OA
BRANCH  25  28
ATOM     28  C   UNL     1       3.498   8.070   2.153  1.00  0.00     0.039 A 
ATOM     29  C   UNL     1       4.410   8.059   3.208  1.00  0.00     0.014 A 
ATOM     30  C   UNL     1       3.761   8.796   0.991  1.00  0.00     0.014 A 
ATOM     31  C   UNL     1       5.634   8.711   3.054  1.00  0.00     0.010 A 
ATOM     32  C   UNL     1       5.026   9.317   0.789  1.00  0.00     0.010 A 
ATOM     33  C   UNL     1       5.969   9.303   1.825  1.00  0.00    -0.014 A 
BRANCH  33  34
ATOM     34  C   UNL     1       7.286   9.939   1.587  1.00  0.00     0.031 A 
ATOM     35  C   UNL     1       7.343  11.384   1.167  1.00  0.00     0.074 A 
ATOM     36  C   UNL     1       8.409   9.195   1.628  1.00  0.00     0.049 A 
ATOM     37  N   UNL     1       8.375  12.091   0.794  1.00  0.00    -0.248 NA
ATOM     38  C   UNL     1       6.065  12.117   1.110  1.00  0.00     0.031 C 
ATOM     39  C   UNL     1       8.467   7.760   1.918  1.00  0.00     0.029 A 
ATOM     40  N   UNL     1       9.717   9.538   1.397  1.00  0.00    -0.354 N 
ATOM     41  C   UNL     1       7.865  13.324   0.405  1.00  0.00     0.074 A 
ATOM     42  C   UNL     1       6.429  13.256   0.540  1.00  0.00     0.031 C 
ATOM     43  C   UNL     1       9.745   7.351   1.867  1.00  0.00     0.029 A 
ATOM     44  C   UNL     1      10.593   8.484   1.509  1.00  0.00     0.049 A 
ATOM     45  H   UNL     1      10.002  10.453   1.173  1.00  0.00     0.167 HD
ATOM     46  C   UNL     1       8.536  14.431   0.015  1.00  0.00     0.034 A 
ATOM     47  C   UNL     1      11.930   8.436   1.343  1.00  0.00     0.034 A 
ATOM     48  C   UNL     1       9.967  14.519  -0.021  1.00  0.00     0.049 A 
ATOM     49  C   UNL     1      12.664   9.706   1.008  1.00  0.00     0.074 A 
ATOM     50  C   UNL     1      10.750  15.629  -0.277  1.00  0.00     0.029 A 
ATOM     51  N   UNL     1      10.829  13.461   0.218  1.00  0.00    -0.354 N 
ATOM     52  N   UNL     1      12.177  10.906   0.803  1.00  0.00    -0.248 NA
ATOM     53  C   UNL     1      14.129   9.629   0.916  1.00  0.00     0.031 C 
ATOM     54  C   UNL     1      12.090  15.238  -0.204  1.00  0.00     0.029 A 
ATOM     55  C   UNL     1      12.139  13.889   0.114  1.00  0.00     0.049 A 
ATOM     56  H   UNL     1      10.550  12.541   0.430  1.00  0.00     0.167 HD
ATOM     57  C   UNL     1      13.273  11.732   0.584  1.00  0.00     0.074 A 
ATOM     58  C   UNL     1      14.453  10.899   0.703  1.00  0.00     0.031 C 
ATOM     59  C   UNL     1      13.300  13.056   0.292  1.00  0.00     0.034 A 
BRANCH  46  60
ATOM     60  C   UNL     1       7.735  15.661  -0.319  1.00  0.00     0.023 A 
ATOM     61  C   UNL     1       7.095  16.373   0.716  1.00  0.00     0.012 A 
ATOM     62  C   UNL     1       7.676  16.152  -1.637  1.00  0.00     0.148 A 
ATOM     63  C   UNL     1       6.384  17.540   0.441  1.00  0.00     0.002 A 
ATOM     64  C   UNL     1       7.006  17.342  -1.896  1.00  0.00     0.091 A 
ATOM     65  F   UNL     1       8.270  15.446  -2.610  1.00  0.00    -0.205 F 
ATOM     66  C   UNL     1       6.351  18.030  -0.862  1.00  0.00     0.022 A 
BRANCH  64  67
ATOM     67  S   UNL     1       6.977  18.104  -3.522  1.00  0.00     0.127 S 
ATOM     68  O   UNL     1       5.576  17.928  -3.905  1.00  0.00    -0.237 OA
ATOM     69  O   UNL     1       7.358  19.484  -3.221  1.00  0.00    -0.237 OA
ATOM     70  O   UNL     1       7.941  17.369  -4.329  1.00  0.00    -0.744 OA
ENDBRANCH  64  67
ENDBRANCH  46  60
BRANCH  47  71
ATOM     71  C   UNL     1      12.655   7.158   1.594  1.00  0.00     0.023 A 
ATOM     72  C   UNL     1      13.438   7.030   2.758  1.00  0.00     0.012 A 
ATOM     73  C   UNL     1      12.511   6.048   0.739  1.00  0.00     0.148 A 
ATOM     74  C   UNL     1      14.077   5.827   3.058  1.00  0.00     0.002 A 
ATOM     75  C   UNL     1      13.105   4.836   1.072  1.00  0.00     0.091 A 
ATOM     76  F   UNL     1      11.769   6.193  -0.368  1.00  0.00    -0.205 F 
ATOM     77  C   UNL     1      13.900   4.727   2.223  1.00  0.00     0.022 A 
BRANCH  75  78
ATOM     78  S   UNL     1      12.812   3.328   0.139  1.00  0.00     0.127 S 
ATOM     79  O   UNL     1      14.117   3.096  -0.474  1.00  0.00    -0.237 OA
ATOM     80  O   UNL     1      12.451   2.384   1.197  1.00  0.00    -0.237 OA
ATOM     81  O   UNL     1      11.726   3.639  -0.782  1.00  0.00    -0.744 OA
ENDBRANCH  75  78
ENDBRANCH  47  71
BRANCH  59  82
ATOM     82  C   UNL     1      14.640  13.710   0.092  1.00  0.00     0.023 A 
ATOM     83  C   UNL     1      15.347  13.486  -1.105  1.00  0.00     0.012 A 
ATOM     84  C   UNL     1      15.126  14.650   1.022  1.00  0.00     0.148 A 
ATOM     85  C   UNL     1      16.528  14.180  -1.367  1.00  0.00     0.002 A 
ATOM     86  C   UNL     1      16.276  15.372   0.733  1.00  0.00     0.091 A 
ATOM     87  F   UNL     1      14.442  14.834   2.161  1.00  0.00    -0.205 F 
ATOM     88  C   UNL     1      16.983  15.132  -0.457  1.00  0.00     0.022 A 
BRANCH  86  89
ATOM     89  S   UNL     1      16.877  16.692   1.793  1.00  0.00     0.127 S 
ATOM     90  O   UNL     1      18.068  16.083   2.381  1.00  0.00    -0.237 OA
ATOM     91  O   UNL     1      17.149  17.762   0.833  1.00  0.00    -0.237 OA
ATOM     92  O   UNL     1      15.796  16.980   2.727  1.00  0.00    -0.744 OA
ENDBRANCH  86  89
ENDBRANCH  59  82
ENDBRANCH  33  34
ENDBRANCH  25  28
ENDBRANCH  23  24
ENDBRANCH  22  23
ENDBRANCH   1  22
TORSDOF 18
