REMARK SMILES Cc1ccc(F)cc1-c1ccc(F)cc1C(=O)NCCCNC(=O)c1ccc(-c2c3nc(c(-c4cccc(S(=O)(=O)[O-])c4F)c4ccc([nH]4)c(-c4cccc(S(=O)(=O)[O-])c4F)c4nc(c(-c5cccc(S(=O)(=O)[O-])c5F)c5ccc2[nH]5)C=C4)C=C3)cc1
REMARK SMILES IDX 21 1 20 2 19 3 18 4 16 5 17 6 15 8 9 9 10 10 11 11 14 12
REMARK SMILES IDX 12 13 13 14 8 15 1 16 2 17 3 18 4 19 7 20 5 21 6 22 22 23
REMARK SMILES IDX 23 24 24 26 25 27 26 28 87 29 27 30 86 31 28 32 29 33 30 34
REMARK SMILES IDX 80 35 31 36 85 37 79 38 81 39 32 40 84 41 78 42 77 43 33 45
REMARK SMILES IDX 65 46 45 47 64 48 46 49 49 50 63 51 82 52 47 53 48 54 62 56
REMARK SMILES IDX 83 57 50 58 34 59 35 60 43 61 36 62 38 63 44 64 37 65 39 66
REMARK SMILES IDX 40 67 41 68 42 69 66 70 67 71 75 72 68 73 70 74 76 75 69 76
REMARK SMILES IDX 71 77 72 78 73 79 74 80 51 81 52 82 60 83 53 84 55 85 61 86
REMARK SMILES IDX 54 87 56 88 57 89 58 90 59 91
REMARK H PARENT 18 7 22 25 81 44 49 55
REMARK Flexibility Score: inf
ROOT
ATOM      1  C   UNL     1      -0.910   0.696  -3.648  1.00  0.00     0.118 C 
ENDROOT
BRANCH   1   2
ATOM      2  C   UNL     1       0.494   0.406  -3.133  1.00  0.00     0.042 C 
BRANCH   2   3
ATOM      3  C   UNL     1       0.554  -0.656  -2.052  1.00  0.00     0.118 C 
BRANCH   3   4
ATOM      4  N   UNL     1       0.126  -1.984  -2.416  1.00  0.00    -0.352 N 
ATOM      5  C   UNL     1       0.370  -3.183  -1.795  1.00  0.00     0.252 C 
ATOM      6  O   UNL     1      -0.233  -4.168  -2.232  1.00  0.00    -0.269 OA
ATOM      7  H   UNL     1      -0.422  -2.038  -3.232  1.00  0.00     0.163 HD
BRANCH   5   8
ATOM      8  C   UNL     1       1.369  -3.408  -0.701  1.00  0.00     0.050 A 
ATOM      9  C   UNL     1       1.560  -2.668   0.495  1.00  0.00    -0.005 A 
ATOM     10  C   UNL     1       2.481  -3.169   1.451  1.00  0.00     0.012 A 
ATOM     11  C   UNL     1       3.213  -4.334   1.236  1.00  0.00     0.040 A 
ATOM     12  C   UNL     1       2.119  -4.592  -0.893  1.00  0.00     0.053 A 
ATOM     13  C   UNL     1       3.026  -5.034   0.060  1.00  0.00     0.124 A 
ATOM     14  F   UNL     1       3.716  -6.162  -0.153  1.00  0.00    -0.207 F 
BRANCH   9  15
ATOM     15  C   UNL     1       0.871  -1.418   0.861  1.00  0.00    -0.012 A 
ATOM     16  C   UNL     1       3.011   0.011   0.560  1.00  0.00     0.045 C 
ATOM     17  C   UNL     1       1.550  -0.166   0.911  1.00  0.00    -0.043 A 
ATOM     18  C   UNL     1       0.825   1.010   1.187  1.00  0.00     0.007 A 
ATOM     19  C   UNL     1      -0.544   0.959   1.435  1.00  0.00     0.039 A 
ATOM     20  C   UNL     1      -0.503  -1.448   1.161  1.00  0.00     0.048 A 
ATOM     21  C   UNL     1      -1.191  -0.268   1.436  1.00  0.00     0.123 A 
ATOM     22  F   UNL     1      -2.508  -0.319   1.675  1.00  0.00    -0.207 F 
ENDBRANCH   9  15
ENDBRANCH   5   8
ENDBRANCH   3   4
ENDBRANCH   2   3
ENDBRANCH   1   2
BRANCH   1  23
ATOM     23  N   UNL     1      -1.833   1.246  -2.655  1.00  0.00    -0.352 N 
ATOM     24  C   UNL     1      -2.185   2.523  -2.283  1.00  0.00     0.251 C 
ATOM     25  H   UNL     1      -2.303   0.551  -2.141  1.00  0.00     0.163 HD
ATOM     26  O   UNL     1      -2.969   2.663  -1.342  1.00  0.00    -0.269 OA
BRANCH  24  27
ATOM     27  C   UNL     1      -1.618   3.732  -2.929  1.00  0.00     0.039 A 
ATOM     28  C   UNL     1      -1.423   4.887  -2.156  1.00  0.00     0.014 A 
ATOM     29  C   UNL     1      -1.291   3.770  -4.278  1.00  0.00     0.014 A 
ATOM     30  C   UNL     1      -0.804   6.016  -2.710  1.00  0.00     0.010 A 
ATOM     31  C   UNL     1      -0.553   4.832  -4.789  1.00  0.00     0.010 A 
ATOM     32  C   UNL     1      -0.299   5.973  -4.017  1.00  0.00    -0.014 A 
BRANCH  32  33
ATOM     33  C   UNL     1       0.492   7.079  -4.628  1.00  0.00     0.031 A 
ATOM     34  C   UNL     1       0.087   7.631  -5.974  1.00  0.00     0.074 A 
ATOM     35  C   UNL     1       1.654   7.473  -4.069  1.00  0.00     0.049 A 
ATOM     36  N   UNL     1       0.772   8.370  -6.806  1.00  0.00    -0.248 NA
ATOM     37  C   UNL     1      -1.244   7.246  -6.476  1.00  0.00     0.031 C 
ATOM     38  C   UNL     1       2.205   6.974  -2.807  1.00  0.00     0.029 A 
ATOM     39  N   UNL     1       2.606   8.359  -4.514  1.00  0.00    -0.354 N 
ATOM     40  C   UNL     1      -0.004   8.464  -7.957  1.00  0.00     0.074 A 
ATOM     41  C   UNL     1      -1.199   7.683  -7.725  1.00  0.00     0.031 C 
ATOM     42  C   UNL     1       3.387   7.566  -2.575  1.00  0.00     0.029 A 
ATOM     43  C   UNL     1       3.707   8.446  -3.693  1.00  0.00     0.049 A 
ATOM     44  H   UNL     1       2.509   8.883  -5.343  1.00  0.00     0.167 HD
ATOM     45  C   UNL     1       0.238   9.162  -9.092  1.00  0.00     0.034 A 
ATOM     46  C   UNL     1       4.855   9.139  -3.831  1.00  0.00     0.034 A 
ATOM     47  C   UNL     1       1.369  10.031  -9.271  1.00  0.00     0.049 A 
ATOM     48  C   UNL     1       5.053   9.992  -5.054  1.00  0.00     0.074 A 
ATOM     49  C   UNL     1       1.645  10.873 -10.333  1.00  0.00     0.029 A 
ATOM     50  N   UNL     1       2.396  10.192  -8.354  1.00  0.00    -0.354 N 
ATOM     51  N   UNL     1       4.257  10.153  -6.084  1.00  0.00    -0.248 NA
ATOM     52  C   UNL     1       6.292  10.780  -5.126  1.00  0.00     0.031 C 
ATOM     53  C   UNL     1       2.840  11.545 -10.057  1.00  0.00     0.029 A 
ATOM     54  C   UNL     1       3.303  11.127  -8.819  1.00  0.00     0.049 A 
ATOM     55  H   UNL     1       2.469   9.711  -7.497  1.00  0.00     0.167 HD
ATOM     56  C   UNL     1       4.886  11.075  -6.913  1.00  0.00     0.074 A 
ATOM     57  C   UNL     1       6.116  11.460  -6.252  1.00  0.00     0.031 C 
ATOM     58  C   UNL     1       4.494  11.542  -8.124  1.00  0.00     0.034 A 
BRANCH  45  59
ATOM     59  C   UNL     1      -0.781   9.085 -10.200  1.00  0.00     0.023 A 
ATOM     60  C   UNL     1      -2.031   9.716 -10.037  1.00  0.00     0.012 A 
ATOM     61  C   UNL     1      -0.481   8.453 -11.423  1.00  0.00     0.148 A 
ATOM     62  C   UNL     1      -2.981   9.687 -11.056  1.00  0.00     0.002 A 
ATOM     63  C   UNL     1      -1.416   8.470 -12.453  1.00  0.00     0.091 A 
ATOM     64  F   UNL     1       0.705   7.843 -11.556  1.00  0.00    -0.205 F 
ATOM     65  C   UNL     1      -2.670   9.075 -12.266  1.00  0.00     0.022 A 
BRANCH  63  66
ATOM     66  S   UNL     1      -1.084   7.786 -14.081  1.00  0.00     0.127 S 
ATOM     67  O   UNL     1      -1.970   6.622 -14.098  1.00  0.00    -0.237 OA
ATOM     68  O   UNL     1      -1.496   8.878 -14.963  1.00  0.00    -0.237 OA
ATOM     69  O   UNL     1       0.340   7.486 -14.109  1.00  0.00    -0.744 OA
ENDBRANCH  63  66
ENDBRANCH  45  59
BRANCH  46  70
ATOM     70  C   UNL     1       5.867   9.116  -2.736  1.00  0.00     0.023 A 
ATOM     71  C   UNL     1       6.030  10.265  -1.937  1.00  0.00     0.012 A 
ATOM     72  C   UNL     1       6.618   7.962  -2.438  1.00  0.00     0.148 A 
ATOM     73  C   UNL     1       6.935  10.273  -0.876  1.00  0.00     0.002 A 
ATOM     74  C   UNL     1       7.477   7.958  -1.344  1.00  0.00     0.091 A 
ATOM     75  F   UNL     1       6.457   6.881  -3.215  1.00  0.00    -0.205 F 
ATOM     76  C   UNL     1       7.649   9.118  -0.572  1.00  0.00     0.022 A 
BRANCH  74  77
ATOM     77  S   UNL     1       8.327   6.476  -0.788  1.00  0.00     0.127 S 
ATOM     78  O   UNL     1       9.716   6.787  -1.112  1.00  0.00    -0.237 OA
ATOM     79  O   UNL     1       8.014   6.468   0.642  1.00  0.00    -0.237 OA
ATOM     80  O   UNL     1       7.733   5.377  -1.536  1.00  0.00    -0.744 OA
ENDBRANCH  74  77
ENDBRANCH  46  70
BRANCH  58  81
ATOM     81  C   UNL     1       5.388  12.534  -8.819  1.00  0.00     0.023 A 
ATOM     82  C   UNL     1       6.585  12.088  -9.413  1.00  0.00     0.012 A 
ATOM     83  C   UNL     1       4.995  13.877  -8.975  1.00  0.00     0.148 A 
ATOM     84  C   UNL     1       7.389  12.970 -10.134  1.00  0.00     0.002 A 
ATOM     85  C   UNL     1       5.777  14.740  -9.734  1.00  0.00     0.091 A 
ATOM     86  F   UNL     1       3.862  14.286  -8.384  1.00  0.00    -0.205 F 
ATOM     87  C   UNL     1       6.978  14.291 -10.306  1.00  0.00     0.022 A 
BRANCH  85  88
ATOM     88  S   UNL     1       5.272  16.427 -10.091  1.00  0.00     0.127 S 
ATOM     89  O   UNL     1       6.126  17.192  -9.185  1.00  0.00    -0.237 OA
ATOM     90  O   UNL     1       5.610  16.562 -11.508  1.00  0.00    -0.237 OA
ATOM     91  O   UNL     1       3.844  16.482  -9.806  1.00  0.00    -0.744 OA
ENDBRANCH  85  88
ENDBRANCH  58  81
ENDBRANCH  32  33
ENDBRANCH  24  27
ENDBRANCH   1  23
TORSDOF 14
