REMARK SMILES CS(=O)(=O)c1ccc(C2=NN(c3ccc(C(=O)NCCCNC(=O)c4ccc(-c5c6nc(c(-c7cccc(S(=O)(=O)[O-])c7F)c7ccc([nH]7)c(-c7cccc(S(=O)(=O)[O-])c7F)c7nc(c(-c8cccc(S(=O)(=O)[O-])c8F)c8ccc5[nH]8)C=C7)C=C6)cc4)cc3)[C@H](c3ccc(F)cc3)C2)cc1
REMARK SMILES IDX 20 1 19 2 18 3 16 4 17 5 15 7 12 8 13 9 89 10 14 11 88 12
REMARK SMILES IDX 11 13 9 14 10 15 98 16 90 17 8 18 5 19 6 20 100 21 7 22
REMARK SMILES IDX 99 23 2 24 1 25 3 26 4 27 91 28 92 29 97 30 93 31 96 32
REMARK SMILES IDX 94 33 95 34 21 35 22 36 23 37 24 39 25 40 26 41 87 42 27 43
REMARK SMILES IDX 86 44 28 45 29 46 30 47 80 48 31 49 85 50 79 51 81 52 32 53
REMARK SMILES IDX 84 54 78 55 77 56 33 58 65 59 45 60 64 61 46 62 49 63 63 64
REMARK SMILES IDX 82 65 47 66 48 67 62 69 83 70 50 71 34 72 35 73 43 74 36 75
REMARK SMILES IDX 38 76 44 77 37 78 39 79 40 80 41 81 42 82 66 83 67 84 75 85
REMARK SMILES IDX 68 86 70 87 76 88 69 89 71 90 72 91 73 92 74 93 51 94 52 95
REMARK SMILES IDX 60 96 53 97 55 98 61 99 54 100 56 101 57 102 58 103 59 104
REMARK H PARENT 18 6 22 38 81 57 49 68
REMARK Flexibility Score: inf
ROOT
ATOM      1  C   UNL     1       4.551 -13.009   6.206  1.00  0.00     0.042 C 
ENDROOT
BRANCH   1   2
ATOM      2  C   UNL     1       5.113 -12.066   7.266  1.00  0.00     0.118 C 
BRANCH   2   3
ATOM      3  N   UNL     1       6.348 -11.432   6.834  1.00  0.00    -0.352 N 
ATOM      4  C   UNL     1       6.606 -10.145   6.429  1.00  0.00     0.251 C 
ATOM      5  O   UNL     1       7.777  -9.798   6.284  1.00  0.00    -0.269 OA
ATOM      6  H   UNL     1       7.134 -12.026   6.832  1.00  0.00     0.163 HD
BRANCH   4   7
ATOM      7  C   UNL     1       5.522  -9.148   6.228  1.00  0.00     0.039 A 
ATOM      8  C   UNL     1       3.522  -7.183   5.959  1.00  0.00     0.060 A 
ATOM      9  C   UNL     1       4.786  -6.844   6.450  1.00  0.00     0.029 A 
ATOM     10  C   UNL     1       3.295  -8.496   5.542  1.00  0.00     0.029 A 
ATOM     11  C   UNL     1       5.781  -7.819   6.585  1.00  0.00     0.016 A 
ATOM     12  C   UNL     1       4.290  -9.467   5.658  1.00  0.00     0.016 A 
BRANCH   8  13
ATOM     13  N   UNL     1       2.485  -6.261   5.898  1.00  0.00    -0.257 N 
ATOM     14  C   UNL     1       1.750  -4.352   5.330  1.00  0.00     0.071 C 
ATOM     15  N   UNL     1       2.493  -5.327   4.917  1.00  0.00    -0.176 NA
ATOM     16  C   UNL     1       1.216  -4.477   6.730  1.00  0.00     0.091 C 
ATOM     17  C   UNL     1       1.730  -5.880   7.093  1.00  0.00     0.144 C 
BRANCH  14  18
ATOM     18  C   UNL     1       1.430  -3.197   4.480  1.00  0.00    -0.002 A 
ATOM     19  C   UNL     1       0.783  -1.077   2.805  1.00  0.00     0.067 A 
ATOM     20  C   UNL     1       0.705  -2.384   2.319  1.00  0.00     0.021 A 
ATOM     21  C   UNL     1       1.190  -0.824   4.122  1.00  0.00     0.021 A 
ATOM     22  C   UNL     1       1.048  -3.445   3.156  1.00  0.00     0.011 A 
ATOM     23  C   UNL     1       1.504  -1.891   4.968  1.00  0.00     0.011 A 
BRANCH  19  24
ATOM     24  S   UNL     1       0.354   0.290   1.752  1.00  0.00     0.175 S 
ATOM     25  C   UNL     1       1.137  -0.041   0.196  1.00  0.00     0.163 C 
ATOM     26  O   UNL     1       0.982   1.473   2.304  1.00  0.00    -0.224 OA
ATOM     27  O   UNL     1      -1.086   0.230   1.566  1.00  0.00    -0.224 OA
ENDBRANCH  19  24
ENDBRANCH  14  18
BRANCH  17  28
ATOM     28  C   UNL     1       0.697  -6.949   7.432  1.00  0.00    -0.023 A 
ATOM     29  C   UNL     1      -0.620  -6.943   6.942  1.00  0.00     0.009 A 
ATOM     30  C   UNL     1       1.105  -8.050   8.216  1.00  0.00     0.009 A 
ATOM     31  C   UNL     1      -1.504  -7.983   7.252  1.00  0.00     0.039 A 
ATOM     32  C   UNL     1       0.230  -9.098   8.505  1.00  0.00     0.039 A 
ATOM     33  C   UNL     1      -1.070  -9.050   8.027  1.00  0.00     0.123 A 
ATOM     34  F   UNL     1      -1.915 -10.050   8.310  1.00  0.00    -0.207 F 
ENDBRANCH  17  28
ENDBRANCH   8  13
ENDBRANCH   4   7
ENDBRANCH   2   3
ENDBRANCH   1   2
BRANCH   1  35
ATOM     35  C   UNL     1       5.341 -14.304   6.052  1.00  0.00     0.118 C 
BRANCH  35  36
ATOM     36  N   UNL     1       5.144 -15.209   7.177  1.00  0.00    -0.352 N 
ATOM     37  C   UNL     1       4.691 -16.507   7.181  1.00  0.00     0.251 C 
ATOM     38  H   UNL     1       5.368 -14.838   8.061  1.00  0.00     0.163 HD
ATOM     39  O   UNL     1       4.410 -17.047   8.248  1.00  0.00    -0.269 OA
BRANCH  37  40
ATOM     40  C   UNL     1       4.527 -17.247   5.910  1.00  0.00     0.039 A 
ATOM     41  C   UNL     1       3.375 -18.015   5.714  1.00  0.00     0.014 A 
ATOM     42  C   UNL     1       5.511 -17.197   4.919  1.00  0.00     0.014 A 
ATOM     43  C   UNL     1       3.179 -18.679   4.499  1.00  0.00     0.010 A 
ATOM     44  C   UNL     1       5.285 -17.805   3.687  1.00  0.00     0.010 A 
ATOM     45  C   UNL     1       4.119 -18.552   3.464  1.00  0.00    -0.014 A 
BRANCH  45  46
ATOM     46  C   UNL     1       3.910 -19.175   2.131  1.00  0.00     0.031 A 
ATOM     47  C   UNL     1       4.865 -20.226   1.635  1.00  0.00     0.074 A 
ATOM     48  C   UNL     1       2.939 -18.706   1.321  1.00  0.00     0.049 A 
ATOM     49  N   UNL     1       4.941 -20.781   0.453  1.00  0.00    -0.248 NA
ATOM     50  C   UNL     1       5.889 -20.693   2.584  1.00  0.00     0.031 C 
ATOM     51  C   UNL     1       1.992 -17.643   1.663  1.00  0.00     0.029 A 
ATOM     52  N   UNL     1       2.616 -19.035   0.028  1.00  0.00    -0.354 N 
ATOM     53  C   UNL     1       6.045 -21.624   0.500  1.00  0.00     0.074 A 
ATOM     54  C   UNL     1       6.620 -21.494   1.822  1.00  0.00     0.031 C 
ATOM     55  C   UNL     1       1.203 -17.400   0.604  1.00  0.00     0.029 A 
ATOM     56  C   UNL     1       1.608 -18.263  -0.501  1.00  0.00     0.049 A 
ATOM     57  H   UNL     1       3.063 -19.755  -0.473  1.00  0.00     0.167 HD
ATOM     58  C   UNL     1       6.522 -22.451  -0.460  1.00  0.00     0.034 A 
ATOM     59  C   UNL     1       1.079 -18.240  -1.741  1.00  0.00     0.034 A 
ATOM     60  C   UNL     1       5.914 -22.619  -1.752  1.00  0.00     0.049 A 
ATOM     61  C   UNL     1       1.598 -19.204  -2.774  1.00  0.00     0.074 A 
ATOM     62  C   UNL     1       6.269 -23.496  -2.762  1.00  0.00     0.029 A 
ATOM     63  N   UNL     1       4.824 -21.898  -2.212  1.00  0.00    -0.354 N 
ATOM     64  N   UNL     1       2.549 -20.098  -2.663  1.00  0.00    -0.248 NA
ATOM     65  C   UNL     1       0.948 -19.180  -4.093  1.00  0.00     0.031 C 
ATOM     66  C   UNL     1       5.397 -23.297  -3.838  1.00  0.00     0.029 A 
ATOM     67  C   UNL     1       4.491 -22.308  -3.492  1.00  0.00     0.049 A 
ATOM     68  H   UNL     1       4.354 -21.197  -1.704  1.00  0.00     0.167 HD
ATOM     69  C   UNL     1       2.587 -20.769  -3.880  1.00  0.00     0.074 A 
ATOM     70  C   UNL     1       1.552 -20.187  -4.710  1.00  0.00     0.031 C 
ATOM     71  C   UNL     1       3.414 -21.766  -4.280  1.00  0.00     0.034 A 
BRANCH  58  72
ATOM     72  C   UNL     1       7.730 -23.287  -0.128  1.00  0.00     0.023 A 
ATOM     73  C   UNL     1       7.594 -24.377   0.756  1.00  0.00     0.012 A 
ATOM     74  C   UNL     1       8.979 -23.037  -0.729  1.00  0.00     0.148 A 
ATOM     75  C   UNL     1       8.688 -25.185   1.063  1.00  0.00     0.002 A 
ATOM     76  C   UNL     1      10.056 -23.872  -0.450  1.00  0.00     0.091 A 
ATOM     77  F   UNL     1       9.096 -21.983  -1.549  1.00  0.00    -0.205 F 
ATOM     78  C   UNL     1       9.915 -24.939   0.452  1.00  0.00     0.022 A 
BRANCH  76  79
ATOM     79  S   UNL     1      11.656 -23.682  -1.245  1.00  0.00     0.127 S 
ATOM     80  O   UNL     1      12.458 -23.114  -0.163  1.00  0.00    -0.237 OA
ATOM     81  O   UNL     1      11.995 -25.062  -1.594  1.00  0.00    -0.237 OA
ATOM     82  O   UNL     1      11.433 -22.808  -2.388  1.00  0.00    -0.744 OA
ENDBRANCH  76  79
ENDBRANCH  58  72
BRANCH  59  83
ATOM     83  C   UNL     1      -0.053 -17.321  -2.049  1.00  0.00     0.023 A 
ATOM     84  C   UNL     1      -1.341 -17.860  -2.234  1.00  0.00     0.012 A 
ATOM     85  C   UNL     1       0.125 -15.926  -2.119  1.00  0.00     0.148 A 
ATOM     86  C   UNL     1      -2.427 -17.029  -2.512  1.00  0.00     0.002 A 
ATOM     87  C   UNL     1      -0.971 -15.099  -2.345  1.00  0.00     0.091 A 
ATOM     88  F   UNL     1       1.360 -15.433  -1.954  1.00  0.00    -0.205 F 
ATOM     89  C   UNL     1      -2.244 -15.649  -2.557  1.00  0.00     0.022 A 
BRANCH  87  90
ATOM     90  S   UNL     1      -0.850 -13.307  -2.287  1.00  0.00     0.127 S 
ATOM     91  O   UNL     1      -0.942 -12.955  -3.701  1.00  0.00    -0.237 OA
ATOM     92  O   UNL     1      -2.020 -12.948  -1.485  1.00  0.00    -0.237 OA
ATOM     93  O   UNL     1       0.425 -13.024  -1.641  1.00  0.00    -0.744 OA
ENDBRANCH  87  90
ENDBRANCH  59  83
BRANCH  71  94
ATOM     94  C   UNL     1       3.217 -22.331  -5.661  1.00  0.00     0.023 A 
ATOM     95  C   UNL     1       3.644 -21.595  -6.783  1.00  0.00     0.012 A 
ATOM     96  C   UNL     1       2.697 -23.628  -5.838  1.00  0.00     0.148 A 
ATOM     97  C   UNL     1       3.536 -22.134  -8.065  1.00  0.00     0.002 A 
ATOM     98  C   UNL     1       2.633 -24.176  -7.113  1.00  0.00     0.091 A 
ATOM     99  F   UNL     1       2.278 -24.303  -4.757  1.00  0.00    -0.205 F 
ATOM    100  C   UNL     1       3.044 -23.428  -8.228  1.00  0.00     0.022 A 
BRANCH  98 101
ATOM    101  S   UNL     1       2.101 -25.867  -7.408  1.00  0.00     0.127 S 
ATOM    102  O   UNL     1       0.775 -25.665  -7.989  1.00  0.00    -0.237 OA
ATOM    103  O   UNL     1       3.112 -26.352  -8.348  1.00  0.00    -0.237 OA
ATOM    104  O   UNL     1       2.122 -26.525  -6.108  1.00  0.00    -0.744 OA
ENDBRANCH  98 101
ENDBRANCH  71  94
ENDBRANCH  45  46
ENDBRANCH  37  40
ENDBRANCH  35  36
ENDBRANCH   1  35
TORSDOF 17
