REMARK SMILES O=C(CNC(=O)c1cccs1)N[C@@H]1C=C[C@H](C(=O)NCCCNC(=O)c2ccc(-c3c4nc(c(-c5cccc(S(=O)(=O)[O-])c5F)c5ccc([nH]5)c(-c5cccc(S(=O)(=O)[O-])c5F)c5nc(c(-c6cccc(S(=O)(=O)[O-])c6F)c6ccc3[nH]6)C=C5)C=C4)cc2)C1
REMARK SMILES IDX 20 1 19 2 17 3 18 4 16 6 13 7 14 8 89 9 15 10 12 11 1 12
REMARK SMILES IDX 2 13 3 15 4 16 5 17 6 19 7 20 8 21 11 22 9 23 10 24 21 25
REMARK SMILES IDX 22 26 23 27 24 28 25 30 26 31 27 32 88 33 28 34 87 35 29 36
REMARK SMILES IDX 30 37 31 38 81 39 32 40 86 41 80 42 82 43 33 44 85 45 79 46
REMARK SMILES IDX 78 47 34 49 66 50 46 51 65 52 47 53 50 54 64 55 83 56 48 57
REMARK SMILES IDX 49 58 63 60 84 61 51 62 35 63 36 64 44 65 37 66 39 67 45 68
REMARK SMILES IDX 38 69 40 70 41 71 42 72 43 73 67 74 68 75 76 76 69 77 71 78
REMARK SMILES IDX 77 79 70 80 72 81 73 82 74 83 75 84 52 85 53 86 61 87 54 88
REMARK SMILES IDX 56 89 62 90 55 91 57 92 58 93 59 94 60 95
REMARK H PARENT 19 5 12 14 4 18 23 29 82 48 50 59
REMARK Flexibility Score: inf
ROOT
ATOM      1  C   UNL     1       1.077  -6.222   2.085  1.00  0.00     0.117 C 
ENDROOT
BRANCH   1   2
ATOM      2  N   UNL     1       1.126  -5.425   3.295  1.00  0.00    -0.356 N 
ATOM      3  C   UNL     1       1.787  -4.284   3.602  1.00  0.00     0.227 C 
ATOM      4  O   UNL     1       1.429  -3.735   4.654  1.00  0.00    -0.274 OA
ATOM      5  H   UNL     1       0.576  -5.780   4.030  1.00  0.00     0.163 HD
BRANCH   3   6
ATOM      6  C   UNL     1       2.988  -3.724   2.807  1.00  0.00     0.103 C 
ATOM      7  C   UNL     1       2.323  -1.710   1.583  1.00  0.00     0.106 C 
ATOM      8  C   UNL     1       2.686  -2.809   0.650  1.00  0.00    -0.006 C 
ATOM      9  C   UNL     1       2.966  -2.182   2.894  1.00  0.00     0.047 C 
ATOM     10  C   UNL     1       3.092  -3.896   1.320  1.00  0.00    -0.016 C 
BRANCH   7  11
ATOM     11  N   UNL     1       0.894  -1.463   1.687  1.00  0.00    -0.348 N 
ATOM     12  O   UNL     1      -0.038  -3.481   1.042  1.00  0.00    -0.273 OA
ATOM     13  C   UNL     1      -0.143  -2.357   1.526  1.00  0.00     0.239 C 
ATOM     14  H   UNL     1       0.633  -0.538   1.900  1.00  0.00     0.164 HD
BRANCH  13  15
ATOM     15  C   UNL     1      -1.534  -1.770   1.794  1.00  0.00     0.216 C 
BRANCH  15  16
ATOM     16  N   UNL     1      -1.549  -0.764   2.850  1.00  0.00    -0.342 N 
ATOM     17  C   UNL     1      -1.719   0.594   2.784  1.00  0.00     0.261 C 
ATOM     18  H   UNL     1      -1.416  -1.119   3.758  1.00  0.00     0.164 HD
ATOM     19  O   UNL     1      -1.542   1.233   3.824  1.00  0.00    -0.268 OA
BRANCH  17  20
ATOM     20  C   UNL     1      -2.045   1.212   1.516  1.00  0.00     0.092 A 
ATOM     21  C   UNL     1      -3.029   0.898   0.596  1.00  0.00     0.025 A 
ATOM     22  S   UNL     1      -1.147   2.587   1.022  1.00  0.00    -0.139 S 
ATOM     23  C   UNL     1      -2.990   1.744  -0.551  1.00  0.00     0.012 A 
ATOM     24  C   UNL     1      -2.010   2.705  -0.449  1.00  0.00     0.065 A 
ENDBRANCH  17  20
ENDBRANCH  15  16
ENDBRANCH  13  15
ENDBRANCH   7  11
ENDBRANCH   3   6
ENDBRANCH   1   2
BRANCH   1  25
ATOM     25  C   UNL     1       1.389  -7.686   2.348  1.00  0.00     0.042 C 
BRANCH  25  26
ATOM     26  C   UNL     1       0.328  -8.392   3.180  1.00  0.00     0.118 C 
BRANCH  26  27
ATOM     27  N   UNL     1      -0.961  -8.469   2.502  1.00  0.00    -0.352 N 
ATOM     28  C   UNL     1      -1.691  -9.567   2.117  1.00  0.00     0.251 C 
ATOM     29  H   UNL     1      -1.370  -7.600   2.286  1.00  0.00     0.163 HD
ATOM     30  O   UNL     1      -2.669  -9.422   1.388  1.00  0.00    -0.269 OA
BRANCH  28  31
ATOM     31  C   UNL     1      -1.296 -10.918   2.568  1.00  0.00     0.039 A 
ATOM     32  C   UNL     1      -1.371 -11.986   1.668  1.00  0.00     0.014 A 
ATOM     33  C   UNL     1      -0.872 -11.138   3.880  1.00  0.00     0.014 A 
ATOM     34  C   UNL     1      -0.970 -13.262   2.073  1.00  0.00     0.010 A 
ATOM     35  C   UNL     1      -0.379 -12.384   4.249  1.00  0.00     0.010 A 
ATOM     36  C   UNL     1      -0.447 -13.466   3.360  1.00  0.00    -0.014 A 
BRANCH  36  37
ATOM     37  C   UNL     1      -0.006 -14.806   3.820  1.00  0.00     0.031 A 
ATOM     38  C   UNL     1      -0.690 -15.453   4.997  1.00  0.00     0.074 A 
ATOM     39  C   UNL     1       1.056 -15.400   3.244  1.00  0.00     0.049 A 
ATOM     40  N   UNL     1      -0.408 -16.577   5.601  1.00  0.00    -0.248 NA
ATOM     41  C   UNL     1      -1.819 -14.720   5.596  1.00  0.00     0.031 C 
ATOM     42  C   UNL     1       1.848 -14.842   2.145  1.00  0.00     0.029 A 
ATOM     43  N   UNL     1       1.668 -16.598   3.518  1.00  0.00    -0.354 N 
ATOM     44  C   UNL     1      -1.291 -16.664   6.671  1.00  0.00     0.074 A 
ATOM     45  C   UNL     1      -2.084 -15.455   6.664  1.00  0.00     0.031 C 
ATOM     46  C   UNL     1       2.828 -15.704   1.827  1.00  0.00     0.029 A 
ATOM     47  C   UNL     1       2.754 -16.860   2.716  1.00  0.00     0.049 A 
ATOM     48  H   UNL     1       1.358 -17.212   4.222  1.00  0.00     0.167 HD
ATOM     49  C   UNL     1      -1.459 -17.674   7.558  1.00  0.00     0.034 A 
ATOM     50  C   UNL     1       3.591 -17.915   2.698  1.00  0.00     0.034 A 
ATOM     51  C   UNL     1      -0.705 -18.897   7.527  1.00  0.00     0.049 A 
ATOM     52  C   UNL     1       3.357 -19.046   3.663  1.00  0.00     0.074 A 
ATOM     53  C   UNL     1      -0.843 -20.016   8.328  1.00  0.00     0.029 A 
ATOM     54  N   UNL     1       0.328 -19.163   6.641  1.00  0.00    -0.354 N 
ATOM     55  N   UNL     1       2.427 -19.172   4.579  1.00  0.00    -0.248 NA
ATOM     56  C   UNL     1       4.264 -20.199   3.566  1.00  0.00     0.031 C 
ATOM     57  C   UNL     1       0.117 -20.954   7.935  1.00  0.00     0.029 A 
ATOM     58  C   UNL     1       0.837 -20.429   6.873  1.00  0.00     0.049 A 
ATOM     59  H   UNL     1       0.652 -18.543   5.949  1.00  0.00     0.167 HD
ATOM     60  C   UNL     1       2.606 -20.435   5.134  1.00  0.00     0.074 A 
ATOM     61  C   UNL     1       3.728 -21.038   4.442  1.00  0.00     0.031 C 
ATOM     62  C   UNL     1       1.912 -21.037   6.131  1.00  0.00     0.034 A 
BRANCH  49  63
ATOM     63  C   UNL     1      -2.543 -17.514   8.594  1.00  0.00     0.023 A 
ATOM     64  C   UNL     1      -3.896 -17.539   8.193  1.00  0.00     0.012 A 
ATOM     65  C   UNL     1      -2.234 -17.360   9.959  1.00  0.00     0.148 A 
ATOM     66  C   UNL     1      -4.919 -17.361   9.122  1.00  0.00     0.002 A 
ATOM     67  C   UNL     1      -3.262 -17.232  10.887  1.00  0.00     0.091 A 
ATOM     68  F   UNL     1      -0.944 -17.315  10.323  1.00  0.00    -0.205 F 
ATOM     69  C   UNL     1      -4.603 -17.216  10.469  1.00  0.00     0.022 A 
BRANCH  67  70
ATOM     70  S   UNL     1      -2.958 -17.124  12.654  1.00  0.00     0.127 S 
ATOM     71  O   UNL     1      -3.212 -15.707  12.912  1.00  0.00    -0.237 OA
ATOM     72  O   UNL     1      -3.968 -18.032  13.199  1.00  0.00    -0.237 OA
ATOM     73  O   UNL     1      -1.583 -17.563  12.850  1.00  0.00    -0.744 OA
ENDBRANCH  67  70
ENDBRANCH  49  63
BRANCH  50  74
ATOM     74  C   UNL     1       4.660 -17.999   1.663  1.00  0.00     0.023 A 
ATOM     75  C   UNL     1       4.528 -18.935   0.619  1.00  0.00     0.012 A 
ATOM     76  C   UNL     1       5.780 -17.146   1.683  1.00  0.00     0.148 A 
ATOM     77  C   UNL     1       5.505 -19.043  -0.371  1.00  0.00     0.002 A 
ATOM     78  C   UNL     1       6.725 -17.223   0.665  1.00  0.00     0.091 A 
ATOM     79  F   UNL     1       5.891 -16.266   2.688  1.00  0.00    -0.205 F 
ATOM     80  C   UNL     1       6.598 -18.181  -0.353  1.00  0.00     0.022 A 
BRANCH  78  81
ATOM     81  S   UNL     1       8.102 -16.076   0.534  1.00  0.00     0.127 S 
ATOM     82  O   UNL     1       9.243 -16.946   0.811  1.00  0.00    -0.237 OA
ATOM     83  O   UNL     1       7.990 -15.629  -0.854  1.00  0.00    -0.237 OA
ATOM     84  O   UNL     1       7.846 -15.038   1.523  1.00  0.00    -0.744 OA
ENDBRANCH  78  81
ENDBRANCH  50  74
BRANCH  62  85
ATOM     85  C   UNL     1       2.304 -22.442   6.506  1.00  0.00     0.023 A 
ATOM     86  C   UNL     1       3.500 -22.675   7.213  1.00  0.00     0.012 A 
ATOM     87  C   UNL     1       1.445 -23.522   6.222  1.00  0.00     0.148 A 
ATOM     88  C   UNL     1       3.850 -23.967   7.604  1.00  0.00     0.002 A 
ATOM     89  C   UNL     1       1.776 -24.799   6.659  1.00  0.00     0.091 A 
ATOM     90  F   UNL     1       0.322 -23.283   5.529  1.00  0.00    -0.205 F 
ATOM     91  C   UNL     1       2.983 -25.026   7.339  1.00  0.00     0.022 A 
BRANCH  89  92
ATOM     92  S   UNL     1       0.673 -26.201   6.448  1.00  0.00     0.127 S 
ATOM     93  O   UNL     1       1.333 -26.941   5.374  1.00  0.00    -0.237 OA
ATOM     94  O   UNL     1       0.735 -26.846   7.760  1.00  0.00    -0.237 OA
ATOM     95  O   UNL     1      -0.629 -25.639   6.115  1.00  0.00    -0.744 OA
ENDBRANCH  89  92
ENDBRANCH  62  85
ENDBRANCH  36  37
ENDBRANCH  28  31
ENDBRANCH  26  27
ENDBRANCH  25  26
ENDBRANCH   1  25
TORSDOF 17
