REMARK SMILES C[C@@H](CO)C[NH2+]CC(C)(C)C(=O)NCCCNC(=O)c1ccc(-c2c3nc(c(-c4cccc(S(=O)(=O)[O-])c4F)c4ccc([nH]4)c(-c4cccc(S(=O)(=O)[O-])c4F)c4nc(c(-c5cccc(S(=O)(=O)[O-])c5F)c5ccc2[nH]5)C=C4)C=C3)cc1
REMARK SMILES IDX 11 1 12 2 13 3 8 5 9 6 10 7 7 8 6 9 5 12 2 13 1 14 3 15 4 16
REMARK SMILES IDX 14 18 15 19 16 20 17 21 18 22 19 24 20 25 21 26 82 27 22 28
REMARK SMILES IDX 81 29 23 30 24 31 25 32 75 33 26 34 80 35 74 36 76 37 27 38
REMARK SMILES IDX 79 39 73 40 72 41 28 43 60 44 40 45 59 46 41 47 44 48 58 49
REMARK SMILES IDX 77 50 42 51 43 52 57 54 78 55 45 56 29 57 30 58 38 59 31 60
REMARK SMILES IDX 33 61 39 62 32 63 34 64 35 65 36 66 37 67 61 68 62 69 70 70
REMARK SMILES IDX 63 71 65 72 71 73 64 74 66 75 67 76 68 77 69 78 46 79 47 80
REMARK SMILES IDX 55 81 48 82 50 83 56 84 49 85 51 86 52 87 53 88 54 89
REMARK H PARENT 13 4 6 10 6 11 4 17 17 23 76 42 44 53
REMARK Flexibility Score: inf
ROOT
ATOM      1  C   UNL     1      -3.493   1.069   0.869  1.00  0.00     0.231 C 
ATOM      2  O   UNL     1      -3.352   0.999   2.094  1.00  0.00    -0.274 OA
ATOM      3  N   UNL     1      -3.515   2.324   0.355  1.00  0.00    -0.355 N 
ATOM      4  H   UNL     1      -2.928   2.969   0.810  1.00  0.00     0.163 HD
ENDROOT
BRANCH   1   5
ATOM      5  C   UNL     1      -3.641  -0.190  -0.006  1.00  0.00     0.092 C 
ATOM      6  C   UNL     1      -3.025  -0.077  -1.413  1.00  0.00     0.027 C 
ATOM      7  C   UNL     1      -5.149  -0.481  -0.106  1.00  0.00     0.027 C 
BRANCH   5   8
ATOM      8  C   UNL     1      -2.950  -1.398   0.730  1.00  0.00     0.276 C 
BRANCH   8   9
ATOM      9  N   UNL     1      -1.469  -1.490   0.681  1.00  0.00    -0.345 N 
ATOM     10  H   UNL     1      -1.182  -2.383   1.082  1.00  0.00     0.346 HD
ATOM     11  H   UNL     1      -1.181  -1.411  -0.294  1.00  0.00     0.346 HD
BRANCH   9  12
ATOM     12  C   UNL     1      -0.824  -0.405   1.431  1.00  0.00     0.266 C 
BRANCH  12  13
ATOM     13  C   UNL     1       0.714  -0.427   1.382  1.00  0.00     0.067 C 
ATOM     14  C   UNL     1       1.236  -0.250  -0.048  1.00  0.00     0.016 C 
BRANCH  13  15
ATOM     15  C   UNL     1       1.264   0.680   2.301  1.00  0.00     0.165 C 
BRANCH  15  16
ATOM     16  O   UNL     1       0.826   1.978   1.913  1.00  0.00    -0.396 OA
ATOM     17  H   UNL     1       1.146   2.173   1.019  1.00  0.00     0.210 HD
ENDBRANCH  15  16
ENDBRANCH  13  15
ENDBRANCH  12  13
ENDBRANCH   9  12
ENDBRANCH   8   9
ENDBRANCH   5   8
ENDBRANCH   1   5
BRANCH   3  18
ATOM     18  C   UNL     1      -4.268   2.863  -0.759  1.00  0.00     0.117 C 
BRANCH  18  19
ATOM     19  C   UNL     1      -5.514   3.588  -0.267  1.00  0.00     0.042 C 
BRANCH  19  20
ATOM     20  C   UNL     1      -5.214   4.798   0.607  1.00  0.00     0.118 C 
BRANCH  20  21
ATOM     21  N   UNL     1      -4.470   5.829  -0.106  1.00  0.00    -0.352 N 
ATOM     22  C   UNL     1      -4.849   7.102  -0.450  1.00  0.00     0.251 C 
ATOM     23  H   UNL     1      -3.560   5.574  -0.383  1.00  0.00     0.163 HD
ATOM     24  O   UNL     1      -4.167   7.746  -1.247  1.00  0.00    -0.269 OA
BRANCH  22  25
ATOM     25  C   UNL     1      -6.078   7.690   0.121  1.00  0.00     0.039 A 
ATOM     26  C   UNL     1      -6.927   8.428  -0.706  1.00  0.00     0.014 A 
ATOM     27  C   UNL     1      -6.393   7.515   1.471  1.00  0.00     0.014 A 
ATOM     28  C   UNL     1      -8.121   8.937  -0.192  1.00  0.00     0.010 A 
ATOM     29  C   UNL     1      -7.627   7.933   1.954  1.00  0.00     0.010 A 
ATOM     30  C   UNL     1      -8.499   8.662   1.133  1.00  0.00    -0.014 A 
BRANCH  30  31
ATOM     31  C   UNL     1      -9.804   9.120   1.672  1.00  0.00     0.031 A 
ATOM     32  C   UNL     1      -9.859  10.048   2.856  1.00  0.00     0.074 A 
ATOM     33  C   UNL     1     -10.945   8.625   1.154  1.00  0.00     0.049 A 
ATOM     34  N   UNL     1     -10.904  10.524   3.481  1.00  0.00    -0.248 NA
ATOM     35  C   UNL     1      -8.572  10.470   3.434  1.00  0.00     0.031 C 
ATOM     36  C   UNL     1     -11.024   7.640   0.073  1.00  0.00     0.029 A 
ATOM     37  N   UNL     1     -12.256   8.858   1.487  1.00  0.00    -0.354 N 
ATOM     38  C   UNL     1     -10.405  11.260   4.549  1.00  0.00     0.074 A 
ATOM     39  C   UNL     1      -8.965  11.139   4.507  1.00  0.00     0.031 C 
ATOM     40  C   UNL     1     -12.312   7.356  -0.170  1.00  0.00     0.029 A 
ATOM     41  C   UNL     1     -13.150   8.111   0.757  1.00  0.00     0.049 A 
ATOM     42  H   UNL     1     -12.530   9.499   2.182  1.00  0.00     0.167 HD
ATOM     43  C   UNL     1     -11.081  11.992   5.467  1.00  0.00     0.034 A 
ATOM     44  C   UNL     1     -14.492   8.029   0.831  1.00  0.00     0.034 A 
ATOM     45  C   UNL     1     -12.511  12.137   5.481  1.00  0.00     0.049 A 
ATOM     46  C   UNL     1     -15.225   8.894   1.817  1.00  0.00     0.074 A 
ATOM     47  C   UNL     1     -13.285  12.948   6.292  1.00  0.00     0.029 A 
ATOM     48  N   UNL     1     -13.386  11.437   4.665  1.00  0.00    -0.354 N 
ATOM     49  N   UNL     1     -14.736   9.733   2.698  1.00  0.00    -0.248 NA
ATOM     50  C   UNL     1     -16.693   8.834   1.794  1.00  0.00     0.031 C 
ATOM     51  C   UNL     1     -14.631  12.706   5.994  1.00  0.00     0.029 A 
ATOM     52  C   UNL     1     -14.694  11.777   4.968  1.00  0.00     0.049 A 
ATOM     53  H   UNL     1     -13.117  10.792   3.971  1.00  0.00     0.167 HD
ATOM     54  C   UNL     1     -15.834  10.320   3.317  1.00  0.00     0.074 A 
ATOM     55  C   UNL     1     -17.014   9.757   2.691  1.00  0.00     0.031 C 
ATOM     56  C   UNL     1     -15.861  11.234   4.319  1.00  0.00     0.034 A 
BRANCH  43  57
ATOM     57  C   UNL     1     -10.272  12.714   6.515  1.00  0.00     0.023 A 
ATOM     58  C   UNL     1      -9.445  13.795   6.147  1.00  0.00     0.012 A 
ATOM     59  C   UNL     1     -10.354  12.341   7.871  1.00  0.00     0.148 A 
ATOM     60  C   UNL     1      -8.673  14.459   7.101  1.00  0.00     0.002 A 
ATOM     61  C   UNL     1      -9.622  13.041   8.823  1.00  0.00     0.091 A 
ATOM     62  F   UNL     1     -11.127  11.297   8.203  1.00  0.00    -0.205 F 
ATOM     63  C   UNL     1      -8.769  14.088   8.438  1.00  0.00     0.022 A 
BRANCH  61  64
ATOM     64  S   UNL     1      -9.746  12.695  10.582  1.00  0.00     0.127 S 
ATOM     65  O   UNL     1      -8.466  12.041  10.845  1.00  0.00    -0.237 OA
ATOM     66  O   UNL     1      -9.873  14.037  11.151  1.00  0.00    -0.237 OA
ATOM     67  O   UNL     1     -10.925  11.856  10.742  1.00  0.00    -0.744 OA
ENDBRANCH  61  64
ENDBRANCH  43  57
BRANCH  44  68
ATOM     68  C   UNL     1     -15.221   7.123  -0.100  1.00  0.00     0.023 A 
ATOM     69  C   UNL     1     -15.977   7.669  -1.155  1.00  0.00     0.012 A 
ATOM     70  C   UNL     1     -15.109   5.724   0.016  1.00  0.00     0.148 A 
ATOM     71  C   UNL     1     -16.626   6.836  -2.067  1.00  0.00     0.002 A 
ATOM     72  C   UNL     1     -15.708   4.902  -0.930  1.00  0.00     0.091 A 
ATOM     73  F   UNL     1     -14.387   5.229   1.031  1.00  0.00    -0.205 F 
ATOM     74  C   UNL     1     -16.481   5.455  -1.963  1.00  0.00     0.022 A 
BRANCH  72  75
ATOM     75  S   UNL     1     -15.458   3.123  -0.961  1.00  0.00     0.127 S 
ATOM     76  O   UNL     1     -16.804   2.627  -0.683  1.00  0.00    -0.237 OA
ATOM     77  O   UNL     1     -14.993   2.912  -2.332  1.00  0.00    -0.237 OA
ATOM     78  O   UNL     1     -14.462   2.844   0.064  1.00  0.00    -0.744 OA
ENDBRANCH  72  75
ENDBRANCH  44  68
BRANCH  56  79
ATOM     79  C   UNL     1     -17.211  11.710   4.792  1.00  0.00     0.023 A 
ATOM     80  C   UNL     1     -18.046  10.846   5.529  1.00  0.00     0.012 A 
ATOM     81  C   UNL     1     -17.621  13.039   4.565  1.00  0.00     0.148 A 
ATOM     82  C   UNL     1     -19.283  11.286   5.999  1.00  0.00     0.002 A 
ATOM     83  C   UNL     1     -18.831  13.486   5.083  1.00  0.00     0.091 A 
ATOM     84  F   UNL     1     -16.822  13.842   3.847  1.00  0.00    -0.205 F 
ATOM     85  C   UNL     1     -19.669  12.607   5.788  1.00  0.00     0.022 A 
BRANCH  83  86
ATOM     86  S   UNL     1     -19.364  15.196   4.946  1.00  0.00     0.127 S 
ATOM     87  O   UNL     1     -20.461  15.089   3.985  1.00  0.00    -0.237 OA
ATOM     88  O   UNL     1     -19.780  15.501   6.315  1.00  0.00    -0.237 OA
ATOM     89  O   UNL     1     -18.202  15.945   4.486  1.00  0.00    -0.744 OA
ENDBRANCH  83  86
ENDBRANCH  56  79
ENDBRANCH  30  31
ENDBRANCH  22  25
ENDBRANCH  20  21
ENDBRANCH  19  20
ENDBRANCH  18  19
ENDBRANCH   3  18
TORSDOF 19
