REMARK SMILES CC(=O)Nc1cc(NC(C)=O)cc(C(=O)Nc2ccc(Br)cc2C(=O)NCCCNC(=O)c2ccc(-c3c4nc(c(-c5cccc(S(=O)(=O)[O-])c5F)c5ccc([nH]5)c(-c5cccc(S(=O)(=O)[O-])c5F)c5nc(c(-c6cccc(S(=O)(=O)[O-])c6F)c6ccc3[nH]6)C=C5)C=C4)cc2)c1
REMARK SMILES IDX 28 1 27 2 26 3 24 4 25 5 23 7 17 8 18 9 19 10 22 11 20 12
REMARK SMILES IDX 21 13 16 14 14 15 15 16 13 18 5 19 6 20 96 21 7 22 12 23
REMARK SMILES IDX 4 24 1 25 2 26 3 27 8 29 9 30 10 32 11 33 29 34 30 35 31 36
REMARK SMILES IDX 32 38 33 39 34 40 95 41 35 42 94 43 36 44 37 45 38 46 88 47
REMARK SMILES IDX 39 48 93 49 87 50 89 51 40 52 92 53 86 54 85 55 41 57 73 58
REMARK SMILES IDX 53 59 72 60 54 61 57 62 71 63 90 64 55 65 56 66 70 68 91 69
REMARK SMILES IDX 58 70 42 71 43 72 51 73 44 74 46 75 52 76 45 77 47 78 48 79
REMARK SMILES IDX 49 80 50 81 74 82 75 83 83 84 76 85 78 86 84 87 77 88 79 89
REMARK SMILES IDX 80 90 81 91 82 92 59 93 60 94 68 95 61 96 63 97 69 98 62 99
REMARK SMILES IDX 64 100 65 101 66 102 67 103
REMARK H PARENT 26 6 16 17 4 28 8 31 30 37 89 56 57 67
REMARK Flexibility Score: inf
ROOT
ATOM      1  C   UNL     1       7.693  -1.352  -2.422  1.00  0.00     0.042 C 
ENDROOT
BRANCH   1   2
ATOM      2  C   UNL     1       6.373  -0.953  -1.792  1.00  0.00     0.118 C 
BRANCH   2   3
ATOM      3  N   UNL     1       5.365  -1.997  -1.839  1.00  0.00    -0.352 N 
ATOM      4  C   UNL     1       4.245  -2.167  -1.073  1.00  0.00     0.253 C 
ATOM      5  O   UNL     1       3.540  -3.156  -1.267  1.00  0.00    -0.269 OA
ATOM      6  H   UNL     1       5.510  -2.688  -2.526  1.00  0.00     0.163 HD
BRANCH   4   7
ATOM      7  C   UNL     1       3.911  -1.240   0.034  1.00  0.00     0.064 A 
ATOM      8  C   UNL     1       3.958   0.168  -0.007  1.00  0.00     0.054 A 
ATOM      9  C   UNL     1       3.849   0.872   1.204  1.00  0.00     0.028 A 
ATOM     10  C   UNL     1       3.534   0.213   2.396  1.00  0.00     0.018 A 
ATOM     11  C   UNL     1       3.560  -1.893   1.231  1.00  0.00     0.031 A 
ATOM     12  C   UNL     1       3.350  -1.164   2.395  1.00  0.00     0.018 A 
ATOM     13  Br  UNL     1       2.818  -2.047   3.977  1.00  0.00    -0.051 Br
BRANCH   8  14
ATOM     14  N   UNL     1       4.044   0.990  -1.157  1.00  0.00    -0.321 N 
ATOM     15  C   UNL     1       3.594   0.815  -2.452  1.00  0.00     0.255 C 
ATOM     16  O   UNL     1       4.004   1.552  -3.345  1.00  0.00    -0.269 OA
ATOM     17  H   UNL     1       4.511   1.844  -1.006  1.00  0.00     0.170 HD
BRANCH  15  18
ATOM     18  C   UNL     1       2.559  -0.189  -2.783  1.00  0.00     0.044 A 
ATOM     19  C   UNL     1       0.668  -1.518  -2.091  1.00  0.00     0.044 A 
ATOM     20  C   UNL     1       0.764  -2.225  -3.301  1.00  0.00     0.052 A 
ATOM     21  C   UNL     1       1.530  -0.455  -1.877  1.00  0.00     0.040 A 
ATOM     22  C   UNL     1       1.702  -1.878  -4.283  1.00  0.00     0.044 A 
ATOM     23  C   UNL     1       2.622  -0.864  -4.005  1.00  0.00     0.040 A 
BRANCH  19  24
ATOM     24  N   UNL     1      -0.233  -2.008  -1.126  1.00  0.00    -0.326 N 
ATOM     25  C   UNL     1      -0.391  -0.138   0.531  1.00  0.00     0.114 C 
ATOM     26  C   UNL     1      -0.652  -1.550   0.088  1.00  0.00     0.221 C 
ATOM     27  O   UNL     1      -1.295  -2.312   0.816  1.00  0.00    -0.275 OA
ATOM     28  H   UNL     1      -0.649  -2.863  -1.383  1.00  0.00     0.169 HD
ENDBRANCH  19  24
BRANCH  22  29
ATOM     29  N   UNL     1       1.790  -2.503  -5.547  1.00  0.00    -0.326 N 
ATOM     30  C   UNL     1       0.929  -3.449  -6.073  1.00  0.00     0.221 C 
ATOM     31  H   UNL     1       2.548  -2.235  -6.116  1.00  0.00     0.169 HD
ATOM     32  C   UNL     1       1.304  -3.885  -7.469  1.00  0.00     0.114 C 
ATOM     33  O   UNL     1      -0.073  -3.909  -5.535  1.00  0.00    -0.275 OA
ENDBRANCH  22  29
ENDBRANCH  15  18
ENDBRANCH   8  14
ENDBRANCH   4   7
ENDBRANCH   2   3
ENDBRANCH   1   2
BRANCH   1  34
ATOM     34  C   UNL     1       7.581  -1.829  -3.864  1.00  0.00     0.118 C 
BRANCH  34  35
ATOM     35  N   UNL     1       7.030  -0.849  -4.798  1.00  0.00    -0.352 N 
ATOM     36  C   UNL     1       7.607  -0.166  -5.846  1.00  0.00     0.251 C 
ATOM     37  H   UNL     1       6.079  -0.641  -4.654  1.00  0.00     0.163 HD
ATOM     38  O   UNL     1       6.931   0.613  -6.514  1.00  0.00    -0.269 OA
BRANCH  36  39
ATOM     39  C   UNL     1       9.050  -0.316  -6.130  1.00  0.00     0.039 A 
ATOM     40  C   UNL     1       9.826   0.828  -6.336  1.00  0.00     0.014 A 
ATOM     41  C   UNL     1       9.653  -1.569  -6.118  1.00  0.00     0.014 A 
ATOM     42  C   UNL     1      11.219   0.719  -6.391  1.00  0.00     0.010 A 
ATOM     43  C   UNL     1      11.035  -1.659  -6.021  1.00  0.00     0.010 A 
ATOM     44  C   UNL     1      11.839  -0.518  -6.154  1.00  0.00    -0.014 A 
BRANCH  44  45
ATOM     45  C   UNL     1      13.316  -0.660  -6.018  1.00  0.00     0.031 A 
ATOM     46  C   UNL     1      14.053  -1.671  -6.860  1.00  0.00     0.074 A 
ATOM     47  C   UNL     1      13.970   0.005  -5.042  1.00  0.00     0.049 A 
ATOM     48  N   UNL     1      15.293  -2.076  -6.767  1.00  0.00    -0.248 NA
ATOM     49  C   UNL     1      13.279  -2.362  -7.906  1.00  0.00     0.031 C 
ATOM     50  C   UNL     1      13.361   0.934  -4.085  1.00  0.00     0.029 A 
ATOM     51  N   UNL     1      15.293  -0.022  -4.672  1.00  0.00    -0.354 N 
ATOM     52  C   UNL     1      15.419  -3.119  -7.678  1.00  0.00     0.074 A 
ATOM     53  C   UNL     1      14.123  -3.308  -8.289  1.00  0.00     0.031 C 
ATOM     54  C   UNL     1      14.309   1.405  -3.258  1.00  0.00     0.029 A 
ATOM     55  C   UNL     1      15.585   0.786  -3.596  1.00  0.00     0.049 A 
ATOM     56  H   UNL     1      15.969  -0.569  -5.133  1.00  0.00     0.167 HD
ATOM     57  C   UNL     1      16.523  -3.829  -8.010  1.00  0.00     0.034 A 
ATOM     58  C   UNL     1      16.751   1.006  -2.955  1.00  0.00     0.034 A 
ATOM     59  C   UNL     1      17.835  -3.553  -7.495  1.00  0.00     0.049 A 
ATOM     60  C   UNL     1      17.989   0.296  -3.433  1.00  0.00     0.074 A 
ATOM     61  C   UNL     1      19.042  -4.114  -7.871  1.00  0.00     0.029 A 
ATOM     62  N   UNL     1      18.114  -2.620  -6.509  1.00  0.00    -0.354 N 
ATOM     63  N   UNL     1      18.117  -0.569  -4.410  1.00  0.00    -0.248 NA
ATOM     64  C   UNL     1      19.248   0.618  -2.747  1.00  0.00     0.031 C 
ATOM     65  C   UNL     1      20.054  -3.516  -7.113  1.00  0.00     0.029 A 
ATOM     66  C   UNL     1      19.475  -2.582  -6.268  1.00  0.00     0.049 A 
ATOM     67  H   UNL     1      17.442  -2.067  -6.048  1.00  0.00     0.167 HD
ATOM     68  C   UNL     1      19.474  -0.866  -4.480  1.00  0.00     0.074 A 
ATOM     69  C   UNL     1      20.128  -0.073  -3.460  1.00  0.00     0.031 C 
ATOM     70  C   UNL     1      20.117  -1.731  -5.300  1.00  0.00     0.034 A 
BRANCH  57  71
ATOM     71  C   UNL     1      16.373  -4.915  -9.043  1.00  0.00     0.023 A 
ATOM     72  C   UNL     1      16.158  -4.564 -10.392  1.00  0.00     0.012 A 
ATOM     73  C   UNL     1      16.491  -6.274  -8.693  1.00  0.00     0.148 A 
ATOM     74  C   UNL     1      16.021  -5.548 -11.369  1.00  0.00     0.002 A 
ATOM     75  C   UNL     1      16.398  -7.248  -9.681  1.00  0.00     0.091 A 
ATOM     76  F   UNL     1      16.673  -6.591  -7.403  1.00  0.00    -0.205 F 
ATOM     77  C   UNL     1      16.151  -6.888 -11.016  1.00  0.00     0.022 A 
BRANCH  75  78
ATOM     78  S   UNL     1      16.630  -8.997  -9.339  1.00  0.00     0.127 S 
ATOM     79  O   UNL     1      15.259  -9.498  -9.422  1.00  0.00    -0.237 OA
ATOM     80  O   UNL     1      17.499  -9.415 -10.439  1.00  0.00    -0.237 OA
ATOM     81  O   UNL     1      17.246  -9.067  -8.021  1.00  0.00    -0.744 OA
ENDBRANCH  75  78
ENDBRANCH  57  71
BRANCH  58  82
ATOM     82  C   UNL     1      16.825   2.018  -1.862  1.00  0.00     0.023 A 
ATOM     83  C   UNL     1      17.489   3.236  -2.109  1.00  0.00     0.012 A 
ATOM     84  C   UNL     1      16.229   1.806  -0.605  1.00  0.00     0.148 A 
ATOM     85  C   UNL     1      17.588   4.210  -1.116  1.00  0.00     0.002 A 
ATOM     86  C   UNL     1      16.287   2.803   0.365  1.00  0.00     0.091 A 
ATOM     87  F   UNL     1      15.612   0.637  -0.380  1.00  0.00    -0.205 F 
ATOM     88  C   UNL     1      16.979   3.998   0.117  1.00  0.00     0.022 A 
BRANCH  86  89
ATOM     89  S   UNL     1      15.417   2.664   1.932  1.00  0.00     0.127 S 
ATOM     90  O   UNL     1      16.503   2.336   2.851  1.00  0.00    -0.237 OA
ATOM     91  O   UNL     1      14.857   4.007   2.093  1.00  0.00    -0.237 OA
ATOM     92  O   UNL     1      14.416   1.625   1.726  1.00  0.00    -0.744 OA
ENDBRANCH  86  89
ENDBRANCH  58  82
BRANCH  70  93
ATOM     93  C   UNL     1      21.610  -1.846  -5.165  1.00  0.00     0.023 A 
ATOM     94  C   UNL     1      22.157  -2.552  -4.077  1.00  0.00     0.012 A 
ATOM     95  C   UNL     1      22.464  -1.337  -6.163  1.00  0.00     0.148 A 
ATOM     96  C   UNL     1      23.535  -2.732  -3.972  1.00  0.00     0.002 A 
ATOM     97  C   UNL     1      23.833  -1.558  -6.075  1.00  0.00     0.091 A 
ATOM     98  F   UNL     1      21.923  -0.649  -7.179  1.00  0.00    -0.205 F 
ATOM     99  C   UNL     1      24.371  -2.247  -4.976  1.00  0.00     0.022 A 
BRANCH  97 100
ATOM    100  S   UNL     1      24.967  -1.051  -7.373  1.00  0.00     0.127 S 
ATOM    101  O   UNL     1      25.567   0.148  -6.793  1.00  0.00    -0.237 OA
ATOM    102  O   UNL     1      25.869  -2.200  -7.468  1.00  0.00    -0.237 OA
ATOM    103  O   UNL     1      24.144  -0.836  -8.556  1.00  0.00    -0.744 OA
ENDBRANCH  97 100
ENDBRANCH  70  93
ENDBRANCH  44  45
ENDBRANCH  36  39
ENDBRANCH  34  35
ENDBRANCH   1  34
TORSDOF 17
