REMARK SMILES Cc1c(CC(=O)NCCCNC(=O)c2ccc(-c3c4nc(c(-c5cccc(S(=O)(=O)[O-])c5F)c5ccc([nH]5)c(-c5cccc(S(=O)(=O)[O-])c5F)c5nc(c(-c6cccc(S(=O)(=O)[O-])c6F)c6ccc3[nH]6)C=C5)C=C4)cc2)cc(-c2ccccc2)cc1-c1ccccc1
REMARK SMILES IDX 9 1 8 2 7 3 5 4 6 5 4 7 3 8 1 9 2 10 86 11 77 12 85 13 78 14
REMARK SMILES IDX 87 15 88 16 92 17 89 18 91 19 90 20 79 21 80 22 84 23 81 24
REMARK SMILES IDX 83 25 82 26 10 27 11 28 12 29 13 31 14 32 15 33 76 34 16 35
REMARK SMILES IDX 75 36 17 37 18 38 19 39 69 40 20 41 74 42 68 43 70 44 21 45
REMARK SMILES IDX 73 46 67 47 66 48 22 50 54 51 34 52 53 53 35 54 38 55 52 56
REMARK SMILES IDX 71 57 36 58 37 59 51 61 72 62 39 63 23 64 24 65 32 66 25 67
REMARK SMILES IDX 27 68 33 69 26 70 28 71 29 72 30 73 31 74 55 75 56 76 64 77
REMARK SMILES IDX 57 78 59 79 65 80 58 81 60 82 61 83 62 84 63 85 40 86 41 87
REMARK SMILES IDX 49 88 42 89 44 90 50 91 43 92 45 93 46 94 47 95 48 96
REMARK H PARENT 7 6 11 30 70 49 38 60
REMARK Flexibility Score: inf
ROOT
ATOM      1  C   UNL     1       1.391  -0.583   2.823  1.00  0.00     0.042 C 
ENDROOT
BRANCH   1   2
ATOM      2  C   UNL     1       2.082  -1.929   2.632  1.00  0.00     0.117 C 
BRANCH   2   3
ATOM      3  N   UNL     1       1.165  -2.993   2.258  1.00  0.00    -0.356 N 
ATOM      4  C   UNL     1       0.685  -3.334   1.023  1.00  0.00     0.224 C 
ATOM      5  O   UNL     1      -0.063  -4.311   0.930  1.00  0.00    -0.275 OA
ATOM      6  H   UNL     1       0.841  -3.550   3.003  1.00  0.00     0.163 HD
BRANCH   4   7
ATOM      7  C   UNL     1       1.080  -2.540  -0.220  1.00  0.00     0.135 C 
BRANCH   7   8
ATOM      8  C   UNL     1       0.383  -1.194  -0.336  1.00  0.00    -0.035 A 
ATOM      9  C   UNL     1       2.578   0.083  -0.565  1.00  0.00     0.045 C 
ATOM     10  C   UNL     1       1.074   0.045  -0.422  1.00  0.00    -0.040 A 
ATOM     11  C   UNL     1       0.331   1.257  -0.376  1.00  0.00    -0.015 A 
ATOM     12  C   UNL     1      -1.028  -1.197  -0.290  1.00  0.00     0.013 A 
ATOM     13  C   UNL     1      -1.077   1.197  -0.302  1.00  0.00     0.017 A 
ATOM     14  C   UNL     1      -1.776  -0.015  -0.276  1.00  0.00    -0.017 A 
BRANCH  11  15
ATOM     15  C   UNL     1       0.966   2.589  -0.331  1.00  0.00    -0.018 A 
ATOM     16  C   UNL     1       0.838   3.398   0.813  1.00  0.00     0.009 A 
ATOM     17  C   UNL     1       1.716   3.083  -1.409  1.00  0.00     0.009 A 
ATOM     18  C   UNL     1       1.452   4.651   0.882  1.00  0.00     0.001 A 
ATOM     19  C   UNL     1       2.343   4.330  -1.336  1.00  0.00     0.001 A 
ATOM     20  C   UNL     1       2.210   5.113  -0.191  1.00  0.00     0.000 A 
ENDBRANCH  11  15
BRANCH  14  21
ATOM     21  C   UNL     1      -3.247  -0.043  -0.229  1.00  0.00    -0.018 A 
ATOM     22  C   UNL     1      -3.934  -0.713   0.796  1.00  0.00     0.009 A 
ATOM     23  C   UNL     1      -4.005   0.597  -1.224  1.00  0.00     0.009 A 
ATOM     24  C   UNL     1      -5.332  -0.747   0.822  1.00  0.00     0.001 A 
ATOM     25  C   UNL     1      -5.402   0.560  -1.202  1.00  0.00     0.001 A 
ATOM     26  C   UNL     1      -6.064  -0.113  -0.179  1.00  0.00     0.000 A 
ENDBRANCH  14  21
ENDBRANCH   7   8
ENDBRANCH   4   7
ENDBRANCH   2   3
ENDBRANCH   1   2
BRANCH   1  27
ATOM     27  C   UNL     1       0.779  -0.385   4.198  1.00  0.00     0.118 C 
BRANCH  27  28
ATOM     28  N   UNL     1       1.469   0.610   5.004  1.00  0.00    -0.352 N 
ATOM     29  C   UNL     1       1.190   1.040   6.294  1.00  0.00     0.251 C 
ATOM     30  H   UNL     1       2.243   1.040   4.574  1.00  0.00     0.163 HD
ATOM     31  O   UNL     1       1.792   1.988   6.752  1.00  0.00    -0.269 OA
BRANCH  29  32
ATOM     32  C   UNL     1       0.234   0.254   7.118  1.00  0.00     0.039 A 
ATOM     33  C   UNL     1       0.649  -0.155   8.391  1.00  0.00     0.014 A 
ATOM     34  C   UNL     1      -0.945  -0.243   6.570  1.00  0.00     0.014 A 
ATOM     35  C   UNL     1       0.020  -1.237   9.006  1.00  0.00     0.010 A 
ATOM     36  C   UNL     1      -1.515  -1.366   7.131  1.00  0.00     0.010 A 
ATOM     37  C   UNL     1      -0.988  -1.901   8.313  1.00  0.00    -0.014 A 
BRANCH  37  38
ATOM     38  C   UNL     1      -1.501  -3.217   8.663  1.00  0.00     0.031 A 
ATOM     39  C   UNL     1      -2.798  -3.367   9.349  1.00  0.00     0.074 A 
ATOM     40  C   UNL     1      -0.883  -4.295   8.135  1.00  0.00     0.049 A 
ATOM     41  N   UNL     1      -3.207  -4.459   9.900  1.00  0.00    -0.248 NA
ATOM     42  C   UNL     1      -3.731  -2.259   9.489  1.00  0.00     0.031 C 
ATOM     43  C   UNL     1      -1.447  -5.624   7.937  1.00  0.00     0.029 A 
ATOM     44  N   UNL     1       0.480  -4.452   7.859  1.00  0.00    -0.354 N 
ATOM     45  C   UNL     1      -4.540  -4.291  10.213  1.00  0.00     0.074 A 
ATOM     46  C   UNL     1      -4.791  -2.883  10.009  1.00  0.00     0.031 C 
ATOM     47  C   UNL     1      -0.441  -6.506   7.847  1.00  0.00     0.029 A 
ATOM     48  C   UNL     1       0.784  -5.791   8.160  1.00  0.00     0.049 A 
ATOM     49  H   UNL     1       1.099  -3.765   7.522  1.00  0.00     0.167 HD
ATOM     50  C   UNL     1      -5.309  -5.391  10.462  1.00  0.00     0.034 A 
ATOM     51  C   UNL     1       1.709  -6.174   9.086  1.00  0.00     0.034 A 
ATOM     52  C   UNL     1      -4.498  -6.617  10.445  1.00  0.00     0.049 A 
ATOM     53  C   UNL     1       1.141  -7.066  10.174  1.00  0.00     0.074 A 
ATOM     54  C   UNL     1      -4.264  -7.582   9.477  1.00  0.00     0.029 A 
ATOM     55  N   UNL     1      -3.571  -6.842  11.454  1.00  0.00    -0.354 N 
ATOM     56  N   UNL     1      -0.125  -7.353  10.301  1.00  0.00    -0.248 NA
ATOM     57  C   UNL     1       1.948  -7.676  11.228  1.00  0.00     0.031 C 
ATOM     58  C   UNL     1      -3.130  -8.338   9.876  1.00  0.00     0.029 A 
ATOM     59  C   UNL     1      -2.692  -7.852  11.096  1.00  0.00     0.049 A 
ATOM     60  H   UNL     1      -3.543  -6.351  12.307  1.00  0.00     0.167 HD
ATOM     61  C   UNL     1      -0.336  -8.014  11.484  1.00  0.00     0.074 A 
ATOM     62  C   UNL     1       1.005  -8.277  11.976  1.00  0.00     0.031 C 
ATOM     63  C   UNL     1      -1.594  -8.216  11.987  1.00  0.00     0.034 A 
BRANCH  50  64
ATOM     64  C   UNL     1      -6.830  -5.418  10.400  1.00  0.00     0.023 A 
ATOM     65  C   UNL     1      -7.450  -6.664  10.144  1.00  0.00     0.012 A 
ATOM     66  C   UNL     1      -7.703  -4.312  10.494  1.00  0.00     0.148 A 
ATOM     67  C   UNL     1      -8.817  -6.787   9.870  1.00  0.00     0.002 A 
ATOM     68  C   UNL     1      -9.052  -4.415  10.140  1.00  0.00     0.091 A 
ATOM     69  F   UNL     1      -7.269  -3.167  11.028  1.00  0.00    -0.205 F 
ATOM     70  C   UNL     1      -9.613  -5.654   9.821  1.00  0.00     0.022 A 
BRANCH  68  71
ATOM     71  S   UNL     1     -10.114  -2.969   9.969  1.00  0.00     0.127 S 
ATOM     72  O   UNL     1     -10.718  -3.182   8.652  1.00  0.00    -0.237 OA
ATOM     73  O   UNL     1     -11.036  -3.118  11.091  1.00  0.00    -0.237 OA
ATOM     74  O   UNL     1      -9.227  -1.812  10.031  1.00  0.00    -0.744 OA
ENDBRANCH  68  71
ENDBRANCH  50  64
BRANCH  51  75
ATOM     75  C   UNL     1       2.834  -5.209   9.249  1.00  0.00     0.023 A 
ATOM     76  C   UNL     1       3.699  -5.050   8.140  1.00  0.00     0.012 A 
ATOM     77  C   UNL     1       2.823  -4.222  10.249  1.00  0.00     0.148 A 
ATOM     78  C   UNL     1       4.446  -3.884   7.972  1.00  0.00     0.002 A 
ATOM     79  C   UNL     1       3.566  -3.055  10.070  1.00  0.00     0.091 A 
ATOM     80  F   UNL     1       2.023  -4.394  11.310  1.00  0.00    -0.205 F 
ATOM     81  C   UNL     1       4.353  -2.873   8.921  1.00  0.00     0.022 A 
BRANCH  79  82
ATOM     82  S   UNL     1       3.439  -1.666  11.205  1.00  0.00     0.127 S 
ATOM     83  O   UNL     1       4.623  -1.858  12.037  1.00  0.00    -0.237 OA
ATOM     84  O   UNL     1       3.500  -0.519  10.299  1.00  0.00    -0.237 OA
ATOM     85  O   UNL     1       2.152  -1.837  11.862  1.00  0.00    -0.744 OA
ENDBRANCH  79  82
ENDBRANCH  51  75
BRANCH  63  86
ATOM     86  C   UNL     1      -1.922  -8.730  13.377  1.00  0.00     0.023 A 
ATOM     87  C   UNL     1      -1.024  -8.620  14.456  1.00  0.00     0.012 A 
ATOM     88  C   UNL     1      -3.227  -9.201  13.684  1.00  0.00     0.148 A 
ATOM     89  C   UNL     1      -1.376  -9.001  15.757  1.00  0.00     0.002 A 
ATOM     90  C   UNL     1      -3.606  -9.474  14.998  1.00  0.00     0.091 A 
ATOM     91  F   UNL     1      -4.114  -9.405  12.699  1.00  0.00    -0.205 F 
ATOM     92  C   UNL     1      -2.675  -9.403  16.034  1.00  0.00     0.022 A 
BRANCH  90  93
ATOM     93  S   UNL     1      -5.335  -9.757  15.407  1.00  0.00     0.127 S 
ATOM     94  O   UNL     1      -5.469 -11.197  15.204  1.00  0.00    -0.237 OA
ATOM     95  O   UNL     1      -5.408  -9.332  16.807  1.00  0.00    -0.237 OA
ATOM     96  O   UNL     1      -6.072  -8.900  14.488  1.00  0.00    -0.744 OA
ENDBRANCH  90  93
ENDBRANCH  63  86
ENDBRANCH  37  38
ENDBRANCH  29  32
ENDBRANCH  27  28
ENDBRANCH   1  27
TORSDOF 16
