REMARK SMILES O=C(NCCCNC(=O)[C@@H]1CCCN(C(=O)Nc2ccccc2)C1)c1ccc(-c2c3nc(c(-c4cccc(S(=O)(=O)[O-])c4F)c4ccc([nH]4)c(-c4cccc(S(=O)(=O)[O-])c4F)c4nc(c(-c5cccc(S(=O)(=O)[O-])c5F)c5ccc2[nH]5)C=C4)C=C3)cc1
REMARK SMILES IDX 4 1 3 2 1 3 2 4 25 6 26 7 87 8 27 9 86 10 28 11 29 12 30 13
REMARK SMILES IDX 80 14 31 15 85 16 79 17 81 18 32 19 84 20 78 21 77 22 33 24
REMARK SMILES IDX 65 25 45 26 64 27 46 28 49 29 63 30 82 31 47 32 48 33 62 35
REMARK SMILES IDX 83 36 50 37 34 38 35 39 43 40 36 41 38 42 44 43 37 44 39 45
REMARK SMILES IDX 40 46 41 47 42 48 66 49 67 50 75 51 68 52 70 53 76 54 69 55
REMARK SMILES IDX 71 56 72 57 73 58 74 59 51 60 52 61 60 62 53 63 55 64 61 65
REMARK SMILES IDX 54 66 56 67 57 68 58 69 59 70 5 71 6 72 7 73 8 74 9 76 10 77
REMARK SMILES IDX 11 78 24 79 12 80 14 81 13 82 15 83 16 84 17 85 18 87 19 88
REMARK SMILES IDX 23 89 20 90 22 91 21 92
REMARK H PARENT 3 5 81 23 49 34 7 75 17 86
REMARK Flexibility Score: inf
ROOT
ATOM      1  C   UNL     1       4.545  -0.838  -1.244  1.00  0.00     0.118 C 
ENDROOT
BRANCH   1   2
ATOM      2  N   UNL     1       3.126  -0.522  -1.130  1.00  0.00    -0.352 N 
ATOM      3  O   UNL     1       1.194   0.118  -0.176  1.00  0.00    -0.269 OA
ATOM      4  C   UNL     1       2.423   0.120  -0.138  1.00  0.00     0.251 C 
ATOM      5  H   UNL     1       2.578  -0.819  -1.892  1.00  0.00     0.163 HD
BRANCH   4   6
ATOM      6  C   UNL     1       3.129   0.778   0.983  1.00  0.00     0.039 A 
ATOM      7  C   UNL     1       4.288   1.520   0.764  1.00  0.00     0.014 A 
ATOM      8  C   UNL     1       2.615   0.664   2.279  1.00  0.00     0.014 A 
ATOM      9  C   UNL     1       5.038   1.967   1.845  1.00  0.00     0.010 A 
ATOM     10  C   UNL     1       3.311   1.219   3.358  1.00  0.00     0.010 A 
ATOM     11  C   UNL     1       4.558   1.830   3.157  1.00  0.00    -0.014 A 
BRANCH  11  12
ATOM     12  C   UNL     1       5.364   2.377   4.282  1.00  0.00     0.031 A 
ATOM     13  C   UNL     1       5.893   1.486   5.375  1.00  0.00     0.074 A 
ATOM     14  C   UNL     1       5.647   3.695   4.293  1.00  0.00     0.049 A 
ATOM     15  N   UNL     1       6.675   1.795   6.378  1.00  0.00    -0.248 NA
ATOM     16  C   UNL     1       5.487   0.071   5.352  1.00  0.00     0.031 C 
ATOM     17  C   UNL     1       5.152   4.670   3.318  1.00  0.00     0.029 A 
ATOM     18  N   UNL     1       6.430   4.442   5.136  1.00  0.00    -0.354 N 
ATOM     19  C   UNL     1       6.814   0.634   7.130  1.00  0.00     0.074 A 
ATOM     20  C   UNL     1       6.031  -0.388   6.471  1.00  0.00     0.031 C 
ATOM     21  C   UNL     1       5.682   5.871   3.585  1.00  0.00     0.029 A 
ATOM     22  C   UNL     1       6.510   5.768   4.780  1.00  0.00     0.049 A 
ATOM     23  H   UNL     1       6.890   4.065   5.921  1.00  0.00     0.167 HD
ATOM     24  C   UNL     1       7.540   0.434   8.257  1.00  0.00     0.034 A 
ATOM     25  C   UNL     1       7.175   6.791   5.350  1.00  0.00     0.034 A 
ATOM     26  C   UNL     1       8.362   1.439   8.878  1.00  0.00     0.049 A 
ATOM     27  C   UNL     1       8.011   6.526   6.568  1.00  0.00     0.074 A 
ATOM     28  C   UNL     1       9.198   1.310   9.975  1.00  0.00     0.029 A 
ATOM     29  N   UNL     1       8.450   2.759   8.464  1.00  0.00    -0.354 N 
ATOM     30  N   UNL     1       8.239   5.389   7.180  1.00  0.00    -0.248 NA
ATOM     31  C   UNL     1       8.705   7.678   7.158  1.00  0.00     0.031 C 
ATOM     32  C   UNL     1       9.776   2.558  10.235  1.00  0.00     0.029 A 
ATOM     33  C   UNL     1       9.317   3.459   9.287  1.00  0.00     0.049 A 
ATOM     34  H   UNL     1       7.967   3.143   7.697  1.00  0.00     0.167 HD
ATOM     35  C   UNL     1       9.123   5.683   8.210  1.00  0.00     0.074 A 
ATOM     36  C   UNL     1       9.410   7.100   8.121  1.00  0.00     0.031 C 
ATOM     37  C   UNL     1       9.635   4.857   9.156  1.00  0.00     0.034 A 
BRANCH  24  38
ATOM     38  C   UNL     1       7.513  -0.940   8.879  1.00  0.00     0.023 A 
ATOM     39  C   UNL     1       8.210  -1.999   8.263  1.00  0.00     0.012 A 
ATOM     40  C   UNL     1       6.859  -1.166  10.106  1.00  0.00     0.148 A 
ATOM     41  C   UNL     1       8.231  -3.268   8.842  1.00  0.00     0.002 A 
ATOM     42  C   UNL     1       6.918  -2.423  10.698  1.00  0.00     0.091 A 
ATOM     43  F   UNL     1       6.183  -0.153  10.667  1.00  0.00    -0.205 F 
ATOM     44  C   UNL     1       7.595  -3.477  10.063  1.00  0.00     0.022 A 
BRANCH  42  45
ATOM     45  S   UNL     1       6.197  -2.766  12.308  1.00  0.00     0.127 S 
ATOM     46  O   UNL     1       5.008  -3.533  11.941  1.00  0.00    -0.237 OA
ATOM     47  O   UNL     1       7.248  -3.549  12.959  1.00  0.00    -0.237 OA
ATOM     48  O   UNL     1       5.946  -1.468  12.917  1.00  0.00    -0.744 OA
ENDBRANCH  42  45
ENDBRANCH  24  38
BRANCH  25  49
ATOM     49  C   UNL     1       7.123   8.144   4.728  1.00  0.00     0.023 A 
ATOM     50  C   UNL     1       8.278   8.666   4.114  1.00  0.00     0.012 A 
ATOM     51  C   UNL     1       5.930   8.892   4.696  1.00  0.00     0.148 A 
ATOM     52  C   UNL     1       8.252   9.918   3.499  1.00  0.00     0.002 A 
ATOM     53  C   UNL     1       5.895  10.111   4.030  1.00  0.00     0.091 A 
ATOM     54  F   UNL     1       4.846   8.385   5.301  1.00  0.00    -0.205 F 
ATOM     55  C   UNL     1       7.059  10.634   3.446  1.00  0.00     0.022 A 
BRANCH  53  56
ATOM     56  S   UNL     1       4.368  11.025   3.790  1.00  0.00     0.127 S 
ATOM     57  O   UNL     1       4.526  12.125   4.737  1.00  0.00    -0.237 OA
ATOM     58  O   UNL     1       4.460  11.407   2.380  1.00  0.00    -0.237 OA
ATOM     59  O   UNL     1       3.299  10.079   4.083  1.00  0.00    -0.744 OA
ENDBRANCH  53  56
ENDBRANCH  25  49
BRANCH  37  60
ATOM     60  C   UNL     1      10.585   5.459  10.156  1.00  0.00     0.023 A 
ATOM     61  C   UNL     1      10.090   6.308  11.167  1.00  0.00     0.012 A 
ATOM     62  C   UNL     1      11.956   5.141  10.130  1.00  0.00     0.148 A 
ATOM     63  C   UNL     1      10.952   6.859  12.113  1.00  0.00     0.002 A 
ATOM     64  C   UNL     1      12.802   5.657  11.105  1.00  0.00     0.091 A 
ATOM     65  F   UNL     1      12.413   4.351   9.147  1.00  0.00    -0.205 F 
ATOM     66  C   UNL     1      12.305   6.526  12.090  1.00  0.00     0.022 A 
BRANCH  64  67
ATOM     67  S   UNL     1      14.537   5.202  11.200  1.00  0.00     0.127 S 
ATOM     68  O   UNL     1      15.187   6.377  10.624  1.00  0.00    -0.237 OA
ATOM     69  O   UNL     1      14.740   5.037  12.640  1.00  0.00    -0.237 OA
ATOM     70  O   UNL     1      14.665   3.970  10.432  1.00  0.00    -0.744 OA
ENDBRANCH  64  67
ENDBRANCH  37  60
ENDBRANCH  11  12
ENDBRANCH   4   6
ENDBRANCH   1   2
BRANCH   1  71
ATOM     71  C   UNL     1       4.855  -2.306  -0.976  1.00  0.00     0.042 C 
BRANCH  71  72
ATOM     72  C   UNL     1       4.222  -3.262  -1.975  1.00  0.00     0.117 C 
BRANCH  72  73
ATOM     73  N   UNL     1       4.593  -2.941  -3.337  1.00  0.00    -0.356 N 
ATOM     74  C   UNL     1       5.546  -3.415  -4.169  1.00  0.00     0.224 C 
ATOM     75  H   UNL     1       4.039  -2.234  -3.739  1.00  0.00     0.163 HD
ATOM     76  O   UNL     1       5.716  -2.749  -5.198  1.00  0.00    -0.275 OA
BRANCH  74  77
ATOM     77  C   UNL     1       6.428  -4.628  -3.844  1.00  0.00     0.098 C 
ATOM     78  C   UNL     1       7.311  -4.960  -5.067  1.00  0.00     0.017 C 
ATOM     79  C   UNL     1       5.702  -5.926  -3.481  1.00  0.00     0.134 C 
ATOM     80  C   UNL     1       6.464  -5.473  -6.234  1.00  0.00     0.022 C 
ATOM     81  N   UNL     1       4.824  -6.393  -4.548  1.00  0.00    -0.324 N 
ATOM     82  C   UNL     1       5.488  -6.582  -5.843  1.00  0.00     0.121 C 
BRANCH  81  83
ATOM     83  C   UNL     1       3.488  -6.558  -4.243  1.00  0.00     0.321 C 
ATOM     84  O   UNL     1       3.008  -6.154  -3.178  1.00  0.00    -0.248 OA
ATOM     85  N   UNL     1       2.609  -7.067  -5.143  1.00  0.00    -0.308 N 
ATOM     86  H   UNL     1       1.682  -6.761  -5.013  1.00  0.00     0.171 HD
BRANCH  85  87
ATOM     87  C   UNL     1       2.772  -7.944  -6.217  1.00  0.00     0.042 A 
ATOM     88  C   UNL     1       1.991  -7.718  -7.352  1.00  0.00     0.026 A 
ATOM     89  C   UNL     1       3.708  -8.980  -6.208  1.00  0.00     0.026 A 
ATOM     90  C   UNL     1       2.251  -8.429  -8.523  1.00  0.00     0.002 A 
ATOM     91  C   UNL     1       3.954  -9.703  -7.375  1.00  0.00     0.002 A 
ATOM     92  C   UNL     1       3.246  -9.407  -8.539  1.00  0.00     0.000 A 
ENDBRANCH  85  87
ENDBRANCH  81  83
ENDBRANCH  74  77
ENDBRANCH  72  73
ENDBRANCH  71  72
ENDBRANCH   1  71
TORSDOF 15
