REMARK SMILES O=C(COc1cccc(/C=C2\SC(=O)N(c3cccc(Cl)c3)C2=O)c1)NCCCNC(=O)c1ccc(-c2c3nc(c(-c4cccc(S(=O)(=O)[O-])c4F)c4ccc([nH]4)c(-c4cccc(S(=O)(=O)[O-])c4F)c4nc(c(-c5cccc(S(=O)(=O)[O-])c5F)c5ccc2[nH]5)C=C4)C=C3)cc1
REMARK SMILES IDX 27 1 26 2 1 3 2 4 3 6 4 7 5 8 6 9 25 10 7 11 9 12 8 13 10 14
REMARK SMILES IDX 11 15 12 16 23 17 13 18 15 19 24 20 14 21 16 22 17 23 22 24
REMARK SMILES IDX 18 25 20 26 19 27 21 28 28 29 29 30 30 31 31 32 32 34 33 35
REMARK SMILES IDX 34 36 95 37 35 38 94 39 36 40 37 41 38 42 88 43 39 44 93 45
REMARK SMILES IDX 87 46 89 47 40 48 92 49 86 50 85 51 41 53 73 54 53 55 72 56
REMARK SMILES IDX 54 57 57 58 71 59 90 60 55 61 56 62 70 64 91 65 58 66 42 67
REMARK SMILES IDX 43 68 51 69 44 70 46 71 52 72 45 73 47 74 48 75 49 76 50 77
REMARK SMILES IDX 74 78 75 79 83 80 76 81 78 82 84 83 77 84 79 85 80 86 81 87
REMARK SMILES IDX 82 88 59 89 60 90 68 91 61 92 63 93 69 94 62 95 64 96 65 97
REMARK SMILES IDX 66 98 67 99
REMARK H PARENT 26 5 30 33 89 52 57 63
REMARK Flexibility Score: inf
ROOT
ATOM      1  C   UNL     1       2.257   1.540   1.762  1.00  0.00     0.117 C 
ENDROOT
BRANCH   1   2
ATOM      2  N   UNL     1       2.921   0.654   0.825  1.00  0.00    -0.353 N 
ATOM      3  O   UNL     1       1.073  -0.633   0.361  1.00  0.00    -0.271 OA
ATOM      4  C   UNL     1       2.234  -0.313   0.118  1.00  0.00     0.257 C 
ATOM      5  H   UNL     1       3.892   0.745   0.689  1.00  0.00     0.163 HD
BRANCH   4   6
ATOM      6  C   UNL     1       3.022  -0.930  -1.045  1.00  0.00     0.329 C 
BRANCH   6   7
ATOM      7  O   UNL     1       3.921  -0.083  -1.761  1.00  0.00    -0.484 OA
BRANCH   7   8
ATOM      8  C   UNL     1       3.323   0.789  -2.633  1.00  0.00     0.120 A 
ATOM      9  C   UNL     1       3.805   0.839  -3.938  1.00  0.00     0.046 A 
ATOM     10  C   UNL     1       2.366   1.715  -2.231  1.00  0.00     0.054 A 
ATOM     11  C   UNL     1       3.305   1.791  -4.836  1.00  0.00     0.004 A 
ATOM     12  C   UNL     1       1.897   2.704  -3.103  1.00  0.00    -0.021 A 
ATOM     13  C   UNL     1       2.353   2.727  -4.419  1.00  0.00     0.008 A 
BRANCH  12  14
ATOM     14  C   UNL     1       0.951   3.693  -2.575  1.00  0.00     0.029 C 
ATOM     15  C   UNL     1       1.242   4.567  -1.598  1.00  0.00     0.083 C 
ATOM     16  S   UNL     1       2.772   4.872  -0.882  1.00  0.00    -0.022 SA
ATOM     17  C   UNL     1       0.199   5.419  -0.966  1.00  0.00     0.272 C 
ATOM     18  C   UNL     1       2.124   6.090   0.203  1.00  0.00     0.298 C 
ATOM     19  N   UNL     1       0.761   6.207   0.027  1.00  0.00    -0.236 N 
ATOM     20  O   UNL     1      -0.964   5.408  -1.351  1.00  0.00    -0.268 OA
ATOM     21  O   UNL     1       2.848   6.673   0.992  1.00  0.00    -0.260 OA
BRANCH  19  22
ATOM     22  C   UNL     1      -0.024   7.117   0.794  1.00  0.00     0.054 A 
ATOM     23  C   UNL     1      -1.329   6.781   1.187  1.00  0.00     0.027 A 
ATOM     24  C   UNL     1       0.479   8.376   1.155  1.00  0.00     0.047 A 
ATOM     25  C   UNL     1      -2.116   7.681   1.912  1.00  0.00     0.004 A 
ATOM     26  C   UNL     1      -0.326   9.286   1.843  1.00  0.00     0.043 A 
ATOM     27  C   UNL     1      -1.619   8.942   2.226  1.00  0.00     0.020 A 
ATOM     28  Cl  UNL     1       0.271  10.864   2.184  1.00  0.00    -0.084 Cl
ENDBRANCH  19  22
ENDBRANCH  12  14
ENDBRANCH   7   8
ENDBRANCH   6   7
ENDBRANCH   4   6
ENDBRANCH   1   2
BRANCH   1  29
ATOM     29  C   UNL     1       2.563   1.228   3.217  1.00  0.00     0.042 C 
BRANCH  29  30
ATOM     30  C   UNL     1       4.032   1.370   3.595  1.00  0.00     0.118 C 
BRANCH  30  31
ATOM     31  N   UNL     1       4.546   2.724   3.435  1.00  0.00    -0.352 N 
ATOM     32  C   UNL     1       5.263   3.510   4.304  1.00  0.00     0.251 C 
ATOM     33  H   UNL     1       4.349   3.141   2.565  1.00  0.00     0.163 HD
ATOM     34  O   UNL     1       5.510   4.673   3.991  1.00  0.00    -0.269 OA
BRANCH  32  35
ATOM     35  C   UNL     1       5.721   2.991   5.613  1.00  0.00     0.039 A 
ATOM     36  C   UNL     1       5.663   3.842   6.721  1.00  0.00     0.014 A 
ATOM     37  C   UNL     1       6.232   1.699   5.759  1.00  0.00     0.014 A 
ATOM     38  C   UNL     1       6.065   3.379   7.977  1.00  0.00     0.010 A 
ATOM     39  C   UNL     1       6.548   1.212   7.026  1.00  0.00     0.010 A 
ATOM     40  C   UNL     1       6.480   2.048   8.149  1.00  0.00    -0.014 A 
BRANCH  40  41
ATOM     41  C   UNL     1       6.829   1.530   9.499  1.00  0.00     0.031 A 
ATOM     42  C   UNL     1       8.218   1.029   9.800  1.00  0.00     0.074 A 
ATOM     43  C   UNL     1       5.873   1.459  10.447  1.00  0.00     0.049 A 
ATOM     44  N   UNL     1       8.699   0.565  10.925  1.00  0.00    -0.248 NA
ATOM     45  C   UNL     1       9.185   1.022   8.690  1.00  0.00     0.031 C 
ATOM     46  C   UNL     1       4.467   1.824  10.258  1.00  0.00     0.029 A 
ATOM     47  N   UNL     1       5.934   1.045  11.755  1.00  0.00    -0.354 N 
ATOM     48  C   UNL     1      10.009   0.187  10.654  1.00  0.00     0.074 A 
ATOM     49  C   UNL     1      10.236   0.436   9.247  1.00  0.00     0.031 C 
ATOM     50  C   UNL     1       3.804   1.636  11.411  1.00  0.00     0.029 A 
ATOM     51  C   UNL     1       4.728   1.114  12.412  1.00  0.00     0.049 A 
ATOM     52  H   UNL     1       6.763   0.728  12.181  1.00  0.00     0.167 HD
ATOM     53  C   UNL     1      10.950  -0.294  11.502  1.00  0.00     0.034 A 
ATOM     54  C   UNL     1       4.401   0.796  13.680  1.00  0.00     0.034 A 
ATOM     55  C   UNL     1      10.735  -0.508  12.909  1.00  0.00     0.049 A 
ATOM     56  C   UNL     1       5.477   0.316  14.615  1.00  0.00     0.074 A 
ATOM     57  C   UNL     1      11.649  -0.908  13.868  1.00  0.00     0.029 A 
ATOM     58  N   UNL     1       9.521  -0.348  13.558  1.00  0.00    -0.354 N 
ATOM     59  N   UNL     1       6.752   0.126  14.379  1.00  0.00    -0.248 NA
ATOM     60  C   UNL     1       5.077   0.047  16.003  1.00  0.00     0.031 C 
ATOM     61  C   UNL     1      10.980  -1.018  15.092  1.00  0.00     0.029 A 
ATOM     62  C   UNL     1       9.657  -0.652  14.902  1.00  0.00     0.049 A 
ATOM     63  H   UNL     1       8.683  -0.062  13.126  1.00  0.00     0.167 HD
ATOM     64  C   UNL     1       7.314  -0.248  15.594  1.00  0.00     0.074 A 
ATOM     65  C   UNL     1       6.243  -0.232  16.570  1.00  0.00     0.031 C 
ATOM     66  C   UNL     1       8.596  -0.589  15.875  1.00  0.00     0.034 A 
BRANCH  53  67
ATOM     67  C   UNL     1      12.322  -0.576  10.941  1.00  0.00     0.023 A 
ATOM     68  C   UNL     1      13.149   0.499  10.553  1.00  0.00     0.012 A 
ATOM     69  C   UNL     1      12.818  -1.892  10.857  1.00  0.00     0.148 A 
ATOM     70  C   UNL     1      14.431   0.267  10.055  1.00  0.00     0.002 A 
ATOM     71  C   UNL     1      14.114  -2.112  10.404  1.00  0.00     0.091 A 
ATOM     72  F   UNL     1      12.012  -2.903  11.212  1.00  0.00    -0.205 F 
ATOM     73  C   UNL     1      14.916  -1.035   9.990  1.00  0.00     0.022 A 
BRANCH  71  74
ATOM     74  S   UNL     1      14.863  -3.744  10.360  1.00  0.00     0.127 S 
ATOM     75  O   UNL     1      14.947  -3.991   8.921  1.00  0.00    -0.237 OA
ATOM     76  O   UNL     1      16.151  -3.508  11.014  1.00  0.00    -0.237 OA
ATOM     77  O   UNL     1      13.961  -4.621  11.092  1.00  0.00    -0.744 OA
ENDBRANCH  71  74
ENDBRANCH  53  67
BRANCH  54  78
ATOM     78  C   UNL     1       3.003   0.995  14.161  1.00  0.00     0.023 A 
ATOM     79  C   UNL     1       2.729   2.012  15.096  1.00  0.00     0.012 A 
ATOM     80  C   UNL     1       1.946   0.198  13.683  1.00  0.00     0.148 A 
ATOM     81  C   UNL     1       1.433   2.208  15.575  1.00  0.00     0.002 A 
ATOM     82  C   UNL     1       0.648   0.437  14.119  1.00  0.00     0.091 A 
ATOM     83  F   UNL     1       2.229  -0.771  12.801  1.00  0.00    -0.205 F 
ATOM     84  C   UNL     1       0.392   1.428  15.079  1.00  0.00     0.022 A 
BRANCH  82  85
ATOM     85  S   UNL     1      -0.771  -0.427  13.437  1.00  0.00     0.127 S 
ATOM     86  O   UNL     1      -1.178  -1.268  14.560  1.00  0.00    -0.237 OA
ATOM     87  O   UNL     1      -1.680   0.678  13.133  1.00  0.00    -0.237 OA
ATOM     88  O   UNL     1      -0.274  -1.135  12.265  1.00  0.00    -0.744 OA
ENDBRANCH  82  85
ENDBRANCH  54  78
BRANCH  66  89
ATOM     89  C   UNL     1       8.927  -0.936  17.304  1.00  0.00     0.023 A 
ATOM     90  C   UNL     1       8.445  -2.134  17.868  1.00  0.00     0.012 A 
ATOM     91  C   UNL     1       9.754  -0.095  18.074  1.00  0.00     0.148 A 
ATOM     92  C   UNL     1       8.742  -2.466  19.190  1.00  0.00     0.002 A 
ATOM     93  C   UNL     1      10.091  -0.459  19.373  1.00  0.00     0.091 A 
ATOM     94  F   UNL     1      10.190   1.050  17.529  1.00  0.00    -0.205 F 
ATOM     95  C   UNL     1       9.573  -1.635  19.938  1.00  0.00     0.022 A 
BRANCH  93  96
ATOM     96  S   UNL     1      11.233   0.500  20.373  1.00  0.00     0.127 S 
ATOM     97  O   UNL     1      10.329   1.148  21.321  1.00  0.00    -0.237 OA
ATOM     98  O   UNL     1      12.085  -0.538  20.955  1.00  0.00    -0.237 OA
ATOM     99  O   UNL     1      11.920   1.394  19.450  1.00  0.00    -0.744 OA
ENDBRANCH  93  96
ENDBRANCH  66  89
ENDBRANCH  40  41
ENDBRANCH  32  35
ENDBRANCH  30  31
ENDBRANCH  29  30
ENDBRANCH   1  29
TORSDOF 17
