REMARK SMILES COC(=O)c1ccc2c(c1)=N[C@H](c1cn(CCC(=O)NCCCNC(=O)c3ccc(-c4c5nc(c(-c6cccc(S(=O)(=O)[O-])c6F)c6ccc([nH]6)c(-c6cccc(S(=O)(=O)[O-])c6F)c6nc(c(-c7cccc(S(=O)(=O)[O-])c7F)c7ccc4[nH]7)C=C6)C=C5)cc3)c3ccccc13)N=2
REMARK SMILES IDX 21 1 20 2 18 3 19 4 17 6 16 7 15 8 13 9 14 10 95 11 90 12
REMARK SMILES IDX 94 13 91 14 93 15 92 16 12 17 5 18 6 19 10 20 7 21 9 22 8 23
REMARK SMILES IDX 11 24 96 25 3 26 4 27 2 28 1 29 22 30 23 31 24 32 25 33
REMARK SMILES IDX 26 35 27 36 28 37 89 38 29 39 88 40 30 41 31 42 32 43 82 44
REMARK SMILES IDX 33 45 87 46 81 47 83 48 34 49 86 50 80 51 79 52 35 54 67 55
REMARK SMILES IDX 47 56 66 57 48 58 51 59 65 60 84 61 49 62 50 63 64 65 85 66
REMARK SMILES IDX 52 67 36 68 37 69 45 70 38 71 40 72 46 73 39 74 41 75 42 76
REMARK SMILES IDX 43 77 44 78 68 79 69 80 77 81 70 82 72 83 78 84 71 85 73 86
REMARK SMILES IDX 74 87 75 88 76 89 53 90 54 91 62 92 55 93 57 94 63 95 56 96
REMARK SMILES IDX 58 97 59 98 60 99 61 100
REMARK H PARENT 20 5 24 34 83 53 51 64
REMARK Flexibility Score: inf
ROOT
ATOM      1  C   UNL     1      -2.033  -1.651  12.058  1.00  0.00     0.117 C 
ENDROOT
BRANCH   1   2
ATOM      2  N   UNL     1      -2.010  -3.112  12.172  1.00  0.00    -0.356 N 
ATOM      3  C   UNL     1      -1.031  -4.030  12.428  1.00  0.00     0.221 C 
ATOM      4  O   UNL     1      -1.394  -5.198  12.609  1.00  0.00    -0.275 OA
ATOM      5  H   UNL     1      -2.894  -3.522  12.033  1.00  0.00     0.163 HD
BRANCH   3   6
ATOM      6  C   UNL     1       0.437  -3.672  12.568  1.00  0.00     0.122 C 
BRANCH   6   7
ATOM      7  C   UNL     1       1.354  -4.581  11.704  1.00  0.00     0.132 C 
BRANCH   7   8
ATOM      8  N   UNL     1       1.561  -4.105  10.327  1.00  0.00    -0.347 N 
ATOM      9  C   UNL     1       0.801  -2.255   9.407  1.00  0.00     0.024 A 
ATOM     10  C   UNL     1       1.875  -2.784  10.132  1.00  0.00     0.094 A 
ATOM     11  C   UNL     1      -0.186  -3.324   9.382  1.00  0.00     0.007 A 
ATOM     12  C   UNL     1       0.708  -4.391   9.277  1.00  0.00     0.048 A 
ATOM     13  C   UNL     1      -1.426  -3.596   8.786  1.00  0.00     0.011 A 
ATOM     14  C   UNL     1       0.798  -5.041   8.029  1.00  0.00     0.027 A 
ATOM     15  C   UNL     1      -1.498  -4.396   7.653  1.00  0.00     0.001 A 
ATOM     16  C   UNL     1      -0.332  -4.976   7.190  1.00  0.00     0.002 A 
BRANCH   9  17
ATOM     17  C   UNL     1       0.980  -0.952   8.694  1.00  0.00     0.255 C 
ATOM     18  C   UNL     1       1.364  -0.655   4.244  1.00  0.00     0.062 A 
ATOM     19  C   UNL     1       0.356   0.364   4.487  1.00  0.00     0.018 A 
ATOM     20  C   UNL     1       2.061  -1.192   5.261  1.00  0.00     0.046 A 
ATOM     21  C   UNL     1      -0.184   0.601   5.691  1.00  0.00     0.031 A 
ATOM     22  C   UNL     1       1.586  -0.893   6.614  1.00  0.00     0.087 A 
ATOM     23  C   UNL     1       0.299  -0.203   6.807  1.00  0.00     0.086 A 
ATOM     24  N   UNL     1       2.102  -1.220   7.738  1.00  0.00    -0.252 NA
ATOM     25  N   UNL     1      -0.190  -0.380   7.987  1.00  0.00    -0.252 NA
BRANCH  18  26
ATOM     26  C   UNL     1       1.681  -1.130   2.868  1.00  0.00     0.337 C 
ATOM     27  O   UNL     1       2.669  -1.814   2.580  1.00  0.00    -0.246 OA
BRANCH  26  28
ATOM     28  O   UNL     1       0.685  -0.802   2.014  1.00  0.00    -0.465 OA
ATOM     29  C   UNL     1       0.892  -1.155   0.645  1.00  0.00     0.282 C 
ENDBRANCH  26  28
ENDBRANCH  18  26
ENDBRANCH   9  17
ENDBRANCH   7   8
ENDBRANCH   6   7
ENDBRANCH   3   6
ENDBRANCH   1   2
BRANCH   1  30
ATOM     30  C   UNL     1      -2.552  -1.040  10.729  1.00  0.00     0.042 C 
BRANCH  30  31
ATOM     31  C   UNL     1      -3.662  -1.768   9.964  1.00  0.00     0.118 C 
BRANCH  31  32
ATOM     32  N   UNL     1      -4.985  -1.188   9.941  1.00  0.00    -0.352 N 
ATOM     33  C   UNL     1      -5.724  -0.707   8.883  1.00  0.00     0.251 C 
ATOM     34  H   UNL     1      -5.427  -1.127  10.819  1.00  0.00     0.163 HD
ATOM     35  O   UNL     1      -6.951  -0.737   8.975  1.00  0.00    -0.269 OA
BRANCH  33  36
ATOM     36  C   UNL     1      -5.113  -0.001   7.732  1.00  0.00     0.039 A 
ATOM     37  C   UNL     1      -4.091  -0.490   6.922  1.00  0.00     0.014 A 
ATOM     38  C   UNL     1      -5.659   1.261   7.454  1.00  0.00     0.014 A 
ATOM     39  C   UNL     1      -3.503   0.356   5.978  1.00  0.00     0.010 A 
ATOM     40  C   UNL     1      -5.074   2.098   6.512  1.00  0.00     0.010 A 
ATOM     41  C   UNL     1      -3.916   1.690   5.855  1.00  0.00    -0.014 A 
BRANCH  41  42
ATOM     42  C   UNL     1      -3.126   2.652   5.058  1.00  0.00     0.031 A 
ATOM     43  C   UNL     1      -2.871   2.298   3.632  1.00  0.00     0.074 A 
ATOM     44  C   UNL     1      -2.682   3.822   5.589  1.00  0.00     0.049 A 
ATOM     45  N   UNL     1      -1.743   2.389   2.997  1.00  0.00    -0.248 NA
ATOM     46  C   UNL     1      -3.954   1.696   2.839  1.00  0.00     0.031 C 
ATOM     47  C   UNL     1      -2.974   4.323   6.939  1.00  0.00     0.029 A 
ATOM     48  N   UNL     1      -2.001   4.877   5.023  1.00  0.00    -0.354 N 
ATOM     49  C   UNL     1      -2.011   2.017   1.684  1.00  0.00     0.074 A 
ATOM     50  C   UNL     1      -3.357   1.502   1.662  1.00  0.00     0.031 C 
ATOM     51  C   UNL     1      -2.759   5.653   6.981  1.00  0.00     0.029 A 
ATOM     52  C   UNL     1      -2.192   6.079   5.718  1.00  0.00     0.049 A 
ATOM     53  H   UNL     1      -1.441   4.795   4.218  1.00  0.00     0.167 HD
ATOM     54  C   UNL     1      -1.201   2.368   0.647  1.00  0.00     0.034 A 
ATOM     55  C   UNL     1      -1.991   7.342   5.264  1.00  0.00     0.034 A 
ATOM     56  C   UNL     1       0.109   2.801   1.033  1.00  0.00     0.049 A 
ATOM     57  C   UNL     1      -0.982   7.274   4.194  1.00  0.00     0.074 A 
ATOM     58  C   UNL     1       1.395   2.310   1.049  1.00  0.00     0.029 A 
ATOM     59  N   UNL     1       0.124   3.976   1.726  1.00  0.00    -0.354 N 
ATOM     60  N   UNL     1       0.268   6.971   4.406  1.00  0.00    -0.248 NA
ATOM     61  C   UNL     1      -1.410   7.295   2.798  1.00  0.00     0.031 C 
ATOM     62  C   UNL     1       2.153   3.159   1.903  1.00  0.00     0.029 A 
ATOM     63  C   UNL     1       1.347   4.220   2.283  1.00  0.00     0.049 A 
ATOM     64  H   UNL     1      -0.652   4.575   1.813  1.00  0.00     0.167 HD
ATOM     65  C   UNL     1       0.642   6.352   3.237  1.00  0.00     0.074 A 
ATOM     66  C   UNL     1      -0.339   6.739   2.233  1.00  0.00     0.031 C 
ATOM     67  C   UNL     1       1.477   5.283   3.244  1.00  0.00     0.034 A 
BRANCH  54  68
ATOM     68  C   UNL     1      -1.778   2.712  -0.694  1.00  0.00     0.023 A 
ATOM     69  C   UNL     1      -1.016   2.563  -1.865  1.00  0.00     0.012 A 
ATOM     70  C   UNL     1      -3.007   3.407  -0.791  1.00  0.00     0.148 A 
ATOM     71  C   UNL     1      -1.493   3.037  -3.095  1.00  0.00     0.002 A 
ATOM     72  C   UNL     1      -3.509   3.806  -2.020  1.00  0.00     0.091 A 
ATOM     73  F   UNL     1      -3.636   3.773   0.335  1.00  0.00    -0.205 F 
ATOM     74  C   UNL     1      -2.750   3.633  -3.178  1.00  0.00     0.022 A 
BRANCH  72  75
ATOM     75  S   UNL     1      -5.150   4.518  -2.165  1.00  0.00     0.127 S 
ATOM     76  O   UNL     1      -4.845   5.929  -2.374  1.00  0.00    -0.237 OA
ATOM     77  O   UNL     1      -5.679   3.816  -3.335  1.00  0.00    -0.237 OA
ATOM     78  O   UNL     1      -5.823   4.180  -0.917  1.00  0.00    -0.744 OA
ENDBRANCH  72  75
ENDBRANCH  54  68
BRANCH  55  79
ATOM     79  C   UNL     1      -2.735   8.607   5.521  1.00  0.00     0.023 A 
ATOM     80  C   UNL     1      -2.221   9.820   5.003  1.00  0.00     0.012 A 
ATOM     81  C   UNL     1      -4.070   8.606   5.974  1.00  0.00     0.148 A 
ATOM     82  C   UNL     1      -3.031  10.952   4.854  1.00  0.00     0.002 A 
ATOM     83  C   UNL     1      -4.867   9.740   5.840  1.00  0.00     0.091 A 
ATOM     84  F   UNL     1      -4.600   7.471   6.443  1.00  0.00    -0.205 F 
ATOM     85  C   UNL     1      -4.360  10.907   5.257  1.00  0.00     0.022 A 
BRANCH  83  86
ATOM     86  S   UNL     1      -6.594   9.742   6.341  1.00  0.00     0.127 S 
ATOM     87  O   UNL     1      -6.723  11.045   6.992  1.00  0.00    -0.237 OA
ATOM     88  O   UNL     1      -7.279   9.626   5.057  1.00  0.00    -0.237 OA
ATOM     89  O   UNL     1      -6.739   8.607   7.245  1.00  0.00    -0.744 OA
ENDBRANCH  83  86
ENDBRANCH  55  79
BRANCH  67  90
ATOM     90  C   UNL     1       2.450   5.114   4.361  1.00  0.00     0.023 A 
ATOM     91  C   UNL     1       2.078   4.721   5.659  1.00  0.00     0.012 A 
ATOM     92  C   UNL     1       3.810   5.205   4.026  1.00  0.00     0.148 A 
ATOM     93  C   UNL     1       3.061   4.397   6.600  1.00  0.00     0.002 A 
ATOM     94  C   UNL     1       4.777   4.832   4.943  1.00  0.00     0.091 A 
ATOM     95  F   UNL     1       4.128   5.616   2.789  1.00  0.00    -0.205 F 
ATOM     96  C   UNL     1       4.409   4.429   6.235  1.00  0.00     0.022 A 
BRANCH  94  97
ATOM     97  S   UNL     1       6.505   4.724   4.475  1.00  0.00     0.127 S 
ATOM     98  O   UNL     1       7.089   5.852   5.197  1.00  0.00    -0.237 OA
ATOM     99  O   UNL     1       6.880   3.405   4.985  1.00  0.00    -0.237 OA
ATOM    100  O   UNL     1       6.534   4.829   3.021  1.00  0.00    -0.744 OA
ENDBRANCH  94  97
ENDBRANCH  67  90
ENDBRANCH  41  42
ENDBRANCH  33  36
ENDBRANCH  31  32
ENDBRANCH  30  31
ENDBRANCH   1  30
TORSDOF 18
