REMARK SMILES C[C@H]([NH2+][C@@H](C)[C@]12C[C@H]3C[C@H](C[C@H](C3)C1)C2)[C@@H](C)C(=O)NCCCNC(=O)c1ccc(-c2c3nc(c(-c4cccc(S(=O)(=O)[O-])c4F)c4ccc([nH]4)c(-c4cccc(S(=O)(=O)[O-])c4F)c4nc(c(-c5cccc(S(=O)(=O)[O-])c5F)c5ccc2[nH]5)C=C4)C=C3)cc1
REMARK SMILES IDX 21 1 20 2 18 3 19 4 16 6 17 7 2 8 1 9 3 10 4 13 5 14 6 15
REMARK SMILES IDX 7 16 14 17 15 18 8 19 12 20 10 21 9 22 13 23 11 24 22 25
REMARK SMILES IDX 23 26 24 27 25 28 26 30 27 31 28 32 89 33 29 34 88 35 30 36
REMARK SMILES IDX 31 37 32 38 82 39 33 40 87 41 81 42 83 43 34 44 86 45 80 46
REMARK SMILES IDX 79 47 35 49 67 50 47 51 66 52 48 53 51 54 65 55 84 56 49 57
REMARK SMILES IDX 50 58 64 60 85 61 52 62 36 63 37 64 45 65 38 66 40 67 46 68
REMARK SMILES IDX 39 69 41 70 42 71 43 72 44 73 68 74 69 75 77 76 70 77 72 78
REMARK SMILES IDX 78 79 71 80 73 81 74 82 75 83 76 84 53 85 54 86 62 87 55 88
REMARK SMILES IDX 57 89 63 90 56 91 58 92 59 93 60 94 61 95
REMARK H PARENT 20 5 3 11 3 12 24 29 83 48 51 59
REMARK Flexibility Score: inf
ROOT
ATOM      1  C   UNL     1      -0.467  -3.683   1.771  1.00  0.00     0.117 C 
ENDROOT
BRANCH   1   2
ATOM      2  N   UNL     1      -1.446  -2.812   2.398  1.00  0.00    -0.356 N 
ATOM      3  C   UNL     1      -1.860  -1.554   2.087  1.00  0.00     0.228 C 
ATOM      4  O   UNL     1      -2.806  -1.096   2.736  1.00  0.00    -0.275 OA
ATOM      5  H   UNL     1      -1.887  -3.200   3.188  1.00  0.00     0.163 HD
BRANCH   3   6
ATOM      6  C   UNL     1      -1.187  -0.705   1.005  1.00  0.00     0.133 C 
ATOM      7  C   UNL     1      -1.540  -1.235  -0.384  1.00  0.00     0.024 C 
BRANCH   6   8
ATOM      8  C   UNL     1       0.321  -0.474   1.309  1.00  0.00     0.191 C 
ATOM      9  C   UNL     1       0.405   0.217   2.685  1.00  0.00     0.076 C 
BRANCH   8  10
ATOM     10  N   UNL     1       0.953   0.330   0.250  1.00  0.00    -0.341 N 
ATOM     11  H   UNL     1       0.952   1.299   0.567  1.00  0.00     0.346 HD
ATOM     12  H   UNL     1       0.398   0.128  -0.582  1.00  0.00     0.346 HD
BRANCH  10  13
ATOM     13  C   UNL     1       2.342   0.002  -0.153  1.00  0.00     0.185 C 
ATOM     14  C   UNL     1       2.501   0.589  -1.565  1.00  0.00     0.076 C 
BRANCH  13  15
ATOM     15  C   UNL     1       3.509   0.426   0.832  1.00  0.00     0.023 C 
ATOM     16  C   UNL     1       3.760  -0.738   1.838  1.00  0.00     0.016 C 
ATOM     17  C   UNL     1       3.212   1.765   1.565  1.00  0.00     0.016 C 
ATOM     18  C   UNL     1       4.889   0.658   0.125  1.00  0.00     0.016 C 
ATOM     19  C   UNL     1       4.831  -0.376   2.872  1.00  0.00    -0.010 C 
ATOM     20  C   UNL     1       4.271   2.071   2.633  1.00  0.00    -0.010 C 
ATOM     21  C   UNL     1       5.996   1.023   1.147  1.00  0.00    -0.010 C 
ATOM     22  C   UNL     1       6.162  -0.126   2.150  1.00  0.00     0.007 C 
ATOM     23  C   UNL     1       4.394   0.893   3.615  1.00  0.00     0.007 C 
ATOM     24  C   UNL     1       5.609   2.293   1.923  1.00  0.00     0.007 C 
ENDBRANCH  13  15
ENDBRANCH  10  13
ENDBRANCH   8  10
ENDBRANCH   6   8
ENDBRANCH   3   6
ENDBRANCH   1   2
BRANCH   1  25
ATOM     25  C   UNL     1       0.776  -3.920   2.624  1.00  0.00     0.042 C 
BRANCH  25  26
ATOM     26  C   UNL     1       0.520  -4.640   3.940  1.00  0.00     0.118 C 
BRANCH  26  27
ATOM     27  N   UNL     1      -0.108  -5.941   3.757  1.00  0.00    -0.352 N 
ATOM     28  C   UNL     1       0.367  -7.205   3.999  1.00  0.00     0.251 C 
ATOM     29  H   UNL     1      -1.025  -5.909   3.401  1.00  0.00     0.163 HD
ATOM     30  O   UNL     1      -0.265  -8.172   3.569  1.00  0.00    -0.269 OA
BRANCH  28  31
ATOM     31  C   UNL     1       1.621  -7.422   4.752  1.00  0.00     0.039 A 
ATOM     32  C   UNL     1       2.482  -8.448   4.349  1.00  0.00     0.014 A 
ATOM     33  C   UNL     1       1.936  -6.654   5.875  1.00  0.00     0.014 A 
ATOM     34  C   UNL     1       3.680  -8.663   5.035  1.00  0.00     0.010 A 
ATOM     35  C   UNL     1       3.169  -6.811   6.502  1.00  0.00     0.010 A 
ATOM     36  C   UNL     1       4.050  -7.824   6.098  1.00  0.00    -0.014 A 
BRANCH  36  37
ATOM     37  C   UNL     1       5.354  -7.984   6.794  1.00  0.00     0.031 A 
ATOM     38  C   UNL     1       5.399  -8.303   8.264  1.00  0.00     0.074 A 
ATOM     39  C   UNL     1       6.498  -7.749   6.121  1.00  0.00     0.049 A 
ATOM     40  N   UNL     1       6.437  -8.417   9.052  1.00  0.00    -0.248 NA
ATOM     41  C   UNL     1       4.107  -8.490   8.947  1.00  0.00     0.031 C 
ATOM     42  C   UNL     1       6.585  -7.350   4.715  1.00  0.00     0.029 A 
ATOM     43  N   UNL     1       7.805  -7.782   6.538  1.00  0.00    -0.354 N 
ATOM     44  C   UNL     1       5.926  -8.646  10.325  1.00  0.00     0.074 A 
ATOM     45  C   UNL     1       4.485  -8.620  10.211  1.00  0.00     0.031 C 
ATOM     46  C   UNL     1       7.874  -7.179   4.385  1.00  0.00     0.029 A 
ATOM     47  C   UNL     1       8.704  -7.423   5.560  1.00  0.00     0.049 A 
ATOM     48  H   UNL     1       8.074  -8.039   7.449  1.00  0.00     0.167 HD
ATOM     49  C   UNL     1       6.595  -8.883  11.479  1.00  0.00     0.034 A 
ATOM     50  C   UNL     1      10.044  -7.294   5.606  1.00  0.00     0.034 A 
ATOM     51  C   UNL     1       8.028  -8.950  11.579  1.00  0.00     0.049 A 
ATOM     52  C   UNL     1      10.766  -7.609   6.888  1.00  0.00     0.074 A 
ATOM     53  C   UNL     1       8.798  -9.283  12.679  1.00  0.00     0.029 A 
ATOM     54  N   UNL     1       8.908  -8.671  10.545  1.00  0.00    -0.354 N 
ATOM     55  N   UNL     1      10.271  -7.987   8.041  1.00  0.00    -0.248 NA
ATOM     56  C   UNL     1      12.233  -7.517   6.865  1.00  0.00     0.031 C 
ATOM     57  C   UNL     1      10.146  -9.175  12.318  1.00  0.00     0.029 A 
ATOM     58  C   UNL     1      10.214  -8.808  10.983  1.00  0.00     0.049 A 
ATOM     59  H   UNL     1       8.643  -8.412   9.633  1.00  0.00     0.167 HD
ATOM     60  C   UNL     1      11.364  -8.210   8.871  1.00  0.00     0.074 A 
ATOM     61  C   UNL     1      12.549  -7.946   8.079  1.00  0.00     0.031 C 
ATOM     62  C   UNL     1      11.385  -8.588  10.173  1.00  0.00     0.034 A 
BRANCH  49  63
ATOM     63  C   UNL     1       5.778  -9.134  12.721  1.00  0.00     0.023 A 
ATOM     64  C   UNL     1       5.040 -10.330  12.841  1.00  0.00     0.012 A 
ATOM     65  C   UNL     1       5.778  -8.215  13.788  1.00  0.00     0.148 A 
ATOM     66  C   UNL     1       4.282 -10.588  13.983  1.00  0.00     0.002 A 
ATOM     67  C   UNL     1       5.058  -8.501  14.943  1.00  0.00     0.091 A 
ATOM     68  F   UNL     1       6.468  -7.074  13.650  1.00  0.00    -0.205 F 
ATOM     69  C   UNL     1       4.299  -9.678  15.037  1.00  0.00     0.022 A 
BRANCH  67  70
ATOM     70  S   UNL     1       5.084  -7.432  16.387  1.00  0.00     0.127 S 
ATOM     71  O   UNL     1       3.741  -6.853  16.349  1.00  0.00    -0.237 OA
ATOM     72  O   UNL     1       5.302  -8.389  17.474  1.00  0.00    -0.237 OA
ATOM     73  O   UNL     1       6.176  -6.496  16.175  1.00  0.00    -0.744 OA
ENDBRANCH  67  70
ENDBRANCH  49  63
BRANCH  50  74
ATOM     74  C   UNL     1      10.793  -6.910   4.376  1.00  0.00     0.023 A 
ATOM     75  C   UNL     1      11.594  -7.868   3.726  1.00  0.00     0.012 A 
ATOM     76  C   UNL     1      10.681  -5.618   3.825  1.00  0.00     0.148 A 
ATOM     77  C   UNL     1      12.295  -7.539   2.565  1.00  0.00     0.002 A 
ATOM     78  C   UNL     1      11.336  -5.315   2.636  1.00  0.00     0.091 A 
ATOM     79  F   UNL     1       9.920  -4.719   4.463  1.00  0.00    -0.205 F 
ATOM     80  C   UNL     1      12.157  -6.268   2.015  1.00  0.00     0.022 A 
BRANCH  78  81
ATOM     81  S   UNL     1      11.106  -3.749   1.785  1.00  0.00     0.127 S 
ATOM     82  O   UNL     1      12.420  -3.127   1.946  1.00  0.00    -0.237 OA
ATOM     83  O   UNL     1      10.800  -4.192   0.422  1.00  0.00    -0.237 OA
ATOM     84  O   UNL     1      10.005  -3.087   2.462  1.00  0.00    -0.744 OA
ENDBRANCH  78  81
ENDBRANCH  50  74
BRANCH  62  85
ATOM     85  C   UNL     1      12.730  -8.775  10.826  1.00  0.00     0.023 A 
ATOM     86  C   UNL     1      13.523  -7.652  11.135  1.00  0.00     0.012 A 
ATOM     87  C   UNL     1      13.173 -10.059  11.200  1.00  0.00     0.148 A 
ATOM     88  C   UNL     1      14.752  -7.808  11.776  1.00  0.00     0.002 A 
ATOM     89  C   UNL     1      14.374 -10.202  11.884  1.00  0.00     0.091 A 
ATOM     90  F   UNL     1      12.412 -11.116  10.880  1.00  0.00    -0.205 F 
ATOM     91  C   UNL     1      15.171  -9.079  12.161  1.00  0.00     0.022 A 
BRANCH  89  92
ATOM     92  S   UNL     1      14.945 -11.788  12.505  1.00  0.00     0.127 S 
ATOM     93  O   UNL     1      16.059 -12.077  11.603  1.00  0.00    -0.237 OA
ATOM     94  O   UNL     1      15.340 -11.460  13.876  1.00  0.00    -0.237 OA
ATOM     95  O   UNL     1      13.808 -12.692  12.405  1.00  0.00    -0.744 OA
ENDBRANCH  89  92
ENDBRANCH  62  85
ENDBRANCH  36  37
ENDBRANCH  28  31
ENDBRANCH  26  27
ENDBRANCH  25  26
ENDBRANCH   1  25
TORSDOF 17
