REMARK SMILES Cc1ccc(NC(=O)C[N@H+]2CC[C@@H](C(=O)NCCCNC(=O)c3ccc(-c4c5nc(c(-c6cccc(S(=O)(=O)[O-])c6F)c6ccc([nH]6)c(-c6cccc(S(=O)(=O)[O-])c6F)c6nc(c(-c7cccc(S(=O)(=O)[O-])c7F)c7ccc4[nH]7)C=C6)C=C5)cc3)[C@@H]2C)cc1
REMARK SMILES IDX 18 1 17 2 16 3 14 4 15 5 13 7 10 8 11 9 86 10 12 12 87 13
REMARK SMILES IDX 9 14 7 15 6 16 8 18 5 19 1 20 2 21 3 22 89 23 4 24 88 25
REMARK SMILES IDX 19 26 20 27 21 28 22 30 23 31 24 32 85 33 25 34 84 35 26 36
REMARK SMILES IDX 27 37 28 38 78 39 29 40 83 41 77 42 79 43 30 44 82 45 76 46
REMARK SMILES IDX 75 47 31 49 63 50 43 51 62 52 44 53 47 54 61 55 80 56 45 57
REMARK SMILES IDX 46 58 60 60 81 61 48 62 32 63 33 64 41 65 34 66 36 67 42 68
REMARK SMILES IDX 35 69 37 70 38 71 39 72 40 73 64 74 65 75 73 76 66 77 68 78
REMARK SMILES IDX 74 79 67 80 69 81 70 82 71 83 72 84 49 85 50 86 58 87 51 88
REMARK SMILES IDX 53 89 59 90 52 91 54 92 55 93 56 94 57 95
REMARK H PARENT 16 6 10 11 6 17 20 29 79 48 47 59
REMARK Flexibility Score: inf
ROOT
ATOM      1  C   UNL     1      -2.272  -3.091   2.314  1.00  0.00     0.042 C 
ENDROOT
BRANCH   1   2
ATOM      2  C   UNL     1      -1.337  -2.070   1.650  1.00  0.00     0.117 C 
BRANCH   2   3
ATOM      3  N   UNL     1      -0.035  -2.561   1.181  1.00  0.00    -0.356 N 
ATOM      4  C   UNL     1       0.511  -2.742  -0.062  1.00  0.00     0.229 C 
ATOM      5  O   UNL     1       1.746  -2.642  -0.126  1.00  0.00    -0.275 OA
ATOM      6  H   UNL     1       0.573  -2.812   1.914  1.00  0.00     0.163 HD
BRANCH   4   7
ATOM      7  C   UNL     1      -0.239  -3.144  -1.355  1.00  0.00     0.142 C 
ATOM      8  N   UNL     1      -2.456  -2.574  -1.689  1.00  0.00    -0.324 N 
ATOM      9  C   UNL     1      -1.856  -1.950  -2.834  1.00  0.00     0.263 C 
ATOM     10  C   UNL     1      -1.646  -3.680  -1.177  1.00  0.00     0.194 C 
ATOM     11  H   UNL     1      -3.404  -2.836  -1.959  1.00  0.00     0.348 HD
ATOM     12  C   UNL     1      -0.352  -2.222  -2.608  1.00  0.00     0.081 C 
ATOM     13  C   UNL     1      -1.722  -4.984  -1.991  1.00  0.00     0.076 C 
BRANCH   8  14
ATOM     14  C   UNL     1      -3.590  -2.029  -0.959  1.00  0.00     0.364 C 
BRANCH  14  15
ATOM     15  C   UNL     1      -3.909  -0.505  -0.790  1.00  0.00     0.279 C 
ATOM     16  N   UNL     1      -3.177   0.570  -0.356  1.00  0.00    -0.321 N 
ATOM     17  H   UNL     1      -3.776   1.298  -0.070  1.00  0.00     0.170 HD
ATOM     18  O   UNL     1      -5.120  -0.213  -0.915  1.00  0.00    -0.268 OA
BRANCH  16  19
ATOM     19  C   UNL     1      -1.829   0.952  -0.194  1.00  0.00     0.041 A 
ATOM     20  C   UNL     1       2.390   1.946   0.237  1.00  0.00     0.044 C 
ATOM     21  C   UNL     1       0.924   1.700   0.047  1.00  0.00    -0.051 A 
ATOM     22  C   UNL     1       0.550   0.486  -0.487  1.00  0.00     0.005 A 
ATOM     23  C   UNL     1      -0.095   2.563   0.459  1.00  0.00     0.005 A 
ATOM     24  C   UNL     1      -0.797   0.147  -0.580  1.00  0.00     0.026 A 
ATOM     25  C   UNL     1      -1.462   2.197   0.326  1.00  0.00     0.026 A 
ENDBRANCH  16  19
ENDBRANCH  14  15
ENDBRANCH   8  14
ENDBRANCH   4   7
ENDBRANCH   2   3
ENDBRANCH   1   2
BRANCH   1  26
ATOM     26  C   UNL     1      -2.527  -2.860   3.793  1.00  0.00     0.118 C 
BRANCH  26  27
ATOM     27  N   UNL     1      -3.285  -1.620   4.058  1.00  0.00    -0.352 N 
ATOM     28  C   UNL     1      -3.438  -0.918   5.254  1.00  0.00     0.251 C 
ATOM     29  H   UNL     1      -3.748  -1.235   3.279  1.00  0.00     0.163 HD
ATOM     30  O   UNL     1      -4.431  -0.241   5.433  1.00  0.00    -0.269 OA
BRANCH  28  31
ATOM     31  C   UNL     1      -2.341  -0.987   6.239  1.00  0.00     0.039 A 
ATOM     32  C   UNL     1      -2.451  -0.748   7.614  1.00  0.00     0.014 A 
ATOM     33  C   UNL     1      -1.105  -1.255   5.688  1.00  0.00     0.014 A 
ATOM     34  C   UNL     1      -1.285  -0.759   8.386  1.00  0.00     0.010 A 
ATOM     35  C   UNL     1      -0.103  -1.684   6.478  1.00  0.00     0.010 A 
ATOM     36  C   UNL     1      -0.115  -1.194   7.774  1.00  0.00    -0.014 A 
BRANCH  36  37
ATOM     37  C   UNL     1       1.252  -1.044   8.230  1.00  0.00     0.031 A 
ATOM     38  C   UNL     1       1.810  -2.039   9.144  1.00  0.00     0.074 A 
ATOM     39  C   UNL     1       2.007  -0.322   7.360  1.00  0.00     0.049 A 
ATOM     40  N   UNL     1       2.949  -1.924   9.723  1.00  0.00    -0.248 NA
ATOM     41  C   UNL     1       1.111  -3.280   9.463  1.00  0.00     0.031 C 
ATOM     42  C   UNL     1       3.411  -0.482   7.019  1.00  0.00     0.029 A 
ATOM     43  N   UNL     1       1.594   0.689   6.475  1.00  0.00    -0.354 N 
ATOM     44  C   UNL     1       3.283  -3.182  10.185  1.00  0.00     0.074 A 
ATOM     45  C   UNL     1       2.048  -3.928  10.161  1.00  0.00     0.031 C 
ATOM     46  C   UNL     1       3.792   0.572   6.270  1.00  0.00     0.029 A 
ATOM     47  C   UNL     1       2.689   1.524   6.273  1.00  0.00     0.049 A 
ATOM     48  H   UNL     1       0.701   0.787   6.074  1.00  0.00     0.167 HD
ATOM     49  C   UNL     1       4.604  -3.490  10.322  1.00  0.00     0.034 A 
ATOM     50  C   UNL     1       2.720   2.783   6.812  1.00  0.00     0.034 A 
ATOM     51  C   UNL     1       5.431  -2.342   9.887  1.00  0.00     0.049 A 
ATOM     52  C   UNL     1       3.755   2.880   7.922  1.00  0.00     0.074 A 
ATOM     53  C   UNL     1       6.114  -2.084   8.709  1.00  0.00     0.029 A 
ATOM     54  N   UNL     1       5.350  -1.127  10.563  1.00  0.00    -0.354 N 
ATOM     55  N   UNL     1       4.374   1.845   8.423  1.00  0.00    -0.248 NA
ATOM     56  C   UNL     1       4.198   4.124   8.544  1.00  0.00     0.031 C 
ATOM     57  C   UNL     1       6.344  -0.681   8.634  1.00  0.00     0.029 A 
ATOM     58  C   UNL     1       5.833  -0.087   9.777  1.00  0.00     0.049 A 
ATOM     59  H   UNL     1       4.997  -1.018  11.475  1.00  0.00     0.167 HD
ATOM     60  C   UNL     1       5.173   2.216   9.461  1.00  0.00     0.074 A 
ATOM     61  C   UNL     1       5.080   3.668   9.454  1.00  0.00     0.031 C 
ATOM     62  C   UNL     1       5.796   1.294  10.262  1.00  0.00     0.034 A 
BRANCH  49  63
ATOM     63  C   UNL     1       5.202  -4.879  10.530  1.00  0.00     0.023 A 
ATOM     64  C   UNL     1       6.601  -5.000  10.351  1.00  0.00     0.012 A 
ATOM     65  C   UNL     1       4.529  -6.079  10.868  1.00  0.00     0.148 A 
ATOM     66  C   UNL     1       7.275  -6.224  10.424  1.00  0.00     0.002 A 
ATOM     67  C   UNL     1       5.194  -7.311  10.913  1.00  0.00     0.091 A 
ATOM     68  F   UNL     1       3.244  -6.053  11.215  1.00  0.00    -0.205 F 
ATOM     69  C   UNL     1       6.569  -7.386  10.686  1.00  0.00     0.022 A 
BRANCH  67  70
ATOM     70  S   UNL     1       4.344  -8.869  11.238  1.00  0.00     0.127 S 
ATOM     71  O   UNL     1       4.741  -9.682  10.087  1.00  0.00    -0.237 OA
ATOM     72  O   UNL     1       4.934  -9.288  12.509  1.00  0.00    -0.237 OA
ATOM     73  O   UNL     1       2.920  -8.561  11.287  1.00  0.00    -0.744 OA
ENDBRANCH  67  70
ENDBRANCH  49  63
BRANCH  50  74
ATOM     74  C   UNL     1       1.378   3.457   6.772  1.00  0.00     0.023 A 
ATOM     75  C   UNL     1       0.873   3.746   5.479  1.00  0.00     0.012 A 
ATOM     76  C   UNL     1       0.466   3.354   7.842  1.00  0.00     0.148 A 
ATOM     77  C   UNL     1      -0.500   3.736   5.224  1.00  0.00     0.002 A 
ATOM     78  C   UNL     1      -0.907   3.352   7.578  1.00  0.00     0.091 A 
ATOM     79  F   UNL     1       0.947   3.172   9.078  1.00  0.00    -0.205 F 
ATOM     80  C   UNL     1      -1.387   3.488   6.265  1.00  0.00     0.022 A 
BRANCH  78  81
ATOM     81  S   UNL     1      -2.123   3.052   8.872  1.00  0.00     0.127 S 
ATOM     82  O   UNL     1      -2.492   4.414   9.246  1.00  0.00    -0.237 OA
ATOM     83  O   UNL     1      -3.167   2.309   8.169  1.00  0.00    -0.237 OA
ATOM     84  O   UNL     1      -1.417   2.276   9.881  1.00  0.00    -0.744 OA
ENDBRANCH  78  81
ENDBRANCH  50  74
BRANCH  62  85
ATOM     85  C   UNL     1       6.439   1.621  11.592  1.00  0.00     0.023 A 
ATOM     86  C   UNL     1       6.067   2.755  12.340  1.00  0.00     0.012 A 
ATOM     87  C   UNL     1       7.326   0.707  12.214  1.00  0.00     0.148 A 
ATOM     88  C   UNL     1       6.606   3.014  13.603  1.00  0.00     0.002 A 
ATOM     89  C   UNL     1       7.754   0.903  13.522  1.00  0.00     0.091 A 
ATOM     90  F   UNL     1       7.779  -0.357  11.536  1.00  0.00    -0.205 F 
ATOM     91  C   UNL     1       7.431   2.075  14.206  1.00  0.00     0.022 A 
BRANCH  89  92
ATOM     92  S   UNL     1       8.588  -0.408  14.427  1.00  0.00     0.127 S 
ATOM     93  O   UNL     1       9.993  -0.062  14.234  1.00  0.00    -0.237 OA
ATOM     94  O   UNL     1       8.092  -0.210  15.791  1.00  0.00    -0.237 OA
ATOM     95  O   UNL     1       8.137  -1.645  13.805  1.00  0.00    -0.744 OA
ENDBRANCH  89  92
ENDBRANCH  62  85
ENDBRANCH  36  37
ENDBRANCH  28  31
ENDBRANCH  26  27
ENDBRANCH   1  26
TORSDOF 16
