REMARK SMILES COc1ccc(Cl)c2sc(N3CC(C(=O)NCCCNC(=O)c4ccc(-c5c6nc(c(-c7cccc(S(=O)(=O)[O-])c7F)c7ccc([nH]7)c(-c7cccc(S(=O)(=O)[O-])c7F)c7nc(c(-c8cccc(S(=O)(=O)[O-])c8F)c8ccc5[nH]8)C=C7)C=C6)cc4)C3)nc12
REMARK SMILES IDX 18 1 17 2 16 3 14 4 15 5 13 7 11 8 12 9 86 10 10 11 3 12
REMARK SMILES IDX 4 13 88 14 5 15 8 16 87 17 6 18 9 19 7 20 2 21 1 22 19 23
REMARK SMILES IDX 20 24 21 25 22 27 23 28 24 29 85 30 25 31 84 32 26 33 27 34
REMARK SMILES IDX 28 35 78 36 29 37 83 38 77 39 79 40 30 41 82 42 76 43 75 44
REMARK SMILES IDX 31 46 63 47 43 48 62 49 44 50 47 51 61 52 80 53 45 54 46 55
REMARK SMILES IDX 60 57 81 58 48 59 32 60 33 61 41 62 34 63 36 64 42 65 35 66
REMARK SMILES IDX 37 67 38 68 39 69 40 70 64 71 65 72 73 73 66 74 68 75 74 76
REMARK SMILES IDX 67 77 69 78 70 79 71 80 72 81 49 82 50 83 58 84 51 85 53 86
REMARK SMILES IDX 59 87 52 88 54 89 55 90 56 91 57 92
REMARK H PARENT 16 6 20 26 79 45 47 56
REMARK Flexibility Score: inf
ROOT
ATOM      1  C   UNL     1      -5.270   4.496   7.736  1.00  0.00     0.042 C 
ENDROOT
BRANCH   1   2
ATOM      2  C   UNL     1      -5.652   3.469   6.670  1.00  0.00     0.117 C 
BRANCH   2   3
ATOM      3  N   UNL     1      -6.527   4.017   5.649  1.00  0.00    -0.356 N 
ATOM      4  C   UNL     1      -6.323   4.237   4.309  1.00  0.00     0.226 C 
ATOM      5  O   UNL     1      -7.308   4.641   3.674  1.00  0.00    -0.275 OA
ATOM      6  H   UNL     1      -7.420   4.276   5.973  1.00  0.00     0.163 HD
BRANCH   4   7
ATOM      7  C   UNL     1      -4.980   4.004   3.624  1.00  0.00     0.117 C 
ATOM      8  N   UNL     1      -3.154   3.185   4.115  1.00  0.00    -0.346 N 
ATOM      9  C   UNL     1      -4.346   2.615   3.587  1.00  0.00     0.134 C 
ATOM     10  C   UNL     1      -3.674   4.511   4.228  1.00  0.00     0.134 C 
BRANCH   8  11
ATOM     11  C   UNL     1      -1.867   2.840   3.904  1.00  0.00     0.186 A 
ATOM     12  C   UNL     1       0.829   1.419   1.982  1.00  0.00     0.146 A 
ATOM     13  C   UNL     1       2.190   1.241   2.280  1.00  0.00     0.050 A 
ATOM     14  C   UNL     1      -0.024   2.003   2.962  1.00  0.00     0.127 A 
ATOM     15  C   UNL     1       2.703   1.608   3.520  1.00  0.00     0.026 A 
ATOM     16  C   UNL     1       0.530   2.418   4.177  1.00  0.00     0.079 A 
ATOM     17  N   UNL     1      -1.401   2.203   2.854  1.00  0.00    -0.216 NA
ATOM     18  C   UNL     1       1.885   2.205   4.479  1.00  0.00     0.060 A 
ATOM     19  S   UNL     1      -0.689   3.200   5.105  1.00  0.00    -0.095 S 
ATOM     20  Cl  UNL     1       2.571   2.662   5.991  1.00  0.00    -0.083 Cl
BRANCH  12  21
ATOM     21  O   UNL     1       0.298   1.131   0.747  1.00  0.00    -0.494 OA
ATOM     22  C   UNL     1       0.845   0.000   0.079  1.00  0.00     0.278 C 
ENDBRANCH  12  21
ENDBRANCH   8  11
ENDBRANCH   4   7
ENDBRANCH   2   3
ENDBRANCH   1   2
BRANCH   1  23
ATOM     23  C   UNL     1      -6.432   4.822   8.660  1.00  0.00     0.118 C 
BRANCH  23  24
ATOM     24  N   UNL     1      -6.792   3.690   9.514  1.00  0.00    -0.352 N 
ATOM     25  C   UNL     1      -7.578   3.698  10.640  1.00  0.00     0.251 C 
ATOM     26  H   UNL     1      -6.426   2.816   9.249  1.00  0.00     0.163 HD
ATOM     27  O   UNL     1      -7.558   2.740  11.418  1.00  0.00    -0.269 OA
BRANCH  25  28
ATOM     28  C   UNL     1      -8.458   4.846  10.896  1.00  0.00     0.039 A 
ATOM     29  C   UNL     1      -8.654   5.319  12.198  1.00  0.00     0.014 A 
ATOM     30  C   UNL     1      -9.123   5.428   9.814  1.00  0.00     0.014 A 
ATOM     31  C   UNL     1      -9.495   6.406  12.398  1.00  0.00     0.010 A 
ATOM     32  C   UNL     1      -9.865   6.564   9.994  1.00  0.00     0.010 A 
ATOM     33  C   UNL     1     -10.094   7.014  11.287  1.00  0.00    -0.014 A 
BRANCH  33  34
ATOM     34  C   UNL     1     -10.900   8.210  11.439  1.00  0.00     0.031 A 
ATOM     35  C   UNL     1     -10.129   9.408  11.864  1.00  0.00     0.074 A 
ATOM     36  C   UNL     1     -12.171   8.262  10.991  1.00  0.00     0.049 A 
ATOM     37  N   UNL     1     -10.199  10.028  12.995  1.00  0.00    -0.248 NA
ATOM     38  C   UNL     1      -9.038   9.879  10.993  1.00  0.00     0.031 C 
ATOM     39  C   UNL     1     -12.917   7.243  10.242  1.00  0.00     0.029 A 
ATOM     40  N   UNL     1     -13.025   9.316  10.989  1.00  0.00    -0.354 N 
ATOM     41  C   UNL     1      -9.336  11.115  12.877  1.00  0.00     0.074 A 
ATOM     42  C   UNL     1      -8.504  10.853  11.732  1.00  0.00     0.031 C 
ATOM     43  C   UNL     1     -13.992   7.817   9.655  1.00  0.00     0.029 A 
ATOM     44  C   UNL     1     -14.093   9.193  10.104  1.00  0.00     0.049 A 
ATOM     45  H   UNL     1     -12.900  10.104  11.565  1.00  0.00     0.167 HD
ATOM     46  C   UNL     1      -9.547  12.270  13.566  1.00  0.00     0.034 A 
ATOM     47  C   UNL     1     -14.938  10.188   9.733  1.00  0.00     0.034 A 
ATOM     48  C   UNL     1     -10.518  12.096  14.613  1.00  0.00     0.049 A 
ATOM     49  C   UNL     1     -14.843  11.225  10.793  1.00  0.00     0.074 A 
ATOM     50  C   UNL     1     -10.610  11.280  15.723  1.00  0.00     0.029 A 
ATOM     51  N   UNL     1     -11.798  12.523  14.349  1.00  0.00    -0.354 N 
ATOM     52  N   UNL     1     -15.205  11.023  12.031  1.00  0.00    -0.248 NA
ATOM     53  C   UNL     1     -13.913  12.323  10.580  1.00  0.00     0.031 C 
ATOM     54  C   UNL     1     -11.973  10.861  15.750  1.00  0.00     0.029 A 
ATOM     55  C   UNL     1     -12.643  11.506  14.707  1.00  0.00     0.049 A 
ATOM     56  H   UNL     1     -12.058  13.395  13.973  1.00  0.00     0.167 HD
ATOM     57  C   UNL     1     -14.225  11.655  12.784  1.00  0.00     0.074 A 
ATOM     58  C   UNL     1     -13.509  12.513  11.839  1.00  0.00     0.031 C 
ATOM     59  C   UNL     1     -13.883  11.205  14.026  1.00  0.00     0.034 A 
BRANCH  46  60
ATOM     60  C   UNL     1      -9.156  13.639  13.075  1.00  0.00     0.023 A 
ATOM     61  C   UNL     1      -9.168  14.701  14.003  1.00  0.00     0.012 A 
ATOM     62  C   UNL     1      -9.035  13.977  11.708  1.00  0.00     0.148 A 
ATOM     63  C   UNL     1      -9.078  16.034  13.589  1.00  0.00     0.002 A 
ATOM     64  C   UNL     1      -8.868  15.296  11.307  1.00  0.00     0.091 A 
ATOM     65  F   UNL     1      -9.218  13.039  10.773  1.00  0.00    -0.205 F 
ATOM     66  C   UNL     1      -8.913  16.332  12.241  1.00  0.00     0.022 A 
BRANCH  64  67
ATOM     67  S   UNL     1      -8.621  15.729   9.581  1.00  0.00     0.127 S 
ATOM     68  O   UNL     1      -9.914  16.317   9.240  1.00  0.00    -0.237 OA
ATOM     69  O   UNL     1      -7.510  16.677   9.666  1.00  0.00    -0.237 OA
ATOM     70  O   UNL     1      -8.287  14.479   8.911  1.00  0.00    -0.744 OA
ENDBRANCH  64  67
ENDBRANCH  46  60
BRANCH  47  71
ATOM     71  C   UNL     1     -15.587  10.467   8.422  1.00  0.00     0.023 A 
ATOM     72  C   UNL     1     -16.573  11.475   8.346  1.00  0.00     0.012 A 
ATOM     73  C   UNL     1     -15.053   9.980   7.207  1.00  0.00     0.148 A 
ATOM     74  C   UNL     1     -16.966  12.022   7.116  1.00  0.00     0.002 A 
ATOM     75  C   UNL     1     -15.456  10.519   5.986  1.00  0.00     0.091 A 
ATOM     76  F   UNL     1     -14.082   9.061   7.246  1.00  0.00    -0.205 F 
ATOM     77  C   UNL     1     -16.398  11.553   5.937  1.00  0.00     0.022 A 
BRANCH  75  78
ATOM     78  S   UNL     1     -14.758   9.965   4.422  1.00  0.00     0.127 S 
ATOM     79  O   UNL     1     -15.951   9.836   3.583  1.00  0.00    -0.237 OA
ATOM     80  O   UNL     1     -13.880  11.076   4.071  1.00  0.00    -0.237 OA
ATOM     81  O   UNL     1     -14.096   8.699   4.713  1.00  0.00    -0.744 OA
ENDBRANCH  75  78
ENDBRANCH  47  71
BRANCH  59  82
ATOM     82  C   UNL     1     -14.714  10.111  14.651  1.00  0.00     0.023 A 
ATOM     83  C   UNL     1     -14.661   8.777  14.190  1.00  0.00     0.012 A 
ATOM     84  C   UNL     1     -15.343  10.383  15.874  1.00  0.00     0.148 A 
ATOM     85  C   UNL     1     -15.214   7.736  14.944  1.00  0.00     0.002 A 
ATOM     86  C   UNL     1     -15.857   9.343  16.638  1.00  0.00     0.091 A 
ATOM     87  F   UNL     1     -15.363  11.655  16.300  1.00  0.00    -0.205 F 
ATOM     88  C   UNL     1     -15.797   8.018  16.177  1.00  0.00     0.022 A 
BRANCH  86  89
ATOM     89  S   UNL     1     -16.513   9.614  18.285  1.00  0.00     0.127 S 
ATOM     90  O   UNL     1     -17.912   9.223  18.125  1.00  0.00    -0.237 OA
ATOM     91  O   UNL     1     -15.709   8.696  19.092  1.00  0.00    -0.237 OA
ATOM     92  O   UNL     1     -16.298  11.025  18.584  1.00  0.00    -0.744 OA
ENDBRANCH  86  89
ENDBRANCH  59  82
ENDBRANCH  33  34
ENDBRANCH  25  28
ENDBRANCH  23  24
ENDBRANCH   1  23
TORSDOF 15
