REMARK SMILES Cc1sc(-c2ccco2)nc1C(=O)N[C@@H](C(=O)NCCCNC(=O)c1ccc(-c2c3nc(c(-c4cccc(S(=O)(=O)[O-])c4F)c4ccc([nH]4)c(-c4cccc(S(=O)(=O)[O-])c4F)c4nc(c(-c5cccc(S(=O)(=O)[O-])c5F)c5ccc2[nH]5)C=C4)C=C3)cc1)C(C)C
REMARK SMILES IDX 20 1 19 2 18 3 16 4 17 5 15 7 14 8 12 9 13 10 11 12 1 13
REMARK SMILES IDX 2 14 3 15 4 16 10 17 5 18 6 19 9 20 7 21 8 22 88 23 89 24
REMARK SMILES IDX 90 25 21 26 22 27 23 28 24 30 25 31 26 32 87 33 27 34 86 35
REMARK SMILES IDX 28 36 29 37 30 38 80 39 31 40 85 41 79 42 81 43 32 44 84 45
REMARK SMILES IDX 78 46 77 47 33 49 65 50 45 51 64 52 46 53 49 54 63 55 82 56
REMARK SMILES IDX 47 57 48 58 62 60 83 61 50 62 34 63 35 64 43 65 36 66 38 67
REMARK SMILES IDX 44 68 37 69 39 70 40 71 41 72 42 73 66 74 67 75 75 76 68 77
REMARK SMILES IDX 70 78 76 79 69 80 71 81 72 82 73 83 74 84 51 85 52 86 60 87
REMARK SMILES IDX 53 88 55 89 61 90 54 91 56 92 57 93 58 94 59 95
REMARK H PARENT 18 6 14 11 22 29 81 48 49 59
REMARK Flexibility Score: inf
ROOT
ATOM      1  C   UNL     1       0.995  -2.960   3.367  1.00  0.00     0.042 C 
ENDROOT
BRANCH   1   2
ATOM      2  C   UNL     1       1.973  -1.981   2.739  1.00  0.00     0.117 C 
BRANCH   2   3
ATOM      3  N   UNL     1       3.211  -2.623   2.342  1.00  0.00    -0.354 N 
ATOM      4  C   UNL     1       3.683  -2.940   1.098  1.00  0.00     0.242 C 
ATOM      5  O   UNL     1       4.780  -3.497   1.042  1.00  0.00    -0.273 OA
ATOM      6  H   UNL     1       3.806  -2.870   3.086  1.00  0.00     0.163 HD
BRANCH   4   7
ATOM      7  C   UNL     1       2.926  -2.461  -0.170  1.00  0.00     0.174 C 
BRANCH   7   8
ATOM      8  N   UNL     1       1.568  -2.966  -0.187  1.00  0.00    -0.339 N 
ATOM      9  C   UNL     1       0.323  -2.393  -0.214  1.00  0.00     0.271 C 
ATOM     10  O   UNL     1      -0.583  -3.235  -0.227  1.00  0.00    -0.267 OA
ATOM     11  H   UNL     1       1.531  -3.950  -0.177  1.00  0.00     0.164 HD
BRANCH   9  12
ATOM     12  C   UNL     1      -0.019  -0.937  -0.220  1.00  0.00     0.142 A 
ATOM     13  C   UNL     1       2.105   0.692   0.117  1.00  0.00     0.059 C 
ATOM     14  C   UNL     1       0.699   0.267  -0.138  1.00  0.00     0.035 A 
ATOM     15  S   UNL     1      -0.373   1.609  -0.405  1.00  0.00    -0.115 S 
ATOM     16  C   UNL     1      -1.708   0.579  -0.281  1.00  0.00     0.160 A 
ATOM     17  N   UNL     1      -1.418  -0.694  -0.218  1.00  0.00    -0.227 NA
BRANCH  16  18
ATOM     18  C   UNL     1      -3.030   1.111  -0.176  1.00  0.00     0.162 A 
ATOM     19  C   UNL     1      -4.012   0.788   0.747  1.00  0.00     0.053 A 
ATOM     20  O   UNL     1      -3.493   2.132  -0.970  1.00  0.00    -0.462 OA
ATOM     21  C   UNL     1      -5.103   1.661   0.518  1.00  0.00     0.043 A 
ATOM     22  C   UNL     1      -4.745   2.441  -0.554  1.00  0.00     0.196 A 
ENDBRANCH  16  18
ENDBRANCH   9  12
ENDBRANCH   7   8
BRANCH   7  23
ATOM     23  C   UNL     1       3.693  -2.757  -1.481  1.00  0.00     0.015 C 
ATOM     24  C   UNL     1       2.815  -2.577  -2.727  1.00  0.00     0.010 C 
ATOM     25  C   UNL     1       4.901  -1.813  -1.604  1.00  0.00     0.010 C 
ENDBRANCH   7  23
ENDBRANCH   4   7
ENDBRANCH   2   3
ENDBRANCH   1   2
BRANCH   1  26
ATOM     26  C   UNL     1       1.383  -3.329   4.790  1.00  0.00     0.118 C 
BRANCH  26  27
ATOM     27  N   UNL     1       1.289  -2.191   5.699  1.00  0.00    -0.352 N 
ATOM     28  C   UNL     1       0.700  -2.112   6.933  1.00  0.00     0.251 C 
ATOM     29  H   UNL     1       1.710  -1.361   5.379  1.00  0.00     0.163 HD
ATOM     30  O   UNL     1       0.571  -1.010   7.470  1.00  0.00    -0.269 OA
BRANCH  28  31
ATOM     31  C   UNL     1       0.215  -3.332   7.606  1.00  0.00     0.039 A 
ATOM     32  C   UNL     1      -0.989  -3.282   8.312  1.00  0.00     0.014 A 
ATOM     33  C   UNL     1       0.953  -4.519   7.559  1.00  0.00     0.014 A 
ATOM     34  C   UNL     1      -1.467  -4.431   8.944  1.00  0.00     0.010 A 
ATOM     35  C   UNL     1       0.427  -5.683   8.104  1.00  0.00     0.010 A 
ATOM     36  C   UNL     1      -0.771  -5.646   8.831  1.00  0.00    -0.014 A 
BRANCH  36  37
ATOM     37  C   UNL     1      -1.253  -6.876   9.504  1.00  0.00     0.031 A 
ATOM     38  C   UNL     1      -0.404  -7.534  10.561  1.00  0.00     0.074 A 
ATOM     39  C   UNL     1      -2.414  -7.439   9.120  1.00  0.00     0.049 A 
ATOM     40  N   UNL     1      -0.630  -8.631  11.236  1.00  0.00    -0.248 NA
ATOM     41  C   UNL     1       0.884  -6.893  10.880  1.00  0.00     0.031 C 
ATOM     42  C   UNL     1      -3.283  -6.944   8.049  1.00  0.00     0.029 A 
ATOM     43  N   UNL     1      -3.054  -8.565   9.573  1.00  0.00    -0.354 N 
ATOM     44  C   UNL     1       0.499  -8.833  12.022  1.00  0.00     0.074 A 
ATOM     45  C   UNL     1       1.428  -7.771  11.710  1.00  0.00     0.031 C 
ATOM     46  C   UNL     1      -4.347  -7.756   7.936  1.00  0.00     0.029 A 
ATOM     47  C   UNL     1      -4.225  -8.839   8.906  1.00  0.00     0.049 A 
ATOM     48  H   UNL     1      -2.708  -9.123  10.306  1.00  0.00     0.167 HD
ATOM     49  C   UNL     1       0.729  -9.793  12.949  1.00  0.00     0.034 A 
ATOM     50  C   UNL     1      -5.100  -9.851   9.062  1.00  0.00     0.034 A 
ATOM     51  C   UNL     1      -0.219 -10.816  13.293  1.00  0.00     0.049 A 
ATOM     52  C   UNL     1      -4.852 -10.867  10.144  1.00  0.00     0.074 A 
ATOM     53  C   UNL     1      -0.121 -11.788  14.273  1.00  0.00     0.029 A 
ATOM     54  N   UNL     1      -1.442 -11.001  12.667  1.00  0.00    -0.354 N 
ATOM     55  N   UNL     1      -3.848 -10.954  10.983  1.00  0.00    -0.248 NA
ATOM     56  C   UNL     1      -5.882 -11.899  10.332  1.00  0.00     0.031 C 
ATOM     57  C   UNL     1      -1.278 -12.573  14.226  1.00  0.00     0.029 A 
ATOM     58  C   UNL     1      -2.111 -12.069  13.240  1.00  0.00     0.049 A 
ATOM     59  H   UNL     1      -1.785 -10.454  11.924  1.00  0.00     0.167 HD
ATOM     60  C   UNL     1      -4.147 -12.017  11.827  1.00  0.00     0.074 A 
ATOM     61  C   UNL     1      -5.435 -12.531  11.409  1.00  0.00     0.031 C 
ATOM     62  C   UNL     1      -3.418 -12.530  12.850  1.00  0.00     0.034 A 
BRANCH  49  63
ATOM     63  C   UNL     1       2.039  -9.746  13.693  1.00  0.00     0.023 A 
ATOM     64  C   UNL     1       2.279  -8.709  14.619  1.00  0.00     0.012 A 
ATOM     65  C   UNL     1       3.014 -10.747  13.513  1.00  0.00     0.148 A 
ATOM     66  C   UNL     1       3.482  -8.644  15.321  1.00  0.00     0.002 A 
ATOM     67  C   UNL     1       4.190 -10.703  14.253  1.00  0.00     0.091 A 
ATOM     68  F   UNL     1       2.780 -11.713  12.613  1.00  0.00    -0.205 F 
ATOM     69  C   UNL     1       4.431  -9.646  15.146  1.00  0.00     0.022 A 
BRANCH  67  70
ATOM     70  S   UNL     1       5.439 -11.990  14.164  1.00  0.00     0.127 S 
ATOM     71  O   UNL     1       6.530 -11.295  13.482  1.00  0.00    -0.237 OA
ATOM     72  O   UNL     1       5.688 -12.275  15.578  1.00  0.00    -0.237 OA
ATOM     73  O   UNL     1       4.836 -13.087  13.421  1.00  0.00    -0.744 OA
ENDBRANCH  67  70
ENDBRANCH  49  63
BRANCH  50  74
ATOM     74  C   UNL     1      -6.335  -9.906   8.230  1.00  0.00     0.023 A 
ATOM     75  C   UNL     1      -7.585  -9.655   8.830  1.00  0.00     0.012 A 
ATOM     76  C   UNL     1      -6.279 -10.186   6.852  1.00  0.00     0.148 A 
ATOM     77  C   UNL     1      -8.760  -9.723   8.082  1.00  0.00     0.002 A 
ATOM     78  C   UNL     1      -7.448 -10.198   6.101  1.00  0.00     0.091 A 
ATOM     79  F   UNL     1      -5.081 -10.428   6.302  1.00  0.00    -0.205 F 
ATOM     80  C   UNL     1      -8.692  -9.986   6.717  1.00  0.00     0.022 A 
BRANCH  78  81
ATOM     81  S   UNL     1      -7.447 -10.405   4.317  1.00  0.00     0.127 S 
ATOM     82  O   UNL     1      -8.042 -11.731   4.169  1.00  0.00    -0.237 OA
ATOM     83  O   UNL     1      -8.298  -9.295   3.885  1.00  0.00    -0.237 OA
ATOM     84  O   UNL     1      -6.054 -10.287   3.909  1.00  0.00    -0.744 OA
ENDBRANCH  78  81
ENDBRANCH  50  74
BRANCH  62  85
ATOM     85  C   UNL     1      -4.020 -13.670  13.630  1.00  0.00     0.023 A 
ATOM     86  C   UNL     1      -4.139 -14.945  13.043  1.00  0.00     0.012 A 
ATOM     87  C   UNL     1      -4.419 -13.485  14.968  1.00  0.00     0.148 A 
ATOM     88  C   UNL     1      -4.689 -16.006  13.761  1.00  0.00     0.002 A 
ATOM     89  C   UNL     1      -4.915 -14.560  15.695  1.00  0.00     0.091 A 
ATOM     90  F   UNL     1      -4.316 -12.260  15.505  1.00  0.00    -0.205 F 
ATOM     91  C   UNL     1      -5.066 -15.817  15.088  1.00  0.00     0.022 A 
BRANCH  89  92
ATOM     92  S   UNL     1      -5.326 -14.426  17.438  1.00  0.00     0.127 S 
ATOM     93  O   UNL     1      -6.786 -14.366  17.397  1.00  0.00    -0.237 OA
ATOM     94  O   UNL     1      -4.782 -15.671  17.984  1.00  0.00    -0.237 OA
ATOM     95  O   UNL     1      -4.660 -13.221  17.912  1.00  0.00    -0.744 OA
ENDBRANCH  89  92
ENDBRANCH  62  85
ENDBRANCH  36  37
ENDBRANCH  28  31
ENDBRANCH  26  27
ENDBRANCH   1  26
TORSDOF 17
