REMARK SMILES CCN(C=O)[C@](C)(C(=O)NCCCNC(=O)c1ccc(-c2c3nc(c(-c4cccc(S(=O)(=O)[O-])c4F)c4ccc([nH]4)c(-c4cccc(S(=O)(=O)[O-])c4F)c4nc(c(-c5cccc(S(=O)(=O)[O-])c5F)c5ccc2[nH]5)C=C4)C=C3)cc1)c1cc(F)c(C)cc1F
REMARK SMILES IDX 12 1 11 2 10 3 8 4 9 5 6 7 7 8 3 9 2 10 1 11 4 12 5 13 80 14
REMARK SMILES IDX 81 15 87 16 82 17 86 18 88 19 83 20 84 21 85 22 13 23 14 24
REMARK SMILES IDX 15 25 16 27 17 28 18 29 79 30 19 31 78 32 20 33 21 34 22 35
REMARK SMILES IDX 72 36 23 37 77 38 71 39 73 40 24 41 76 42 70 43 69 44 25 46
REMARK SMILES IDX 57 47 37 48 56 49 38 50 41 51 55 52 74 53 39 54 40 55 54 57
REMARK SMILES IDX 75 58 42 59 26 60 27 61 35 62 28 63 30 64 36 65 29 66 31 67
REMARK SMILES IDX 32 68 33 69 34 70 58 71 59 72 67 73 60 74 62 75 68 76 61 77
REMARK SMILES IDX 63 78 64 79 65 80 66 81 43 82 44 83 52 84 45 85 47 86 53 87
REMARK SMILES IDX 46 88 48 89 49 90 50 91 51 92
REMARK H PARENT 10 6 14 26 73 45 41 56
REMARK Flexibility Score: inf
ROOT
ATOM      1  C   UNL     1       0.877   0.464   1.127  1.00  0.00     0.042 C 
ENDROOT
BRANCH   1   2
ATOM      2  C   UNL     1       1.993   0.832   0.167  1.00  0.00     0.117 C 
BRANCH   2   3
ATOM      3  N   UNL     1       2.672  -0.337  -0.368  1.00  0.00    -0.354 N 
ATOM      4  C   UNL     1       3.015  -0.659  -1.653  1.00  0.00     0.250 C 
ATOM      5  O   UNL     1       3.795  -1.611  -1.774  1.00  0.00    -0.272 OA
ATOM      6  H   UNL     1       2.926  -1.008   0.306  1.00  0.00     0.163 HD
BRANCH   4   7
ATOM      7  C   UNL     1       2.479   0.167  -2.887  1.00  0.00     0.147 C 
ATOM      8  C   UNL     1       0.921   0.169  -2.803  1.00  0.00     0.051 C 
BRANCH   7   9
ATOM      9  N   UNL     1       3.094   1.535  -2.809  1.00  0.00    -0.327 N 
BRANCH   9  10
ATOM     10  C   UNL     1       4.523   1.680  -2.481  1.00  0.00     0.117 C 
ATOM     11  C   UNL     1       4.793   2.171  -1.067  1.00  0.00     0.027 C 
ENDBRANCH   9  10
BRANCH   9  12
ATOM     12  C   UNL     1       2.458   2.642  -3.352  1.00  0.00     0.341 C 
ATOM     13  O   UNL     1       1.366   2.674  -3.900  1.00  0.00    -0.279 OA
ENDBRANCH   9  12
ENDBRANCH   7   9
BRANCH   7  14
ATOM     14  C   UNL     1       2.816  -0.578  -4.213  1.00  0.00     0.026 A 
ATOM     15  C   UNL     1       2.330  -1.892  -4.409  1.00  0.00     0.049 A 
ATOM     16  C   UNL     1       3.520  -0.007  -5.284  1.00  0.00     0.129 A 
ATOM     17  C   UNL     1       2.509  -2.561  -5.619  1.00  0.00     0.126 A 
ATOM     18  C   UNL     1       3.700  -0.682  -6.496  1.00  0.00     0.046 A 
ATOM     19  F   UNL     1       4.051   1.220  -5.207  1.00  0.00    -0.207 F 
ATOM     20  F   UNL     1       2.007  -3.796  -5.758  1.00  0.00    -0.207 F 
ATOM     21  C   UNL     1       3.176  -1.962  -6.684  1.00  0.00    -0.012 A 
ATOM     22  C   UNL     1       3.320  -2.684  -7.986  1.00  0.00     0.047 C 
ENDBRANCH   7  14
ENDBRANCH   4   7
ENDBRANCH   2   3
ENDBRANCH   1   2
BRANCH   1  23
ATOM     23  C   UNL     1       1.372  -0.249   2.380  1.00  0.00     0.118 C 
BRANCH  23  24
ATOM     24  N   UNL     1       2.362   0.523   3.128  1.00  0.00    -0.352 N 
ATOM     25  C   UNL     1       2.326   0.991   4.422  1.00  0.00     0.251 C 
ATOM     26  H   UNL     1       3.182   0.742   2.629  1.00  0.00     0.163 HD
ATOM     27  O   UNL     1       3.181   1.768   4.816  1.00  0.00    -0.269 OA
BRANCH  25  28
ATOM     28  C   UNL     1       1.233   0.556   5.316  1.00  0.00     0.039 A 
ATOM     29  C   UNL     1       0.580   1.502   6.109  1.00  0.00     0.014 A 
ATOM     30  C   UNL     1       0.839  -0.782   5.342  1.00  0.00     0.014 A 
ATOM     31  C   UNL     1      -0.528   1.114   6.866  1.00  0.00     0.010 A 
ATOM     32  C   UNL     1      -0.322  -1.142   6.009  1.00  0.00     0.010 A 
ATOM     33  C   UNL     1      -1.014  -0.201   6.786  1.00  0.00    -0.014 A 
BRANCH  33  34
ATOM     34  C   UNL     1      -2.239  -0.631   7.505  1.00  0.00     0.031 A 
ATOM     35  C   UNL     1      -2.162  -1.746   8.513  1.00  0.00     0.074 A 
ATOM     36  C   UNL     1      -3.431  -0.100   7.169  1.00  0.00     0.049 A 
ATOM     37  N   UNL     1      -3.128  -2.336   9.167  1.00  0.00    -0.248 NA
ATOM     38  C   UNL     1      -0.826  -2.302   8.790  1.00  0.00     0.031 C 
ATOM     39  C   UNL     1      -3.646   0.924   6.144  1.00  0.00     0.029 A 
ATOM     40  N   UNL     1      -4.692  -0.366   7.639  1.00  0.00    -0.354 N 
ATOM     41  C   UNL     1      -2.526  -3.357   9.892  1.00  0.00     0.074 A 
ATOM     42  C   UNL     1      -1.119  -3.339   9.559  1.00  0.00     0.031 C 
ATOM     43  C   UNL     1      -4.956   1.215   6.080  1.00  0.00     0.029 A 
ATOM     44  C   UNL     1      -5.676   0.380   7.034  1.00  0.00     0.049 A 
ATOM     45  H   UNL     1      -4.875  -1.028   8.344  1.00  0.00     0.167 HD
ATOM     46  C   UNL     1      -3.082  -4.206  10.787  1.00  0.00     0.034 A 
ATOM     47  C   UNL     1      -7.008   0.392   7.233  1.00  0.00     0.034 A 
ATOM     48  C   UNL     1      -4.467  -4.173  11.165  1.00  0.00     0.049 A 
ATOM     49  C   UNL     1      -7.595  -0.516   8.280  1.00  0.00     0.074 A 
ATOM     50  C   UNL     1      -5.118  -4.926  12.126  1.00  0.00     0.029 A 
ATOM     51  N   UNL     1      -5.417  -3.333  10.603  1.00  0.00    -0.354 N 
ATOM     52  N   UNL     1      -6.986  -1.373   9.064  1.00  0.00    -0.248 NA
ATOM     53  C   UNL     1      -9.046  -0.429   8.496  1.00  0.00     0.031 C 
ATOM     54  C   UNL     1      -6.464  -4.542  12.142  1.00  0.00     0.029 A 
ATOM     55  C   UNL     1      -6.647  -3.542  11.199  1.00  0.00     0.049 A 
ATOM     56  H   UNL     1      -5.240  -2.682   9.886  1.00  0.00     0.167 HD
ATOM     57  C   UNL     1      -7.970  -1.898   9.893  1.00  0.00     0.074 A 
ATOM     58  C   UNL     1      -9.213  -1.249   9.525  1.00  0.00     0.031 C 
ATOM     59  C   UNL     1      -7.860  -2.841  10.861  1.00  0.00     0.034 A 
BRANCH  46  60
ATOM     60  C   UNL     1      -2.164  -5.189  11.469  1.00  0.00     0.023 A 
ATOM     61  C   UNL     1      -1.219  -4.716  12.404  1.00  0.00     0.012 A 
ATOM     62  C   UNL     1      -2.240  -6.569  11.204  1.00  0.00     0.148 A 
ATOM     63  C   UNL     1      -0.332  -5.593  13.027  1.00  0.00     0.002 A 
ATOM     64  C   UNL     1      -1.383  -7.444  11.864  1.00  0.00     0.091 A 
ATOM     65  F   UNL     1      -3.125  -7.001  10.294  1.00  0.00    -0.205 F 
ATOM     66  C   UNL     1      -0.420  -6.957  12.764  1.00  0.00     0.022 A 
BRANCH  64  67
ATOM     67  S   UNL     1      -1.474  -9.225  11.649  1.00  0.00     0.127 S 
ATOM     68  O   UNL     1      -0.342  -9.473  10.759  1.00  0.00    -0.237 OA
ATOM     69  O   UNL     1      -1.293  -9.715  13.016  1.00  0.00    -0.237 OA
ATOM     70  O   UNL     1      -2.791  -9.487  11.085  1.00  0.00    -0.744 OA
ENDBRANCH  64  67
ENDBRANCH  46  60
BRANCH  47  71
ATOM     71  C   UNL     1      -7.860   1.374   6.504  1.00  0.00     0.023 A 
ATOM     72  C   UNL     1      -8.397   2.466   7.215  1.00  0.00     0.012 A 
ATOM     73  C   UNL     1      -8.105   1.266   5.122  1.00  0.00     0.148 A 
ATOM     74  C   UNL     1      -9.186   3.418   6.569  1.00  0.00     0.002 A 
ATOM     75  C   UNL     1      -8.851   2.246   4.475  1.00  0.00     0.091 A 
ATOM     76  F   UNL     1      -7.591   0.217   4.466  1.00  0.00    -0.205 F 
ATOM     77  C   UNL     1      -9.405   3.314   5.199  1.00  0.00     0.022 A 
BRANCH  75  78
ATOM     78  S   UNL     1      -9.082   2.264   2.693  1.00  0.00     0.127 S 
ATOM     79  O   UNL     1     -10.500   1.933   2.572  1.00  0.00    -0.237 OA
ATOM     80  O   UNL     1      -8.741   3.647   2.359  1.00  0.00    -0.237 OA
ATOM     81  O   UNL     1      -8.153   1.273   2.167  1.00  0.00    -0.744 OA
ENDBRANCH  75  78
ENDBRANCH  47  71
BRANCH  59  82
ATOM     82  C   UNL     1      -9.106  -3.206  11.622  1.00  0.00     0.023 A 
ATOM     83  C   UNL     1     -10.096  -3.995  11.004  1.00  0.00     0.012 A 
ATOM     84  C   UNL     1      -9.258  -2.834  12.972  1.00  0.00     0.148 A 
ATOM     85  C   UNL     1     -11.233  -4.384  11.710  1.00  0.00     0.002 A 
ATOM     86  C   UNL     1     -10.372  -3.264  13.683  1.00  0.00     0.091 A 
ATOM     87  F   UNL     1      -8.315  -2.065  13.535  1.00  0.00    -0.205 F 
ATOM     88  C   UNL     1     -11.365  -4.030  13.051  1.00  0.00     0.022 A 
BRANCH  86  89
ATOM     89  S   UNL     1     -10.573  -2.935  15.437  1.00  0.00     0.127 S 
ATOM     90  O   UNL     1     -11.570  -1.866  15.427  1.00  0.00    -0.237 OA
ATOM     91  O   UNL     1     -11.060  -4.219  15.943  1.00  0.00    -0.237 OA
ATOM     92  O   UNL     1      -9.253  -2.559  15.925  1.00  0.00    -0.744 OA
ENDBRANCH  86  89
ENDBRANCH  59  82
ENDBRANCH  33  34
ENDBRANCH  25  28
ENDBRANCH  23  24
ENDBRANCH   1  23
TORSDOF 17
