REMARK SMILES Cc1ccc([C@@H](C)Nc2ccc(N)cc2C(=O)NCCCNC(=O)c2ccc(-c3c4nc(c(-c5cccc(S(=O)(=O)[O-])c5F)c5ccc([nH]5)c(-c5cccc(S(=O)(=O)[O-])c5F)c5nc(c(-c6cccc(S(=O)(=O)[O-])c6F)c6ccc3[nH]6)C=C5)C=C4)cc2)cc1F
REMARK SMILES IDX 20 1 19 2 18 3 16 4 17 5 15 7 9 8 10 9 11 10 14 11 12 12
REMARK SMILES IDX 8 13 6 15 7 16 5 17 1 18 2 19 3 20 89 21 4 22 88 23 90 24
REMARK SMILES IDX 13 25 21 28 22 29 23 30 24 32 25 33 26 34 87 35 27 36 86 37
REMARK SMILES IDX 28 38 29 39 30 40 80 41 31 42 85 43 79 44 81 45 32 46 84 47
REMARK SMILES IDX 78 48 77 49 33 51 65 52 45 53 64 54 46 55 49 56 63 57 82 58
REMARK SMILES IDX 47 59 48 60 62 62 83 63 50 64 34 65 35 66 43 67 36 68 38 69
REMARK SMILES IDX 44 70 37 71 39 72 40 73 41 74 42 75 66 76 67 77 75 78 68 79
REMARK SMILES IDX 70 80 76 81 69 82 71 83 72 84 73 85 74 86 51 87 52 88 60 89
REMARK SMILES IDX 53 90 55 91 61 92 54 93 56 94 57 95 58 96 59 97
REMARK H PARENT 18 6 8 14 13 26 13 27 22 31 81 50 49 61
REMARK Flexibility Score: inf
ROOT
ATOM      1  C   UNL     1      -0.637  -1.284   0.746  1.00  0.00     0.042 C 
ENDROOT
BRANCH   1   2
ATOM      2  C   UNL     1      -0.856  -2.981   0.812  1.00  0.00     0.118 C 
BRANCH   2   3
ATOM      3  N   UNL     1      -0.953  -3.756  -0.418  1.00  0.00    -0.352 N 
ATOM      4  C   UNL     1      -1.961  -4.582  -0.849  1.00  0.00     0.253 C 
ATOM      5  O   UNL     1      -1.946  -5.018  -1.999  1.00  0.00    -0.269 OA
ATOM      6  H   UNL     1      -0.184  -3.675  -1.028  1.00  0.00     0.163 HD
BRANCH   4   7
ATOM      7  C   UNL     1      -2.934  -5.110   0.130  1.00  0.00     0.065 A 
ATOM      8  C   UNL     1      -3.668  -4.357   1.057  1.00  0.00     0.048 A 
ATOM      9  C   UNL     1      -4.019  -5.041   2.236  1.00  0.00     0.028 A 
ATOM     10  C   UNL     1      -3.792  -6.414   2.407  1.00  0.00     0.027 A 
ATOM     11  C   UNL     1      -2.841  -6.514   0.238  1.00  0.00     0.041 A 
ATOM     12  C   UNL     1      -3.304  -7.182   1.361  1.00  0.00     0.032 A 
BRANCH   8  13
ATOM     13  N   UNL     1      -4.083  -3.044   0.963  1.00  0.00    -0.378 N 
ATOM     14  H   UNL     1      -4.556  -2.715   1.761  1.00  0.00     0.161 HD
BRANCH  13  15
ATOM     15  C   UNL     1      -3.951  -2.052  -0.101  1.00  0.00     0.106 C 
ATOM     16  C   UNL     1      -4.442  -2.504  -1.466  1.00  0.00     0.036 C 
BRANCH  15  17
ATOM     17  C   UNL     1      -2.609  -1.377   0.036  1.00  0.00    -0.023 A 
ATOM     18  C   UNL     1       1.632   1.412   0.648  1.00  0.00     0.047 C 
ATOM     19  C   UNL     1       0.416   0.560   0.490  1.00  0.00    -0.015 A 
ATOM     20  C   UNL     1      -0.858   0.590   1.751  1.00  0.00     0.007 A 
ATOM     21  C   UNL     1       0.163  -0.400  -1.024  1.00  0.00     0.126 A 
ATOM     22  C   UNL     1      -2.347  -0.434   1.564  1.00  0.00     0.006 A 
ATOM     23  C   UNL     1      -1.322  -1.375  -1.253  1.00  0.00     0.045 A 
ATOM     24  F   UNL     1       1.125  -0.427  -1.954  1.00  0.00    -0.207 F 
ENDBRANCH  15  17
ENDBRANCH  13  15
ENDBRANCH   8  13
BRANCH  12  25
ATOM     25  N   UNL     1      -3.089  -8.544   1.503  1.00  0.00    -0.399 N 
ATOM     26  H   UNL     1      -3.420  -9.014   2.302  1.00  0.00     0.156 HD
ATOM     27  H   UNL     1      -2.604  -9.041   0.805  1.00  0.00     0.156 HD
ENDBRANCH  12  25
ENDBRANCH   4   7
ENDBRANCH   2   3
ENDBRANCH   1   2
BRANCH   1  28
ATOM     28  C   UNL     1      -1.625   0.424  -0.203  1.00  0.00     0.118 C 
BRANCH  28  29
ATOM     29  N   UNL     1      -2.787   1.464   0.303  1.00  0.00    -0.352 N 
ATOM     30  C   UNL     1      -2.805   2.850   0.184  1.00  0.00     0.251 C 
ATOM     31  H   UNL     1      -3.568   1.059   0.745  1.00  0.00     0.163 HD
ATOM     32  O   UNL     1      -3.506   3.568   0.883  1.00  0.00    -0.269 OA
BRANCH  30  33
ATOM     33  C   UNL     1      -1.917   3.414  -0.842  1.00  0.00     0.039 A 
ATOM     34  C   UNL     1      -1.005   4.444  -0.587  1.00  0.00     0.014 A 
ATOM     35  C   UNL     1      -1.900   2.699  -2.032  1.00  0.00     0.014 A 
ATOM     36  C   UNL     1      -0.018   4.701  -1.536  1.00  0.00     0.010 A 
ATOM     37  C   UNL     1      -0.750   2.717  -2.752  1.00  0.00     0.010 A 
ATOM     38  C   UNL     1       0.104   3.809  -2.605  1.00  0.00    -0.014 A 
BRANCH  38  39
ATOM     39  C   UNL     1       0.944   3.985  -3.776  1.00  0.00     0.031 A 
ATOM     40  C   UNL     1       2.398   4.003  -3.654  1.00  0.00     0.074 A 
ATOM     41  C   UNL     1       0.249   4.006  -4.940  1.00  0.00     0.049 A 
ATOM     42  N   UNL     1       3.172   4.798  -4.302  1.00  0.00    -0.248 NA
ATOM     43  C   UNL     1       3.122   3.153  -2.709  1.00  0.00     0.031 C 
ATOM     44  C   UNL     1       0.654   3.869  -6.322  1.00  0.00     0.029 A 
ATOM     45  N   UNL     1      -1.121   4.257  -5.034  1.00  0.00    -0.354 N 
ATOM     46  C   UNL     1       4.426   4.231  -4.221  1.00  0.00     0.074 A 
ATOM     47  C   UNL     1       4.396   3.403  -3.038  1.00  0.00     0.031 C 
ATOM     48  C   UNL     1      -0.357   4.305  -7.108  1.00  0.00     0.029 A 
ATOM     49  C   UNL     1      -1.402   4.859  -6.251  1.00  0.00     0.049 A 
ATOM     50  H   UNL     1      -1.787   4.040  -4.342  1.00  0.00     0.167 HD
ATOM     51  C   UNL     1       5.241   4.252  -5.317  1.00  0.00     0.034 A 
ATOM     52  C   UNL     1      -1.842   6.153  -6.180  1.00  0.00     0.034 A 
ATOM     53  C   UNL     1       4.515   4.792  -6.467  1.00  0.00     0.049 A 
ATOM     54  C   UNL     1      -0.740   7.106  -6.590  1.00  0.00     0.074 A 
ATOM     55  C   UNL     1       3.953   4.210  -7.593  1.00  0.00     0.029 A 
ATOM     56  N   UNL     1       3.971   6.058  -6.392  1.00  0.00    -0.354 N 
ATOM     57  N   UNL     1       0.493   6.734  -6.799  1.00  0.00    -0.248 NA
ATOM     58  C   UNL     1      -0.911   8.545  -6.747  1.00  0.00     0.031 C 
ATOM     59  C   UNL     1       3.099   5.168  -8.213  1.00  0.00     0.029 A 
ATOM     60  C   UNL     1       3.138   6.322  -7.457  1.00  0.00     0.049 A 
ATOM     61  H   UNL     1       4.157   6.696  -5.666  1.00  0.00     0.167 HD
ATOM     62  C   UNL     1       1.252   7.799  -7.177  1.00  0.00     0.074 A 
ATOM     63  C   UNL     1       0.340   8.926  -7.067  1.00  0.00     0.031 C 
ATOM     64  C   UNL     1       2.560   7.652  -7.544  1.00  0.00     0.034 A 
BRANCH  51  65
ATOM     65  C   UNL     1       6.565   3.525  -5.446  1.00  0.00     0.023 A 
ATOM     66  C   UNL     1       7.337   3.132  -4.331  1.00  0.00     0.012 A 
ATOM     67  C   UNL     1       7.130   3.251  -6.714  1.00  0.00     0.148 A 
ATOM     68  C   UNL     1       8.541   2.421  -4.463  1.00  0.00     0.002 A 
ATOM     69  C   UNL     1       8.339   2.567  -6.844  1.00  0.00     0.091 A 
ATOM     70  F   UNL     1       6.522   3.666  -7.831  1.00  0.00    -0.205 F 
ATOM     71  C   UNL     1       9.042   2.131  -5.724  1.00  0.00     0.022 A 
BRANCH  69  72
ATOM     72  S   UNL     1       8.993   2.276  -8.491  1.00  0.00     0.127 S 
ATOM     73  O   UNL     1       7.984   1.409  -9.092  1.00  0.00    -0.237 OA
ATOM     74  O   UNL     1       9.121   3.622  -9.039  1.00  0.00    -0.237 OA
ATOM     75  O   UNL     1      10.273   1.615  -8.229  1.00  0.00    -0.744 OA
ENDBRANCH  69  72
ENDBRANCH  51  65
BRANCH  52  76
ATOM     76  C   UNL     1      -2.807   6.345  -5.026  1.00  0.00     0.023 A 
ATOM     77  C   UNL     1      -2.384   6.904  -3.805  1.00  0.00     0.012 A 
ATOM     78  C   UNL     1      -3.970   5.530  -5.014  1.00  0.00     0.148 A 
ATOM     79  C   UNL     1      -3.041   6.579  -2.605  1.00  0.00     0.002 A 
ATOM     80  C   UNL     1      -4.556   5.137  -3.809  1.00  0.00     0.091 A 
ATOM     81  F   UNL     1      -4.418   5.041  -6.181  1.00  0.00    -0.205 F 
ATOM     82  C   UNL     1      -4.095   5.662  -2.599  1.00  0.00     0.022 A 
BRANCH  80  83
ATOM     83  S   UNL     1      -5.684   3.728  -3.782  1.00  0.00     0.127 S 
ATOM     84  O   UNL     1      -6.977   4.351  -4.046  1.00  0.00    -0.237 OA
ATOM     85  O   UNL     1      -5.167   2.839  -4.817  1.00  0.00    -0.237 OA
ATOM     86  O   UNL     1      -5.526   3.185  -2.432  1.00  0.00    -0.744 OA
ENDBRANCH  80  83
ENDBRANCH  52  76
BRANCH  64  87
ATOM     87  C   UNL     1       3.473   8.781  -7.931  1.00  0.00     0.023 A 
ATOM     88  C   UNL     1       4.864   8.679  -7.668  1.00  0.00     0.012 A 
ATOM     89  C   UNL     1       3.040   9.938  -8.575  1.00  0.00     0.148 A 
ATOM     90  C   UNL     1       5.752   9.723  -7.905  1.00  0.00     0.002 A 
ATOM     91  C   UNL     1       3.909  11.012  -8.741  1.00  0.00     0.091 A 
ATOM     92  F   UNL     1       1.797  10.001  -9.074  1.00  0.00    -0.205 F 
ATOM     93  C   UNL     1       5.263  10.916  -8.406  1.00  0.00     0.022 A 
BRANCH  91  94
ATOM     94  S   UNL     1       3.215  12.577  -9.252  1.00  0.00     0.127 S 
ATOM     95  O   UNL     1       2.687  12.296 -10.582  1.00  0.00    -0.237 OA
ATOM     96  O   UNL     1       2.230  12.838  -8.204  1.00  0.00    -0.237 OA
ATOM     97  O   UNL     1       4.365  13.480  -9.232  1.00  0.00    -0.744 OA
ENDBRANCH  91  94
ENDBRANCH  64  87
ENDBRANCH  38  39
ENDBRANCH  30  33
ENDBRANCH  28  29
ENDBRANCH   1  28
TORSDOF 17
