REMARK SMILES Cc1c(CC(=O)N[C@@H](CCO)C(=O)NCCCNC(=O)c2ccc(-c3c4nc(c(-c5cccc(S(=O)(=O)[O-])c5F)c5ccc([nH]5)c(-c5cccc(S(=O)(=O)[O-])c5F)c5nc(c(-c6cccc(S(=O)(=O)[O-])c6F)c6ccc3[nH]6)C=C5)C=C4)cc2)cc(-c2ccc(S(C)(=O)=O)cc2)n1-c1ccc(F)cc1
REMARK SMILES IDX 15 1 14 2 12 3 13 4 8 6 7 7 5 8 6 9 4 11 3 12 1 13 2 14
REMARK SMILES IDX 96 15 84 16 85 17 97 18 98 19 103 20 99 21 102 22 100 23
REMARK SMILES IDX 101 24 86 25 87 26 95 27 88 28 94 29 89 30 90 31 91 32 92 33
REMARK SMILES IDX 93 34 9 35 10 36 11 37 16 39 17 40 18 41 19 42 20 44 21 45
REMARK SMILES IDX 22 46 83 47 23 48 82 49 24 50 25 51 26 52 76 53 27 54 81 55
REMARK SMILES IDX 75 56 77 57 28 58 80 59 74 60 73 61 29 63 61 64 41 65 60 66
REMARK SMILES IDX 42 67 45 68 59 69 78 70 43 71 44 72 58 74 79 75 46 76 30 77
REMARK SMILES IDX 31 78 39 79 32 80 34 81 40 82 33 83 35 84 36 85 37 86 38 87
REMARK SMILES IDX 62 88 63 89 71 90 64 91 66 92 72 93 65 94 67 95 68 96 69 97
REMARK SMILES IDX 70 98 47 99 48 100 56 101 49 102 51 103 57 104 50 105 52 106
REMARK SMILES IDX 53 107 54 108 55 109
REMARK H PARENT 14 5 7 10 11 38 18 43 77 62 45 73
REMARK Flexibility Score: inf
ROOT
ATOM      1  C   UNL     1      -4.856  -3.831  -0.139  1.00  0.00     0.117 C 
ENDROOT
BRANCH   1   2
ATOM      2  N   UNL     1      -4.511  -4.066   1.255  1.00  0.00    -0.354 N 
ATOM      3  C   UNL     1      -3.599  -3.542   2.113  1.00  0.00     0.242 C 
ATOM      4  O   UNL     1      -3.704  -3.889   3.296  1.00  0.00    -0.273 OA
ATOM      5  H   UNL     1      -5.067  -4.765   1.671  1.00  0.00     0.163 HD
BRANCH   3   6
ATOM      6  C   UNL     1      -2.588  -2.447   1.741  1.00  0.00     0.173 C 
BRANCH   6   7
ATOM      7  N   UNL     1      -1.810  -2.738   0.542  1.00  0.00    -0.344 N 
ATOM      8  C   UNL     1      -0.456  -2.932   0.457  1.00  0.00     0.225 C 
ATOM      9  O   UNL     1      -0.004  -3.351  -0.612  1.00  0.00    -0.275 OA
ATOM     10  H   UNL     1      -2.315  -2.802  -0.301  1.00  0.00     0.164 HD
BRANCH   8  11
ATOM     11  C   UNL     1       0.462  -2.638   1.645  1.00  0.00     0.137 C 
BRANCH  11  12
ATOM     12  C   UNL     1       0.412  -1.198   2.080  1.00  0.00    -0.017 A 
ATOM     13  C   UNL     1       1.216  -0.019  -0.083  1.00  0.00     0.065 C 
ATOM     14  C   UNL     1       0.661  -0.071   1.307  1.00  0.00     0.024 A 
ATOM     15  N   UNL     1       0.400   1.054   2.082  1.00  0.00    -0.314 N 
ATOM     16  C   UNL     1       0.106  -0.734   3.390  1.00  0.00     0.033 A 
ATOM     17  C   UNL     1       0.058   0.649   3.374  1.00  0.00     0.053 A 
BRANCH  15  18
ATOM     18  C   UNL     1       0.452   2.400   1.632  1.00  0.00     0.046 A 
ATOM     19  C   UNL     1       1.214   3.339   2.338  1.00  0.00     0.029 A 
ATOM     20  C   UNL     1      -0.328   2.791   0.534  1.00  0.00     0.029 A 
ATOM     21  C   UNL     1       1.207   4.672   1.932  1.00  0.00     0.041 A 
ATOM     22  C   UNL     1      -0.336   4.128   0.141  1.00  0.00     0.041 A 
ATOM     23  C   UNL     1       0.432   5.054   0.841  1.00  0.00     0.123 A 
ATOM     24  F   UNL     1       0.416   6.339   0.465  1.00  0.00    -0.207 F 
ENDBRANCH  15  18
BRANCH  17  25
ATOM     25  C   UNL     1      -0.357   1.550   4.462  1.00  0.00    -0.001 A 
ATOM     26  C   UNL     1      -1.376   2.498   4.269  1.00  0.00     0.011 A 
ATOM     27  C   UNL     1       0.282   1.489   5.707  1.00  0.00     0.011 A 
ATOM     28  C   UNL     1      -1.688   3.426   5.264  1.00  0.00     0.021 A 
ATOM     29  C   UNL     1      -0.029   2.410   6.713  1.00  0.00     0.021 A 
ATOM     30  C   UNL     1      -0.991   3.394   6.472  1.00  0.00     0.067 A 
BRANCH  30  31
ATOM     31  S   UNL     1      -1.334   4.623   7.708  1.00  0.00     0.175 S 
ATOM     32  C   UNL     1      -0.783   6.139   6.967  1.00  0.00     0.163 C 
ATOM     33  O   UNL     1      -2.782   4.694   7.853  1.00  0.00    -0.224 OA
ATOM     34  O   UNL     1      -0.483   4.365   8.848  1.00  0.00    -0.224 OA
ENDBRANCH  30  31
ENDBRANCH  17  25
ENDBRANCH  11  12
ENDBRANCH   8  11
ENDBRANCH   6   7
BRANCH   6  35
ATOM     35  C   UNL     1      -3.115  -1.002   1.817  1.00  0.00     0.063 C 
BRANCH  35  36
ATOM     36  C   UNL     1      -4.320  -0.611   0.977  1.00  0.00     0.158 C 
BRANCH  36  37
ATOM     37  O   UNL     1      -5.545  -1.078   1.514  1.00  0.00    -0.396 OA
ATOM     38  H   UNL     1      -5.537  -2.048   1.543  1.00  0.00     0.210 HD
ENDBRANCH  36  37
ENDBRANCH  35  36
ENDBRANCH   6  35
ENDBRANCH   3   6
ENDBRANCH   1   2
BRANCH   1  39
ATOM     39  C   UNL     1      -4.487  -4.974  -1.088  1.00  0.00     0.042 C 
BRANCH  39  40
ATOM     40  C   UNL     1      -4.932  -6.383  -0.669  1.00  0.00     0.118 C 
BRANCH  40  41
ATOM     41  N   UNL     1      -6.140  -6.840  -1.320  1.00  0.00    -0.352 N 
ATOM     42  C   UNL     1      -6.437  -8.136  -1.719  1.00  0.00     0.251 C 
ATOM     43  H   UNL     1      -6.826  -6.158  -1.500  1.00  0.00     0.163 HD
ATOM     44  O   UNL     1      -7.524  -8.325  -2.262  1.00  0.00    -0.269 OA
BRANCH  42  45
ATOM     45  C   UNL     1      -5.399  -9.227  -1.621  1.00  0.00     0.039 A 
ATOM     46  C   UNL     1      -4.562  -9.417  -2.708  1.00  0.00     0.014 A 
ATOM     47  C   UNL     1      -5.283 -10.148  -0.566  1.00  0.00     0.014 A 
ATOM     48  C   UNL     1      -3.600 -10.468  -2.708  1.00  0.00     0.010 A 
ATOM     49  C   UNL     1      -4.362 -11.280  -0.617  1.00  0.00     0.010 A 
ATOM     50  C   UNL     1      -3.488 -11.500  -1.701  1.00  0.00    -0.014 A 
BRANCH  50  51
ATOM     51  C   UNL     1      -2.931 -12.931  -2.235  1.00  0.00     0.031 A 
ATOM     52  C   UNL     1      -3.732 -13.089  -3.485  1.00  0.00     0.074 A 
ATOM     53  C   UNL     1      -2.131 -14.033  -1.909  1.00  0.00     0.049 A 
ATOM     54  N   UNL     1      -5.031 -12.973  -3.422  1.00  0.00    -0.248 NA
ATOM     55  C   UNL     1      -3.187 -12.904  -4.832  1.00  0.00     0.031 C 
ATOM     56  C   UNL     1      -1.446 -14.312  -0.635  1.00  0.00     0.029 A 
ATOM     57  N   UNL     1      -1.720 -15.202  -2.647  1.00  0.00    -0.354 N 
ATOM     58  C   UNL     1      -5.493 -13.105  -4.696  1.00  0.00     0.074 A 
ATOM     59  C   UNL     1      -4.334 -12.759  -5.510  1.00  0.00     0.031 C 
ATOM     60  C   UNL     1      -0.621 -15.401  -0.720  1.00  0.00     0.029 A 
ATOM     61  C   UNL     1      -0.689 -16.026  -2.042  1.00  0.00     0.049 A 
ATOM     62  H   UNL     1      -2.119 -15.430  -3.518  1.00  0.00     0.167 HD
ATOM     63  C   UNL     1      -6.375 -14.136  -4.857  1.00  0.00     0.034 A 
ATOM     64  C   UNL     1      -0.003 -17.157  -2.506  1.00  0.00     0.034 A 
ATOM     65  C   UNL     1      -5.756 -15.274  -5.477  1.00  0.00     0.049 A 
ATOM     66  C   UNL     1      -0.888 -17.765  -3.505  1.00  0.00     0.074 A 
ATOM     67  C   UNL     1      -4.860 -15.401  -6.523  1.00  0.00     0.029 A 
ATOM     68  N   UNL     1      -5.631 -16.410  -4.707  1.00  0.00    -0.354 N 
ATOM     69  N   UNL     1      -1.889 -18.515  -3.154  1.00  0.00    -0.248 NA
ATOM     70  C   UNL     1      -0.634 -17.683  -4.939  1.00  0.00     0.031 C 
ATOM     71  C   UNL     1      -3.886 -16.302  -6.047  1.00  0.00     0.029 A 
ATOM     72  C   UNL     1      -4.423 -17.019  -4.989  1.00  0.00     0.049 A 
ATOM     73  H   UNL     1      -6.296 -16.735  -4.058  1.00  0.00     0.167 HD
ATOM     74  C   UNL     1      -2.675 -18.479  -4.263  1.00  0.00     0.074 A 
ATOM     75  C   UNL     1      -1.768 -18.238  -5.371  1.00  0.00     0.031 C 
ATOM     76  C   UNL     1      -3.939 -18.029  -4.083  1.00  0.00     0.034 A 
BRANCH  63  77
ATOM     77  C   UNL     1      -7.453 -14.196  -3.791  1.00  0.00     0.023 A 
ATOM     78  C   UNL     1      -8.754 -13.843  -4.182  1.00  0.00     0.012 A 
ATOM     79  C   UNL     1      -7.189 -14.393  -2.407  1.00  0.00     0.148 A 
ATOM     80  C   UNL     1      -9.750 -13.631  -3.225  1.00  0.00     0.002 A 
ATOM     81  C   UNL     1      -8.152 -14.067  -1.457  1.00  0.00     0.091 A 
ATOM     82  F   UNL     1      -6.002 -14.896  -2.033  1.00  0.00    -0.205 F 
ATOM     83  C   UNL     1      -9.440 -13.702  -1.867  1.00  0.00     0.022 A 
BRANCH  81  84
ATOM     84  S   UNL     1      -7.752 -13.876   0.293  1.00  0.00     0.127 S 
ATOM     85  O   UNL     1      -8.408 -12.608   0.631  1.00  0.00    -0.237 OA
ATOM     86  O   UNL     1      -8.370 -15.049   0.900  1.00  0.00    -0.237 OA
ATOM     87  O   UNL     1      -6.297 -13.814   0.380  1.00  0.00    -0.744 OA
ENDBRANCH  81  84
ENDBRANCH  63  77
BRANCH  64  88
ATOM     88  C   UNL     1       1.188 -18.162  -2.279  1.00  0.00     0.023 A 
ATOM     89  C   UNL     1       0.980 -19.555  -2.603  1.00  0.00     0.012 A 
ATOM     90  C   UNL     1       2.546 -17.782  -2.217  1.00  0.00     0.148 A 
ATOM     91  C   UNL     1       2.003 -20.454  -2.963  1.00  0.00     0.002 A 
ATOM     92  C   UNL     1       3.582 -18.701  -2.551  1.00  0.00     0.091 A 
ATOM     93  F   UNL     1       2.831 -16.505  -1.935  1.00  0.00    -0.205 F 
ATOM     94  C   UNL     1       3.310 -20.020  -2.952  1.00  0.00     0.022 A 
BRANCH  92  95
ATOM     95  S   UNL     1       5.335 -18.264  -2.604  1.00  0.00     0.127 S 
ATOM     96  O   UNL     1       5.974 -19.419  -1.969  1.00  0.00    -0.237 OA
ATOM     97  O   UNL     1       5.576 -18.158  -4.042  1.00  0.00    -0.237 OA
ATOM     98  O   UNL     1       5.446 -17.024  -1.850  1.00  0.00    -0.744 OA
ENDBRANCH  92  95
ENDBRANCH  64  88
BRANCH  76  99
ATOM     99  C   UNL     1      -4.675 -18.480  -2.839  1.00  0.00     0.023 A 
ATOM    100  C   UNL     1      -4.184 -18.387  -1.517  1.00  0.00     0.012 A 
ATOM    101  C   UNL     1      -5.940 -19.057  -3.025  1.00  0.00     0.148 A 
ATOM    102  C   UNL     1      -4.916 -18.883  -0.431  1.00  0.00     0.002 A 
ATOM    103  C   UNL     1      -6.690 -19.501  -1.943  1.00  0.00     0.091 A 
ATOM    104  F   UNL     1      -6.392 -19.182  -4.282  1.00  0.00    -0.205 F 
ATOM    105  C   UNL     1      -6.180 -19.425  -0.642  1.00  0.00     0.022 A 
BRANCH 103 106
ATOM    106  S   UNL     1      -8.332 -20.169  -2.204  1.00  0.00     0.127 S 
ATOM    107  O   UNL     1      -8.071 -21.608  -2.225  1.00  0.00    -0.237 OA
ATOM    108  O   UNL     1      -9.076 -19.703  -1.037  1.00  0.00    -0.237 OA
ATOM    109  O   UNL     1      -8.782 -19.598  -3.470  1.00  0.00    -0.744 OA
ENDBRANCH 103 106
ENDBRANCH  76  99
ENDBRANCH  50  51
ENDBRANCH  42  45
ENDBRANCH  40  41
ENDBRANCH  39  40
ENDBRANCH   1  39
TORSDOF 22
