REMARK SMILES C[C@H](C(=O)NCCCNC(=O)c1ccc(-c2c3nc(c(-c4cccc(S(=O)(=O)[O-])c4F)c4ccc([nH]4)c(-c4cccc(S(=O)(=O)[O-])c4F)c4nc(c(-c5cccc(S(=O)(=O)[O-])c5F)c5ccc2[nH]5)C=C4)C=C3)cc1)c1ccc(C[C@@H]2CCC[C@H]2O)cc1
REMARK SMILES IDX 6 1 5 2 3 3 4 4 2 6 1 7 75 8 76 9 87 10 77 11 86 12 78 13
REMARK SMILES IDX 79 14 80 15 81 16 84 17 82 18 83 19 85 20 7 22 8 23 9 24
REMARK SMILES IDX 10 25 11 27 12 28 13 29 74 30 14 31 73 32 15 33 16 34 17 35
REMARK SMILES IDX 67 36 18 37 72 38 66 39 68 40 19 41 71 42 65 43 64 44 20 46
REMARK SMILES IDX 52 47 32 48 51 49 33 50 36 51 50 52 69 53 34 54 35 55 49 57
REMARK SMILES IDX 70 58 37 59 21 60 22 61 30 62 23 63 25 64 31 65 24 66 26 67
REMARK SMILES IDX 27 68 28 69 29 70 53 71 54 72 62 73 55 74 57 75 63 76 56 77
REMARK SMILES IDX 58 78 59 79 60 80 61 81 38 82 39 83 47 84 40 85 42 86 48 87
REMARK SMILES IDX 41 88 43 89 44 90 45 91 46 92
REMARK H PARENT 5 5 85 21 9 26 68 45 36 56
REMARK Flexibility Score: inf
ROOT
ATOM      1  C   UNL     1      -6.889   0.496   7.493  1.00  0.00     0.117 C 
ENDROOT
BRANCH   1   2
ATOM      2  N   UNL     1      -8.194   0.488   8.133  1.00  0.00    -0.356 N 
ATOM      3  C   UNL     1      -9.435   0.768   7.640  1.00  0.00     0.227 C 
ATOM      4  O   UNL     1     -10.398   0.474   8.356  1.00  0.00    -0.274 OA
ATOM      5  H   UNL     1      -8.181   0.238   9.085  1.00  0.00     0.163 HD
BRANCH   3   6
ATOM      6  C   UNL     1      -9.656   1.478   6.302  1.00  0.00     0.105 C 
ATOM      7  C   UNL     1      -9.092   2.904   6.413  1.00  0.00     0.023 C 
BRANCH   6   8
ATOM      8  C   UNL     1      -9.210   0.750   5.038  1.00  0.00    -0.036 A 
ATOM      9  C   UNL     1      -8.746  -0.573   5.043  1.00  0.00     0.005 A 
ATOM     10  C   UNL     1      -9.241   1.422   3.805  1.00  0.00     0.005 A 
ATOM     11  C   UNL     1      -8.152  -1.128   3.906  1.00  0.00     0.004 A 
ATOM     12  C   UNL     1      -8.671   0.860   2.661  1.00  0.00     0.004 A 
ATOM     13  C   UNL     1      -8.058  -0.394   2.720  1.00  0.00    -0.048 A 
BRANCH  13  14
ATOM     14  C   UNL     1      -7.287  -0.922   1.538  1.00  0.00     0.041 C 
BRANCH  14  15
ATOM     15  C   UNL     1      -5.757  -0.695   1.524  1.00  0.00     0.022 C 
ATOM     16  C   UNL     1      -4.990  -1.384   2.661  1.00  0.00     0.007 C 
ATOM     17  C   UNL     1      -5.309   0.767   1.625  1.00  0.00     0.117 C 
ATOM     18  C   UNL     1      -4.672  -0.314   3.705  1.00  0.00     0.003 C 
ATOM     19  C   UNL     1      -5.084   1.030   3.110  1.00  0.00     0.032 C 
BRANCH  17  20
ATOM     20  O   UNL     1      -4.077   0.922   0.917  1.00  0.00    -0.393 OA
ATOM     21  H   UNL     1      -3.415   0.315   1.284  1.00  0.00     0.210 HD
ENDBRANCH  17  20
ENDBRANCH  14  15
ENDBRANCH  13  14
ENDBRANCH   6   8
ENDBRANCH   3   6
ENDBRANCH   1   2
BRANCH   1  22
ATOM     22  C   UNL     1      -5.919   1.520   8.057  1.00  0.00     0.042 C 
BRANCH  22  23
ATOM     23  C   UNL     1      -5.700   1.457   9.559  1.00  0.00     0.118 C 
BRANCH  23  24
ATOM     24  N   UNL     1      -5.081   0.221  10.014  1.00  0.00    -0.352 N 
ATOM     25  C   UNL     1      -3.954   0.026  10.778  1.00  0.00     0.251 C 
ATOM     26  H   UNL     1      -5.540  -0.603   9.733  1.00  0.00     0.163 HD
ATOM     27  O   UNL     1      -3.550  -1.122  10.963  1.00  0.00    -0.269 OA
BRANCH  25  28
ATOM     28  C   UNL     1      -3.206   1.173  11.350  1.00  0.00     0.039 A 
ATOM     29  C   UNL     1      -1.809   1.118  11.381  1.00  0.00     0.014 A 
ATOM     30  C   UNL     1      -3.861   2.289  11.874  1.00  0.00     0.014 A 
ATOM     31  C   UNL     1      -1.077   2.198  11.886  1.00  0.00     0.010 A 
ATOM     32  C   UNL     1      -3.131   3.406  12.273  1.00  0.00     0.010 A 
ATOM     33  C   UNL     1      -1.730   3.365  12.313  1.00  0.00    -0.014 A 
BRANCH  33  34
ATOM     34  C   UNL     1      -0.972   4.528  12.848  1.00  0.00     0.031 A 
ATOM     35  C   UNL     1      -1.211   5.004  14.259  1.00  0.00     0.074 A 
ATOM     36  C   UNL     1      -0.114   5.200  12.054  1.00  0.00     0.049 A 
ATOM     37  N   UNL     1      -0.678   6.018  14.892  1.00  0.00    -0.248 NA
ATOM     38  C   UNL     1      -2.204   4.262  15.056  1.00  0.00     0.031 C 
ATOM     39  C   UNL     1       0.149   4.900  10.645  1.00  0.00     0.029 A 
ATOM     40  N   UNL     1       0.679   6.291  12.313  1.00  0.00    -0.354 N 
ATOM     41  C   UNL     1      -1.292   6.055  16.138  1.00  0.00     0.074 A 
ATOM     42  C   UNL     1      -2.277   4.997  16.155  1.00  0.00     0.031 C 
ATOM     43  C   UNL     1       1.045   5.779  10.167  1.00  0.00     0.029 A 
ATOM     44  C   UNL     1       1.400   6.722  11.224  1.00  0.00     0.049 A 
ATOM     45  H   UNL     1       0.727   6.724  13.196  1.00  0.00     0.167 HD
ATOM     46  C   UNL     1      -1.039   6.868  17.192  1.00  0.00     0.034 A 
ATOM     47  C   UNL     1       2.247   7.761  11.088  1.00  0.00     0.034 A 
ATOM     48  C   UNL     1      -0.035   7.896  17.191  1.00  0.00     0.049 A 
ATOM     49  C   UNL     1       2.550   8.621  12.285  1.00  0.00     0.074 A 
ATOM     50  C   UNL     1       0.349   8.727  18.228  1.00  0.00     0.029 A 
ATOM     51  N   UNL     1       0.744   8.239  16.096  1.00  0.00    -0.354 N 
ATOM     52  N   UNL     1       2.060   8.550  13.499  1.00  0.00    -0.248 NA
ATOM     53  C   UNL     1       3.560   9.675  12.107  1.00  0.00     0.031 C 
ATOM     54  C   UNL     1       1.342   9.591  17.753  1.00  0.00     0.029 A 
ATOM     55  C   UNL     1       1.607   9.267  16.432  1.00  0.00     0.049 A 
ATOM     56  H   UNL     1       0.691   7.813  15.210  1.00  0.00     0.167 HD
ATOM     57  C   UNL     1       2.733   9.516  14.239  1.00  0.00     0.074 A 
ATOM     58  C   UNL     1       3.676  10.148  13.340  1.00  0.00     0.031 C 
ATOM     59  C   UNL     1       2.580   9.852  15.544  1.00  0.00     0.034 A 
BRANCH  46  60
ATOM     60  C   UNL     1      -1.832   6.639  18.455  1.00  0.00     0.023 A 
ATOM     61  C   UNL     1      -1.625   5.462  19.206  1.00  0.00     0.012 A 
ATOM     62  C   UNL     1      -2.753   7.597  18.920  1.00  0.00     0.148 A 
ATOM     63  C   UNL     1      -2.354   5.221  20.369  1.00  0.00     0.002 A 
ATOM     64  C   UNL     1      -3.438   7.374  20.109  1.00  0.00     0.091 A 
ATOM     65  F   UNL     1      -2.953   8.701  18.186  1.00  0.00    -0.205 F 
ATOM     66  C   UNL     1      -3.252   6.180  20.826  1.00  0.00     0.022 A 
BRANCH  64  67
ATOM     67  S   UNL     1      -4.552   8.585  20.828  1.00  0.00     0.127 S 
ATOM     68  O   UNL     1      -5.850   7.937  20.644  1.00  0.00    -0.237 OA
ATOM     69  O   UNL     1      -4.091   8.641  22.216  1.00  0.00    -0.237 OA
ATOM     70  O   UNL     1      -4.354   9.813  20.072  1.00  0.00    -0.744 OA
ENDBRANCH  64  67
ENDBRANCH  46  60
BRANCH  47  71
ATOM     71  C   UNL     1       2.921   8.005   9.781  1.00  0.00     0.023 A 
ATOM     72  C   UNL     1       4.303   7.768   9.652  1.00  0.00     0.012 A 
ATOM     73  C   UNL     1       2.193   8.448   8.660  1.00  0.00     0.148 A 
ATOM     74  C   UNL     1       4.956   8.002   8.441  1.00  0.00     0.002 A 
ATOM     75  C   UNL     1       2.838   8.624   7.441  1.00  0.00     0.091 A 
ATOM     76  F   UNL     1       0.880   8.673   8.805  1.00  0.00    -0.205 F 
ATOM     77  C   UNL     1       4.223   8.421   7.335  1.00  0.00     0.022 A 
BRANCH  75  78
ATOM     78  S   UNL     1       1.954   9.033   5.933  1.00  0.00     0.127 S 
ATOM     79  O   UNL     1       2.439  10.383   5.658  1.00  0.00    -0.237 OA
ATOM     80  O   UNL     1       2.441   8.003   5.013  1.00  0.00    -0.237 OA
ATOM     81  O   UNL     1       0.540   8.925   6.261  1.00  0.00    -0.744 OA
ENDBRANCH  75  78
ENDBRANCH  47  71
BRANCH  59  82
ATOM     82  C   UNL     1       3.496  10.908  16.108  1.00  0.00     0.023 A 
ATOM     83  C   UNL     1       3.354  12.255  15.723  1.00  0.00     0.012 A 
ATOM     84  C   UNL     1       4.465  10.563  17.072  1.00  0.00     0.148 A 
ATOM     85  C   UNL     1       4.191  13.236  16.255  1.00  0.00     0.002 A 
ATOM     86  C   UNL     1       5.258  11.553  17.639  1.00  0.00     0.091 A 
ATOM     87  F   UNL     1       4.599   9.273  17.413  1.00  0.00    -0.205 F 
ATOM     88  C   UNL     1       5.134  12.887  17.220  1.00  0.00     0.022 A 
BRANCH  86  89
ATOM     89  S   UNL     1       6.424  11.209  18.961  1.00  0.00     0.127 S 
ATOM     90  O   UNL     1       7.704  11.303  18.261  1.00  0.00    -0.237 OA
ATOM     91  O   UNL     1       6.160  12.300  19.900  1.00  0.00    -0.237 OA
ATOM     92  O   UNL     1       6.080   9.885  19.463  1.00  0.00    -0.744 OA
ENDBRANCH  86  89
ENDBRANCH  59  82
ENDBRANCH  33  34
ENDBRANCH  25  28
ENDBRANCH  23  24
ENDBRANCH  22  23
ENDBRANCH   1  22
TORSDOF 17
