REMARK SMILES Cn1ccnc1[C@H]1[C@@H](C(=O)NCCCNC(=O)c2ccc(-c3c4nc(c(-c5cccc(S(=O)(=O)[O-])c5F)c5ccc([nH]5)c(-c5cccc(S(=O)(=O)[O-])c5F)c5nc(c(-c6cccc(S(=O)(=O)[O-])c6F)c6ccc3[nH]6)C=C5)C=C4)cc2)CCC(=O)N1CCNc1ncccn1
REMARK SMILES IDX 12 1 11 2 9 3 10 4 8 6 7 7 85 8 81 9 83 10 82 11 84 12 6 13
REMARK SMILES IDX 1 14 2 15 3 16 4 17 5 18 86 19 87 20 88 21 89 23 90 24 94 25
REMARK SMILES IDX 91 26 93 27 92 28 13 29 14 30 15 31 16 32 17 34 18 35 19 36
REMARK SMILES IDX 80 37 20 38 79 39 21 40 22 41 23 42 73 43 24 44 78 45 72 46
REMARK SMILES IDX 74 47 25 48 77 49 71 50 70 51 26 53 58 54 38 55 57 56 39 57
REMARK SMILES IDX 42 58 56 59 75 60 40 61 41 62 55 64 76 65 43 66 27 67 28 68
REMARK SMILES IDX 36 69 29 70 31 71 37 72 30 73 32 74 33 75 34 76 35 77 59 78
REMARK SMILES IDX 60 79 68 80 61 81 63 82 69 83 62 84 64 85 65 86 66 87 67 88
REMARK SMILES IDX 44 89 45 90 53 91 46 92 48 93 54 94 47 95 49 96 50 97 51 98
REMARK SMILES IDX 52 99
REMARK H PARENT 11 5 88 22 15 33 74 52 42 63
REMARK Flexibility Score: inf
ROOT
ATOM      1  C   UNL     1      -0.911   5.320  -1.741  1.00  0.00     0.117 C 
ENDROOT
BRANCH   1   2
ATOM      2  N   UNL     1       0.095   4.687  -2.557  1.00  0.00    -0.356 N 
ATOM      3  C   UNL     1       0.962   3.704  -2.181  1.00  0.00     0.225 C 
ATOM      4  O   UNL     1       1.462   3.009  -3.071  1.00  0.00    -0.275 OA
ATOM      5  H   UNL     1       0.163   4.998  -3.489  1.00  0.00     0.163 HD
BRANCH   3   6
ATOM      6  C   UNL     1       1.391   3.501  -0.726  1.00  0.00     0.109 C 
ATOM      7  C   UNL     1       0.505   2.623   0.173  1.00  0.00     0.164 C 
ATOM      8  N   UNL     1       0.932   2.567   1.590  1.00  0.00    -0.330 N 
ATOM      9  C   UNL     1       1.875   4.771  -0.041  1.00  0.00     0.026 C 
ATOM     10  C   UNL     1       1.810   3.491   2.156  1.00  0.00     0.223 C 
ATOM     11  C   UNL     1       2.595   4.402   1.234  1.00  0.00     0.101 C 
ATOM     12  O   UNL     1       2.047   3.519   3.365  1.00  0.00    -0.275 OA
BRANCH   7  13
ATOM     13  C   UNL     1      -0.990   2.816   0.025  1.00  0.00     0.132 A 
ATOM     14  C   UNL     1      -1.594   4.559   1.812  1.00  0.00     0.151 C 
ATOM     15  N   UNL     1      -1.858   3.604   0.762  1.00  0.00    -0.336 N 
ATOM     16  C   UNL     1      -3.131   3.382   0.290  1.00  0.00     0.107 A 
ATOM     17  C   UNL     1      -2.997   2.464  -0.716  1.00  0.00     0.131 A 
ATOM     18  N   UNL     1      -1.680   2.138  -0.883  1.00  0.00    -0.239 NA
ENDBRANCH   7  13
BRANCH   8  19
ATOM     19  C   UNL     1       0.618   1.366   2.405  1.00  0.00     0.141 C 
BRANCH  19  20
ATOM     20  C   UNL     1      -0.849   0.914   2.554  1.00  0.00     0.137 C 
BRANCH  20  21
ATOM     21  N   UNL     1      -1.250   0.096   1.436  1.00  0.00    -0.352 N 
ATOM     22  H   UNL     1      -0.640   0.019   0.668  1.00  0.00     0.163 HD
BRANCH  21  23
ATOM     23  C   UNL     1      -2.438  -0.578   1.395  1.00  0.00     0.222 A 
ATOM     24  N   UNL     1      -2.709  -1.162   0.219  1.00  0.00    -0.222 NA
ATOM     25  N   UNL     1      -3.246  -0.638   2.462  1.00  0.00    -0.222 NA
ATOM     26  C   UNL     1      -3.863  -1.839   0.115  1.00  0.00     0.117 A 
ATOM     27  C   UNL     1      -4.398  -1.320   2.306  1.00  0.00     0.117 A 
ATOM     28  C   UNL     1      -4.761  -1.953   1.142  1.00  0.00     0.040 A 
ENDBRANCH  21  23
ENDBRANCH  20  21
ENDBRANCH  19  20
ENDBRANCH   8  19
ENDBRANCH   3   6
ENDBRANCH   1   2
BRANCH   1  29
ATOM     29  C   UNL     1      -1.294   6.725  -2.132  1.00  0.00     0.042 C 
BRANCH  29  30
ATOM     30  C   UNL     1      -2.373   6.747  -3.201  1.00  0.00     0.118 C 
BRANCH  30  31
ATOM     31  N   UNL     1      -3.632   6.121  -2.775  1.00  0.00    -0.352 N 
ATOM     32  C   UNL     1      -4.885   6.653  -2.574  1.00  0.00     0.251 C 
ATOM     33  H   UNL     1      -3.568   5.153  -2.604  1.00  0.00     0.163 HD
ATOM     34  O   UNL     1      -5.773   5.966  -2.075  1.00  0.00    -0.269 OA
BRANCH  32  35
ATOM     35  C   UNL     1      -5.143   8.063  -2.924  1.00  0.00     0.039 A 
ATOM     36  C   UNL     1      -5.876   8.872  -2.051  1.00  0.00     0.014 A 
ATOM     37  C   UNL     1      -4.596   8.602  -4.084  1.00  0.00     0.014 A 
ATOM     38  C   UNL     1      -5.943  10.248  -2.283  1.00  0.00     0.010 A 
ATOM     39  C   UNL     1      -4.539   9.977  -4.232  1.00  0.00     0.010 A 
ATOM     40  C   UNL     1      -5.213  10.820  -3.337  1.00  0.00    -0.014 A 
BRANCH  40  41
ATOM     41  C   UNL     1      -5.114  12.287  -3.544  1.00  0.00     0.031 A 
ATOM     42  C   UNL     1      -5.478  12.869  -4.886  1.00  0.00     0.074 A 
ATOM     43  C   UNL     1      -4.550  13.065  -2.597  1.00  0.00     0.049 A 
ATOM     44  N   UNL     1      -5.265  14.071  -5.351  1.00  0.00    -0.248 NA
ATOM     45  C   UNL     1      -6.109  11.957  -5.858  1.00  0.00     0.031 C 
ATOM     46  C   UNL     1      -4.060  12.603  -1.295  1.00  0.00     0.029 A 
ATOM     47  N   UNL     1      -4.256  14.406  -2.600  1.00  0.00    -0.354 N 
ATOM     48  C   UNL     1      -5.662  14.036  -6.682  1.00  0.00     0.074 A 
ATOM     49  C   UNL     1      -6.091  12.686  -6.963  1.00  0.00     0.031 C 
ATOM     50  C   UNL     1      -3.540  13.643  -0.623  1.00  0.00     0.029 A 
ATOM     51  C   UNL     1      -3.621  14.836  -1.457  1.00  0.00     0.049 A 
ATOM     52  H   UNL     1      -4.479  15.004  -3.350  1.00  0.00     0.167 HD
ATOM     53  C   UNL     1      -5.703  15.047  -7.582  1.00  0.00     0.034 A 
ATOM     54  C   UNL     1      -3.152  16.055  -1.124  1.00  0.00     0.034 A 
ATOM     55  C   UNL     1      -5.378  16.408  -7.262  1.00  0.00     0.049 A 
ATOM     56  C   UNL     1      -3.325  17.188  -2.098  1.00  0.00     0.074 A 
ATOM     57  C   UNL     1      -5.499  17.532  -8.058  1.00  0.00     0.029 A 
ATOM     58  N   UNL     1      -4.888  16.833  -6.037  1.00  0.00    -0.354 N 
ATOM     59  N   UNL     1      -3.842  17.166  -3.303  1.00  0.00    -0.248 NA
ATOM     60  C   UNL     1      -2.888  18.520  -1.657  1.00  0.00     0.031 C 
ATOM     61  C   UNL     1      -5.085  18.639  -7.311  1.00  0.00     0.029 A 
ATOM     62  C   UNL     1      -4.715  18.204  -6.048  1.00  0.00     0.049 A 
ATOM     63  H   UNL     1      -4.693  16.245  -5.271  1.00  0.00     0.167 HD
ATOM     64  C   UNL     1      -3.830  18.483  -3.748  1.00  0.00     0.074 A 
ATOM     65  C   UNL     1      -3.269  19.280  -2.676  1.00  0.00     0.031 C 
ATOM     66  C   UNL     1      -4.229  18.985  -4.941  1.00  0.00     0.034 A 
BRANCH  53  67
ATOM     67  C   UNL     1      -6.196  14.731  -8.969  1.00  0.00     0.023 A 
ATOM     68  C   UNL     1      -7.561  14.436  -9.170  1.00  0.00     0.012 A 
ATOM     69  C   UNL     1      -5.328  14.768 -10.077  1.00  0.00     0.148 A 
ATOM     70  C   UNL     1      -8.046  14.143 -10.443  1.00  0.00     0.002 A 
ATOM     71  C   UNL     1      -5.828  14.521 -11.351  1.00  0.00     0.091 A 
ATOM     72  F   UNL     1      -4.029  15.027  -9.865  1.00  0.00    -0.205 F 
ATOM     73  C   UNL     1      -7.183  14.195 -11.533  1.00  0.00     0.022 A 
BRANCH  71  74
ATOM     74  S   UNL     1      -4.816  14.643 -12.830  1.00  0.00     0.127 S 
ATOM     75  O   UNL     1      -4.668  13.237 -13.203  1.00  0.00    -0.237 OA
ATOM     76  O   UNL     1      -5.671  15.424 -13.724  1.00  0.00    -0.237 OA
ATOM     77  O   UNL     1      -3.591  15.316 -12.422  1.00  0.00    -0.744 OA
ENDBRANCH  71  74
ENDBRANCH  53  67
BRANCH  54  78
ATOM     78  C   UNL     1      -2.563  16.285   0.227  1.00  0.00     0.023 A 
ATOM     79  C   UNL     1      -3.290  17.038   1.170  1.00  0.00     0.012 A 
ATOM     80  C   UNL     1      -1.317  15.743   0.597  1.00  0.00     0.148 A 
ATOM     81  C   UNL     1      -2.775  17.276   2.444  1.00  0.00     0.002 A 
ATOM     82  C   UNL     1      -0.833  15.940   1.887  1.00  0.00     0.091 A 
ATOM     83  F   UNL     1      -0.633  15.039  -0.315  1.00  0.00    -0.205 F 
ATOM     84  C   UNL     1      -1.552  16.720   2.806  1.00  0.00     0.022 A 
BRANCH  82  85
ATOM     85  S   UNL     1       0.666  15.144   2.477  1.00  0.00     0.127 S 
ATOM     86  O   UNL     1       1.621  16.248   2.453  1.00  0.00    -0.237 OA
ATOM     87  O   UNL     1       0.272  14.698   3.814  1.00  0.00    -0.237 OA
ATOM     88  O   UNL     1       0.921  14.058   1.540  1.00  0.00    -0.744 OA
ENDBRANCH  82  85
ENDBRANCH  54  78
BRANCH  66  89
ATOM     89  C   UNL     1      -4.128  20.472  -5.144  1.00  0.00     0.023 A 
ATOM     90  C   UNL     1      -2.870  21.059  -5.382  1.00  0.00     0.012 A 
ATOM     91  C   UNL     1      -5.290  21.266  -5.201  1.00  0.00     0.148 A 
ATOM     92  C   UNL     1      -2.769  22.423  -5.652  1.00  0.00     0.002 A 
ATOM     93  C   UNL     1      -5.185  22.615  -5.515  1.00  0.00     0.091 A 
ATOM     94  F   UNL     1      -6.473  20.687  -4.950  1.00  0.00    -0.205 F 
ATOM     95  C   UNL     1      -3.925  23.197  -5.732  1.00  0.00     0.022 A 
BRANCH  93  96
ATOM     96  S   UNL     1      -6.629  23.661  -5.734  1.00  0.00     0.127 S 
ATOM     97  O   UNL     1      -6.620  24.443  -4.499  1.00  0.00    -0.237 OA
ATOM     98  O   UNL     1      -6.287  24.417  -6.939  1.00  0.00    -0.237 OA
ATOM     99  O   UNL     1      -7.757  22.753  -5.894  1.00  0.00    -0.744 OA
ENDBRANCH  93  96
ENDBRANCH  66  89
ENDBRANCH  40  41
ENDBRANCH  32  35
ENDBRANCH  30  31
ENDBRANCH  29  30
ENDBRANCH   1  29
TORSDOF 18
