REMARK SMILES CC/C=C/C/C=C/C/C=C/C/C=C/CCSCCCC(=O)NCCCNC(=O)c1ccc(-c2c3nc(c(-c4cccc(S(=O)(=O)[O-])c4F)c4ccc([nH]4)c(-c4cccc(S(=O)(=O)[O-])c4F)c4nc(c(-c5cccc(S(=O)(=O)[O-])c5F)c5ccc2[nH]5)C=C4)C=C3)cc1
REMARK SMILES IDX 17 1 16 2 15 3 14 4 13 5 12 6 11 7 10 8 9 9 8 10 7 11 6 12
REMARK SMILES IDX 5 13 4 14 3 15 2 16 1 17 18 18 19 19 20 20 21 21 22 22 23 24
REMARK SMILES IDX 24 25 25 26 26 27 27 28 28 30 29 31 30 32 91 33 31 34 90 35
REMARK SMILES IDX 32 36 33 37 34 38 84 39 35 40 89 41 83 42 85 43 36 44 88 45
REMARK SMILES IDX 82 46 81 47 37 49 69 50 49 51 68 52 50 53 53 54 67 55 86 56
REMARK SMILES IDX 51 57 52 58 66 60 87 61 54 62 38 63 39 64 47 65 40 66 42 67
REMARK SMILES IDX 48 68 41 69 43 70 44 71 45 72 46 73 70 74 71 75 79 76 72 77
REMARK SMILES IDX 74 78 80 79 73 80 75 81 76 82 77 83 78 84 55 85 56 86 64 87
REMARK SMILES IDX 57 88 59 89 65 90 58 91 60 92 61 93 62 94 63 95
REMARK H PARENT 22 23 26 29 85 48 53 59
REMARK Flexibility Score: inf
ROOT
ATOM      1  C   UNL     1      -6.170  -0.913  13.805  1.00  0.00     0.070 C 
ENDROOT
BRANCH   1   2
ATOM      2  S   UNL     1      -6.542  -2.706  13.535  1.00  0.00    -0.162 SA
BRANCH   2   3
ATOM      3  C   UNL     1      -5.498  -3.385  12.177  1.00  0.00     0.073 C 
BRANCH   3   4
ATOM      4  C   UNL     1      -6.058  -3.369  10.729  1.00  0.00     0.038 C 
BRANCH   4   5
ATOM      5  C   UNL     1      -5.315  -2.477   9.765  1.00  0.00    -0.030 C 
ATOM      6  C   UNL     1      -5.498  -2.388   8.435  1.00  0.00    -0.027 C 
BRANCH   6   7
ATOM      7  C   UNL     1      -4.978  -1.244   7.583  1.00  0.00     0.054 C 
BRANCH   7   8
ATOM      8  C   UNL     1      -3.540  -0.858   7.801  1.00  0.00    -0.027 C 
ATOM      9  C   UNL     1      -2.767  -0.354   6.823  1.00  0.00    -0.027 C 
BRANCH   9  10
ATOM     10  C   UNL     1      -1.312  -0.010   6.981  1.00  0.00     0.054 C 
BRANCH  10  11
ATOM     11  C   UNL     1      -0.499  -1.050   6.266  1.00  0.00    -0.027 C 
ATOM     12  C   UNL     1       0.282  -0.808   5.203  1.00  0.00    -0.027 C 
BRANCH  12  13
ATOM     13  C   UNL     1       0.915  -1.893   4.381  1.00  0.00     0.054 C 
BRANCH  13  14
ATOM     14  C   UNL     1       0.394  -1.820   2.974  1.00  0.00    -0.027 C 
ATOM     15  C   UNL     1       1.162  -1.614   1.893  1.00  0.00    -0.031 C 
BRANCH  15  16
ATOM     16  C   UNL     1       0.612  -1.434   0.508  1.00  0.00     0.023 C 
ATOM     17  C   UNL     1       1.020  -0.082  -0.057  1.00  0.00     0.008 C 
ENDBRANCH  15  16
ENDBRANCH  13  14
ENDBRANCH  12  13
ENDBRANCH  10  11
ENDBRANCH   9  10
ENDBRANCH   7   8
ENDBRANCH   6   7
ENDBRANCH   4   5
ENDBRANCH   3   4
ENDBRANCH   2   3
ENDBRANCH   1   2
BRANCH   1  18
ATOM     18  C   UNL     1      -4.800  -0.244  13.694  1.00  0.00     0.021 C 
BRANCH  18  19
ATOM     19  C   UNL     1      -4.066  -0.218  12.367  1.00  0.00     0.101 C 
BRANCH  19  20
ATOM     20  C   UNL     1      -4.384   0.870  11.353  1.00  0.00     0.220 C 
ATOM     21  O   UNL     1      -3.490   1.642  10.992  1.00  0.00    -0.275 OA
ATOM     22  N   UNL     1      -5.587   0.996  10.742  1.00  0.00    -0.356 N 
ATOM     23  H   UNL     1      -5.688   1.823  10.217  1.00  0.00     0.163 HD
BRANCH  22  24
ATOM     24  C   UNL     1      -6.750   0.136  10.719  1.00  0.00     0.117 C 
BRANCH  24  25
ATOM     25  C   UNL     1      -8.031   0.864  11.080  1.00  0.00     0.042 C 
BRANCH  25  26
ATOM     26  C   UNL     1      -8.939   0.999   9.869  1.00  0.00     0.118 C 
BRANCH  26  27
ATOM     27  N   UNL     1      -9.643  -0.240   9.541  1.00  0.00    -0.352 N 
ATOM     28  C   UNL     1     -10.989  -0.409   9.261  1.00  0.00     0.251 C 
ATOM     29  H   UNL     1      -9.092  -1.056   9.517  1.00  0.00     0.163 HD
ATOM     30  O   UNL     1     -11.469  -1.515   9.119  1.00  0.00    -0.269 OA
BRANCH  28  31
ATOM     31  C   UNL     1     -11.834   0.805   9.182  1.00  0.00     0.039 A 
ATOM     32  C   UNL     1     -12.990   0.889   9.960  1.00  0.00     0.014 A 
ATOM     33  C   UNL     1     -11.395   1.902   8.440  1.00  0.00     0.014 A 
ATOM     34  C   UNL     1     -13.651   2.116  10.071  1.00  0.00     0.010 A 
ATOM     35  C   UNL     1     -11.981   3.141   8.650  1.00  0.00     0.010 A 
ATOM     36  C   UNL     1     -13.118   3.265   9.463  1.00  0.00    -0.014 A 
BRANCH  36  37
ATOM     37  C   UNL     1     -13.716   4.613   9.659  1.00  0.00     0.031 A 
ATOM     38  C   UNL     1     -14.152   5.417   8.462  1.00  0.00     0.074 A 
ATOM     39  C   UNL     1     -13.755   5.162  10.891  1.00  0.00     0.049 A 
ATOM     40  N   UNL     1     -14.583   6.650   8.407  1.00  0.00    -0.248 NA
ATOM     41  C   UNL     1     -14.041   4.766   7.144  1.00  0.00     0.031 C 
ATOM     42  C   UNL     1     -13.267   4.532  12.121  1.00  0.00     0.029 A 
ATOM     43  N   UNL     1     -14.200   6.393  11.309  1.00  0.00    -0.354 N 
ATOM     44  C   UNL     1     -14.739   6.937   7.056  1.00  0.00     0.074 A 
ATOM     45  C   UNL     1     -14.310   5.769   6.322  1.00  0.00     0.031 C 
ATOM     46  C   UNL     1     -13.454   5.371  13.153  1.00  0.00     0.029 A 
ATOM     47  C   UNL     1     -14.044   6.610  12.659  1.00  0.00     0.049 A 
ATOM     48  H   UNL     1     -14.594   7.058  10.699  1.00  0.00     0.167 HD
ATOM     49  C   UNL     1     -15.236   8.054   6.476  1.00  0.00     0.034 A 
ATOM     50  C   UNL     1     -14.342   7.687  13.414  1.00  0.00     0.034 A 
ATOM     51  C   UNL     1     -15.738   9.180   7.212  1.00  0.00     0.049 A 
ATOM     52  C   UNL     1     -14.974   8.884  12.754  1.00  0.00     0.074 A 
ATOM     53  C   UNL     1     -16.365  10.314   6.728  1.00  0.00     0.029 A 
ATOM     54  N   UNL     1     -15.677   9.312   8.590  1.00  0.00    -0.354 N 
ATOM     55  N   UNL     1     -15.268   9.070  11.490  1.00  0.00    -0.248 NA
ATOM     56  C   UNL     1     -15.352  10.005  13.628  1.00  0.00     0.031 C 
ATOM     57  C   UNL     1     -16.672  11.138   7.815  1.00  0.00     0.029 A 
ATOM     58  C   UNL     1     -16.255  10.507   8.976  1.00  0.00     0.049 A 
ATOM     59  H   UNL     1     -15.280   8.652   9.204  1.00  0.00     0.167 HD
ATOM     60  C   UNL     1     -15.897  10.307  11.422  1.00  0.00     0.074 A 
ATOM     61  C   UNL     1     -15.961  10.818  12.776  1.00  0.00     0.031 C 
ATOM     62  C   UNL     1     -16.366  10.970  10.336  1.00  0.00     0.034 A 
BRANCH  49  63
ATOM     63  C   UNL     1     -15.328   8.079   4.972  1.00  0.00     0.023 A 
ATOM     64  C   UNL     1     -16.268   7.254   4.320  1.00  0.00     0.012 A 
ATOM     65  C   UNL     1     -14.523   8.945   4.208  1.00  0.00     0.148 A 
ATOM     66  C   UNL     1     -16.376   7.258   2.931  1.00  0.00     0.002 A 
ATOM     67  C   UNL     1     -14.671   8.979   2.826  1.00  0.00     0.091 A 
ATOM     68  F   UNL     1     -13.620   9.707   4.842  1.00  0.00    -0.205 F 
ATOM     69  C   UNL     1     -15.586   8.127   2.185  1.00  0.00     0.022 A 
BRANCH  67  70
ATOM     70  S   UNL     1     -13.760  10.122   1.781  1.00  0.00     0.127 S 
ATOM     71  O   UNL     1     -12.841   9.220   1.089  1.00  0.00    -0.237 OA
ATOM     72  O   UNL     1     -14.819  10.678   0.938  1.00  0.00    -0.237 OA
ATOM     73  O   UNL     1     -13.136  11.080   2.683  1.00  0.00    -0.744 OA
ENDBRANCH  67  70
ENDBRANCH  49  63
BRANCH  50  74
ATOM     74  C   UNL     1     -14.126   7.652  14.889  1.00  0.00     0.023 A 
ATOM     75  C   UNL     1     -15.244   7.600  15.747  1.00  0.00     0.012 A 
ATOM     76  C   UNL     1     -12.834   7.645  15.448  1.00  0.00     0.148 A 
ATOM     77  C   UNL     1     -15.080   7.578  17.132  1.00  0.00     0.002 A 
ATOM     78  C   UNL     1     -12.677   7.567  16.828  1.00  0.00     0.091 A 
ATOM     79  F   UNL     1     -11.783   7.706  14.619  1.00  0.00    -0.205 F 
ATOM     80  C   UNL     1     -13.797   7.551  17.672  1.00  0.00     0.022 A 
BRANCH  78  81
ATOM     81  S   UNL     1     -11.065   7.395  17.604  1.00  0.00     0.127 S 
ATOM     82  O   UNL     1     -10.879   8.714  18.203  1.00  0.00    -0.237 OA
ATOM     83  O   UNL     1     -11.302   6.312  18.560  1.00  0.00    -0.237 OA
ATOM     84  O   UNL     1     -10.148   7.050  16.526  1.00  0.00    -0.744 OA
ENDBRANCH  78  81
ENDBRANCH  50  74
BRANCH  62  85
ATOM     85  C   UNL     1     -17.029  12.302  10.559  1.00  0.00     0.023 A 
ATOM     86  C   UNL     1     -16.248  13.428  10.883  1.00  0.00     0.012 A 
ATOM     87  C   UNL     1     -18.416  12.454  10.360  1.00  0.00     0.148 A 
ATOM     88  C   UNL     1     -16.841  14.681  11.034  1.00  0.00     0.002 A 
ATOM     89  C   UNL     1     -18.992  13.713  10.463  1.00  0.00     0.091 A 
ATOM     90  F   UNL     1     -19.143  11.365  10.070  1.00  0.00    -0.205 F 
ATOM     91  C   UNL     1     -18.209  14.826  10.811  1.00  0.00     0.022 A 
BRANCH  89  92
ATOM     92  S   UNL     1     -20.725  14.010  10.095  1.00  0.00     0.127 S 
ATOM     93  O   UNL     1     -21.280  14.223  11.431  1.00  0.00    -0.237 OA
ATOM     94  O   UNL     1     -20.665  15.210   9.261  1.00  0.00    -0.237 OA
ATOM     95  O   UNL     1     -21.197  12.818   9.404  1.00  0.00    -0.744 OA
ENDBRANCH  89  92
ENDBRANCH  62  85
ENDBRANCH  36  37
ENDBRANCH  28  31
ENDBRANCH  26  27
ENDBRANCH  25  26
ENDBRANCH  24  25
ENDBRANCH  22  24
ENDBRANCH  19  20
ENDBRANCH  18  19
ENDBRANCH   1  18
TORSDOF 26
