REMARK SMILES O=C(NCCCNC(=O)[C@@H]1[C@H](C(=O)Nc2ccccc2OC(F)F)[C@@H]2C=C[C@H]1C2)c1ccc(-c2c3nc(c(-c4cccc(S(=O)(=O)[O-])c4F)c4ccc([nH]4)c(-c4cccc(S(=O)(=O)[O-])c4F)c4nc(c(-c5cccc(S(=O)(=O)[O-])c5F)c5ccc2[nH]5)C=C4)C=C3)cc1
REMARK SMILES IDX 5 1 4 2 3 3 1 4 2 5 30 7 31 8 92 9 32 10 91 11 33 12 34 13
REMARK SMILES IDX 35 14 85 15 36 16 90 17 84 18 86 19 37 20 89 21 83 22 82 23
REMARK SMILES IDX 38 25 70 26 50 27 69 28 51 29 54 30 68 31 87 32 52 33 53 34
REMARK SMILES IDX 67 36 88 37 55 38 39 39 40 40 48 41 41 42 43 43 49 44 42 45
REMARK SMILES IDX 44 46 45 47 46 48 47 49 71 50 72 51 80 52 73 53 75 54 81 55
REMARK SMILES IDX 74 56 76 57 77 58 78 59 79 60 56 61 57 62 65 63 58 64 60 65
REMARK SMILES IDX 66 66 59 67 61 68 62 69 63 70 64 71 6 72 7 73 8 74 9 76
REMARK SMILES IDX 10 77 11 78 28 79 25 80 27 81 29 82 26 83 12 84 13 85 14 86
REMARK SMILES IDX 15 88 16 89 20 90 17 91 19 92 18 93 21 94 22 95 23 96 24 97
REMARK H PARENT 3 6 86 24 54 35 7 75 14 87
REMARK Flexibility Score: inf
ROOT
ATOM      1  C   UNL     1       5.231  -2.059  -0.473  1.00  0.00     0.042 C 
ENDROOT
BRANCH   1   2
ATOM      2  C   UNL     1       4.758  -0.725  -1.040  1.00  0.00     0.118 C 
BRANCH   2   3
ATOM      3  N   UNL     1       3.308  -0.567  -1.029  1.00  0.00    -0.352 N 
ATOM      4  O   UNL     1       1.268  -0.020  -0.245  1.00  0.00    -0.269 OA
ATOM      5  C   UNL     1       2.481   0.104  -0.148  1.00  0.00     0.251 C 
ATOM      6  H   UNL     1       2.840  -1.012  -1.772  1.00  0.00     0.163 HD
BRANCH   5   7
ATOM      7  C   UNL     1       3.068   0.928   0.935  1.00  0.00     0.039 A 
ATOM      8  C   UNL     1       4.151   1.762   0.677  1.00  0.00     0.014 A 
ATOM      9  C   UNL     1       2.555   0.842   2.233  1.00  0.00     0.014 A 
ATOM     10  C   UNL     1       4.880   2.287   1.735  1.00  0.00     0.010 A 
ATOM     11  C   UNL     1       3.212   1.493   3.286  1.00  0.00     0.010 A 
ATOM     12  C   UNL     1       4.425   2.161   3.058  1.00  0.00    -0.014 A 
BRANCH  12  13
ATOM     13  C   UNL     1       5.240   2.754   4.157  1.00  0.00     0.031 A 
ATOM     14  C   UNL     1       5.785   1.907   5.280  1.00  0.00     0.074 A 
ATOM     15  C   UNL     1       5.545   4.067   4.101  1.00  0.00     0.049 A 
ATOM     16  N   UNL     1       6.576   2.259   6.263  1.00  0.00    -0.248 NA
ATOM     17  C   UNL     1       5.389   0.490   5.319  1.00  0.00     0.031 C 
ATOM     18  C   UNL     1       5.047   5.003   3.089  1.00  0.00     0.029 A 
ATOM     19  N   UNL     1       6.362   4.839   4.887  1.00  0.00    -0.354 N 
ATOM     20  C   UNL     1       6.720   1.132   7.066  1.00  0.00     0.074 A 
ATOM     21  C   UNL     1       5.938   0.081   6.455  1.00  0.00     0.031 C 
ATOM     22  C   UNL     1       5.622   6.199   3.270  1.00  0.00     0.029 A 
ATOM     23  C   UNL     1       6.470   6.141   4.453  1.00  0.00     0.049 A 
ATOM     24  H   UNL     1       6.826   4.496   5.684  1.00  0.00     0.167 HD
ATOM     25  C   UNL     1       7.447   0.982   8.201  1.00  0.00     0.034 A 
ATOM     26  C   UNL     1       7.167   7.180   4.952  1.00  0.00     0.034 A 
ATOM     27  C   UNL     1       8.276   2.012   8.771  1.00  0.00     0.049 A 
ATOM     28  C   UNL     1       8.008   6.967   6.176  1.00  0.00     0.074 A 
ATOM     29  C   UNL     1       9.105   1.935   9.877  1.00  0.00     0.029 A 
ATOM     30  N   UNL     1       8.384   3.306   8.283  1.00  0.00    -0.354 N 
ATOM     31  N   UNL     1       8.215   5.863   6.851  1.00  0.00    -0.248 NA
ATOM     32  C   UNL     1       8.727   8.138   6.696  1.00  0.00     0.031 C 
ATOM     33  C   UNL     1       9.699   3.187  10.068  1.00  0.00     0.029 A 
ATOM     34  C   UNL     1       9.258   4.038   9.068  1.00  0.00     0.049 A 
ATOM     35  H   UNL     1       7.908   3.652   7.494  1.00  0.00     0.167 HD
ATOM     36  C   UNL     1       9.107   6.199   7.862  1.00  0.00     0.074 A 
ATOM     37  C   UNL     1       9.423   7.603   7.690  1.00  0.00     0.031 C 
ATOM     38  C   UNL     1       9.602   5.421   8.855  1.00  0.00     0.034 A 
BRANCH  25  39
ATOM     39  C   UNL     1       7.408  -0.356   8.896  1.00  0.00     0.023 A 
ATOM     40  C   UNL     1       8.094  -1.456   8.343  1.00  0.00     0.012 A 
ATOM     41  C   UNL     1       6.752  -0.506  10.135  1.00  0.00     0.148 A 
ATOM     42  C   UNL     1       8.103  -2.689   8.995  1.00  0.00     0.002 A 
ATOM     43  C   UNL     1       6.800  -1.727  10.799  1.00  0.00     0.091 A 
ATOM     44  F   UNL     1       6.086   0.544  10.637  1.00  0.00    -0.205 F 
ATOM     45  C   UNL     1       7.466  -2.822  10.226  1.00  0.00     0.022 A 
BRANCH  43  46
ATOM     46  S   UNL     1       6.076  -1.971  12.426  1.00  0.00     0.127 S 
ATOM     47  O   UNL     1       4.887  -2.759  12.104  1.00  0.00    -0.237 OA
ATOM     48  O   UNL     1       7.127  -2.712  13.125  1.00  0.00    -0.237 OA
ATOM     49  O   UNL     1       5.823  -0.638  12.954  1.00  0.00    -0.744 OA
ENDBRANCH  43  46
ENDBRANCH  25  39
BRANCH  26  50
ATOM     50  C   UNL     1       7.131   8.496   4.255  1.00  0.00     0.023 A 
ATOM     51  C   UNL     1       8.288   8.971   3.607  1.00  0.00     0.012 A 
ATOM     52  C   UNL     1       5.945   9.252   4.181  1.00  0.00     0.148 A 
ATOM     53  C   UNL     1       8.268  10.183   2.916  1.00  0.00     0.002 A 
ATOM     54  C   UNL     1       5.915  10.425   3.437  1.00  0.00     0.091 A 
ATOM     55  F   UNL     1       4.859   8.794   4.822  1.00  0.00    -0.205 F 
ATOM     56  C   UNL     1       7.079  10.902   2.818  1.00  0.00     0.022 A 
BRANCH  54  57
ATOM     57  S   UNL     1       4.388  11.320   3.133  1.00  0.00     0.127 S 
ATOM     58  O   UNL     1       4.536  12.473   4.016  1.00  0.00    -0.237 OA
ATOM     59  O   UNL     1       4.489  11.619   1.704  1.00  0.00    -0.237 OA
ATOM     60  O   UNL     1       3.319  10.390   3.471  1.00  0.00    -0.744 OA
ENDBRANCH  54  57
ENDBRANCH  26  50
BRANCH  38  61
ATOM     61  C   UNL     1      10.564   6.063   9.818  1.00  0.00     0.023 A 
ATOM     62  C   UNL     1      10.088   6.981  10.774  1.00  0.00     0.012 A 
ATOM     63  C   UNL     1      11.929   5.719   9.806  1.00  0.00     0.148 A 
ATOM     64  C   UNL     1      10.964   7.576  11.681  1.00  0.00     0.002 A 
ATOM     65  C   UNL     1      12.788   6.279  10.744  1.00  0.00     0.091 A 
ATOM     66  F   UNL     1      12.367   4.861   8.873  1.00  0.00    -0.205 F 
ATOM     67  C   UNL     1      12.310   7.217  11.674  1.00  0.00     0.022 A 
BRANCH  65  68
ATOM     68  S   UNL     1      14.515   5.800  10.861  1.00  0.00     0.127 S 
ATOM     69  O   UNL     1      15.183   6.929  10.216  1.00  0.00    -0.237 OA
ATOM     70  O   UNL     1      14.720   5.717  12.308  1.00  0.00    -0.237 OA
ATOM     71  O   UNL     1      14.619   4.524  10.166  1.00  0.00    -0.744 OA
ENDBRANCH  65  68
ENDBRANCH  38  61
ENDBRANCH  12  13
ENDBRANCH   5   7
ENDBRANCH   2   3
ENDBRANCH   1   2
BRANCH   1  72
ATOM     72  C   UNL     1       5.183  -3.201  -1.478  1.00  0.00     0.117 C 
BRANCH  72  73
ATOM     73  N   UNL     1       6.120  -3.030  -2.576  1.00  0.00    -0.356 N 
ATOM     74  C   UNL     1       6.485  -3.888  -3.564  1.00  0.00     0.224 C 
ATOM     75  H   UNL     1       6.561  -2.151  -2.609  1.00  0.00     0.163 HD
ATOM     76  O   UNL     1       6.930  -3.366  -4.594  1.00  0.00    -0.275 OA
BRANCH  74  77
ATOM     77  C   UNL     1       6.577  -5.384  -3.388  1.00  0.00     0.098 C 
ATOM     78  C   UNL     1       6.246  -6.355  -4.563  1.00  0.00     0.099 C 
ATOM     79  C   UNL     1       6.125  -6.178  -2.146  1.00  0.00     0.025 C 
ATOM     80  C   UNL     1       5.772  -7.639  -3.814  1.00  0.00     0.025 C 
ATOM     81  C   UNL     1       4.649  -6.487  -2.177  1.00  0.00    -0.027 C 
ATOM     82  C   UNL     1       6.635  -7.580  -2.546  1.00  0.00     0.017 C 
ATOM     83  C   UNL     1       4.450  -7.396  -3.141  1.00  0.00    -0.027 C 
BRANCH  78  84
ATOM     84  C   UNL     1       5.490  -6.108  -5.879  1.00  0.00     0.229 C 
ATOM     85  O   UNL     1       6.106  -6.331  -6.937  1.00  0.00    -0.274 OA
ATOM     86  N   UNL     1       4.149  -5.936  -6.041  1.00  0.00    -0.323 N 
ATOM     87  H   UNL     1       3.840  -6.183  -6.942  1.00  0.00     0.170 HD
BRANCH  86  88
ATOM     88  C   UNL     1       3.113  -5.487  -5.219  1.00  0.00     0.084 A 
ATOM     89  C   UNL     1       1.949  -6.270  -5.188  1.00  0.00     0.030 A 
ATOM     90  C   UNL     1       3.130  -4.290  -4.508  1.00  0.00     0.149 A 
ATOM     91  C   UNL     1       0.910  -5.969  -4.303  1.00  0.00     0.002 A 
ATOM     92  C   UNL     1       2.097  -4.000  -3.606  1.00  0.00     0.049 A 
ATOM     93  C   UNL     1       1.002  -4.852  -3.481  1.00  0.00     0.004 A 
BRANCH  90  94
ATOM     94  O   UNL     1       4.075  -3.321  -4.643  1.00  0.00    -0.433 OA
BRANCH  94  95
ATOM     95  C   UNL     1       4.224  -2.776  -5.957  1.00  0.00     0.542 C 
ATOM     96  F   UNL     1       5.067  -3.529  -6.695  1.00  0.00    -0.167 F 
ATOM     97  F   UNL     1       3.031  -2.737  -6.599  1.00  0.00    -0.167 F 
ENDBRANCH  94  95
ENDBRANCH  90  94
ENDBRANCH  86  88
ENDBRANCH  78  84
ENDBRANCH  74  77
ENDBRANCH  72  73
ENDBRANCH   1  72
TORSDOF 17
