REMARK SMILES CC[C@](C)(NC(=O)c1cccc2ncccc12)C(=O)NCCCNC(=O)c1ccc(-c2c3nc(c(-c4cccc(S(=O)(=O)[O-])c4F)c4ccc([nH]4)c(-c4cccc(S(=O)(=O)[O-])c4F)c4nc(c(-c5cccc(S(=O)(=O)[O-])c5F)c5ccc2[nH]5)C=C4)C=C3)cc1
REMARK SMILES IDX 22 1 21 2 20 3 18 4 19 5 3 7 4 8 2 9 1 10 5 11 6 12 7 14
REMARK SMILES IDX 8 15 9 16 17 17 10 18 12 19 16 20 11 21 13 22 15 23 14 24
REMARK SMILES IDX 23 25 24 26 25 27 26 29 27 30 28 31 89 32 29 33 88 34 30 35
REMARK SMILES IDX 31 36 32 37 82 38 33 39 87 40 81 41 83 42 34 43 86 44 80 45
REMARK SMILES IDX 79 46 35 48 67 49 47 50 66 51 48 52 51 53 65 54 84 55 49 56
REMARK SMILES IDX 50 57 64 59 85 60 52 61 36 62 37 63 45 64 38 65 40 66 46 67
REMARK SMILES IDX 39 68 41 69 42 70 43 71 44 72 68 73 69 74 77 75 70 76 72 77
REMARK SMILES IDX 78 78 71 79 73 80 74 81 75 82 76 83 53 84 54 85 62 86 55 87
REMARK SMILES IDX 57 88 63 89 56 90 58 91 59 92 60 93 61 94
REMARK H PARENT 20 6 5 13 24 28 83 47 51 58
REMARK Flexibility Score: inf
ROOT
ATOM      1  C   UNL     1       2.522   5.105  -3.470  1.00  0.00     0.042 C 
ENDROOT
BRANCH   1   2
ATOM      2  C   UNL     1       2.179   3.667  -3.875  1.00  0.00     0.117 C 
BRANCH   2   3
ATOM      3  N   UNL     1       2.757   2.560  -3.121  1.00  0.00    -0.354 N 
ATOM      4  C   UNL     1       2.403   1.895  -1.973  1.00  0.00     0.245 C 
ATOM      5  O   UNL     1       3.063   0.881  -1.712  1.00  0.00    -0.272 OA
ATOM      6  H   UNL     1       3.584   2.212  -3.526  1.00  0.00     0.163 HD
BRANCH   4   7
ATOM      7  C   UNL     1       1.207   2.320  -1.071  1.00  0.00     0.116 C 
ATOM      8  C   UNL     1       1.193   1.565   0.273  1.00  0.00     0.045 C 
BRANCH   7   9
ATOM      9  C   UNL     1      -0.082   1.906  -1.865  1.00  0.00     0.035 C 
ATOM     10  C   UNL     1      -0.152   0.431  -2.287  1.00  0.00     0.007 C 
ENDBRANCH   7   9
BRANCH   7  11
ATOM     11  N   UNL     1       1.157   3.782  -0.753  1.00  0.00    -0.338 N 
ATOM     12  C   UNL     1       1.886   4.636   0.072  1.00  0.00     0.252 C 
ATOM     13  H   UNL     1       0.442   4.250  -1.242  1.00  0.00     0.164 HD
ATOM     14  O   UNL     1       1.250   5.613   0.472  1.00  0.00    -0.269 OA
BRANCH  12  15
ATOM     15  C   UNL     1       3.355   4.511   0.421  1.00  0.00     0.049 A 
ATOM     16  C   UNL     1       4.184   3.799  -0.437  1.00  0.00     0.014 A 
ATOM     17  C   UNL     1       4.006   5.256   1.458  1.00  0.00     0.013 A 
ATOM     18  C   UNL     1       5.554   3.671  -0.277  1.00  0.00     0.003 A 
ATOM     19  C   UNL     1       5.423   5.149   1.601  1.00  0.00     0.071 A 
ATOM     20  C   UNL     1       3.396   6.160   2.359  1.00  0.00     0.013 A 
ATOM     21  C   UNL     1       6.158   4.342   0.760  1.00  0.00     0.029 A 
ATOM     22  N   UNL     1       6.151   5.831   2.490  1.00  0.00    -0.256 NA
ATOM     23  C   UNL     1       4.158   6.908   3.258  1.00  0.00     0.021 A 
ATOM     24  C   UNL     1       5.521   6.715   3.280  1.00  0.00     0.112 A 
ENDBRANCH  12  15
ENDBRANCH   7  11
ENDBRANCH   4   7
ENDBRANCH   2   3
ENDBRANCH   1   2
BRANCH   1  25
ATOM     25  C   UNL     1       3.981   5.554  -3.463  1.00  0.00     0.118 C 
BRANCH  25  26
ATOM     26  N   UNL     1       4.681   5.350  -4.712  1.00  0.00    -0.352 N 
ATOM     27  C   UNL     1       5.513   6.199  -5.399  1.00  0.00     0.251 C 
ATOM     28  H   UNL     1       4.539   4.471  -5.132  1.00  0.00     0.163 HD
ATOM     29  O   UNL     1       5.978   5.822  -6.474  1.00  0.00    -0.269 OA
BRANCH  27  30
ATOM     30  C   UNL     1       5.835   7.559  -4.899  1.00  0.00     0.039 A 
ATOM     31  C   UNL     1       5.805   8.612  -5.821  1.00  0.00     0.014 A 
ATOM     32  C   UNL     1       6.235   7.810  -3.582  1.00  0.00     0.014 A 
ATOM     33  C   UNL     1       6.151   9.907  -5.425  1.00  0.00     0.010 A 
ATOM     34  C   UNL     1       6.531   9.118  -3.175  1.00  0.00     0.010 A 
ATOM     35  C   UNL     1       6.511  10.179  -4.095  1.00  0.00    -0.014 A 
BRANCH  35  36
ATOM     36  C   UNL     1       6.885  11.565  -3.689  1.00  0.00     0.031 A 
ATOM     37  C   UNL     1       8.294  11.890  -3.263  1.00  0.00     0.074 A 
ATOM     38  C   UNL     1       5.954  12.541  -3.693  1.00  0.00     0.049 A 
ATOM     39  N   UNL     1       8.808  13.047  -2.927  1.00  0.00    -0.248 NA
ATOM     40  C   UNL     1       9.246  10.771  -3.191  1.00  0.00     0.031 C 
ATOM     41  C   UNL     1       4.540  12.356  -4.025  1.00  0.00     0.029 A 
ATOM     42  N   UNL     1       6.052  13.879  -3.398  1.00  0.00    -0.354 N 
ATOM     43  C   UNL     1      10.131  12.793  -2.580  1.00  0.00     0.074 A 
ATOM     44  C   UNL     1      10.331  11.367  -2.716  1.00  0.00     0.031 C 
ATOM     45  C   UNL     1       3.906  13.536  -3.923  1.00  0.00     0.029 A 
ATOM     46  C   UNL     1       4.859  14.558  -3.496  1.00  0.00     0.049 A 
ATOM     47  H   UNL     1       6.898  14.313  -3.140  1.00  0.00     0.167 HD
ATOM     48  C   UNL     1      11.099  13.666  -2.208  1.00  0.00     0.034 A 
ATOM     49  C   UNL     1       4.562  15.853  -3.270  1.00  0.00     0.034 A 
ATOM     50  C   UNL     1      10.912  15.089  -2.099  1.00  0.00     0.049 A 
ATOM     51  C   UNL     1       5.662  16.807  -2.883  1.00  0.00     0.074 A 
ATOM     52  C   UNL     1      11.853  16.060  -1.803  1.00  0.00     0.029 A 
ATOM     53  N   UNL     1       9.703  15.745  -2.269  1.00  0.00    -0.354 N 
ATOM     54  N   UNL     1       6.940  16.570  -2.715  1.00  0.00    -0.248 NA
ATOM     55  C   UNL     1       5.285  18.216  -2.695  1.00  0.00     0.031 C 
ATOM     56  C   UNL     1      11.206  17.300  -1.763  1.00  0.00     0.029 A 
ATOM     57  C   UNL     1       9.870  17.106  -2.073  1.00  0.00     0.049 A 
ATOM     58  H   UNL     1       8.851  15.308  -2.495  1.00  0.00     0.167 HD
ATOM     59  C   UNL     1       7.525  17.802  -2.445  1.00  0.00     0.074 A 
ATOM     60  C   UNL     1       6.465  18.787  -2.489  1.00  0.00     0.031 C 
ATOM     61  C   UNL     1       8.822  18.089  -2.173  1.00  0.00     0.034 A 
BRANCH  48  62
ATOM     62  C   UNL     1      12.475  13.111  -1.929  1.00  0.00     0.023 A 
ATOM     63  C   UNL     1      13.262  12.632  -2.997  1.00  0.00     0.012 A 
ATOM     64  C   UNL     1      13.013  13.122  -0.627  1.00  0.00     0.148 A 
ATOM     65  C   UNL     1      14.545  12.137  -2.769  1.00  0.00     0.002 A 
ATOM     66  C   UNL     1      14.311  12.670  -0.415  1.00  0.00     0.091 A 
ATOM     67  F   UNL     1      12.247  13.567   0.378  1.00  0.00    -0.205 F 
ATOM     68  C   UNL     1      15.073  12.165  -1.482  1.00  0.00     0.022 A 
BRANCH  66  69
ATOM     69  S   UNL     1      15.114  12.743   1.191  1.00  0.00     0.127 S 
ATOM     70  O   UNL     1      15.186  11.327   1.549  1.00  0.00    -0.237 OA
ATOM     71  O   UNL     1      16.403  13.354   0.863  1.00  0.00    -0.237 OA
ATOM     72  O   UNL     1      14.253  13.558   2.035  1.00  0.00    -0.744 OA
ENDBRANCH  66  69
ENDBRANCH  48  62
BRANCH  49  73
ATOM     73  C   UNL     1       3.167  16.344  -3.465  1.00  0.00     0.023 A 
ATOM     74  C   UNL     1       2.878  17.213  -4.535  1.00  0.00     0.012 A 
ATOM     75  C   UNL     1       2.126  15.947  -2.603  1.00  0.00     0.148 A 
ATOM     76  C   UNL     1       1.586  17.706  -4.724  1.00  0.00     0.002 A 
ATOM     77  C   UNL     1       0.830  16.396  -2.830  1.00  0.00     0.091 A 
ATOM     78  F   UNL     1       2.423  15.130  -1.583  1.00  0.00    -0.205 F 
ATOM     79  C   UNL     1       0.562  17.290  -3.878  1.00  0.00     0.022 A 
BRANCH  77  80
ATOM     80  S   UNL     1      -0.572  15.813  -1.871  1.00  0.00     0.127 S 
ATOM     81  O   UNL     1      -0.943  17.016  -1.125  1.00  0.00    -0.237 OA
ATOM     82  O   UNL     1      -1.516  15.430  -2.924  1.00  0.00    -0.237 OA
ATOM     83  O   UNL     1      -0.075  14.705  -1.076  1.00  0.00    -0.744 OA
ENDBRANCH  77  80
ENDBRANCH  49  73
BRANCH  61  84
ATOM     84  C   UNL     1       9.192  19.534  -1.951  1.00  0.00     0.023 A 
ATOM     85  C   UNL     1       8.787  20.195  -0.774  1.00  0.00     0.012 A 
ATOM     86  C   UNL     1      10.003  20.216  -2.881  1.00  0.00     0.148 A 
ATOM     87  C   UNL     1       9.152  21.522  -0.544  1.00  0.00     0.002 A 
ATOM     88  C   UNL     1      10.406  21.521  -2.620  1.00  0.00     0.091 A 
ATOM     89  F   UNL     1      10.363  19.579  -4.004  1.00  0.00    -0.205 F 
ATOM     90  C   UNL     1       9.970  22.180  -1.460  1.00  0.00     0.022 A 
BRANCH  88  91
ATOM     91  S   UNL     1      11.539  22.411  -3.693  1.00  0.00     0.127 S 
ATOM     92  O   UNL     1      10.650  23.387  -4.322  1.00  0.00    -0.237 OA
ATOM     93  O   UNL     1      12.489  22.981  -2.737  1.00  0.00    -0.237 OA
ATOM     94  O   UNL     1      12.109  21.415  -4.590  1.00  0.00    -0.744 OA
ENDBRANCH  88  91
ENDBRANCH  61  84
ENDBRANCH  35  36
ENDBRANCH  27  30
ENDBRANCH  25  26
ENDBRANCH   1  25
TORSDOF 16
