REMARK SMILES O=C(NCCCNC(=O)c1sccc1S(=O)(=O)Nc1ccc(Cn2cncn2)cc1)c1ccc(-c2c3nc(c(-c4cccc(S(=O)(=O)[O-])c4F)c4ccc([nH]4)c(-c4cccc(S(=O)(=O)[O-])c4F)c4nc(c(-c5cccc(S(=O)(=O)[O-])c5F)c5ccc2[nH]5)C=C4)C=C3)cc1
REMARK SMILES IDX 6 1 5 2 4 3 3 4 1 5 2 6 31 8 32 9 93 10 33 11 92 12 34 13
REMARK SMILES IDX 35 14 36 15 86 16 37 17 91 18 85 19 87 20 38 21 90 22 84 23
REMARK SMILES IDX 83 24 39 26 71 27 51 28 70 29 52 30 55 31 69 32 88 33 53 34
REMARK SMILES IDX 54 35 68 37 89 38 56 39 40 40 41 41 49 42 42 43 44 44 50 45
REMARK SMILES IDX 43 46 45 47 46 48 47 49 48 50 72 51 73 52 81 53 74 54 76 55
REMARK SMILES IDX 82 56 75 57 77 58 78 59 79 60 80 61 57 62 58 63 66 64 59 65
REMARK SMILES IDX 61 66 67 67 60 68 62 69 63 70 64 71 65 72 7 73 8 74 9 76
REMARK SMILES IDX 10 77 11 78 14 79 12 80 13 81 15 82 16 83 17 84 18 85 19 87
REMARK SMILES IDX 20 88 30 89 21 90 29 91 22 92 23 93 24 94 25 95 28 96 26 97
REMARK SMILES IDX 27 98
REMARK H PARENT 3 7 87 25 55 36 7 75 18 86
REMARK Flexibility Score: inf
ROOT
ATOM      1  C   UNL     1       5.145  -0.805   3.146  1.00  0.00     0.118 C 
ENDROOT
BRANCH   1   2
ATOM      2  C   UNL     1       5.282   0.126   1.944  1.00  0.00     0.042 C 
BRANCH   2   3
ATOM      3  C   UNL     1       5.034  -0.532   0.578  1.00  0.00     0.118 C 
BRANCH   3   4
ATOM      4  N   UNL     1       3.674  -0.946   0.297  1.00  0.00    -0.352 N 
ATOM      5  O   UNL     1       1.543  -0.981  -0.290  1.00  0.00    -0.269 OA
ATOM      6  C   UNL     1       2.511  -0.281   0.008  1.00  0.00     0.251 C 
ATOM      7  H   UNL     1       3.559  -1.924   0.317  1.00  0.00     0.163 HD
BRANCH   6   8
ATOM      8  C   UNL     1       2.355   1.192   0.101  1.00  0.00     0.039 A 
ATOM      9  C   UNL     1       3.419   2.092   0.072  1.00  0.00     0.014 A 
ATOM     10  C   UNL     1       1.048   1.689   0.238  1.00  0.00     0.014 A 
ATOM     11  C   UNL     1       3.207   3.438   0.320  1.00  0.00     0.010 A 
ATOM     12  C   UNL     1       0.823   3.049   0.429  1.00  0.00     0.010 A 
ATOM     13  C   UNL     1       1.911   3.915   0.513  1.00  0.00    -0.014 A 
BRANCH  13  14
ATOM     14  C   UNL     1       1.770   5.357   0.675  1.00  0.00     0.031 A 
ATOM     15  C   UNL     1       2.195   6.184  -0.490  1.00  0.00     0.074 A 
ATOM     16  C   UNL     1       1.196   5.939   1.743  1.00  0.00     0.049 A 
ATOM     17  N   UNL     1       3.108   7.102  -0.534  1.00  0.00    -0.248 NA
ATOM     18  C   UNL     1       1.570   5.890  -1.787  1.00  0.00     0.031 C 
ATOM     19  C   UNL     1       0.432   5.291   2.809  1.00  0.00     0.029 A 
ATOM     20  N   UNL     1       1.049   7.271   2.004  1.00  0.00    -0.354 N 
ATOM     21  C   UNL     1       3.040   7.637  -1.821  1.00  0.00     0.074 A 
ATOM     22  C   UNL     1       2.172   6.774  -2.581  1.00  0.00     0.031 C 
ATOM     23  C   UNL     1      -0.314   6.227   3.434  1.00  0.00     0.029 A 
ATOM     24  C   UNL     1       0.023   7.535   2.898  1.00  0.00     0.049 A 
ATOM     25  H   UNL     1       1.612   7.970   1.600  1.00  0.00     0.167 HD
ATOM     26  C   UNL     1       3.553   8.856  -2.140  1.00  0.00     0.034 A 
ATOM     27  C   UNL     1      -0.579   8.730   3.100  1.00  0.00     0.034 A 
ATOM     28  C   UNL     1       4.450   9.361  -1.141  1.00  0.00     0.049 A 
ATOM     29  C   UNL     1       0.311   9.796   2.588  1.00  0.00     0.074 A 
ATOM     30  C   UNL     1       5.646   8.955  -0.586  1.00  0.00     0.029 A 
ATOM     31  N   UNL     1       3.992  10.381  -0.345  1.00  0.00    -0.354 N 
ATOM     32  N   UNL     1       1.444  10.135   3.137  1.00  0.00    -0.248 NA
ATOM     33  C   UNL     1       0.096  10.297   1.240  1.00  0.00     0.031 C 
ATOM     34  C   UNL     1       5.620   9.443   0.752  1.00  0.00     0.029 A 
ATOM     35  C   UNL     1       4.407  10.112   0.930  1.00  0.00     0.049 A 
ATOM     36  H   UNL     1       3.464  11.159  -0.637  1.00  0.00     0.167 HD
ATOM     37  C   UNL     1       2.247  10.526   2.074  1.00  0.00     0.074 A 
ATOM     38  C   UNL     1       1.323  10.743   0.966  1.00  0.00     0.031 C 
ATOM     39  C   UNL     1       3.602  10.354   2.108  1.00  0.00     0.034 A 
BRANCH  26  40
ATOM     40  C   UNL     1       3.025   9.755  -3.230  1.00  0.00     0.023 A 
ATOM     41  C   UNL     1       3.829  10.846  -3.633  1.00  0.00     0.012 A 
ATOM     42  C   UNL     1       1.688   9.740  -3.683  1.00  0.00     0.148 A 
ATOM     43  C   UNL     1       3.317  11.884  -4.419  1.00  0.00     0.002 A 
ATOM     44  C   UNL     1       1.210  10.730  -4.535  1.00  0.00     0.091 A 
ATOM     45  F   UNL     1       0.826   8.843  -3.188  1.00  0.00    -0.205 F 
ATOM     46  C   UNL     1       2.010  11.819  -4.883  1.00  0.00     0.022 A 
BRANCH  44  47
ATOM     47  S   UNL     1      -0.448  10.632  -5.216  1.00  0.00     0.127 S 
ATOM     48  O   UNL     1      -1.202  11.458  -4.279  1.00  0.00    -0.237 OA
ATOM     49  O   UNL     1      -0.270  11.211  -6.548  1.00  0.00    -0.237 OA
ATOM     50  O   UNL     1      -0.758   9.207  -5.227  1.00  0.00    -0.744 OA
ENDBRANCH  44  47
ENDBRANCH  26  40
BRANCH  27  51
ATOM     51  C   UNL     1      -1.973   8.999   3.512  1.00  0.00     0.023 A 
ATOM     52  C   UNL     1      -2.293  10.223   4.127  1.00  0.00     0.012 A 
ATOM     53  C   UNL     1      -3.032   8.160   3.098  1.00  0.00     0.148 A 
ATOM     54  C   UNL     1      -3.626  10.605   4.314  1.00  0.00     0.002 A 
ATOM     55  C   UNL     1      -4.355   8.533   3.306  1.00  0.00     0.091 A 
ATOM     56  F   UNL     1      -2.746   7.041   2.418  1.00  0.00    -0.205 F 
ATOM     57  C   UNL     1      -4.657   9.762   3.905  1.00  0.00     0.022 A 
BRANCH  55  58
ATOM     58  S   UNL     1      -5.726   7.482   2.808  1.00  0.00     0.127 S 
ATOM     59  O   UNL     1      -6.631   7.595   3.952  1.00  0.00    -0.237 OA
ATOM     60  O   UNL     1      -6.190   8.144   1.592  1.00  0.00    -0.237 OA
ATOM     61  O   UNL     1      -5.155   6.152   2.633  1.00  0.00    -0.744 OA
ENDBRANCH  55  58
ENDBRANCH  27  51
BRANCH  39  62
ATOM     62  C   UNL     1       4.255  10.039   3.430  1.00  0.00     0.023 A 
ATOM     63  C   UNL     1       3.923   8.877   4.157  1.00  0.00     0.012 A 
ATOM     64  C   UNL     1       5.351  10.813   3.854  1.00  0.00     0.148 A 
ATOM     65  C   UNL     1       4.642   8.513   5.297  1.00  0.00     0.002 A 
ATOM     66  C   UNL     1       6.096  10.420   4.960  1.00  0.00     0.091 A 
ATOM     67  F   UNL     1       5.667  11.911   3.148  1.00  0.00    -0.205 F 
ATOM     68  C   UNL     1       5.737   9.277   5.691  1.00  0.00     0.022 A 
BRANCH  66  69
ATOM     69  S   UNL     1       7.604  11.275   5.427  1.00  0.00     0.127 S 
ATOM     70  O   UNL     1       7.151  12.121   6.529  1.00  0.00    -0.237 OA
ATOM     71  O   UNL     1       8.485  10.175   5.824  1.00  0.00    -0.237 OA
ATOM     72  O   UNL     1       8.045  11.979   4.228  1.00  0.00    -0.744 OA
ENDBRANCH  66  69
ENDBRANCH  39  62
ENDBRANCH  13  14
ENDBRANCH   6   8
ENDBRANCH   3   4
ENDBRANCH   2   3
ENDBRANCH   1   2
BRANCH   1  73
ATOM     73  N   UNL     1       6.077  -1.911   3.064  1.00  0.00    -0.351 N 
ATOM     74  C   UNL     1       6.646  -2.681   4.033  1.00  0.00     0.262 C 
ATOM     75  H   UNL     1       6.346  -2.147   2.147  1.00  0.00     0.163 HD
ATOM     76  O   UNL     1       7.520  -3.463   3.645  1.00  0.00    -0.268 OA
BRANCH  74  77
ATOM     77  C   UNL     1       6.298  -2.510   5.421  1.00  0.00     0.112 A 
ATOM     78  S   UNL     1       7.674  -2.253   6.449  1.00  0.00    -0.137 S 
ATOM     79  C   UNL     1       5.130  -2.566   6.163  1.00  0.00     0.111 A 
ATOM     80  C   UNL     1       6.718  -2.124   7.844  1.00  0.00     0.067 A 
ATOM     81  C   UNL     1       5.388  -2.297   7.559  1.00  0.00     0.035 A 
BRANCH  79  82
ATOM     82  S   UNL     1       3.488  -2.911   5.712  1.00  0.00     0.263 S 
ATOM     83  O   UNL     1       3.126  -3.969   6.635  1.00  0.00    -0.201 OA
ATOM     84  O   UNL     1       2.868  -1.607   5.808  1.00  0.00    -0.201 OA
BRANCH  82  85
ATOM     85  N   UNL     1       3.130  -3.442   4.189  1.00  0.00    -0.280 N 
ATOM     86  H   UNL     1       2.291  -3.109   3.796  1.00  0.00     0.180 HD
BRANCH  85  87
ATOM     87  C   UNL     1       3.892  -4.316   3.393  1.00  0.00     0.049 A 
ATOM     88  C   UNL     1       3.814  -4.094   2.018  1.00  0.00     0.027 A 
ATOM     89  C   UNL     1       4.767  -5.269   3.894  1.00  0.00     0.027 A 
ATOM     90  C   UNL     1       4.776  -4.626   1.168  1.00  0.00     0.008 A 
ATOM     91  C   UNL     1       5.720  -5.829   3.037  1.00  0.00     0.008 A 
ATOM     92  C   UNL     1       5.787  -5.445   1.685  1.00  0.00    -0.026 A 
BRANCH  92  93
ATOM     93  C   UNL     1       7.014  -5.775   0.868  1.00  0.00     0.181 C 
BRANCH  93  94
ATOM     94  N   UNL     1       6.700  -6.454  -0.373  1.00  0.00    -0.249 N 
ATOM     95  C   UNL     1       6.522  -5.895  -1.602  1.00  0.00     0.220 A 
ATOM     96  N   UNL     1       6.646  -7.798  -0.442  1.00  0.00    -0.160 NA
ATOM     97  N   UNL     1       6.306  -6.841  -2.486  1.00  0.00    -0.224 NA
ATOM     98  C   UNL     1       6.383  -7.980  -1.738  1.00  0.00     0.246 A 
ENDBRANCH  93  94
ENDBRANCH  92  93
ENDBRANCH  85  87
ENDBRANCH  82  85
ENDBRANCH  79  82
ENDBRANCH  74  77
ENDBRANCH   1  73
TORSDOF 18
