REMARK SMILES O=C(NCCCNC(=O)c1ccc(-c2c3nc(c(-c4cccc(S(=O)(=O)[O-])c4F)c4ccc([nH]4)c(-c4cccc(S(=O)(=O)[O-])c4F)c4nc(c(-c5cccc(S(=O)(=O)[O-])c5F)c5ccc2[nH]5)C=C4)C=C3)cc1)c1ccc(C[C@H]2SC(=O)N(c3ccccc3)C2=O)cc1
REMARK SMILES IDX 5 1 4 2 3 3 1 4 2 5 73 7 74 8 92 9 75 10 91 11 76 12 77 13
REMARK SMILES IDX 78 14 79 15 89 16 80 17 82 18 90 19 81 20 83 21 84 22 88 23
REMARK SMILES IDX 85 24 87 25 86 26 6 27 7 28 8 29 9 31 10 32 11 33 72 34
REMARK SMILES IDX 12 35 71 36 13 37 14 38 15 39 65 40 16 41 70 42 64 43 66 44
REMARK SMILES IDX 17 45 69 46 63 47 62 48 18 50 50 51 30 52 49 53 31 54 34 55
REMARK SMILES IDX 48 56 67 57 32 58 33 59 47 61 68 62 35 63 19 64 20 65 28 66
REMARK SMILES IDX 21 67 23 68 29 69 22 70 24 71 25 72 26 73 27 74 51 75 52 76
REMARK SMILES IDX 60 77 53 78 55 79 61 80 54 81 56 82 57 83 58 84 59 85 36 86
REMARK SMILES IDX 37 87 45 88 38 89 40 90 46 91 39 92 41 93 42 94 43 95 44 96
REMARK H PARENT 3 6 7 30 66 49 34 60
REMARK Flexibility Score: inf
ROOT
ATOM      1  C   UNL     1       6.369  -2.560   7.604  1.00  0.00     0.042 C 
ENDROOT
BRANCH   1   2
ATOM      2  C   UNL     1       7.723  -3.107   7.177  1.00  0.00     0.118 C 
BRANCH   2   3
ATOM      3  N   UNL     1       8.044  -4.385   7.801  1.00  0.00    -0.352 N 
ATOM      4  O   UNL     1       8.356  -6.626   7.899  1.00  0.00    -0.269 OA
ATOM      5  C   UNL     1       8.205  -5.619   7.216  1.00  0.00     0.251 C 
ATOM      6  H   UNL     1       8.161  -4.361   8.778  1.00  0.00     0.163 HD
BRANCH   5   7
ATOM      7  C   UNL     1       8.177  -5.723   5.745  1.00  0.00     0.039 A 
ATOM      8  C   UNL     1       9.063  -4.971   4.971  1.00  0.00     0.014 A 
ATOM      9  C   UNL     1       7.224  -6.543   5.139  1.00  0.00     0.014 A 
ATOM     10  C   UNL     1       8.915  -4.948   3.587  1.00  0.00     0.004 A 
ATOM     11  C   UNL     1       7.076  -6.513   3.750  1.00  0.00     0.004 A 
ATOM     12  C   UNL     1       7.890  -5.680   2.967  1.00  0.00    -0.046 A 
BRANCH  12  13
ATOM     13  C   UNL     1       7.638  -5.522   1.484  1.00  0.00     0.060 C 
BRANCH  13  14
ATOM     14  C   UNL     1       6.704  -4.350   1.118  1.00  0.00     0.151 C 
ATOM     15  S   UNL     1       7.392  -2.727   1.546  1.00  0.00    -0.050 SA
ATOM     16  C   UNL     1       6.540  -4.311  -0.390  1.00  0.00     0.248 C 
ATOM     17  C   UNL     1       7.882  -2.398  -0.100  1.00  0.00     0.293 C 
ATOM     18  N   UNL     1       7.260  -3.272  -0.965  1.00  0.00    -0.240 N 
ATOM     19  O   UNL     1       5.937  -5.201  -0.987  1.00  0.00    -0.273 OA
ATOM     20  O   UNL     1       8.652  -1.490  -0.346  1.00  0.00    -0.261 OA
BRANCH  18  21
ATOM     21  C   UNL     1       7.378  -3.127  -2.377  1.00  0.00     0.053 A 
ATOM     22  C   UNL     1       6.276  -3.347  -3.215  1.00  0.00     0.027 A 
ATOM     23  C   UNL     1       8.596  -2.749  -2.964  1.00  0.00     0.027 A 
ATOM     24  C   UNL     1       6.383  -3.174  -4.598  1.00  0.00     0.002 A 
ATOM     25  C   UNL     1       8.712  -2.610  -4.350  1.00  0.00     0.002 A 
ATOM     26  C   UNL     1       7.603  -2.814  -5.166  1.00  0.00     0.000 A 
ENDBRANCH  18  21
ENDBRANCH  13  14
ENDBRANCH  12  13
ENDBRANCH   5   7
ENDBRANCH   2   3
ENDBRANCH   1   2
BRANCH   1  27
ATOM     27  C   UNL     1       6.272  -2.201   9.080  1.00  0.00     0.118 C 
BRANCH  27  28
ATOM     28  N   UNL     1       7.205  -1.153   9.476  1.00  0.00    -0.352 N 
ATOM     29  C   UNL     1       6.972   0.100   9.991  1.00  0.00     0.251 C 
ATOM     30  H   UNL     1       8.156  -1.379   9.355  1.00  0.00     0.163 HD
ATOM     31  O   UNL     1       7.908   0.888  10.105  1.00  0.00    -0.269 OA
BRANCH  29  32
ATOM     32  C   UNL     1       5.606   0.512  10.386  1.00  0.00     0.039 A 
ATOM     33  C   UNL     1       5.175   1.806  10.079  1.00  0.00     0.014 A 
ATOM     34  C   UNL     1       4.754  -0.362  11.064  1.00  0.00     0.014 A 
ATOM     35  C   UNL     1       3.866   2.192  10.381  1.00  0.00     0.010 A 
ATOM     36  C   UNL     1       3.425  -0.009  11.278  1.00  0.00     0.010 A 
ATOM     37  C   UNL     1       2.965   1.273  10.944  1.00  0.00    -0.014 A 
BRANCH  37  38
ATOM     38  C   UNL     1       1.540   1.624  11.180  1.00  0.00     0.031 A 
ATOM     39  C   UNL     1       0.967   1.584  12.572  1.00  0.00     0.074 A 
ATOM     40  C   UNL     1       0.737   1.889  10.129  1.00  0.00     0.049 A 
ATOM     41  N   UNL     1      -0.265   1.782  12.963  1.00  0.00    -0.248 NA
ATOM     42  C   UNL     1       1.894   1.250  13.666  1.00  0.00     0.031 C 
ATOM     43  C   UNL     1       1.151   1.887   8.724  1.00  0.00     0.029 A 
ATOM     44  N   UNL     1      -0.604   2.184  10.077  1.00  0.00    -0.354 N 
ATOM     45  C   UNL     1      -0.270   1.563  14.335  1.00  0.00     0.074 A 
ATOM     46  C   UNL     1       1.074   1.179  14.705  1.00  0.00     0.031 C 
ATOM     47  C   UNL     1       0.092   2.174   7.951  1.00  0.00     0.029 A 
ATOM     48  C   UNL     1      -1.085   2.342   8.797  1.00  0.00     0.049 A 
ATOM     49  H   UNL     1      -1.167   2.274  10.879  1.00  0.00     0.167 HD
ATOM     50  C   UNL     1      -1.291   1.698  15.215  1.00  0.00     0.034 A 
ATOM     51  C   UNL     1      -2.334   2.584   8.354  1.00  0.00     0.034 A 
ATOM     52  C   UNL     1      -2.618   2.116  14.850  1.00  0.00     0.049 A 
ATOM     53  C   UNL     1      -3.446   2.750   9.354  1.00  0.00     0.074 A 
ATOM     54  C   UNL     1      -3.700   2.361  15.677  1.00  0.00     0.029 A 
ATOM     55  N   UNL     1      -3.048   2.343  13.552  1.00  0.00    -0.354 N 
ATOM     56  N   UNL     1      -3.396   2.688  10.663  1.00  0.00    -0.248 NA
ATOM     57  C   UNL     1      -4.781   3.055   8.819  1.00  0.00     0.031 C 
ATOM     58  C   UNL     1      -4.793   2.707  14.876  1.00  0.00     0.029 A 
ATOM     59  C   UNL     1      -4.382   2.714  13.553  1.00  0.00     0.049 A 
ATOM     60  H   UNL     1      -2.487   2.254  12.748  1.00  0.00     0.167 HD
ATOM     61  C   UNL     1      -4.679   2.984  11.108  1.00  0.00     0.074 A 
ATOM     62  C   UNL     1      -5.479   3.246   9.931  1.00  0.00     0.031 C 
ATOM     63  C   UNL     1      -5.154   3.024  12.378  1.00  0.00     0.034 A 
BRANCH  50  64
ATOM     64  C   UNL     1      -1.001   1.438  16.671  1.00  0.00     0.023 A 
ATOM     65  C   UNL     1      -0.193   2.342  17.392  1.00  0.00     0.012 A 
ATOM     66  C   UNL     1      -1.573   0.339  17.341  1.00  0.00     0.148 A 
ATOM     67  C   UNL     1       0.073   2.135  18.745  1.00  0.00     0.002 A 
ATOM     68  C   UNL     1      -1.342   0.166  18.701  1.00  0.00     0.091 A 
ATOM     69  F   UNL     1      -2.323  -0.520  16.637  1.00  0.00    -0.205 F 
ATOM     70  C   UNL     1      -0.509   1.055  19.401  1.00  0.00     0.022 A 
BRANCH  68  71
ATOM     71  S   UNL     1      -2.112  -1.145  19.658  1.00  0.00     0.127 S 
ATOM     72  O   UNL     1      -0.964  -1.998  19.965  1.00  0.00    -0.237 OA
ATOM     73  O   UNL     1      -2.651  -0.412  20.804  1.00  0.00    -0.237 OA
ATOM     74  O   UNL     1      -3.116  -1.741  18.789  1.00  0.00    -0.744 OA
ENDBRANCH  68  71
ENDBRANCH  50  64
BRANCH  51  75
ATOM     75  C   UNL     1      -2.593   2.741   6.893  1.00  0.00     0.023 A 
ATOM     76  C   UNL     1      -2.943   4.008   6.386  1.00  0.00     0.012 A 
ATOM     77  C   UNL     1      -2.481   1.654   6.005  1.00  0.00     0.148 A 
ATOM     78  C   UNL     1      -3.215   4.181   5.029  1.00  0.00     0.002 A 
ATOM     79  C   UNL     1      -2.696   1.845   4.646  1.00  0.00     0.091 A 
ATOM     80  F   UNL     1      -2.155   0.455   6.508  1.00  0.00    -0.205 F 
ATOM     81  C   UNL     1      -3.083   3.103   4.158  1.00  0.00     0.022 A 
BRANCH  79  82
ATOM     82  S   UNL     1      -2.423   0.547   3.434  1.00  0.00     0.127 S 
ATOM     83  O   UNL     1      -3.785   0.252   2.999  1.00  0.00    -0.237 OA
ATOM     84  O   UNL     1      -1.593   1.231   2.441  1.00  0.00    -0.237 OA
ATOM     85  O   UNL     1      -1.741  -0.522   4.150  1.00  0.00    -0.744 OA
ENDBRANCH  79  82
ENDBRANCH  51  75
BRANCH  63  86
ATOM     86  C   UNL     1      -6.598   3.409  12.573  1.00  0.00     0.023 A 
ATOM     87  C   UNL     1      -7.622   2.513  12.211  1.00  0.00     0.012 A 
ATOM     88  C   UNL     1      -6.934   4.633  13.187  1.00  0.00     0.148 A 
ATOM     89  C   UNL     1      -8.960   2.842  12.425  1.00  0.00     0.002 A 
ATOM     90  C   UNL     1      -8.266   4.931  13.446  1.00  0.00     0.091 A 
ATOM     91  F   UNL     1      -5.945   5.479  13.509  1.00  0.00    -0.205 F 
ATOM     92  C   UNL     1      -9.281   4.044  13.053  1.00  0.00     0.022 A 
BRANCH  90  93
ATOM     93  S   UNL     1      -8.769   6.407  14.338  1.00  0.00     0.127 S 
ATOM     94  O   UNL     1      -9.404   7.192  13.280  1.00  0.00    -0.237 OA
ATOM     95  O   UNL     1      -9.692   5.866  15.335  1.00  0.00    -0.237 OA
ATOM     96  O   UNL     1      -7.548   6.979  14.890  1.00  0.00    -0.744 OA
ENDBRANCH  90  93
ENDBRANCH  63  86
ENDBRANCH  37  38
ENDBRANCH  29  32
ENDBRANCH  27  28
ENDBRANCH   1  27
TORSDOF 16
