REMARK SMILES Cc1cccc(NC(=O)COc2ccc(N3C[C@@H](C(=O)NCCCNC(=O)c4ccc(-c5c6nc(c(-c7cccc(S(=O)(=O)[O-])c7F)c7ccc([nH]7)c(-c7cccc(S(=O)(=O)[O-])c7F)c7nc(c(-c8cccc(S(=O)(=O)[O-])c8F)c8ccc5[nH]8)C=C7)C=C6)cc4)CC3=O)cc2)c1
REMARK SMILES IDX 22 1 21 2 19 3 20 4 18 6 16 7 17 8 92 9 91 10 93 11 15 12
REMARK SMILES IDX 12 13 13 14 95 15 14 16 94 17 11 18 10 19 8 20 7 21 9 23
REMARK SMILES IDX 6 24 1 25 2 26 3 27 96 28 4 29 5 30 23 31 24 32 25 33 26 34
REMARK SMILES IDX 27 36 28 37 29 38 90 39 30 40 89 41 31 42 32 43 33 44 83 45
REMARK SMILES IDX 34 46 88 47 82 48 84 49 35 50 87 51 81 52 80 53 36 55 68 56
REMARK SMILES IDX 48 57 67 58 49 59 52 60 66 61 85 62 50 63 51 64 65 66 86 67
REMARK SMILES IDX 53 68 37 69 38 70 46 71 39 72 41 73 47 74 40 75 42 76 43 77
REMARK SMILES IDX 44 78 45 79 69 80 70 81 78 82 71 83 73 84 79 85 72 86 74 87
REMARK SMILES IDX 75 88 76 89 77 90 54 91 55 92 63 93 56 94 58 95 64 96 57 97
REMARK SMILES IDX 59 98 60 99 61 100 62 101
REMARK H PARENT 21 5 7 22 25 35 84 54 52 65
REMARK Flexibility Score: inf
ROOT
ATOM      1  C   UNL     1      -6.720   4.996  -6.948  1.00  0.00     0.117 C 
ENDROOT
BRANCH   1   2
ATOM      2  N   UNL     1      -7.255   4.419  -8.180  1.00  0.00    -0.356 N 
ATOM      3  C   UNL     1      -6.949   3.295  -8.877  1.00  0.00     0.225 C 
ATOM      4  O   UNL     1      -7.679   2.989  -9.824  1.00  0.00    -0.275 OA
ATOM      5  H   UNL     1      -7.980   4.949  -8.582  1.00  0.00     0.163 HD
BRANCH   3   6
ATOM      6  C   UNL     1      -5.773   2.405  -8.539  1.00  0.00     0.107 C 
ATOM      7  N   UNL     1      -4.729   2.175  -6.439  1.00  0.00    -0.312 N 
ATOM      8  C   UNL     1      -5.889   1.744  -7.184  1.00  0.00     0.139 C 
ATOM      9  C   UNL     1      -3.898   3.018  -7.177  1.00  0.00     0.227 C 
ATOM     10  C   UNL     1      -4.430   3.106  -8.582  1.00  0.00     0.116 C 
ATOM     11  O   UNL     1      -2.867   3.570  -6.820  1.00  0.00    -0.274 OA
BRANCH   7  12
ATOM     12  C   UNL     1      -4.549   1.817  -5.084  1.00  0.00     0.044 A 
ATOM     13  C   UNL     1      -4.248   1.101  -2.377  1.00  0.00     0.120 A 
ATOM     14  C   UNL     1      -4.870   0.233  -3.270  1.00  0.00     0.048 A 
ATOM     15  C   UNL     1      -3.754   2.317  -2.838  1.00  0.00     0.048 A 
ATOM     16  C   UNL     1      -5.048   0.601  -4.605  1.00  0.00     0.030 A 
ATOM     17  C   UNL     1      -3.887   2.662  -4.189  1.00  0.00     0.030 A 
BRANCH  13  18
ATOM     18  O   UNL     1      -4.110   0.619  -1.110  1.00  0.00    -0.484 OA
BRANCH  18  19
ATOM     19  C   UNL     1      -4.265   1.540  -0.047  1.00  0.00     0.329 C 
BRANCH  19  20
ATOM     20  C   UNL     1      -3.143   2.521   0.285  1.00  0.00     0.262 C 
ATOM     21  N   UNL     1      -1.826   2.180   0.325  1.00  0.00    -0.323 N 
ATOM     22  H   UNL     1      -1.238   2.959   0.450  1.00  0.00     0.170 HD
ATOM     23  O   UNL     1      -3.419   3.704   0.527  1.00  0.00    -0.271 OA
BRANCH  21  24
ATOM     24  C   UNL     1      -1.113   0.975   0.229  1.00  0.00     0.041 A 
ATOM     25  C   UNL     1       2.599   0.109  -0.077  1.00  0.00     0.044 C 
ATOM     26  C   UNL     1       1.110  -0.034   0.024  1.00  0.00    -0.049 A 
ATOM     27  C   UNL     1       0.529  -1.302   0.037  1.00  0.00     0.003 A 
ATOM     28  C   UNL     1       0.282   1.094   0.115  1.00  0.00     0.029 A 
ATOM     29  C   UNL     1      -0.851  -1.435   0.165  1.00  0.00     0.002 A 
ATOM     30  C   UNL     1      -1.665  -0.302   0.279  1.00  0.00     0.026 A 
ENDBRANCH  21  24
ENDBRANCH  19  20
ENDBRANCH  18  19
ENDBRANCH  13  18
ENDBRANCH   7  12
ENDBRANCH   3   6
ENDBRANCH   1   2
BRANCH   1  31
ATOM     31  C   UNL     1      -5.702   6.127  -7.153  1.00  0.00     0.042 C 
BRANCH  31  32
ATOM     32  C   UNL     1      -6.357   7.370  -7.705  1.00  0.00     0.118 C 
BRANCH  32  33
ATOM     33  N   UNL     1      -7.198   8.044  -6.720  1.00  0.00    -0.352 N 
ATOM     34  C   UNL     1      -7.925   9.213  -6.820  1.00  0.00     0.251 C 
ATOM     35  H   UNL     1      -7.255   7.594  -5.846  1.00  0.00     0.163 HD
ATOM     36  O   UNL     1      -8.191   9.810  -5.773  1.00  0.00    -0.269 OA
BRANCH  34  37
ATOM     37  C   UNL     1      -8.433   9.691  -8.123  1.00  0.00     0.039 A 
ATOM     38  C   UNL     1      -9.137  10.893  -8.252  1.00  0.00     0.014 A 
ATOM     39  C   UNL     1      -8.420   8.815  -9.198  1.00  0.00     0.014 A 
ATOM     40  C   UNL     1      -9.979  11.055  -9.354  1.00  0.00     0.010 A 
ATOM     41  C   UNL     1      -8.942   9.133 -10.403  1.00  0.00     0.010 A 
ATOM     42  C   UNL     1      -9.936  10.088 -10.349  1.00  0.00    -0.014 A 
BRANCH  42  43
ATOM     43  C   UNL     1     -10.974   9.759 -11.300  1.00  0.00     0.031 A 
ATOM     44  C   UNL     1     -10.956  10.423 -12.592  1.00  0.00     0.074 A 
ATOM     45  C   UNL     1     -11.561   8.551 -11.102  1.00  0.00     0.049 A 
ATOM     46  N   UNL     1     -11.890  10.300 -13.458  1.00  0.00    -0.248 NA
ATOM     47  C   UNL     1      -9.847  11.266 -13.015  1.00  0.00     0.031 C 
ATOM     48  C   UNL     1     -12.060   7.590 -12.078  1.00  0.00     0.029 A 
ATOM     49  N   UNL     1     -11.787   7.909  -9.888  1.00  0.00    -0.354 N 
ATOM     50  C   UNL     1     -11.371  10.754 -14.646  1.00  0.00     0.074 A 
ATOM     51  C   UNL     1     -10.163  11.465 -14.296  1.00  0.00     0.031 C 
ATOM     52  C   UNL     1     -12.742   6.622 -11.433  1.00  0.00     0.029 A 
ATOM     53  C   UNL     1     -12.868   7.036 -10.046  1.00  0.00     0.049 A 
ATOM     54  H   UNL     1     -11.274   8.045  -9.059  1.00  0.00     0.167 HD
ATOM     55  C   UNL     1     -11.913  10.288 -15.803  1.00  0.00     0.034 A 
ATOM     56  C   UNL     1     -14.044   7.367  -9.421  1.00  0.00     0.034 A 
ATOM     57  C   UNL     1     -12.982   9.307 -15.513  1.00  0.00     0.049 A 
ATOM     58  C   UNL     1     -15.127   7.811 -10.401  1.00  0.00     0.074 A 
ATOM     59  C   UNL     1     -13.046   7.920 -15.528  1.00  0.00     0.029 A 
ATOM     60  N   UNL     1     -14.090   9.717 -14.782  1.00  0.00    -0.354 N 
ATOM     61  N   UNL     1     -15.009   7.836 -11.702  1.00  0.00    -0.248 NA
ATOM     62  C   UNL     1     -16.414   8.336  -9.961  1.00  0.00     0.031 C 
ATOM     63  C   UNL     1     -14.202   7.512 -14.793  1.00  0.00     0.029 A 
ATOM     64  C   UNL     1     -14.858   8.645 -14.348  1.00  0.00     0.049 A 
ATOM     65  H   UNL     1     -14.306  10.659 -14.594  1.00  0.00     0.167 HD
ATOM     66  C   UNL     1     -16.050   8.543 -12.255  1.00  0.00     0.074 A 
ATOM     67  C   UNL     1     -16.924   8.794 -11.116  1.00  0.00     0.031 C 
ATOM     68  C   UNL     1     -16.073   8.922 -13.579  1.00  0.00     0.034 A 
BRANCH  55  69
ATOM     69  C   UNL     1     -11.261  10.460 -17.160  1.00  0.00     0.023 A 
ATOM     70  C   UNL     1     -11.566   9.498 -18.145  1.00  0.00     0.012 A 
ATOM     71  C   UNL     1     -10.357  11.481 -17.544  1.00  0.00     0.148 A 
ATOM     72  C   UNL     1     -10.946   9.483 -19.398  1.00  0.00     0.002 A 
ATOM     73  C   UNL     1      -9.684  11.428 -18.769  1.00  0.00     0.091 A 
ATOM     74  F   UNL     1     -10.199  12.559 -16.766  1.00  0.00    -0.205 F 
ATOM     75  C   UNL     1      -9.978  10.428 -19.698  1.00  0.00     0.022 A 
BRANCH  73  76
ATOM     76  S   UNL     1      -8.356  12.568 -19.206  1.00  0.00     0.127 S 
ATOM     77  O   UNL     1      -7.308  11.656 -19.672  1.00  0.00    -0.237 OA
ATOM     78  O   UNL     1      -8.966  13.375 -20.260  1.00  0.00    -0.237 OA
ATOM     79  O   UNL     1      -8.015  13.279 -17.980  1.00  0.00    -0.744 OA
ENDBRANCH  73  76
ENDBRANCH  55  69
BRANCH  56  80
ATOM     80  C   UNL     1     -13.770   8.013  -8.080  1.00  0.00     0.023 A 
ATOM     81  C   UNL     1     -13.026   7.251  -7.141  1.00  0.00     0.012 A 
ATOM     82  C   UNL     1     -13.786   9.413  -7.937  1.00  0.00     0.148 A 
ATOM     83  C   UNL     1     -12.162   7.876  -6.235  1.00  0.00     0.002 A 
ATOM     84  C   UNL     1     -12.940  10.027  -7.014  1.00  0.00     0.091 A 
ATOM     85  F   UNL     1     -14.573  10.139  -8.742  1.00  0.00    -0.205 F 
ATOM     86  C   UNL     1     -12.083   9.265  -6.207  1.00  0.00     0.022 A 
BRANCH  84  87
ATOM     87  S   UNL     1     -12.862  11.821  -6.917  1.00  0.00     0.127 S 
ATOM     88  O   UNL     1     -13.978  12.114  -6.021  1.00  0.00    -0.237 OA
ATOM     89  O   UNL     1     -11.541  12.072  -6.343  1.00  0.00    -0.237 OA
ATOM     90  O   UNL     1     -13.005  12.271  -8.295  1.00  0.00    -0.744 OA
ENDBRANCH  84  87
ENDBRANCH  56  80
BRANCH  68  91
ATOM     91  C   UNL     1     -17.213   9.677 -14.268  1.00  0.00     0.023 A 
ATOM     92  C   UNL     1     -18.508   9.741 -13.725  1.00  0.00     0.012 A 
ATOM     93  C   UNL     1     -17.055  10.295 -15.543  1.00  0.00     0.148 A 
ATOM     94  C   UNL     1     -19.527  10.508 -14.306  1.00  0.00     0.002 A 
ATOM     95  C   UNL     1     -18.065  11.055 -16.124  1.00  0.00     0.091 A 
ATOM     96  F   UNL     1     -15.950  10.086 -16.264  1.00  0.00    -0.205 F 
ATOM     97  C   UNL     1     -19.296  11.192 -15.489  1.00  0.00     0.022 A 
BRANCH  95  98
ATOM     98  S   UNL     1     -17.856  11.870 -17.714  1.00  0.00     0.127 S 
ATOM     99  O   UNL     1     -18.720  11.059 -18.572  1.00  0.00    -0.237 OA
ATOM    100  O   UNL     1     -18.362  13.214 -17.434  1.00  0.00    -0.237 OA
ATOM    101  O   UNL     1     -16.435  11.809 -18.022  1.00  0.00    -0.744 OA
ENDBRANCH  95  98
ENDBRANCH  68  91
ENDBRANCH  42  43
ENDBRANCH  34  37
ENDBRANCH  32  33
ENDBRANCH  31  32
ENDBRANCH   1  31
TORSDOF 18
