REMARK SMILES Cc1cccc(C(=O)Nc2ccc(-c3nnc(S[C@H](C(=O)NCCCNC(=O)c4ccc(-c5c6nc(c(-c7cccc(S(=O)(=O)[O-])c7F)c7ccc([nH]7)c(-c7cccc(S(=O)(=O)[O-])c7F)c7nc(c(-c8cccc(S(=O)(=O)[O-])c8F)c8ccc5[nH]8)C=C7)C=C6)cc4)C(C)C)n3C)cc2)c1
REMARK SMILES IDX 23 1 22 2 20 3 21 4 19 6 18 7 17 8 14 9 15 10 95 11 16 12
REMARK SMILES IDX 96 13 13 14 10 15 11 16 98 17 12 18 97 19 9 20 7 21 8 22
REMARK SMILES IDX 6 24 1 25 2 26 3 27 99 28 4 29 5 30 92 31 93 32 94 33 24 34
REMARK SMILES IDX 25 35 26 36 27 37 28 39 29 40 30 41 91 42 31 43 90 44 32 45
REMARK SMILES IDX 33 46 34 47 84 48 35 49 89 50 83 51 85 52 36 53 88 54 82 55
REMARK SMILES IDX 81 56 37 58 69 59 49 60 68 61 50 62 53 63 67 64 86 65 51 66
REMARK SMILES IDX 52 67 66 69 87 70 54 71 38 72 39 73 47 74 40 75 42 76 48 77
REMARK SMILES IDX 41 78 43 79 44 80 45 81 46 82 70 83 71 84 79 85 72 86 74 87
REMARK SMILES IDX 80 88 73 89 75 90 76 91 77 92 78 93 55 94 56 95 64 96 57 97
REMARK SMILES IDX 59 98 65 99 58 100 60 101 61 102 62 103 63 104
REMARK H PARENT 22 5 9 23 26 38 85 57 53 68
REMARK Flexibility Score: inf
ROOT
ATOM      1  C   UNL     1       7.737   6.521  -1.407  1.00  0.00     0.117 C 
ENDROOT
BRANCH   1   2
ATOM      2  N   UNL     1       8.003   5.092  -1.478  1.00  0.00    -0.355 N 
ATOM      3  C   UNL     1       8.349   4.290  -2.526  1.00  0.00     0.233 C 
ATOM      4  O   UNL     1       9.184   3.406  -2.290  1.00  0.00    -0.274 OA
ATOM      5  H   UNL     1       7.919   4.620  -0.618  1.00  0.00     0.163 HD
BRANCH   3   6
ATOM      6  C   UNL     1       7.766   4.396  -3.948  1.00  0.00     0.146 C 
BRANCH   6   7
ATOM      7  S   UNL     1       6.569   3.065  -4.358  1.00  0.00    -0.072 SA
BRANCH   7   8
ATOM      8  C   UNL     1       6.231   2.030  -3.024  1.00  0.00     0.192 A 
ATOM      9  C   UNL     1       5.431   0.279  -1.944  1.00  0.00     0.164 A 
ATOM     10  N   UNL     1       6.156   1.004  -1.110  1.00  0.00    -0.129 NA
ATOM     11  N   UNL     1       5.392   0.948  -3.150  1.00  0.00    -0.305 N 
ATOM     12  N   UNL     1       6.654   2.097  -1.788  1.00  0.00    -0.123 NA
ATOM     13  C   UNL     1       4.546   0.606  -4.264  1.00  0.00     0.154 C 
BRANCH   9  14
ATOM     14  C   UNL     1       4.780  -0.999  -1.627  1.00  0.00     0.019 A 
ATOM     15  C   UNL     1       3.810  -3.522  -0.825  1.00  0.00     0.041 A 
ATOM     16  C   UNL     1       3.601  -2.402  -0.019  1.00  0.00     0.027 A 
ATOM     17  C   UNL     1       4.369  -3.357  -2.093  1.00  0.00     0.027 A 
ATOM     18  C   UNL     1       4.112  -1.156  -0.406  1.00  0.00     0.014 A 
ATOM     19  C   UNL     1       4.872  -2.108  -2.481  1.00  0.00     0.014 A 
BRANCH  15  20
ATOM     20  N   UNL     1       3.530  -4.783  -0.276  1.00  0.00    -0.322 N 
ATOM     21  C   UNL     1       4.208  -5.986  -0.382  1.00  0.00     0.255 C 
ATOM     22  O   UNL     1       3.638  -7.017  -0.018  1.00  0.00    -0.269 OA
ATOM     23  H   UNL     1       2.716  -4.819   0.276  1.00  0.00     0.170 HD
BRANCH  21  24
ATOM     24  C   UNL     1       5.633  -6.084  -0.841  1.00  0.00     0.040 A 
ATOM     25  C   UNL     1       8.622  -3.870  -1.638  1.00  0.00     0.044 C 
ATOM     26  C   UNL     1       7.788  -5.102  -1.435  1.00  0.00    -0.050 A 
ATOM     27  C   UNL     1       8.243  -6.353  -1.854  1.00  0.00     0.003 A 
ATOM     28  C   UNL     1       6.524  -5.004  -0.840  1.00  0.00     0.017 A 
ATOM     29  C   UNL     1       7.421  -7.473  -1.729  1.00  0.00     0.001 A 
ATOM     30  C   UNL     1       6.114  -7.335  -1.251  1.00  0.00     0.014 A 
ENDBRANCH  21  24
ENDBRANCH  15  20
ENDBRANCH   9  14
ENDBRANCH   7   8
ENDBRANCH   6   7
BRANCH   6  31
ATOM     31  C   UNL     1       7.290   5.780  -4.471  1.00  0.00     0.006 C 
ATOM     32  C   UNL     1       8.483   6.729  -4.684  1.00  0.00     0.009 C 
ATOM     33  C   UNL     1       6.489   5.778  -5.785  1.00  0.00     0.009 C 
ENDBRANCH   6  31
ENDBRANCH   3   6
ENDBRANCH   1   2
BRANCH   1  34
ATOM     34  C   UNL     1       6.259   6.879  -1.343  1.00  0.00     0.042 C 
BRANCH  34  35
ATOM     35  C   UNL     1       5.851   7.252   0.067  1.00  0.00     0.118 C 
BRANCH  35  36
ATOM     36  N   UNL     1       6.177   8.624   0.436  1.00  0.00    -0.352 N 
ATOM     37  C   UNL     1       6.070   9.267   1.655  1.00  0.00     0.251 C 
ATOM     38  H   UNL     1       6.528   9.179  -0.298  1.00  0.00     0.163 HD
ATOM     39  O   UNL     1       6.254  10.487   1.678  1.00  0.00    -0.269 OA
BRANCH  37  40
ATOM     40  C   UNL     1       5.879   8.501   2.912  1.00  0.00     0.039 A 
ATOM     41  C   UNL     1       6.511   8.957   4.079  1.00  0.00     0.014 A 
ATOM     42  C   UNL     1       5.297   7.240   2.900  1.00  0.00     0.014 A 
ATOM     43  C   UNL     1       6.809   8.058   5.101  1.00  0.00     0.010 A 
ATOM     44  C   UNL     1       5.701   6.321   3.830  1.00  0.00     0.010 A 
ATOM     45  C   UNL     1       6.517   6.720   4.890  1.00  0.00    -0.014 A 
BRANCH  45  46
ATOM     46  C   UNL     1       7.006   5.599   5.663  1.00  0.00     0.031 A 
ATOM     47  C   UNL     1       6.101   4.964   6.641  1.00  0.00     0.074 A 
ATOM     48  C   UNL     1       8.060   4.936   5.133  1.00  0.00     0.049 A 
ATOM     49  N   UNL     1       6.440   4.009   7.432  1.00  0.00    -0.248 NA
ATOM     50  C   UNL     1       4.701   5.351   6.772  1.00  0.00     0.031 C 
ATOM     51  C   UNL     1       8.393   3.528   5.313  1.00  0.00     0.029 A 
ATOM     52  N   UNL     1       9.115   5.399   4.341  1.00  0.00    -0.354 N 
ATOM     53  C   UNL     1       5.276   3.440   7.910  1.00  0.00     0.074 A 
ATOM     54  C   UNL     1       4.237   4.378   7.561  1.00  0.00     0.031 C 
ATOM     55  C   UNL     1       9.669   3.336   4.940  1.00  0.00     0.029 A 
ATOM     56  C   UNL     1      10.236   4.655   4.737  1.00  0.00     0.049 A 
ATOM     57  H   UNL     1       9.079   6.100   3.650  1.00  0.00     0.167 HD
ATOM     58  C   UNL     1       5.328   2.163   8.390  1.00  0.00     0.034 A 
ATOM     59  C   UNL     1      11.262   5.177   5.482  1.00  0.00     0.034 A 
ATOM     60  C   UNL     1       6.718   1.665   8.367  1.00  0.00     0.049 A 
ATOM     61  C   UNL     1      11.441   4.489   6.836  1.00  0.00     0.074 A 
ATOM     62  C   UNL     1       7.410   0.810   7.521  1.00  0.00     0.029 A 
ATOM     63  N   UNL     1       7.681   2.299   9.145  1.00  0.00    -0.354 N 
ATOM     64  N   UNL     1      10.621   3.595   7.322  1.00  0.00    -0.248 NA
ATOM     65  C   UNL     1      12.548   4.749   7.753  1.00  0.00     0.031 C 
ATOM     66  C   UNL     1       8.804   1.001   7.745  1.00  0.00     0.029 A 
ATOM     67  C   UNL     1       8.963   1.944   8.747  1.00  0.00     0.049 A 
ATOM     68  H   UNL     1       7.480   2.918   9.883  1.00  0.00     0.167 HD
ATOM     69  C   UNL     1      10.960   3.272   8.611  1.00  0.00     0.074 A 
ATOM     70  C   UNL     1      12.233   3.953   8.793  1.00  0.00     0.031 C 
ATOM     71  C   UNL     1      10.127   2.533   9.416  1.00  0.00     0.034 A 
BRANCH  58  72
ATOM     72  C   UNL     1       4.137   1.239   8.632  1.00  0.00     0.023 A 
ATOM     73  C   UNL     1       4.415  -0.139   8.793  1.00  0.00     0.012 A 
ATOM     74  C   UNL     1       2.765   1.587   8.673  1.00  0.00     0.148 A 
ATOM     75  C   UNL     1       3.412  -1.111   8.898  1.00  0.00     0.002 A 
ATOM     76  C   UNL     1       1.758   0.616   8.730  1.00  0.00     0.091 A 
ATOM     77  F   UNL     1       2.399   2.865   8.737  1.00  0.00    -0.205 F 
ATOM     78  C   UNL     1       2.079  -0.737   8.839  1.00  0.00     0.022 A 
BRANCH  76  79
ATOM     79  S   UNL     1       0.004   1.028   8.614  1.00  0.00     0.127 S 
ATOM     80  O   UNL     1      -0.447   0.147   7.534  1.00  0.00    -0.237 OA
ATOM     81  O   UNL     1      -0.493   0.666   9.939  1.00  0.00    -0.237 OA
ATOM     82  O   UNL     1      -0.064   2.447   8.287  1.00  0.00    -0.744 OA
ENDBRANCH  76  79
ENDBRANCH  58  72
BRANCH  59  83
ATOM     83  C   UNL     1      11.524   6.619   5.177  1.00  0.00     0.023 A 
ATOM     84  C   UNL     1      11.924   6.907   3.848  1.00  0.00     0.012 A 
ATOM     85  C   UNL     1      10.984   7.655   5.960  1.00  0.00     0.148 A 
ATOM     86  C   UNL     1      11.609   8.130   3.254  1.00  0.00     0.002 A 
ATOM     87  C   UNL     1      10.695   8.885   5.364  1.00  0.00     0.091 A 
ATOM     88  F   UNL     1      10.696   7.408   7.244  1.00  0.00    -0.205 F 
ATOM     89  C   UNL     1      10.953   9.101   4.000  1.00  0.00     0.022 A 
BRANCH  87  90
ATOM     90  S   UNL     1       9.878  10.212   6.266  1.00  0.00     0.127 S 
ATOM     91  O   UNL     1      11.017  11.019   6.694  1.00  0.00    -0.237 OA
ATOM     92  O   UNL     1       9.043  10.830   5.236  1.00  0.00    -0.237 OA
ATOM     93  O   UNL     1       9.128   9.545   7.319  1.00  0.00    -0.744 OA
ENDBRANCH  87  90
ENDBRANCH  59  83
BRANCH  71  94
ATOM     94  C   UNL     1      10.278   2.313  10.923  1.00  0.00     0.023 A 
ATOM     95  C   UNL     1      11.173   3.050  11.720  1.00  0.00     0.012 A 
ATOM     96  C   UNL     1       9.409   1.429  11.626  1.00  0.00     0.148 A 
ATOM     97  C   UNL     1      11.236   2.902  13.112  1.00  0.00     0.002 A 
ATOM     98  C   UNL     1       9.386   1.382  13.018  1.00  0.00     0.091 A 
ATOM     99  F   UNL     1       8.608   0.591  10.952  1.00  0.00    -0.205 F 
ATOM    100  C   UNL     1      10.320   2.093  13.767  1.00  0.00     0.022 A 
BRANCH  98 101
ATOM    101  S   UNL     1       8.052   0.548  13.893  1.00  0.00     0.127 S 
ATOM    102  O   UNL     1       8.620  -0.778  14.124  1.00  0.00    -0.237 OA
ATOM    103  O   UNL     1       7.907   1.366  15.099  1.00  0.00    -0.237 OA
ATOM    104  O   UNL     1       6.912   0.617  12.989  1.00  0.00    -0.744 OA
ENDBRANCH  98 101
ENDBRANCH  71  94
ENDBRANCH  45  46
ENDBRANCH  37  40
ENDBRANCH  35  36
ENDBRANCH  34  35
ENDBRANCH   1  34
TORSDOF 19
