REMARK SMILES CC(C)(C(=O)NCCCNC(=O)c1ccc(-c2c3nc(c(-c4cccc(S(=O)(=O)[O-])c4F)c4ccc([nH]4)c(-c4cccc(S(=O)(=O)[O-])c4F)c4nc(c(-c5cccc(S(=O)(=O)[O-])c5F)c5ccc2[nH]5)C=C4)C=C3)cc1)c1ccc(NS(=O)(=O)c2c(F)cc(F)cc2F)cc1
REMARK SMILES IDX 7 1 6 2 4 3 5 4 2 6 1 7 3 8 76 9 77 10 94 11 78 12 93 13
REMARK SMILES IDX 79 14 80 15 81 17 82 18 83 19 84 20 85 21 91 22 86 23 87 24
REMARK SMILES IDX 90 25 92 26 88 27 89 28 8 29 9 30 10 31 11 32 12 34 13 35
REMARK SMILES IDX 14 36 75 37 15 38 74 39 16 40 17 41 18 42 68 43 19 44 73 45
REMARK SMILES IDX 67 46 69 47 20 48 72 49 66 50 65 51 21 53 53 54 33 55 52 56
REMARK SMILES IDX 34 57 37 58 51 59 70 60 35 61 36 62 50 64 71 65 38 66 22 67
REMARK SMILES IDX 23 68 31 69 24 70 26 71 32 72 25 73 27 74 28 75 29 76 30 77
REMARK SMILES IDX 54 78 55 79 63 80 56 81 58 82 64 83 57 84 59 85 60 86 61 87
REMARK SMILES IDX 62 88 39 89 40 90 48 91 41 92 43 93 49 94 42 95 44 96 45 97
REMARK SMILES IDX 46 98 47 99
REMARK H PARENT 6 5 80 16 10 33 69 52 37 63
REMARK Flexibility Score: inf
ROOT
ATOM      1  C   UNL     1      -1.057   1.184  -2.279  1.00  0.00     0.117 C 
ENDROOT
BRANCH   1   2
ATOM      2  N   UNL     1      -1.447   1.438  -0.905  1.00  0.00    -0.355 N 
ATOM      3  C   UNL     1      -0.765   1.505   0.269  1.00  0.00     0.230 C 
ATOM      4  O   UNL     1      -1.496   1.556   1.266  1.00  0.00    -0.274 OA
ATOM      5  H   UNL     1      -2.413   1.596  -0.800  1.00  0.00     0.163 HD
BRANCH   3   6
ATOM      6  C   UNL     1       0.800   1.523   0.374  1.00  0.00     0.068 C 
ATOM      7  C   UNL     1       1.326   0.160  -0.123  1.00  0.00     0.026 C 
ATOM      8  C   UNL     1       1.408   2.662  -0.468  1.00  0.00     0.026 C 
BRANCH   6   9
ATOM      9  C   UNL     1       1.237   1.803   1.845  1.00  0.00    -0.033 A 
ATOM     10  C   UNL     1       2.189   1.028   2.525  1.00  0.00     0.007 A 
ATOM     11  C   UNL     1       0.668   2.879   2.551  1.00  0.00     0.007 A 
ATOM     12  C   UNL     1       2.465   1.240   3.883  1.00  0.00     0.027 A 
ATOM     13  C   UNL     1       0.899   3.051   3.918  1.00  0.00     0.027 A 
ATOM     14  C   UNL     1       1.736   2.178   4.608  1.00  0.00     0.049 A 
BRANCH  14  15
ATOM     15  N   UNL     1       1.754   2.298   6.028  1.00  0.00    -0.279 N 
ATOM     16  H   UNL     1       1.276   3.063   6.423  1.00  0.00     0.180 HD
BRANCH  15  17
ATOM     17  S   UNL     1       2.522   1.244   7.081  1.00  0.00     0.267 S 
ATOM     18  O   UNL     1       3.944   1.384   6.830  1.00  0.00    -0.201 OA
ATOM     19  O   UNL     1       1.969   1.506   8.390  1.00  0.00    -0.201 OA
BRANCH  17  20
ATOM     20  C   UNL     1       2.039  -0.383   6.639  1.00  0.00     0.159 A 
ATOM     21  C   UNL     1       0.777  -0.643   6.118  1.00  0.00     0.149 A 
ATOM     22  C   UNL     1       2.977  -1.408   6.707  1.00  0.00     0.149 A 
ATOM     23  F   UNL     1      -0.170   0.303   6.088  1.00  0.00    -0.205 F 
ATOM     24  C   UNL     1       0.476  -1.898   5.595  1.00  0.00     0.080 A 
ATOM     25  C   UNL     1       2.684  -2.671   6.204  1.00  0.00     0.080 A 
ATOM     26  F   UNL     1       4.182  -1.217   7.257  1.00  0.00    -0.205 F 
ATOM     27  C   UNL     1       1.440  -2.899   5.633  1.00  0.00     0.129 A 
ATOM     28  F   UNL     1       1.165  -4.102   5.116  1.00  0.00    -0.207 F 
ENDBRANCH  17  20
ENDBRANCH  15  17
ENDBRANCH  14  15
ENDBRANCH   6   9
ENDBRANCH   3   6
ENDBRANCH   1   2
BRANCH   1  29
ATOM     29  C   UNL     1      -1.427  -0.230  -2.721  1.00  0.00     0.042 C 
BRANCH  29  30
ATOM     30  C   UNL     1      -2.930  -0.491  -2.792  1.00  0.00     0.118 C 
BRANCH  30  31
ATOM     31  N   UNL     1      -3.588   0.320  -3.808  1.00  0.00    -0.352 N 
ATOM     32  C   UNL     1      -4.197  -0.050  -4.982  1.00  0.00     0.251 C 
ATOM     33  H   UNL     1      -3.598   1.287  -3.623  1.00  0.00     0.163 HD
ATOM     34  O   UNL     1      -4.495   0.816  -5.801  1.00  0.00    -0.269 OA
BRANCH  32  35
ATOM     35  C   UNL     1      -4.489  -1.472  -5.272  1.00  0.00     0.039 A 
ATOM     36  C   UNL     1      -4.287  -1.954  -6.570  1.00  0.00     0.014 A 
ATOM     37  C   UNL     1      -5.009  -2.318  -4.289  1.00  0.00     0.014 A 
ATOM     38  C   UNL     1      -4.551  -3.296  -6.865  1.00  0.00     0.010 A 
ATOM     39  C   UNL     1      -5.204  -3.668  -4.566  1.00  0.00     0.010 A 
ATOM     40  C   UNL     1      -4.987  -4.170  -5.858  1.00  0.00    -0.014 A 
BRANCH  40  41
ATOM     41  C   UNL     1      -5.235  -5.610  -6.123  1.00  0.00     0.031 A 
ATOM     42  C   UNL     1      -6.620  -6.178  -5.959  1.00  0.00     0.074 A 
ATOM     43  C   UNL     1      -4.201  -6.428  -6.401  1.00  0.00     0.049 A 
ATOM     44  N   UNL     1      -7.014  -7.423  -6.016  1.00  0.00    -0.248 NA
ATOM     45  C   UNL     1      -7.699  -5.221  -5.657  1.00  0.00     0.031 C 
ATOM     46  C   UNL     1      -2.801  -6.013  -6.514  1.00  0.00     0.029 A 
ATOM     47  N   UNL     1      -4.162  -7.785  -6.603  1.00  0.00    -0.354 N 
ATOM     48  C   UNL     1      -8.369  -7.407  -5.706  1.00  0.00     0.074 A 
ATOM     49  C   UNL     1      -8.726  -6.030  -5.444  1.00  0.00     0.031 C 
ATOM     50  C   UNL     1      -2.041  -7.092  -6.759  1.00  0.00     0.029 A 
ATOM     51  C   UNL     1      -2.892  -8.278  -6.795  1.00  0.00     0.049 A 
ATOM     52  H   UNL     1      -4.966  -8.352  -6.609  1.00  0.00     0.167 HD
ATOM     53  C   UNL     1      -9.245  -8.439  -5.673  1.00  0.00     0.034 A 
ATOM     54  C   UNL     1      -2.461  -9.542  -6.975  1.00  0.00     0.034 A 
ATOM     55  C   UNL     1      -8.905  -9.795  -6.010  1.00  0.00     0.049 A 
ATOM     56  C   UNL     1      -3.467 -10.660  -7.013  1.00  0.00     0.074 A 
ATOM     57  C   UNL     1      -9.740 -10.894  -6.101  1.00  0.00     0.029 A 
ATOM     58  N   UNL     1      -7.628 -10.234  -6.323  1.00  0.00    -0.354 N 
ATOM     59  N   UNL     1      -4.769 -10.602  -6.866  1.00  0.00    -0.248 NA
ATOM     60  C   UNL     1      -2.952 -12.012  -7.277  1.00  0.00     0.031 C 
ATOM     61  C   UNL     1      -8.967 -11.999  -6.474  1.00  0.00     0.029 A 
ATOM     62  C   UNL     1      -7.651 -11.587  -6.614  1.00  0.00     0.049 A 
ATOM     63  H   UNL     1      -6.823  -9.667  -6.336  1.00  0.00     0.167 HD
ATOM     64  C   UNL     1      -5.231 -11.900  -7.051  1.00  0.00     0.074 A 
ATOM     65  C   UNL     1      -4.073 -12.720  -7.340  1.00  0.00     0.031 C 
ATOM     66  C   UNL     1      -6.499 -12.374  -6.967  1.00  0.00     0.034 A 
BRANCH  53  67
ATOM     67  C   UNL     1     -10.677  -8.128  -5.330  1.00  0.00     0.023 A 
ATOM     68  C   UNL     1     -11.491  -7.492  -6.289  1.00  0.00     0.012 A 
ATOM     69  C   UNL     1     -11.231  -8.503  -4.092  1.00  0.00     0.148 A 
ATOM     70  C   UNL     1     -12.826  -7.206  -6.011  1.00  0.00     0.002 A 
ATOM     71  C   UNL     1     -12.574  -8.248  -3.835  1.00  0.00     0.091 A 
ATOM     72  F   UNL     1     -10.436  -9.083  -3.181  1.00  0.00    -0.205 F 
ATOM     73  C   UNL     1     -13.370  -7.592  -4.789  1.00  0.00     0.022 A 
BRANCH  71  74
ATOM     74  S   UNL     1     -13.377  -8.771  -2.315  1.00  0.00     0.127 S 
ATOM     75  O   UNL     1     -13.428  -7.520  -1.561  1.00  0.00    -0.237 OA
ATOM     76  O   UNL     1     -14.676  -9.246  -2.794  1.00  0.00    -0.237 OA
ATOM     77  O   UNL     1     -12.525  -9.812  -1.758  1.00  0.00    -0.744 OA
ENDBRANCH  71  74
ENDBRANCH  53  67
BRANCH  54  78
ATOM     78  C   UNL     1      -1.015  -9.802  -7.221  1.00  0.00     0.023 A 
ATOM     79  C   UNL     1      -0.597 -10.158  -8.518  1.00  0.00     0.012 A 
ATOM     80  C   UNL     1      -0.052  -9.654  -6.205  1.00  0.00     0.148 A 
ATOM     81  C   UNL     1       0.752 -10.386  -8.793  1.00  0.00     0.002 A 
ATOM     82  C   UNL     1       1.296  -9.833  -6.499  1.00  0.00     0.091 A 
ATOM     83  F   UNL     1      -0.469  -9.332  -4.973  1.00  0.00    -0.205 F 
ATOM     84  C   UNL     1       1.699 -10.213  -7.788  1.00  0.00     0.022 A 
BRANCH  82  85
ATOM     85  S   UNL     1       2.584  -9.495  -5.292  1.00  0.00     0.127 S 
ATOM     86  O   UNL     1       2.929 -10.837  -4.835  1.00  0.00    -0.237 OA
ATOM     87  O   UNL     1       3.608  -8.839  -6.108  1.00  0.00    -0.237 OA
ATOM     88  O   UNL     1       1.964  -8.620  -4.305  1.00  0.00    -0.744 OA
ENDBRANCH  82  85
ENDBRANCH  54  78
BRANCH  66  89
ATOM     89  C   UNL     1      -6.713 -13.842  -7.217  1.00  0.00     0.023 A 
ATOM     90  C   UNL     1      -6.372 -14.771  -6.215  1.00  0.00     0.012 A 
ATOM     91  C   UNL     1      -7.330 -14.292  -8.400  1.00  0.00     0.148 A 
ATOM     92  C   UNL     1      -6.623 -16.130  -6.396  1.00  0.00     0.002 A 
ATOM     93  C   UNL     1      -7.613 -15.644  -8.557  1.00  0.00     0.091 A 
ATOM     94  F   UNL     1      -7.626 -13.394  -9.352  1.00  0.00    -0.205 F 
ATOM     95  C   UNL     1      -7.254 -16.565  -7.560  1.00  0.00     0.022 A 
BRANCH  93  96
ATOM     96  S   UNL     1      -8.501 -16.269  -9.988  1.00  0.00     0.127 S 
ATOM     97  O   UNL     1      -7.413 -16.794 -10.811  1.00  0.00    -0.237 OA
ATOM     98  O   UNL     1      -9.369 -17.292  -9.401  1.00  0.00    -0.237 OA
ATOM     99  O   UNL     1      -9.215 -15.124 -10.539  1.00  0.00    -0.744 OA
ENDBRANCH  93  96
ENDBRANCH  66  89
ENDBRANCH  40  41
ENDBRANCH  32  35
ENDBRANCH  30  31
ENDBRANCH  29  30
ENDBRANCH   1  29
TORSDOF 17
