REMARK SMILES Cn1cccc1C[NH2+]Cc1ccc(C(=O)NCCCNC(=O)c2ccc(-c3c4nc(c(-c5cccc(S(=O)(=O)[O-])c5F)c5ccc([nH]5)c(-c5cccc(S(=O)(=O)[O-])c5F)c5nc(c(-c6cccc(S(=O)(=O)[O-])c6F)c6ccc3[nH]6)C=C5)C=C4)cc2)cc1
REMARK SMILES IDX 17 1 16 2 14 3 15 4 13 6 10 7 11 8 87 9 12 10 86 11 9 12
REMARK SMILES IDX 8 13 7 16 6 17 1 18 2 19 3 20 4 21 5 22 18 23 19 24 20 25
REMARK SMILES IDX 21 26 22 28 23 29 24 30 85 31 25 32 84 33 26 34 27 35 28 36
REMARK SMILES IDX 78 37 29 38 83 39 77 40 79 41 30 42 82 43 76 44 75 45 31 47
REMARK SMILES IDX 63 48 43 49 62 50 44 51 47 52 61 53 80 54 45 55 46 56 60 58
REMARK SMILES IDX 81 59 48 60 32 61 33 62 41 63 34 64 36 65 42 66 35 67 37 68
REMARK SMILES IDX 38 69 39 70 40 71 64 72 65 73 73 74 66 75 68 76 74 77 67 78
REMARK SMILES IDX 69 79 70 80 71 81 72 82 49 83 50 84 58 85 51 86 53 87 59 88
REMARK SMILES IDX 52 89 54 90 55 91 56 92 57 93
REMARK H PARENT 16 5 8 14 8 15 20 27 79 46 47 57
REMARK Flexibility Score: inf
ROOT
ATOM      1  C   UNL     1       6.435  -2.129   1.093  1.00  0.00     0.118 C 
ENDROOT
BRANCH   1   2
ATOM      2  N   UNL     1       6.858  -3.446   1.539  1.00  0.00    -0.352 N 
ATOM      3  C   UNL     1       6.129  -4.577   1.810  1.00  0.00     0.251 C 
ATOM      4  O   UNL     1       6.723  -5.629   2.036  1.00  0.00    -0.269 OA
ATOM      5  H   UNL     1       7.829  -3.543   1.669  1.00  0.00     0.163 HD
BRANCH   3   6
ATOM      6  C   UNL     1       4.646  -4.575   1.761  1.00  0.00     0.039 A 
ATOM      7  C   UNL     1       1.845  -4.599   1.452  1.00  0.00     0.006 A 
ATOM      8  C   UNL     1       2.622  -5.689   1.029  1.00  0.00     0.010 A 
ATOM      9  C   UNL     1       2.483  -3.554   2.135  1.00  0.00     0.010 A 
ATOM     10  C   UNL     1       4.011  -5.677   1.180  1.00  0.00     0.014 A 
ATOM     11  C   UNL     1       3.870  -3.545   2.292  1.00  0.00     0.014 A 
BRANCH   7  12
ATOM     12  C   UNL     1       0.350  -4.614   1.205  1.00  0.00     0.297 C 
BRANCH  12  13
ATOM     13  N   UNL     1      -0.271  -3.308   1.003  1.00  0.00    -0.338 N 
ATOM     14  H   UNL     1      -1.282  -3.435   0.962  1.00  0.00     0.346 HD
ATOM     15  H   UNL     1       0.019  -2.719   1.784  1.00  0.00     0.346 HD
BRANCH  13  16
ATOM     16  C   UNL     1       0.157  -2.632  -0.218  1.00  0.00     0.316 C 
BRANCH  16  17
ATOM     17  C   UNL     1      -0.271  -1.198  -0.145  1.00  0.00     0.072 A 
ATOM     18  C   UNL     1       2.024  -0.096  -0.049  1.00  0.00     0.149 C 
ATOM     19  N   UNL     1       0.577  -0.112  -0.070  1.00  0.00    -0.350 N 
ATOM     20  C   UNL     1      -0.165   1.045  -0.004  1.00  0.00     0.085 A 
ATOM     21  C   UNL     1      -1.497   0.708  -0.026  1.00  0.00     0.020 A 
ATOM     22  C   UNL     1      -1.565  -0.698  -0.119  1.00  0.00     0.029 A 
ENDBRANCH  16  17
ENDBRANCH  13  16
ENDBRANCH  12  13
ENDBRANCH   7  12
ENDBRANCH   3   6
ENDBRANCH   1   2
BRANCH   1  23
ATOM     23  C   UNL     1       6.520  -1.094   2.213  1.00  0.00     0.042 C 
BRANCH  23  24
ATOM     24  C   UNL     1       7.947  -0.709   2.590  1.00  0.00     0.118 C 
BRANCH  24  25
ATOM     25  N   UNL     1       8.603   0.053   1.540  1.00  0.00    -0.352 N 
ATOM     26  C   UNL     1       9.197   1.288   1.582  1.00  0.00     0.251 C 
ATOM     27  H   UNL     1       8.624  -0.388   0.659  1.00  0.00     0.163 HD
ATOM     28  O   UNL     1       9.497   1.834   0.522  1.00  0.00    -0.269 OA
BRANCH  26  29
ATOM     29  C   UNL     1       9.477   1.969   2.869  1.00  0.00     0.039 A 
ATOM     30  C   UNL     1       9.372   3.363   2.920  1.00  0.00     0.014 A 
ATOM     31  C   UNL     1       9.912   1.269   3.998  1.00  0.00     0.014 A 
ATOM     32  C   UNL     1       9.679   4.046   4.100  1.00  0.00     0.010 A 
ATOM     33  C   UNL     1      10.142   1.943   5.197  1.00  0.00     0.010 A 
ATOM     34  C   UNL     1      10.056   3.341   5.254  1.00  0.00    -0.014 A 
BRANCH  34  35
ATOM     35  C   UNL     1      10.390   4.062   6.511  1.00  0.00     0.031 A 
ATOM     36  C   UNL     1      11.784   4.003   7.079  1.00  0.00     0.074 A 
ATOM     37  C   UNL     1       9.425   4.733   7.169  1.00  0.00     0.049 A 
ATOM     38  N   UNL     1      12.263   4.579   8.152  1.00  0.00    -0.248 NA
ATOM     39  C   UNL     1      12.764   3.168   6.364  1.00  0.00     0.031 C 
ATOM     40  C   UNL     1       8.016   4.794   6.772  1.00  0.00     0.029 A 
ATOM     41  N   UNL     1       9.477   5.479   8.319  1.00  0.00    -0.354 N 
ATOM     42  C   UNL     1      13.582   4.153   8.259  1.00  0.00     0.074 A 
ATOM     43  C   UNL     1      13.818   3.238   7.164  1.00  0.00     0.031 C 
ATOM     44  C   UNL     1       7.342   5.547   7.656  1.00  0.00     0.029 A 
ATOM     45  C   UNL     1       8.263   6.008   8.691  1.00  0.00     0.049 A 
ATOM     46  H   UNL     1      10.306   5.622   8.831  1.00  0.00     0.167 HD
ATOM     47  C   UNL     1      14.523   4.514   9.165  1.00  0.00     0.034 A 
ATOM     48  C   UNL     1       7.931   6.785   9.740  1.00  0.00     0.034 A 
ATOM     49  C   UNL     1      14.299   5.461  10.223  1.00  0.00     0.049 A 
ATOM     50  C   UNL     1       9.012   7.235  10.686  1.00  0.00     0.074 A 
ATOM     51  C   UNL     1      15.206   5.957  11.143  1.00  0.00     0.029 A 
ATOM     52  N   UNL     1      13.080   6.059  10.504  1.00  0.00    -0.354 N 
ATOM     53  N   UNL     1      10.292   6.950  10.673  1.00  0.00    -0.248 NA
ATOM     54  C   UNL     1       8.612   8.153  11.762  1.00  0.00     0.031 C 
ATOM     55  C   UNL     1      14.532   6.846  11.988  1.00  0.00     0.029 A 
ATOM     56  C   UNL     1      13.210   6.920  11.580  1.00  0.00     0.049 A 
ATOM     57  H   UNL     1      12.244   5.895  10.011  1.00  0.00     0.167 HD
ATOM     58  C   UNL     1      10.856   7.684  11.710  1.00  0.00     0.074 A 
ATOM     59  C   UNL     1       9.781   8.444  12.315  1.00  0.00     0.031 C 
ATOM     60  C   UNL     1      12.144   7.714  12.135  1.00  0.00     0.034 A 
BRANCH  47  61
ATOM     61  C   UNL     1      15.903   3.927   9.011  1.00  0.00     0.023 A 
ATOM     62  C   UNL     1      16.719   4.346   7.939  1.00  0.00     0.012 A 
ATOM     63  C   UNL     1      16.414   3.006   9.947  1.00  0.00     0.148 A 
ATOM     64  C   UNL     1      18.005   3.832   7.779  1.00  0.00     0.002 A 
ATOM     65  C   UNL     1      17.714   2.532   9.806  1.00  0.00     0.091 A 
ATOM     66  F   UNL     1      15.619   2.602  10.947  1.00  0.00    -0.205 F 
ATOM     67  C   UNL     1      18.506   2.934   8.717  1.00  0.00     0.022 A 
BRANCH  65  68
ATOM     68  S   UNL     1      18.480   1.433  11.003  1.00  0.00     0.127 S 
ATOM     69  O   UNL     1      18.518   0.172  10.265  1.00  0.00    -0.237 OA
ATOM     70  O   UNL     1      19.787   2.059  11.206  1.00  0.00    -0.237 OA
ATOM     71  O   UNL     1      17.613   1.449  12.173  1.00  0.00    -0.744 OA
ENDBRANCH  65  68
ENDBRANCH  47  61
BRANCH  48  72
ATOM     72  C   UNL     1       6.529   7.266   9.894  1.00  0.00     0.023 A 
ATOM     73  C   UNL     1       6.236   8.625   9.666  1.00  0.00     0.012 A 
ATOM     74  C   UNL     1       5.484   6.385  10.232  1.00  0.00     0.148 A 
ATOM     75  C   UNL     1       4.933   9.105   9.806  1.00  0.00     0.002 A 
ATOM     76  C   UNL     1       4.180   6.859  10.314  1.00  0.00     0.091 A 
ATOM     77  F   UNL     1       5.785   5.098  10.455  1.00  0.00    -0.205 F 
ATOM     78  C   UNL     1       3.905   8.221  10.120  1.00  0.00     0.022 A 
BRANCH  76  79
ATOM     79  S   UNL     1       2.777   5.769  10.578  1.00  0.00     0.127 S 
ATOM     80  O   UNL     1       2.409   6.081  11.955  1.00  0.00    -0.237 OA
ATOM     81  O   UNL     1       1.833   6.238   9.564  1.00  0.00    -0.237 OA
ATOM     82  O   UNL     1       3.282   4.421  10.344  1.00  0.00    -0.744 OA
ENDBRANCH  76  79
ENDBRANCH  48  72
BRANCH  60  83
ATOM     83  C   UNL     1      12.474   8.628  13.286  1.00  0.00     0.023 A 
ATOM     84  C   UNL     1      12.036   8.308  14.586  1.00  0.00     0.012 A 
ATOM     85  C   UNL     1      13.261   9.780  13.087  1.00  0.00     0.148 A 
ATOM     86  C   UNL     1      12.339   9.141  15.662  1.00  0.00     0.002 A 
ATOM     87  C   UNL     1      13.601  10.579  14.172  1.00  0.00     0.091 A 
ATOM     88  F   UNL     1      13.652  10.083  11.840  1.00  0.00    -0.205 F 
ATOM     89  C   UNL     1      13.130  10.269  15.458  1.00  0.00     0.022 A 
BRANCH  87  90
ATOM     90  S   UNL     1      14.695  11.994  14.005  1.00  0.00     0.127 S 
ATOM     91  O   UNL     1      13.746  13.105  13.979  1.00  0.00    -0.237 OA
ATOM     92  O   UNL     1      15.505  11.912  15.222  1.00  0.00    -0.237 OA
ATOM     93  O   UNL     1      15.442  11.770  12.774  1.00  0.00    -0.744 OA
ENDBRANCH  87  90
ENDBRANCH  60  83
ENDBRANCH  34  35
ENDBRANCH  26  29
ENDBRANCH  24  25
ENDBRANCH  23  24
ENDBRANCH   1  23
TORSDOF 17
