REMARK SMILES O=C(NCCCNC(=O)c1ccc(-c2c3nc(c(-c4cccc(S(=O)(=O)[O-])c4F)c4ccc([nH]4)c(-c4cccc(S(=O)(=O)[O-])c4F)c4nc(c(-c5cccc(S(=O)(=O)[O-])c5F)c5ccc2[nH]5)C=C4)C=C3)cc1)c1ccc(C#CC#C[C@H]2C[C@@H](O)C2)cc1
REMARK SMILES IDX 4 1 3 2 1 3 2 4 73 6 74 7 87 8 75 9 86 10 76 11 77 12 78 13
REMARK SMILES IDX 79 14 80 15 81 16 85 17 82 18 83 19 84 20 5 22 6 23 7 24
REMARK SMILES IDX 8 25 9 27 10 28 11 29 72 30 12 31 71 32 13 33 14 34 15 35
REMARK SMILES IDX 65 36 16 37 70 38 64 39 66 40 17 41 69 42 63 43 62 44 18 46
REMARK SMILES IDX 50 47 30 48 49 49 31 50 34 51 48 52 67 53 32 54 33 55 47 57
REMARK SMILES IDX 68 58 35 59 19 60 20 61 28 62 21 63 23 64 29 65 22 66 24 67
REMARK SMILES IDX 25 68 26 69 27 70 51 71 52 72 60 73 53 74 55 75 61 76 54 77
REMARK SMILES IDX 56 78 57 79 58 80 59 81 36 82 37 83 45 84 38 85 40 86 46 87
REMARK SMILES IDX 39 88 41 89 42 90 43 91 44 92
REMARK H PARENT 3 5 84 21 7 26 66 45 34 56
REMARK Flexibility Score: inf
ROOT
ATOM      1  C   UNL     1       4.500  -0.815  -0.953  1.00  0.00     0.118 C 
ENDROOT
BRANCH   1   2
ATOM      2  N   UNL     1       3.067  -0.569  -0.855  1.00  0.00    -0.352 N 
ATOM      3  O   UNL     1       1.125   0.128   0.055  1.00  0.00    -0.269 OA
ATOM      4  C   UNL     1       2.353   0.134   0.083  1.00  0.00     0.251 C 
ATOM      5  H   UNL     1       2.527  -0.970  -1.574  1.00  0.00     0.163 HD
BRANCH   4   6
ATOM      6  C   UNL     1       3.054   0.879   1.151  1.00  0.00     0.039 A 
ATOM      7  C   UNL     1       4.120   1.736   0.861  1.00  0.00     0.015 A 
ATOM      8  C   UNL     1       2.623   0.716   2.471  1.00  0.00     0.015 A 
ATOM      9  C   UNL     1       4.836   2.329   1.900  1.00  0.00     0.018 A 
ATOM     10  C   UNL     1       3.320   1.339   3.509  1.00  0.00     0.018 A 
ATOM     11  C   UNL     1       4.442   2.123   3.224  1.00  0.00     0.026 A 
BRANCH  11  12
ATOM     12  C   UNL     1       5.191   2.720   4.280  1.00  0.00    -0.053 C 
ATOM     13  C   UNL     1       5.839   3.239   5.149  1.00  0.00    -0.010 C 
BRANCH  13  14
ATOM     14  C   UNL     1       6.667   3.926   6.231  1.00  0.00    -0.015 C 
ATOM     15  C   UNL     1       7.315   4.488   7.072  1.00  0.00    -0.085 C 
BRANCH  15  16
ATOM     16  C   UNL     1       8.093   5.175   8.072  1.00  0.00     0.070 C 
ATOM     17  C   UNL     1       7.782   6.683   8.245  1.00  0.00     0.048 C 
ATOM     18  C   UNL     1       7.620   4.997   9.536  1.00  0.00     0.048 C 
ATOM     19  C   UNL     1       7.989   6.482   9.764  1.00  0.00     0.116 C 
BRANCH  19  20
ATOM     20  O   UNL     1       7.127   7.237  10.634  1.00  0.00    -0.393 OA
ATOM     21  H   UNL     1       6.205   7.117  10.359  1.00  0.00     0.210 HD
ENDBRANCH  19  20
ENDBRANCH  15  16
ENDBRANCH  13  14
ENDBRANCH  11  12
ENDBRANCH   4   6
ENDBRANCH   1   2
BRANCH   1  22
ATOM     22  C   UNL     1       4.879  -2.266  -0.701  1.00  0.00     0.042 C 
BRANCH  22  23
ATOM     23  C   UNL     1       4.352  -3.244  -1.740  1.00  0.00     0.118 C 
BRANCH  23  24
ATOM     24  N   UNL     1       4.819  -2.943  -3.088  1.00  0.00    -0.352 N 
ATOM     25  C   UNL     1       5.597  -3.672  -3.952  1.00  0.00     0.251 C 
ATOM     26  H   UNL     1       4.528  -2.070  -3.437  1.00  0.00     0.163 HD
ATOM     27  O   UNL     1       6.023  -3.130  -4.970  1.00  0.00    -0.269 OA
BRANCH  25  28
ATOM     28  C   UNL     1       5.942  -5.084  -3.669  1.00  0.00     0.039 A 
ATOM     29  C   UNL     1       7.213  -5.545  -4.023  1.00  0.00     0.014 A 
ATOM     30  C   UNL     1       5.023  -5.965  -3.092  1.00  0.00     0.014 A 
ATOM     31  C   UNL     1       7.577  -6.863  -3.742  1.00  0.00     0.010 A 
ATOM     32  C   UNL     1       5.423  -7.246  -2.717  1.00  0.00     0.010 A 
ATOM     33  C   UNL     1       6.702  -7.715  -3.046  1.00  0.00    -0.014 A 
BRANCH  33  34
ATOM     34  C   UNL     1       7.135  -9.078  -2.640  1.00  0.00     0.031 A 
ATOM     35  C   UNL     1       6.406 -10.302  -3.127  1.00  0.00     0.074 A 
ATOM     36  C   UNL     1       8.171  -9.210  -1.786  1.00  0.00     0.049 A 
ATOM     37  N   UNL     1       6.667 -11.562  -2.888  1.00  0.00    -0.248 NA
ATOM     38  C   UNL     1       5.221 -10.091  -3.975  1.00  0.00     0.031 C 
ATOM     39  C   UNL     1       8.907  -8.101  -1.174  1.00  0.00     0.029 A 
ATOM     40  N   UNL     1       8.777 -10.330  -1.273  1.00  0.00    -0.354 N 
ATOM     41  C   UNL     1       5.669 -12.288  -3.525  1.00  0.00     0.074 A 
ATOM     42  C   UNL     1       4.776 -11.329  -4.137  1.00  0.00     0.031 C 
ATOM     43  C   UNL     1       9.877  -8.594  -0.390  1.00  0.00     0.029 A 
ATOM     44  C   UNL     1       9.805 -10.050  -0.403  1.00  0.00     0.049 A 
ATOM     45  H   UNL     1       8.502 -11.246  -1.506  1.00  0.00     0.167 HD
ATOM     46  C   UNL     1       5.519 -13.632  -3.612  1.00  0.00     0.034 A 
ATOM     47  C   UNL     1      10.593 -10.871   0.319  1.00  0.00     0.034 A 
ATOM     48  C   UNL     1       6.419 -14.584  -3.018  1.00  0.00     0.049 A 
ATOM     49  C   UNL     1      10.415 -12.358   0.186  1.00  0.00     0.074 A 
ATOM     50  C   UNL     1       6.400 -15.964  -3.126  1.00  0.00     0.029 A 
ATOM     51  N   UNL     1       7.479 -14.264  -2.185  1.00  0.00    -0.354 N 
ATOM     52  N   UNL     1       9.563 -13.024  -0.554  1.00  0.00    -0.248 NA
ATOM     53  C   UNL     1      11.331 -13.207   0.961  1.00  0.00     0.031 C 
ATOM     54  C   UNL     1       7.412 -16.480  -2.311  1.00  0.00     0.029 A 
ATOM     55  C   UNL     1       8.104 -15.420  -1.749  1.00  0.00     0.049 A 
ATOM     56  H   UNL     1       7.748 -13.349  -1.940  1.00  0.00     0.167 HD
ATOM     57  C   UNL     1       9.862 -14.368  -0.361  1.00  0.00     0.074 A 
ATOM     58  C   UNL     1      10.993 -14.418   0.541  1.00  0.00     0.031 C 
ATOM     59  C   UNL     1       9.248 -15.461  -0.876  1.00  0.00     0.034 A 
BRANCH  46  60
ATOM     60  C   UNL     1       4.347 -14.165  -4.397  1.00  0.00     0.023 A 
ATOM     61  C   UNL     1       4.317 -14.030  -5.801  1.00  0.00     0.012 A 
ATOM     62  C   UNL     1       3.316 -14.875  -3.750  1.00  0.00     0.148 A 
ATOM     63  C   UNL     1       3.265 -14.566  -6.543  1.00  0.00     0.002 A 
ATOM     64  C   UNL     1       2.299 -15.450  -4.502  1.00  0.00     0.091 A 
ATOM     65  F   UNL     1       3.354 -14.978  -2.414  1.00  0.00    -0.205 F 
ATOM     66  C   UNL     1       2.265 -15.286  -5.896  1.00  0.00     0.022 A 
BRANCH  64  67
ATOM     67  S   UNL     1       1.011 -16.468  -3.773  1.00  0.00     0.127 S 
ATOM     68  O   UNL     1      -0.179 -15.652  -4.013  1.00  0.00    -0.237 OA
ATOM     69  O   UNL     1       1.090 -17.684  -4.583  1.00  0.00    -0.237 OA
ATOM     70  O   UNL     1       1.373 -16.639  -2.374  1.00  0.00    -0.744 OA
ENDBRANCH  64  67
ENDBRANCH  46  60
BRANCH  47  71
ATOM     71  C   UNL     1      11.637 -10.306   1.220  1.00  0.00     0.023 A 
ATOM     72  C   UNL     1      13.001 -10.512   0.935  1.00  0.00     0.012 A 
ATOM     73  C   UNL     1      11.279  -9.566   2.363  1.00  0.00     0.148 A 
ATOM     74  C   UNL     1      13.987 -10.030   1.798  1.00  0.00     0.002 A 
ATOM     75  C   UNL     1      12.266  -9.034   3.182  1.00  0.00     0.091 A 
ATOM     76  F   UNL     1       9.976  -9.387   2.620  1.00  0.00    -0.205 F 
ATOM     77  C   UNL     1      13.621  -9.284   2.915  1.00  0.00     0.022 A 
BRANCH  75  78
ATOM     78  S   UNL     1      11.888  -7.953   4.564  1.00  0.00     0.127 S 
ATOM     79  O   UNL     1      12.276  -8.779   5.705  1.00  0.00    -0.237 OA
ATOM     80  O   UNL     1      12.766  -6.812   4.301  1.00  0.00    -0.237 OA
ATOM     81  O   UNL     1      10.467  -7.654   4.456  1.00  0.00    -0.744 OA
ENDBRANCH  75  78
ENDBRANCH  47  71
BRANCH  59  82
ATOM     82  C   UNL     1       9.816 -16.811  -0.516  1.00  0.00     0.023 A 
ATOM     83  C   UNL     1       9.711 -17.299   0.802  1.00  0.00     0.012 A 
ATOM     84  C   UNL     1      10.418 -17.616  -1.504  1.00  0.00     0.148 A 
ATOM     85  C   UNL     1      10.245 -18.543   1.142  1.00  0.00     0.002 A 
ATOM     86  C   UNL     1      10.893 -18.878  -1.171  1.00  0.00     0.091 A 
ATOM     87  F   UNL     1      10.520 -17.130  -2.750  1.00  0.00    -0.205 F 
ATOM     88  C   UNL     1      10.825 -19.335   0.154  1.00  0.00     0.022 A 
BRANCH  86  89
ATOM     89  S   UNL     1      11.566 -20.008  -2.394  1.00  0.00     0.127 S 
ATOM     90  O   UNL     1      12.980 -20.041  -2.021  1.00  0.00    -0.237 OA
ATOM     91  O   UNL     1      10.831 -21.240  -2.111  1.00  0.00    -0.237 OA
ATOM     92  O   UNL     1      11.280 -19.415  -3.693  1.00  0.00    -0.744 OA
ENDBRANCH  86  89
ENDBRANCH  59  82
ENDBRANCH  33  34
ENDBRANCH  25  28
ENDBRANCH  23  24
ENDBRANCH  22  23
ENDBRANCH   1  22
TORSDOF 17
