REMARK SMILES CCc1ncc(S(=O)(=O)NCc2ccc(C(=O)NCCCNC(=O)c3ccc(-c4c5nc(c(-c6cccc(S(=O)(=O)[O-])c6F)c6ccc([nH]6)c(-c6cccc(S(=O)(=O)[O-])c6F)c6nc(c(-c7cccc(S(=O)(=O)[O-])c7F)c7ccc4[nH]7)C=C6)C=C5)cc3)o2)[nH]1
REMARK SMILES IDX 19 1 18 2 16 3 17 4 15 6 12 7 13 8 88 9 14 10 11 11 10 12
REMARK SMILES IDX 7 14 8 15 9 16 6 17 3 18 4 19 89 20 5 21 2 23 1 24 20 25
REMARK SMILES IDX 21 26 22 27 23 28 24 30 25 31 26 32 87 33 27 34 86 35 28 36
REMARK SMILES IDX 29 37 30 38 80 39 31 40 85 41 79 42 81 43 32 44 84 45 78 46
REMARK SMILES IDX 77 47 33 49 65 50 45 51 64 52 46 53 49 54 63 55 82 56 47 57
REMARK SMILES IDX 48 58 62 60 83 61 50 62 34 63 35 64 43 65 36 66 38 67 44 68
REMARK SMILES IDX 37 69 39 70 40 71 41 72 42 73 66 74 67 75 75 76 68 77 70 78
REMARK SMILES IDX 76 79 69 80 71 81 72 82 73 83 74 84 51 85 52 86 60 87 53 88
REMARK SMILES IDX 55 89 61 90 54 91 56 92 57 93 58 94 59 95
REMARK H PARENT 18 5 10 13 89 22 22 29 81 48 49 59
REMARK Flexibility Score: inf
ROOT
ATOM      1  C   UNL     1       9.015  -2.417   4.459  1.00  0.00     0.118 C 
ENDROOT
BRANCH   1   2
ATOM      2  N   UNL     1       8.987  -3.853   4.658  1.00  0.00    -0.349 N 
ATOM      3  C   UNL     1       7.904  -4.670   4.900  1.00  0.00     0.286 C 
ATOM      4  O   UNL     1       8.086  -5.881   4.761  1.00  0.00    -0.266 OA
ATOM      5  H   UNL     1       9.860  -4.305   4.615  1.00  0.00     0.163 HD
BRANCH   3   6
ATOM      6  C   UNL     1       6.627  -4.099   5.285  1.00  0.00     0.191 A 
ATOM      7  C   UNL     1       4.413  -4.104   5.409  1.00  0.00     0.119 A 
ATOM      8  C   UNL     1       4.839  -2.980   6.078  1.00  0.00     0.048 A 
ATOM      9  O   UNL     1       5.495  -4.799   4.951  1.00  0.00    -0.455 OA
ATOM     10  C   UNL     1       6.247  -2.965   5.978  1.00  0.00     0.056 A 
BRANCH   7  11
ATOM     11  C   UNL     1       3.099  -4.705   5.085  1.00  0.00     0.174 C 
BRANCH  11  12
ATOM     12  N   UNL     1       1.964  -3.978   5.661  1.00  0.00    -0.202 NA
ATOM     13  H   UNL     1       1.179  -4.629   5.684  1.00  0.00     0.141 HD
BRANCH  12  14
ATOM     14  S   UNL     1       1.408  -2.581   4.934  1.00  0.00     0.258 S 
ATOM     15  O   UNL     1       2.463  -1.606   4.865  1.00  0.00    -0.205 OA
ATOM     16  O   UNL     1       0.139  -2.259   5.554  1.00  0.00    -0.205 OA
BRANCH  14  17
ATOM     17  C   UNL     1       1.011  -2.873   3.263  1.00  0.00     0.167 A 
ATOM     18  C   UNL     1       0.626  -2.317   1.138  1.00  0.00     0.106 A 
ATOM     19  N   UNL     1       0.428  -3.619   1.203  1.00  0.00    -0.240 NA
ATOM     20  N   UNL     1       1.011  -1.835   2.362  1.00  0.00    -0.332 N 
ATOM     21  C   UNL     1       0.652  -3.967   2.512  1.00  0.00     0.153 A 
ATOM     22  H   UNL     1       1.248  -0.901   2.563  1.00  0.00     0.169 HD
BRANCH  18  23
ATOM     23  C   UNL     1       0.413  -1.463  -0.070  1.00  0.00     0.072 C 
ATOM     24  C   UNL     1       1.001  -0.064   0.023  1.00  0.00     0.012 C 
ENDBRANCH  18  23
ENDBRANCH  14  17
ENDBRANCH  12  14
ENDBRANCH  11  12
ENDBRANCH   7  11
ENDBRANCH   3   6
ENDBRANCH   1   2
BRANCH   1  25
ATOM     25  C   UNL     1       9.458  -1.656   5.704  1.00  0.00     0.042 C 
BRANCH  25  26
ATOM     26  C   UNL     1      10.956  -1.702   5.969  1.00  0.00     0.118 C 
BRANCH  26  27
ATOM     27  N   UNL     1      11.722  -1.033   4.929  1.00  0.00    -0.352 N 
ATOM     28  C   UNL     1      12.596   0.021   5.006  1.00  0.00     0.251 C 
ATOM     29  H   UNL     1      11.591  -1.396   4.023  1.00  0.00     0.163 HD
ATOM     30  O   UNL     1      12.960   0.561   3.964  1.00  0.00    -0.269 OA
BRANCH  28  31
ATOM     31  C   UNL     1      13.103   0.510   6.309  1.00  0.00     0.039 A 
ATOM     32  C   UNL     1      13.360   1.877   6.453  1.00  0.00     0.014 A 
ATOM     33  C   UNL     1      13.397  -0.363   7.361  1.00  0.00     0.014 A 
ATOM     34  C   UNL     1      13.886   2.367   7.651  1.00  0.00     0.010 A 
ATOM     35  C   UNL     1      13.837   0.138   8.584  1.00  0.00     0.010 A 
ATOM     36  C   UNL     1      14.115   1.503   8.733  1.00  0.00    -0.014 A 
BRANCH  36  37
ATOM     37  C   UNL     1      14.675   2.008  10.012  1.00  0.00     0.031 A 
ATOM     38  C   UNL     1      16.017   1.523  10.498  1.00  0.00     0.074 A 
ATOM     39  C   UNL     1      13.950   2.857  10.766  1.00  0.00     0.049 A 
ATOM     40  N   UNL     1      16.658   1.832  11.595  1.00  0.00    -0.248 NA
ATOM     41  C   UNL     1      16.719   0.540   9.655  1.00  0.00     0.031 C 
ATOM     42  C   UNL     1      12.604   3.336  10.442  1.00  0.00     0.029 A 
ATOM     43  N   UNL     1      14.234   3.453  11.968  1.00  0.00    -0.354 N 
ATOM     44  C   UNL     1      17.814   1.059  11.593  1.00  0.00     0.074 A 
ATOM     45  C   UNL     1      17.768   0.237  10.405  1.00  0.00     0.031 C 
ATOM     46  C   UNL     1      12.184   4.159  11.416  1.00  0.00     0.029 A 
ATOM     47  C   UNL     1      13.217   4.247  12.443  1.00  0.00     0.049 A 
ATOM     48  H   UNL     1      15.085   3.324  12.446  1.00  0.00     0.167 HD
ATOM     49  C   UNL     1      18.837   1.056  12.481  1.00  0.00     0.034 A 
ATOM     50  C   UNL     1      13.128   4.967  13.579  1.00  0.00     0.034 A 
ATOM     51  C   UNL     1      18.898   1.911  13.636  1.00  0.00     0.049 A 
ATOM     52  C   UNL     1      14.304   4.994  14.517  1.00  0.00     0.074 A 
ATOM     53  C   UNL     1      19.925   2.047  14.553  1.00  0.00     0.029 A 
ATOM     54  N   UNL     1      17.890   2.776  14.033  1.00  0.00    -0.354 N 
ATOM     55  N   UNL     1      15.454   4.372  14.418  1.00  0.00    -0.248 NA
ATOM     56  C   UNL     1      14.188   5.856  15.701  1.00  0.00     0.031 C 
ATOM     57  C   UNL     1      19.528   2.980  15.517  1.00  0.00     0.029 A 
ATOM     58  C   UNL     1      18.267   3.447  15.183  1.00  0.00     0.049 A 
ATOM     59  H   UNL     1      17.031   2.894  13.566  1.00  0.00     0.167 HD
ATOM     60  C   UNL     1      16.213   4.799  15.501  1.00  0.00     0.074 A 
ATOM     61  C   UNL     1      15.398   5.749  16.231  1.00  0.00     0.031 C 
ATOM     62  C   UNL     1      17.466   4.430  15.866  1.00  0.00     0.034 A 
BRANCH  49  63
ATOM     63  C   UNL     1      20.000   0.137  12.207  1.00  0.00     0.023 A 
ATOM     64  C   UNL     1      20.870   0.415  11.132  1.00  0.00     0.012 A 
ATOM     65  C   UNL     1      20.266  -0.968  13.040  1.00  0.00     0.148 A 
ATOM     66  C   UNL     1      21.960  -0.412  10.866  1.00  0.00     0.002 A 
ATOM     67  C   UNL     1      21.382  -1.761  12.796  1.00  0.00     0.091 A 
ATOM     68  F   UNL     1      19.418  -1.231  14.044  1.00  0.00    -0.205 F 
ATOM     69  C   UNL     1      22.222  -1.493  11.703  1.00  0.00     0.022 A 
BRANCH  67  70
ATOM     70  S   UNL     1      21.853  -3.127  13.863  1.00  0.00     0.127 S 
ATOM     71  O   UNL     1      21.560  -4.280  13.013  1.00  0.00    -0.237 OA
ATOM     72  O   UNL     1      23.279  -2.874  14.076  1.00  0.00    -0.237 OA
ATOM     73  O   UNL     1      21.030  -3.006  15.058  1.00  0.00    -0.744 OA
ENDBRANCH  67  70
ENDBRANCH  49  63
BRANCH  50  74
ATOM     74  C   UNL     1      11.912   5.785  13.848  1.00  0.00     0.023 A 
ATOM     75  C   UNL     1      11.995   7.190  13.786  1.00  0.00     0.012 A 
ATOM     76  C   UNL     1      10.672   5.183  14.134  1.00  0.00     0.148 A 
ATOM     77  C   UNL     1      10.874   7.981  14.039  1.00  0.00     0.002 A 
ATOM     78  C   UNL     1       9.546   5.975  14.330  1.00  0.00     0.091 A 
ATOM     79  F   UNL     1      10.615   3.845  14.197  1.00  0.00    -0.205 F 
ATOM     80  C   UNL     1       9.649   7.374  14.301  1.00  0.00     0.022 A 
BRANCH  78  81
ATOM     81  S   UNL     1       7.904   5.278  14.538  1.00  0.00     0.127 S 
ATOM     82  O   UNL     1       7.640   5.551  15.948  1.00  0.00    -0.237 OA
ATOM     83  O   UNL     1       7.116   6.075  13.597  1.00  0.00    -0.237 OA
ATOM     84  O   UNL     1       8.026   3.872  14.176  1.00  0.00    -0.744 OA
ENDBRANCH  78  81
ENDBRANCH  50  74
BRANCH  62  85
ATOM     85  C   UNL     1      18.057   5.089  17.085  1.00  0.00     0.023 A 
ATOM     86  C   UNL     1      17.571   4.764  18.367  1.00  0.00     0.012 A 
ATOM     87  C   UNL     1      19.135   5.987  16.962  1.00  0.00     0.148 A 
ATOM     88  C   UNL     1      18.121   5.355  19.504  1.00  0.00     0.002 A 
ATOM     89  C   UNL     1      19.712   6.532  18.102  1.00  0.00     0.091 A 
ATOM     90  F   UNL     1      19.571   6.300  15.732  1.00  0.00    -0.205 F 
ATOM     91  C   UNL     1      19.198   6.229  19.372  1.00  0.00     0.022 A 
BRANCH  89  92
ATOM     92  S   UNL     1      21.165   7.586  18.028  1.00  0.00     0.127 S 
ATOM     93  O   UNL     1      20.586   8.907  18.265  1.00  0.00    -0.237 OA
ATOM     94  O   UNL     1      21.981   7.071  19.129  1.00  0.00    -0.237 OA
ATOM     95  O   UNL     1      21.740   7.379  16.706  1.00  0.00    -0.744 OA
ENDBRANCH  89  92
ENDBRANCH  62  85
ENDBRANCH  36  37
ENDBRANCH  28  31
ENDBRANCH  26  27
ENDBRANCH  25  26
ENDBRANCH   1  25
TORSDOF 18
