REMARK SMILES CCOC(=O)c1ccc(-c2ccc(C(=O)NCCCNC(=O)c3ccc(-c4c5nc(c(-c6cccc(S(=O)(=O)[O-])c6F)c6ccc([nH]6)c(-c6cccc(S(=O)(=O)[O-])c6F)c6nc(c(-c7cccc(S(=O)(=O)[O-])c7F)c7ccc4[nH]7)C=C6)C=C5)cc3)o2)cc1
REMARK SMILES IDX 17 1 16 2 14 3 15 4 13 6 10 7 11 8 86 9 12 10 9 11 6 12 7 13
REMARK SMILES IDX 88 14 8 15 87 16 4 17 5 18 3 19 2 20 1 21 18 22 19 23 20 24
REMARK SMILES IDX 21 25 22 27 23 28 24 29 85 30 25 31 84 32 26 33 27 34 28 35
REMARK SMILES IDX 78 36 29 37 83 38 77 39 79 40 30 41 82 42 76 43 75 44 31 46
REMARK SMILES IDX 63 47 43 48 62 49 44 50 47 51 61 52 80 53 45 54 46 55 60 57
REMARK SMILES IDX 81 58 48 59 32 60 33 61 41 62 34 63 36 64 42 65 35 66 37 67
REMARK SMILES IDX 38 68 39 69 40 70 64 71 65 72 73 73 66 74 68 75 74 76 67 77
REMARK SMILES IDX 69 78 70 79 71 80 72 81 49 82 50 83 58 84 51 85 53 86 59 87
REMARK SMILES IDX 52 88 54 89 55 90 56 91 57 92
REMARK H PARENT 16 5 20 26 79 45 47 56
REMARK Flexibility Score: inf
ROOT
ATOM      1  C   UNL     1       6.667  -8.716   8.505  1.00  0.00     0.118 C 
ENDROOT
BRANCH   1   2
ATOM      2  N   UNL     1       6.595  -7.289   8.751  1.00  0.00    -0.349 N 
ATOM      3  C   UNL     1       6.127  -6.253   7.976  1.00  0.00     0.287 C 
ATOM      4  O   UNL     1       6.086  -5.152   8.532  1.00  0.00    -0.266 OA
ATOM      5  H   UNL     1       6.943  -7.012   9.630  1.00  0.00     0.163 HD
BRANCH   3   6
ATOM      6  C   UNL     1       5.692  -6.459   6.605  1.00  0.00     0.192 A 
ATOM      7  C   UNL     1       4.668  -5.803   4.753  1.00  0.00     0.135 A 
ATOM      8  C   UNL     1       5.151  -7.064   4.497  1.00  0.00     0.052 A 
ATOM      9  O   UNL     1       4.983  -5.430   6.021  1.00  0.00    -0.451 OA
ATOM     10  C   UNL     1       5.846  -7.464   5.663  1.00  0.00     0.057 A 
BRANCH   7  11
ATOM     11  C   UNL     1       3.986  -4.821   3.933  1.00  0.00     0.017 A 
ATOM     12  C   UNL     1       2.877  -3.049   2.067  1.00  0.00     0.060 A 
ATOM     13  C   UNL     1       4.051  -2.706   2.744  1.00  0.00     0.016 A 
ATOM     14  C   UNL     1       2.226  -4.254   2.355  1.00  0.00     0.016 A 
ATOM     15  C   UNL     1       4.592  -3.582   3.687  1.00  0.00     0.013 A 
ATOM     16  C   UNL     1       2.788  -5.141   3.279  1.00  0.00     0.013 A 
BRANCH  12  17
ATOM     17  C   UNL     1       2.420  -2.170   0.968  1.00  0.00     0.338 C 
ATOM     18  O   UNL     1       3.186  -1.574   0.229  1.00  0.00    -0.246 OA
BRANCH  17  19
ATOM     19  O   UNL     1       1.065  -2.135   0.925  1.00  0.00    -0.462 OA
BRANCH  19  20
ATOM     20  C   UNL     1       0.508  -1.391  -0.170  1.00  0.00     0.230 C 
ATOM     21  C   UNL     1       0.633   0.110   0.034  1.00  0.00     0.049 C 
ENDBRANCH  19  20
ENDBRANCH  17  19
ENDBRANCH  12  17
ENDBRANCH   7  11
ENDBRANCH   3   6
ENDBRANCH   1   2
BRANCH   1  22
ATOM     22  C   UNL     1       8.065  -9.159   8.079  1.00  0.00     0.042 C 
BRANCH  22  23
ATOM     23  C   UNL     1       9.068  -9.214   9.233  1.00  0.00     0.118 C 
BRANCH  23  24
ATOM     24  N   UNL     1       8.735 -10.256  10.197  1.00  0.00    -0.352 N 
ATOM     25  C   UNL     1       9.470 -11.327  10.640  1.00  0.00     0.251 C 
ATOM     26  H   UNL     1       7.838 -10.178  10.595  1.00  0.00     0.163 HD
ATOM     27  O   UNL     1       8.908 -12.204  11.293  1.00  0.00    -0.269 OA
BRANCH  25  28
ATOM     28  C   UNL     1      10.915 -11.442  10.344  1.00  0.00     0.039 A 
ATOM     29  C   UNL     1      11.442 -12.702  10.042  1.00  0.00     0.014 A 
ATOM     30  C   UNL     1      11.764 -10.335  10.427  1.00  0.00     0.014 A 
ATOM     31  C   UNL     1      12.807 -12.844   9.776  1.00  0.00     0.010 A 
ATOM     32  C   UNL     1      13.113 -10.466  10.103  1.00  0.00     0.010 A 
ATOM     33  C   UNL     1      13.650 -11.722   9.782  1.00  0.00    -0.014 A 
BRANCH  33  34
ATOM     34  C   UNL     1      15.092 -11.837   9.444  1.00  0.00     0.031 A 
ATOM     35  C   UNL     1      16.143 -11.533  10.476  1.00  0.00     0.074 A 
ATOM     36  C   UNL     1      15.454 -12.117   8.177  1.00  0.00     0.049 A 
ATOM     37  N   UNL     1      17.444 -11.505  10.344  1.00  0.00    -0.248 NA
ATOM     38  C   UNL     1      15.670 -11.186  11.826  1.00  0.00     0.031 C 
ATOM     39  C   UNL     1      14.528 -12.349   7.067  1.00  0.00     0.029 A 
ATOM     40  N   UNL     1      16.696 -12.219   7.602  1.00  0.00    -0.354 N 
ATOM     41  C   UNL     1      17.943 -11.100  11.576  1.00  0.00     0.074 A 
ATOM     42  C   UNL     1      16.803 -10.869  12.437  1.00  0.00     0.031 C 
ATOM     43  C   UNL     1      15.233 -12.559   5.944  1.00  0.00     0.029 A 
ATOM     44  C   UNL     1      16.657 -12.456   6.248  1.00  0.00     0.049 A 
ATOM     45  H   UNL     1      17.534 -12.131   8.110  1.00  0.00     0.167 HD
ATOM     46  C   UNL     1      19.233 -10.960  11.966  1.00  0.00     0.034 A 
ATOM     47  C   UNL     1      17.655 -12.574   5.350  1.00  0.00     0.034 A 
ATOM     48  C   UNL     1      20.365 -11.248  11.126  1.00  0.00     0.049 A 
ATOM     49  C   UNL     1      19.079 -12.482   5.822  1.00  0.00     0.074 A 
ATOM     50  C   UNL     1      21.708 -11.240  11.458  1.00  0.00     0.029 A 
ATOM     51  N   UNL     1      20.287 -11.595   9.786  1.00  0.00    -0.354 N 
ATOM     52  N   UNL     1      19.533 -12.266   7.032  1.00  0.00    -0.248 NA
ATOM     53  C   UNL     1      20.130 -12.689   4.814  1.00  0.00     0.031 C 
ATOM     54  C   UNL     1      22.443 -11.576  10.315  1.00  0.00     0.029 A 
ATOM     55  C   UNL     1      21.557 -11.800   9.274  1.00  0.00     0.049 A 
ATOM     56  H   UNL     1      19.451 -11.682   9.273  1.00  0.00     0.167 HD
ATOM     57  C   UNL     1      20.918 -12.339   6.940  1.00  0.00     0.074 A 
ATOM     58  C   UNL     1      21.228 -12.641   5.557  1.00  0.00     0.031 C 
ATOM     59  C   UNL     1      21.849 -12.154   7.908  1.00  0.00     0.034 A 
BRANCH  46  60
ATOM     60  C   UNL     1      19.488 -10.540  13.389  1.00  0.00     0.023 A 
ATOM     61  C   UNL     1      19.266 -11.463  14.431  1.00  0.00     0.012 A 
ATOM     62  C   UNL     1      19.986  -9.259  13.696  1.00  0.00     0.148 A 
ATOM     63  C   UNL     1      19.500 -11.107  15.759  1.00  0.00     0.002 A 
ATOM     64  C   UNL     1      20.254  -8.924  15.020  1.00  0.00     0.091 A 
ATOM     65  F   UNL     1      20.168  -8.383  12.697  1.00  0.00    -0.205 F 
ATOM     66  C   UNL     1      20.003  -9.842  16.052  1.00  0.00     0.022 A 
BRANCH  64  67
ATOM     67  S   UNL     1      20.971  -7.342  15.482  1.00  0.00     0.127 S 
ATOM     68  O   UNL     1      19.795  -6.610  15.948  1.00  0.00    -0.237 OA
ATOM     69  O   UNL     1      21.911  -7.720  16.538  1.00  0.00    -0.237 OA
ATOM     70  O   UNL     1      21.600  -6.828  14.273  1.00  0.00    -0.744 OA
ENDBRANCH  64  67
ENDBRANCH  46  60
BRANCH  47  71
ATOM     71  C   UNL     1      17.329 -12.879   3.929  1.00  0.00     0.023 A 
ATOM     72  C   UNL     1      17.582 -14.171   3.430  1.00  0.00     0.012 A 
ATOM     73  C   UNL     1      16.712 -11.927   3.094  1.00  0.00     0.148 A 
ATOM     74  C   UNL     1      17.245 -14.505   2.118  1.00  0.00     0.002 A 
ATOM     75  C   UNL     1      16.330 -12.283   1.805  1.00  0.00     0.091 A 
ATOM     76  F   UNL     1      16.491 -10.699   3.585  1.00  0.00    -0.205 F 
ATOM     77  C   UNL     1      16.608 -13.566   1.310  1.00  0.00     0.022 A 
BRANCH  75  78
ATOM     78  S   UNL     1      15.382 -11.184   0.745  1.00  0.00     0.127 S 
ATOM     79  O   UNL     1      16.380 -10.788  -0.245  1.00  0.00    -0.237 OA
ATOM     80  O   UNL     1      14.335 -12.075   0.244  1.00  0.00    -0.237 OA
ATOM     81  O   UNL     1      14.896 -10.123   1.618  1.00  0.00    -0.744 OA
ENDBRANCH  75  78
ENDBRANCH  47  71
BRANCH  59  82
ATOM     82  C   UNL     1      23.297 -12.288   7.519  1.00  0.00     0.023 A 
ATOM     83  C   UNL     1      23.916 -11.257   6.786  1.00  0.00     0.012 A 
ATOM     84  C   UNL     1      24.063 -13.391   7.946  1.00  0.00     0.148 A 
ATOM     85  C   UNL     1      25.270 -11.332   6.463  1.00  0.00     0.002 A 
ATOM     86  C   UNL     1      25.422 -13.439   7.655  1.00  0.00     0.091 A 
ATOM     87  F   UNL     1      23.450 -14.374   8.622  1.00  0.00    -0.205 F 
ATOM     88  C   UNL     1      26.025 -12.415   6.908  1.00  0.00     0.022 A 
BRANCH  86  89
ATOM     89  S   UNL     1      26.483 -14.754   8.266  1.00  0.00     0.127 S 
ATOM     90  O   UNL     1      26.637 -15.590   7.077  1.00  0.00    -0.237 OA
ATOM     91  O   UNL     1      27.691 -14.027   8.661  1.00  0.00    -0.237 OA
ATOM     92  O   UNL     1      25.760 -15.362   9.376  1.00  0.00    -0.744 OA
ENDBRANCH  86  89
ENDBRANCH  59  82
ENDBRANCH  33  34
ENDBRANCH  25  28
ENDBRANCH  23  24
ENDBRANCH  22  23
ENDBRANCH   1  22
TORSDOF 17
