REMARK SMILES CCS(=O)(=O)/N=c1/[nH]c(C)c(C(=O)NCCCNC(=O)c2ccc(-c3c4nc(c(-c5cccc(S(=O)(=O)[O-])c5F)c5ccc([nH]5)c(-c5cccc(S(=O)(=O)[O-])c5F)c5nc(c(-c6cccc(S(=O)(=O)[O-])c6F)c6ccc3[nH]6)C=C5)C=C4)cc2)s1
REMARK SMILES IDX 16 1 15 2 14 3 12 4 13 5 11 7 6 8 7 9 8 10 84 11 9 12 10 14
REMARK SMILES IDX 3 15 4 16 5 17 2 18 1 19 17 20 18 21 19 22 20 24 21 25 22 26
REMARK SMILES IDX 83 27 23 28 82 29 24 30 25 31 26 32 76 33 27 34 81 35 75 36
REMARK SMILES IDX 77 37 28 38 80 39 74 40 73 41 29 43 61 44 41 45 60 46 42 47
REMARK SMILES IDX 45 48 59 49 78 50 43 51 44 52 58 54 79 55 46 56 30 57 31 58
REMARK SMILES IDX 39 59 32 60 34 61 40 62 33 63 35 64 36 65 37 66 38 67 62 68
REMARK SMILES IDX 63 69 71 70 64 71 66 72 72 73 65 74 67 75 68 76 69 77 70 78
REMARK SMILES IDX 47 79 48 80 56 81 49 82 51 83 57 84 50 85 52 86 53 87 54 88
REMARK SMILES IDX 55 89
REMARK H PARENT 14 6 8 13 18 23 77 42 45 53
REMARK Flexibility Score: inf
ROOT
ATOM      1  C   UNL     1       8.052   2.783   0.372  1.00  0.00     0.042 C 
ENDROOT
BRANCH   1   2
ATOM      2  C   UNL     1       7.338   2.493   1.675  1.00  0.00     0.118 C 
BRANCH   2   3
ATOM      3  N   UNL     1       5.982   2.952   1.717  1.00  0.00    -0.351 N 
ATOM      4  C   UNL     1       4.814   2.317   1.975  1.00  0.00     0.263 C 
ATOM      5  O   UNL     1       3.854   3.085   2.121  1.00  0.00    -0.268 OA
ATOM      6  H   UNL     1       5.879   3.911   1.521  1.00  0.00     0.163 HD
BRANCH   4   7
ATOM      7  C   UNL     1       4.607   0.814   2.010  1.00  0.00     0.114 A 
ATOM      8  N   UNL     1       2.299  -2.240   1.615  1.00  0.00    -0.135 NA
ATOM      9  C   UNL     1       3.129  -1.289   1.853  1.00  0.00     0.199 A 
ATOM     10  N   UNL     1       4.478  -1.472   1.862  1.00  0.00    -0.333 N 
ATOM     11  S   UNL     1       2.850   0.411   2.156  1.00  0.00    -0.091 S 
ATOM     12  C   UNL     1       5.301  -0.356   1.960  1.00  0.00     0.037 A 
ATOM     13  H   UNL     1       4.862  -2.376   1.800  1.00  0.00     0.169 HD
ATOM     14  C   UNL     1       6.760  -0.689   1.978  1.00  0.00     0.066 C 
BRANCH   8  15
ATOM     15  S   UNL     1       0.696  -2.111   1.643  1.00  0.00     0.255 S 
ATOM     16  O   UNL     1       0.249  -1.147   2.623  1.00  0.00    -0.205 OA
ATOM     17  O   UNL     1       0.174  -3.468   1.719  1.00  0.00    -0.205 OA
BRANCH  15  18
ATOM     18  C   UNL     1       0.274  -1.532   0.012  1.00  0.00     0.159 C 
ATOM     19  C   UNL     1       0.613  -0.089  -0.286  1.00  0.00     0.023 C 
ENDBRANCH  15  18
ENDBRANCH   8  15
ENDBRANCH   4   7
ENDBRANCH   2   3
ENDBRANCH   1   2
BRANCH   1  20
ATOM     20  C   UNL     1       8.649   4.177   0.323  1.00  0.00     0.118 C 
BRANCH  20  21
ATOM     21  N   UNL     1       9.603   4.415   1.406  1.00  0.00    -0.352 N 
ATOM     22  C   UNL     1      10.969   4.551   1.389  1.00  0.00     0.251 C 
ATOM     23  H   UNL     1       9.197   4.489   2.300  1.00  0.00     0.163 HD
ATOM     24  O   UNL     1      11.593   4.510   2.446  1.00  0.00    -0.269 OA
BRANCH  22  25
ATOM     25  C   UNL     1      11.682   4.736   0.110  1.00  0.00     0.039 A 
ATOM     26  C   UNL     1      12.931   4.137  -0.076  1.00  0.00     0.014 A 
ATOM     27  C   UNL     1      11.118   5.504  -0.909  1.00  0.00     0.014 A 
ATOM     28  C   UNL     1      13.570   4.247  -1.312  1.00  0.00     0.010 A 
ATOM     29  C   UNL     1      11.688   5.500  -2.172  1.00  0.00     0.010 A 
ATOM     30  C   UNL     1      12.931   4.891  -2.384  1.00  0.00    -0.014 A 
BRANCH  30  31
ATOM     31  C   UNL     1      13.541   4.959  -3.735  1.00  0.00     0.031 A 
ATOM     32  C   UNL     1      13.806   6.298  -4.372  1.00  0.00     0.074 A 
ATOM     33  C   UNL     1      13.759   3.822  -4.425  1.00  0.00     0.049 A 
ATOM     34  N   UNL     1      14.248   6.565  -5.572  1.00  0.00    -0.248 NA
ATOM     35  C   UNL     1      13.498   7.495  -3.569  1.00  0.00     0.031 C 
ATOM     36  C   UNL     1      13.460   2.469  -3.948  1.00  0.00     0.029 A 
ATOM     37  N   UNL     1      14.258   3.624  -5.688  1.00  0.00    -0.354 N 
ATOM     38  C   UNL     1      14.227   7.950  -5.683  1.00  0.00     0.074 A 
ATOM     39  C   UNL     1      13.686   8.468  -4.448  1.00  0.00     0.031 C 
ATOM     40  C   UNL     1      13.792   1.583  -4.900  1.00  0.00     0.029 A 
ATOM     41  C   UNL     1      14.289   2.302  -6.067  1.00  0.00     0.049 A 
ATOM     42  H   UNL     1      14.564   4.359  -6.267  1.00  0.00     0.167 HD
ATOM     43  C   UNL     1      14.653   8.726  -6.707  1.00  0.00     0.034 A 
ATOM     44  C   UNL     1      14.663   1.735  -7.231  1.00  0.00     0.034 A 
ATOM     45  C   UNL     1      15.235   8.206  -7.914  1.00  0.00     0.049 A 
ATOM     46  C   UNL     1      15.171   2.618  -8.338  1.00  0.00     0.074 A 
ATOM     47  C   UNL     1      15.786   8.905  -8.972  1.00  0.00     0.029 A 
ATOM     48  N   UNL     1      15.332   6.860  -8.227  1.00  0.00    -0.354 N 
ATOM     49  N   UNL     1      15.292   3.923  -8.363  1.00  0.00    -0.248 NA
ATOM     50  C   UNL     1      15.628   1.949  -9.564  1.00  0.00     0.031 C 
ATOM     51  C   UNL     1      16.185   7.981  -9.942  1.00  0.00     0.029 A 
ATOM     52  C   UNL     1      15.921   6.705  -9.469  1.00  0.00     0.049 A 
ATOM     53  H   UNL     1      15.027   6.122  -7.651  1.00  0.00     0.167 HD
ATOM     54  C   UNL     1      15.873   4.229  -9.588  1.00  0.00     0.074 A 
ATOM     55  C   UNL     1      16.097   2.970 -10.268  1.00  0.00     0.031 C 
ATOM     56  C   UNL     1      16.182   5.442 -10.109  1.00  0.00     0.034 A 
BRANCH  43  57
ATOM     57  C   UNL     1      14.547  10.221  -6.547  1.00  0.00     0.023 A 
ATOM     58  C   UNL     1      15.373  10.886  -5.617  1.00  0.00     0.012 A 
ATOM     59  C   UNL     1      13.669  10.972  -7.350  1.00  0.00     0.148 A 
ATOM     60  C   UNL     1      15.299  12.270  -5.461  1.00  0.00     0.002 A 
ATOM     61  C   UNL     1      13.636  12.356  -7.226  1.00  0.00     0.091 A 
ATOM     62  F   UNL     1      12.875  10.321  -8.213  1.00  0.00    -0.205 F 
ATOM     63  C   UNL     1      14.439  13.005  -6.273  1.00  0.00     0.022 A 
BRANCH  61  64
ATOM     64  S   UNL     1      12.627  13.401  -8.281  1.00  0.00     0.127 S 
ATOM     65  O   UNL     1      11.633  13.904  -7.333  1.00  0.00    -0.237 OA
ATOM     66  O   UNL     1      13.594  14.400  -8.737  1.00  0.00    -0.237 OA
ATOM     67  O   UNL     1      12.106  12.534  -9.328  1.00  0.00    -0.744 OA
ENDBRANCH  61  64
ENDBRANCH  43  57
BRANCH  44  68
ATOM     68  C   UNL     1      14.625   0.254  -7.385  1.00  0.00     0.023 A 
ATOM     69  C   UNL     1      15.832  -0.467  -7.472  1.00  0.00     0.012 A 
ATOM     70  C   UNL     1      13.404  -0.447  -7.421  1.00  0.00     0.148 A 
ATOM     71  C   UNL     1      15.824  -1.853  -7.629  1.00  0.00     0.002 A 
ATOM     72  C   UNL     1      13.403  -1.833  -7.519  1.00  0.00     0.091 A 
ATOM     73  F   UNL     1      12.266   0.258  -7.343  1.00  0.00    -0.205 F 
ATOM     74  C   UNL     1      14.611  -2.537  -7.644  1.00  0.00     0.022 A 
BRANCH  72  75
ATOM     75  S   UNL     1      11.897  -2.806  -7.407  1.00  0.00     0.127 S 
ATOM     76  O   UNL     1      11.776  -3.327  -8.766  1.00  0.00    -0.237 OA
ATOM     77  O   UNL     1      12.256  -3.799  -6.394  1.00  0.00    -0.237 OA
ATOM     78  O   UNL     1      10.856  -1.876  -6.991  1.00  0.00    -0.744 OA
ENDBRANCH  72  75
ENDBRANCH  44  68
BRANCH  56  79
ATOM     79  C   UNL     1      16.841   5.474 -11.463  1.00  0.00     0.023 A 
ATOM     80  C   UNL     1      16.099   5.159 -12.618  1.00  0.00     0.012 A 
ATOM     81  C   UNL     1      18.180   5.894 -11.592  1.00  0.00     0.148 A 
ATOM     82  C   UNL     1      16.691   5.228 -13.879  1.00  0.00     0.002 A 
ATOM     83  C   UNL     1      18.745   6.014 -12.854  1.00  0.00     0.091 A 
ATOM     84  F   UNL     1      18.873   6.173 -10.478  1.00  0.00    -0.205 F 
ATOM     85  C   UNL     1      18.007   5.668 -13.998  1.00  0.00     0.022 A 
BRANCH  83  86
ATOM     86  S   UNL     1      20.398   6.668 -13.112  1.00  0.00     0.127 S 
ATOM     87  O   UNL     1      21.125   5.476 -13.545  1.00  0.00    -0.237 OA
ATOM     88  O   UNL     1      20.176   7.663 -14.162  1.00  0.00    -0.237 OA
ATOM     89  O   UNL     1      20.817   7.222 -11.832  1.00  0.00    -0.744 OA
ENDBRANCH  83  86
ENDBRANCH  56  79
ENDBRANCH  30  31
ENDBRANCH  22  25
ENDBRANCH  20  21
ENDBRANCH   1  20
TORSDOF 15
