REMARK SMILES CCOc1cc(/C=C2/C(=O)N(c3cccc(C(=O)NCCCNC(=O)c4ccc(-c5c6nc(c(-c7cccc(S(=O)(=O)[O-])c7F)c7ccc([nH]7)c(-c7cccc(S(=O)(=O)[O-])c7F)c7nc(c(-c8cccc(S(=O)(=O)[O-])c8F)c8ccc5[nH]8)C=C7)C=C6)cc4)c3)N=C2C)cc(Cl)c1OC
REMARK SMILES IDX 20 1 19 2 17 3 18 4 16 6 12 7 13 8 89 9 14 10 15 11 11 12
REMARK SMILES IDX 7 13 8 14 9 15 91 16 10 17 90 18 92 19 6 20 4 21 5 22 96 23
REMARK SMILES IDX 94 24 93 25 95 26 3 27 2 28 1 29 97 30 98 31 21 32 22 33
REMARK SMILES IDX 23 34 24 35 25 37 26 38 27 39 88 40 28 41 87 42 29 43 30 44
REMARK SMILES IDX 31 45 81 46 32 47 86 48 80 49 82 50 33 51 85 52 79 53 78 54
REMARK SMILES IDX 34 56 66 57 46 58 65 59 47 60 50 61 64 62 83 63 48 64 49 65
REMARK SMILES IDX 63 67 84 68 51 69 35 70 36 71 44 72 37 73 39 74 45 75 38 76
REMARK SMILES IDX 40 77 41 78 42 79 43 80 67 81 68 82 76 83 69 84 71 85 77 86
REMARK SMILES IDX 70 87 72 88 73 89 74 90 75 91 52 92 53 93 61 94 54 95 56 96
REMARK SMILES IDX 62 97 55 98 57 99 58 100 59 101 60 102
REMARK H PARENT 19 5 23 36 82 55 50 66
REMARK Flexibility Score: inf
ROOT
ATOM      1  C   UNL     1      11.071  -0.720  -2.435  1.00  0.00     0.118 C 
ENDROOT
BRANCH   1   2
ATOM      2  N   UNL     1      12.004  -1.810  -2.159  1.00  0.00    -0.352 N 
ATOM      3  C   UNL     1      12.042  -2.790  -1.190  1.00  0.00     0.251 C 
ATOM      4  O   UNL     1      12.969  -3.599  -1.209  1.00  0.00    -0.269 OA
ATOM      5  H   UNL     1      12.757  -1.853  -2.791  1.00  0.00     0.163 HD
BRANCH   3   6
ATOM      6  C   UNL     1      11.054  -2.857  -0.081  1.00  0.00     0.041 A 
ATOM      7  C   UNL     1       8.944  -2.163   0.868  1.00  0.00     0.069 A 
ATOM      8  C   UNL     1       9.409  -2.528   2.138  1.00  0.00     0.028 A 
ATOM      9  C   UNL     1       9.724  -2.482  -0.246  1.00  0.00     0.042 A 
ATOM     10  C   UNL     1      10.663  -3.120   2.293  1.00  0.00     0.003 A 
ATOM     11  C   UNL     1      11.505  -3.240   1.188  1.00  0.00     0.014 A 
BRANCH   7  12
ATOM     12  N   UNL     1       7.814  -1.321   0.728  1.00  0.00    -0.196 N 
ATOM     13  C   UNL     1       5.627   0.902  -0.934  1.00  0.00     0.024 C 
ATOM     14  C   UNL     1       6.402   0.256  -0.054  1.00  0.00     0.065 C 
ATOM     15  C   UNL     1       7.212  -0.914  -0.473  1.00  0.00     0.280 C 
ATOM     16  C   UNL     1       6.678   0.399   1.386  1.00  0.00     0.071 C 
ATOM     17  O   UNL     1       7.297  -1.343  -1.607  1.00  0.00    -0.267 OA
ATOM     18  N   UNL     1       7.463  -0.547   1.831  1.00  0.00    -0.169 NA
ATOM     19  C   UNL     1       6.207   1.520   2.249  1.00  0.00     0.069 C 
BRANCH  13  20
ATOM     20  C   UNL     1       4.709   1.988  -0.614  1.00  0.00    -0.019 A 
ATOM     21  C   UNL     1       2.443   2.712  -0.205  1.00  0.00     0.163 A 
ATOM     22  C   UNL     1       3.346   1.720  -0.592  1.00  0.00     0.058 A 
ATOM     23  C   UNL     1       2.869   4.018   0.122  1.00  0.00     0.179 A 
ATOM     24  C   UNL     1       4.246   4.291   0.033  1.00  0.00     0.087 A 
ATOM     25  C   UNL     1       5.151   3.278  -0.337  1.00  0.00     0.032 A 
ATOM     26  Cl  UNL     1       4.995   5.818   0.336  1.00  0.00    -0.080 Cl
BRANCH  21  27
ATOM     27  O   UNL     1       1.098   2.424  -0.265  1.00  0.00    -0.490 OA
BRANCH  27  28
ATOM     28  C   UNL     1       0.662   1.542   0.776  1.00  0.00     0.226 C 
ATOM     29  C   UNL     1       0.563   0.108   0.274  1.00  0.00     0.049 C 
ENDBRANCH  27  28
ENDBRANCH  21  27
BRANCH  23  30
ATOM     30  O   UNL     1       1.837   4.842   0.486  1.00  0.00    -0.491 OA
ATOM     31  C   UNL     1       2.084   6.169   0.918  1.00  0.00     0.278 C 
ENDBRANCH  23  30
ENDBRANCH  13  20
ENDBRANCH   7  12
ENDBRANCH   3   6
ENDBRANCH   1   2
BRANCH   1  32
ATOM     32  C   UNL     1      11.700   0.665  -2.464  1.00  0.00     0.042 C 
BRANCH  32  33
ATOM     33  C   UNL     1      12.713   0.896  -3.574  1.00  0.00     0.118 C 
BRANCH  33  34
ATOM     34  N   UNL     1      12.140   0.777  -4.910  1.00  0.00    -0.352 N 
ATOM     35  C   UNL     1      11.859   1.723  -5.868  1.00  0.00     0.251 C 
ATOM     36  H   UNL     1      11.914  -0.144  -5.172  1.00  0.00     0.163 HD
ATOM     37  O   UNL     1      11.218   1.388  -6.862  1.00  0.00    -0.269 OA
BRANCH  35  38
ATOM     38  C   UNL     1      12.293   3.132  -5.718  1.00  0.00     0.039 A 
ATOM     39  C   UNL     1      11.444   4.152  -6.164  1.00  0.00     0.014 A 
ATOM     40  C   UNL     1      13.540   3.462  -5.188  1.00  0.00     0.014 A 
ATOM     41  C   UNL     1      11.816   5.493  -6.010  1.00  0.00     0.010 A 
ATOM     42  C   UNL     1      13.865   4.793  -4.942  1.00  0.00     0.010 A 
ATOM     43  C   UNL     1      13.015   5.826  -5.361  1.00  0.00    -0.014 A 
BRANCH  43  44
ATOM     44  C   UNL     1      13.411   7.239  -5.114  1.00  0.00     0.031 A 
ATOM     45  C   UNL     1      14.698   7.774  -5.689  1.00  0.00     0.074 A 
ATOM     46  C   UNL     1      12.675   8.007  -4.286  1.00  0.00     0.049 A 
ATOM     47  N   UNL     1      15.271   8.934  -5.494  1.00  0.00    -0.248 NA
ATOM     48  C   UNL     1      15.461   6.873  -6.570  1.00  0.00     0.031 C 
ATOM     49  C   UNL     1      11.451   7.583  -3.602  1.00  0.00     0.029 A 
ATOM     50  N   UNL     1      12.866   9.295  -3.851  1.00  0.00    -0.354 N 
ATOM     51  C   UNL     1      16.477   8.883  -6.184  1.00  0.00     0.074 A 
ATOM     52  C   UNL     1      16.571   7.566  -6.774  1.00  0.00     0.031 C 
ATOM     53  C   UNL     1      11.002   8.591  -2.836  1.00  0.00     0.029 A 
ATOM     54  C   UNL     1      11.920   9.720  -2.947  1.00  0.00     0.049 A 
ATOM     55  H   UNL     1      13.611   9.862  -4.158  1.00  0.00     0.167 HD
ATOM     56  C   UNL     1      17.410   9.853  -6.340  1.00  0.00     0.034 A 
ATOM     57  C   UNL     1      11.809  10.882  -2.274  1.00  0.00     0.034 A 
ATOM     58  C   UNL     1      17.284  11.182  -5.805  1.00  0.00     0.049 A 
ATOM     59  C   UNL     1      12.828  11.964  -2.511  1.00  0.00     0.074 A 
ATOM     60  C   UNL     1      18.122  12.267  -5.990  1.00  0.00     0.029 A 
ATOM     61  N   UNL     1      16.256  11.607  -4.979  1.00  0.00    -0.354 N 
ATOM     62  N   UNL     1      13.880  11.950  -3.294  1.00  0.00    -0.248 NA
ATOM     63  C   UNL     1      12.625  13.236  -1.802  1.00  0.00     0.031 C 
ATOM     64  C   UNL     1      17.609  13.345  -5.261  1.00  0.00     0.029 A 
ATOM     65  C   UNL     1      16.440  12.937  -4.640  1.00  0.00     0.049 A 
ATOM     66  H   UNL     1      15.505  11.047  -4.678  1.00  0.00     0.167 HD
ATOM     67  C   UNL     1      14.443  13.217  -3.199  1.00  0.00     0.074 A 
ATOM     68  C   UNL     1      13.603  13.981  -2.299  1.00  0.00     0.031 C 
ATOM     69  C   UNL     1      15.564  13.701  -3.789  1.00  0.00     0.034 A 
BRANCH  56  70
ATOM     70  C   UNL     1      18.623   9.532  -7.175  1.00  0.00     0.023 A 
ATOM     71  C   UNL     1      18.486   9.383  -8.571  1.00  0.00     0.012 A 
ATOM     72  C   UNL     1      19.902   9.431  -6.593  1.00  0.00     0.148 A 
ATOM     73  C   UNL     1      19.594   9.100  -9.369  1.00  0.00     0.002 A 
ATOM     74  C   UNL     1      21.009   9.195  -7.401  1.00  0.00     0.091 A 
ATOM     75  F   UNL     1      20.011   9.555  -5.263  1.00  0.00    -0.205 F 
ATOM     76  C   UNL     1      20.855   9.016  -8.786  1.00  0.00     0.022 A 
BRANCH  74  77
ATOM     77  S   UNL     1      22.686   9.149  -6.759  1.00  0.00     0.127 S 
ATOM     78  O   UNL     1      23.003   7.725  -6.863  1.00  0.00    -0.237 OA
ATOM     79  O   UNL     1      23.402  10.004  -7.706  1.00  0.00    -0.237 OA
ATOM     80  O   UNL     1      22.611   9.676  -5.403  1.00  0.00    -0.744 OA
ENDBRANCH  74  77
ENDBRANCH  56  70
BRANCH  57  81
ATOM     81  C   UNL     1      10.647  11.110  -1.367  1.00  0.00     0.023 A 
ATOM     82  C   UNL     1       9.648  12.028  -1.746  1.00  0.00     0.012 A 
ATOM     83  C   UNL     1      10.508  10.407  -0.154  1.00  0.00     0.148 A 
ATOM     84  C   UNL     1       8.549  12.266  -0.920  1.00  0.00     0.002 A 
ATOM     85  C   UNL     1       9.383  10.608   0.638  1.00  0.00     0.091 A 
ATOM     86  F   UNL     1      11.475   9.546   0.196  1.00  0.00    -0.205 F 
ATOM     87  C   UNL     1       8.411  11.550   0.266  1.00  0.00     0.022 A 
BRANCH  85  88
ATOM     88  S   UNL     1       9.059   9.634   2.113  1.00  0.00     0.127 S 
ATOM     89  O   UNL     1       9.323  10.602   3.175  1.00  0.00    -0.237 OA
ATOM     90  O   UNL     1       7.650   9.278   1.940  1.00  0.00    -0.237 OA
ATOM     91  O   UNL     1       9.973   8.502   2.042  1.00  0.00    -0.744 OA
ENDBRANCH  85  88
ENDBRANCH  57  81
BRANCH  69  92
ATOM     92  C   UNL     1      15.937  15.134  -3.515  1.00  0.00     0.023 A 
ATOM     93  C   UNL     1      16.458  15.494  -2.257  1.00  0.00     0.012 A 
ATOM     94  C   UNL     1      15.846  16.107  -4.531  1.00  0.00     0.148 A 
ATOM     95  C   UNL     1      16.854  16.806  -2.003  1.00  0.00     0.002 A 
ATOM     96  C   UNL     1      16.287  17.401  -4.286  1.00  0.00     0.091 A 
ATOM     97  F   UNL     1      15.329  15.749  -5.716  1.00  0.00    -0.205 F 
ATOM     98  C   UNL     1      16.780  17.756  -3.020  1.00  0.00     0.022 A 
BRANCH  96  99
ATOM     99  S   UNL     1      16.320  18.664  -5.564  1.00  0.00     0.127 S 
ATOM    100  O   UNL     1      15.212  19.527  -5.159  1.00  0.00    -0.237 OA
ATOM    101  O   UNL     1      17.648  19.253  -5.385  1.00  0.00    -0.237 OA
ATOM    102  O   UNL     1      16.138  17.961  -6.826  1.00  0.00    -0.744 OA
ENDBRANCH  96  99
ENDBRANCH  69  92
ENDBRANCH  43  44
ENDBRANCH  35  38
ENDBRANCH  33  34
ENDBRANCH  32  33
ENDBRANCH   1  32
TORSDOF 18
