REMARK SMILES Cc1ccc(-c2cc(C(=O)NCCCNC(=O)c3ccc(-c4c5nc(c(-c6cccc(S(=O)(=O)[O-])c6F)c6ccc([nH]6)c(-c6cccc(S(=O)(=O)[O-])c6F)c6nc(c(-c7cccc(S(=O)(=O)[O-])c7F)c7ccc4[nH]7)C=C6)C=C5)cc3)ccc2F)cc1O
REMARK SMILES IDX 13 1 12 2 11 3 9 4 10 5 8 7 6 8 7 9 83 10 82 11 84 12 81 13
REMARK SMILES IDX 5 14 1 15 2 16 3 17 86 18 4 19 85 20 87 21 14 23 15 24 16 25
REMARK SMILES IDX 17 27 18 28 19 29 80 30 20 31 79 32 21 33 22 34 23 35 73 36
REMARK SMILES IDX 24 37 78 38 72 39 74 40 25 41 77 42 71 43 70 44 26 46 58 47
REMARK SMILES IDX 38 48 57 49 39 50 42 51 56 52 75 53 40 54 41 55 55 57 76 58
REMARK SMILES IDX 43 59 27 60 28 61 36 62 29 63 31 64 37 65 30 66 32 67 33 68
REMARK SMILES IDX 34 69 35 70 59 71 60 72 68 73 61 74 63 75 69 76 62 77 64 78
REMARK SMILES IDX 65 79 66 80 67 81 44 82 45 83 53 84 46 85 48 86 54 87 47 88
REMARK SMILES IDX 49 89 50 90 51 91 52 92
REMARK H PARENT 11 6 87 22 15 26 74 45 42 56
REMARK Flexibility Score: inf
ROOT
ATOM      1  C   UNL     1       7.506   5.819   0.770  1.00  0.00     0.042 C 
ENDROOT
BRANCH   1   2
ATOM      2  C   UNL     1       7.261   4.582   1.634  1.00  0.00     0.118 C 
BRANCH   2   3
ATOM      3  N   UNL     1       5.963   4.639   2.281  1.00  0.00    -0.352 N 
ATOM      4  C   UNL     1       4.750   4.066   2.007  1.00  0.00     0.251 C 
ATOM      5  O   UNL     1       3.841   4.283   2.812  1.00  0.00    -0.269 OA
ATOM      6  H   UNL     1       5.953   5.208   3.084  1.00  0.00     0.163 HD
BRANCH   4   7
ATOM      7  C   UNL     1       4.482   3.170   0.844  1.00  0.00     0.040 A 
ATOM      8  C   UNL     1       2.999   1.433  -0.078  1.00  0.00     0.018 A 
ATOM      9  C   UNL     1       3.360   2.323   0.950  1.00  0.00     0.025 A 
ATOM     10  C   UNL     1       3.816   1.383  -1.212  1.00  0.00     0.131 A 
ATOM     11  C   UNL     1       4.906   2.235  -1.355  1.00  0.00     0.041 A 
ATOM     12  F   UNL     1       3.540   0.531  -2.211  1.00  0.00    -0.206 F 
ATOM     13  C   UNL     1       5.217   3.149  -0.344  1.00  0.00     0.017 A 
BRANCH   8  14
ATOM     14  C   UNL     1       1.770   0.635   0.013  1.00  0.00    -0.012 A 
ATOM     15  C   UNL     1      -1.884  -1.701   0.055  1.00  0.00     0.048 C 
ATOM     16  C   UNL     1      -0.632  -0.874   0.063  1.00  0.00    -0.009 A 
ATOM     17  C   UNL     1       0.617  -1.510   0.027  1.00  0.00     0.008 A 
ATOM     18  C   UNL     1      -0.660   0.523   0.087  1.00  0.00     0.119 A 
ATOM     19  C   UNL     1       1.802  -0.765  -0.001  1.00  0.00     0.009 A 
ATOM     20  C   UNL     1       0.519   1.268   0.071  1.00  0.00     0.055 A 
BRANCH  18  21
ATOM     21  O   UNL     1      -1.822   1.242   0.112  1.00  0.00    -0.508 OA
ATOM     22  H   UNL     1      -2.647   0.799   0.123  1.00  0.00     0.293 HD
ENDBRANCH  18  21
ENDBRANCH   8  14
ENDBRANCH   4   7
ENDBRANCH   2   3
ENDBRANCH   1   2
BRANCH   1  23
ATOM     23  C   UNL     1       7.806   7.078   1.585  1.00  0.00     0.118 C 
BRANCH  23  24
ATOM     24  N   UNL     1       9.082   6.982   2.283  1.00  0.00    -0.352 N 
ATOM     25  C   UNL     1      10.224   7.732   2.150  1.00  0.00     0.251 C 
ATOM     26  H   UNL     1       9.134   6.265   2.956  1.00  0.00     0.163 HD
ATOM     27  O   UNL     1      11.270   7.324   2.648  1.00  0.00    -0.269 OA
BRANCH  25  28
ATOM     28  C   UNL     1      10.206   9.019   1.420  1.00  0.00     0.039 A 
ATOM     29  C   UNL     1      11.289   9.343   0.596  1.00  0.00     0.014 A 
ATOM     30  C   UNL     1       9.160   9.930   1.588  1.00  0.00     0.014 A 
ATOM     31  C   UNL     1      11.296  10.555  -0.100  1.00  0.00     0.010 A 
ATOM     32  C   UNL     1       9.138  11.109   0.845  1.00  0.00     0.010 A 
ATOM     33  C   UNL     1      10.206  11.435  -0.004  1.00  0.00    -0.014 A 
BRANCH  33  34
ATOM     34  C   UNL     1      10.149  12.688  -0.801  1.00  0.00     0.031 A 
ATOM     35  C   UNL     1      10.128  14.028  -0.116  1.00  0.00     0.074 A 
ATOM     36  C   UNL     1      10.024  12.612  -2.141  1.00  0.00     0.049 A 
ATOM     37  N   UNL     1       9.990  15.217  -0.642  1.00  0.00    -0.248 NA
ATOM     38  C   UNL     1      10.256  14.033   1.351  1.00  0.00     0.031 C 
ATOM     39  C   UNL     1       9.969  11.369  -2.913  1.00  0.00     0.029 A 
ATOM     40  N   UNL     1       9.893  13.597  -3.088  1.00  0.00    -0.354 N 
ATOM     41  C   UNL     1       9.979  16.107   0.426  1.00  0.00     0.074 A 
ATOM     42  C   UNL     1      10.101  15.320   1.633  1.00  0.00     0.031 C 
ATOM     43  C   UNL     1       9.817  11.665  -4.213  1.00  0.00     0.029 A 
ATOM     44  C   UNL     1       9.729  13.114  -4.367  1.00  0.00     0.049 A 
ATOM     45  H   UNL     1       9.913  14.557  -2.874  1.00  0.00     0.167 HD
ATOM     46  C   UNL     1       9.900  17.459   0.400  1.00  0.00     0.034 A 
ATOM     47  C   UNL     1       9.523  13.762  -5.531  1.00  0.00     0.034 A 
ATOM     48  C   UNL     1       9.829  18.239  -0.806  1.00  0.00     0.049 A 
ATOM     49  C   UNL     1       9.482  15.265  -5.533  1.00  0.00     0.074 A 
ATOM     50  C   UNL     1       9.821  19.617  -0.935  1.00  0.00     0.029 A 
ATOM     51  N   UNL     1       9.755  17.717  -2.087  1.00  0.00    -0.354 N 
ATOM     52  N   UNL     1       9.606  16.093  -4.524  1.00  0.00    -0.248 NA
ATOM     53  C   UNL     1       9.311  15.927  -6.834  1.00  0.00     0.031 C 
ATOM     54  C   UNL     1       9.725  19.928  -2.294  1.00  0.00     0.029 A 
ATOM     55  C   UNL     1       9.701  18.744  -3.014  1.00  0.00     0.049 A 
ATOM     56  H   UNL     1       9.743  16.757  -2.306  1.00  0.00     0.167 HD
ATOM     57  C   UNL     1       9.563  17.371  -5.071  1.00  0.00     0.074 A 
ATOM     58  C   UNL     1       9.421  17.207  -6.503  1.00  0.00     0.031 C 
ATOM     59  C   UNL     1       9.621  18.569  -4.441  1.00  0.00     0.034 A 
BRANCH  46  60
ATOM     60  C   UNL     1       9.955  18.201   1.710  1.00  0.00     0.023 A 
ATOM     61  C   UNL     1      11.181  18.296   2.398  1.00  0.00     0.012 A 
ATOM     62  C   UNL     1       8.832  18.899   2.197  1.00  0.00     0.148 A 
ATOM     63  C   UNL     1      11.286  19.060   3.560  1.00  0.00     0.002 A 
ATOM     64  C   UNL     1       8.955  19.694   3.331  1.00  0.00     0.091 A 
ATOM     65  F   UNL     1       7.671  18.782   1.536  1.00  0.00    -0.205 F 
ATOM     66  C   UNL     1      10.178  19.768   4.018  1.00  0.00     0.022 A 
BRANCH  64  67
ATOM     67  S   UNL     1       7.615  20.715   3.956  1.00  0.00     0.127 S 
ATOM     68  O   UNL     1       7.329  20.073   5.239  1.00  0.00    -0.237 OA
ATOM     69  O   UNL     1       8.253  22.027   4.061  1.00  0.00    -0.237 OA
ATOM     70  O   UNL     1       6.548  20.630   2.969  1.00  0.00    -0.744 OA
ENDBRANCH  64  67
ENDBRANCH  46  60
BRANCH  47  71
ATOM     71  C   UNL     1       9.421  12.985  -6.799  1.00  0.00     0.023 A 
ATOM     72  C   UNL     1      10.472  13.053  -7.733  1.00  0.00     0.012 A 
ATOM     73  C   UNL     1       8.324  12.140  -7.059  1.00  0.00     0.148 A 
ATOM     74  C   UNL     1      10.424  12.312  -8.915  1.00  0.00     0.002 A 
ATOM     75  C   UNL     1       8.310  11.360  -8.210  1.00  0.00     0.091 A 
ATOM     76  F   UNL     1       7.327  12.098  -6.164  1.00  0.00    -0.205 F 
ATOM     77  C   UNL     1       9.350  11.457  -9.147  1.00  0.00     0.022 A 
BRANCH  75  78
ATOM     78  S   UNL     1       7.045  10.122  -8.520  1.00  0.00     0.127 S 
ATOM     79  O   UNL     1       6.298  10.725  -9.620  1.00  0.00    -0.237 OA
ATOM     80  O   UNL     1       7.846   8.954  -8.884  1.00  0.00    -0.237 OA
ATOM     81  O   UNL     1       6.319   9.981  -7.263  1.00  0.00    -0.744 OA
ENDBRANCH  75  78
ENDBRANCH  47  71
BRANCH  59  82
ATOM     82  C   UNL     1       9.567  19.816  -5.285  1.00  0.00     0.023 A 
ATOM     83  C   UNL     1       8.349  20.210  -5.872  1.00  0.00     0.012 A 
ATOM     84  C   UNL     1      10.696  20.652  -5.401  1.00  0.00     0.148 A 
ATOM     85  C   UNL     1       8.261  21.407  -6.582  1.00  0.00     0.002 A 
ATOM     86  C   UNL     1      10.587  21.867  -6.067  1.00  0.00     0.091 A 
ATOM     87  F   UNL     1      11.850  20.250  -4.850  1.00  0.00    -0.205 F 
ATOM     88  C   UNL     1       9.374  22.241  -6.667  1.00  0.00     0.022 A 
BRANCH  86  89
ATOM     89  S   UNL     1      11.937  23.050  -6.135  1.00  0.00     0.127 S 
ATOM     90  O   UNL     1      12.371  22.927  -7.526  1.00  0.00    -0.237 OA
ATOM     91  O   UNL     1      11.264  24.310  -5.816  1.00  0.00    -0.237 OA
ATOM     92  O   UNL     1      12.904  22.613  -5.137  1.00  0.00    -0.744 OA
ENDBRANCH  86  89
ENDBRANCH  59  82
ENDBRANCH  33  34
ENDBRANCH  25  28
ENDBRANCH  23  24
ENDBRANCH   1  23
TORSDOF 15
