REMARK SMILES [NH3+][C@]1(C(=O)NCCCNC(=O)c2ccc(-c3c4nc(c(-c5cccc(S(=O)(=O)[O-])c5F)c5ccc([nH]5)c(-c5cccc(S(=O)(=O)[O-])c5F)c5nc(c(-c6cccc(S(=O)(=O)[O-])c6F)c6ccc3[nH]6)C=C5)C=C4)cc2)CCC[C@@H]1CCn1cc(I)cn1
REMARK SMILES IDX 7 1 6 2 5 3 3 4 4 5 2 7 75 8 78 9 76 10 77 11 1 12 79 16
REMARK SMILES IDX 80 17 81 18 82 19 86 20 83 21 85 22 84 23 8 24 9 25 10 26
REMARK SMILES IDX 11 28 12 29 13 30 74 31 14 32 73 33 15 34 16 35 17 36 67 37
REMARK SMILES IDX 18 38 72 39 66 40 68 41 19 42 71 43 65 44 64 45 20 47 52 48
REMARK SMILES IDX 32 49 51 50 33 51 36 52 50 53 69 54 34 55 35 56 49 58 70 59
REMARK SMILES IDX 37 60 21 61 22 62 30 63 23 64 25 65 31 66 24 67 26 68 27 69
REMARK SMILES IDX 28 70 29 71 53 72 54 73 62 74 55 75 57 76 63 77 56 78 58 79
REMARK SMILES IDX 59 80 60 81 61 82 38 83 39 84 47 85 40 86 42 87 48 88 41 89
REMARK SMILES IDX 43 90 44 91 45 92 46 93
REMARK H PARENT 5 6 1 13 1 14 1 15 9 27 68 46 36 57
REMARK Flexibility Score: inf
ROOT
ATOM      1  C   UNL     1      -1.751   1.817   1.487  1.00  0.00     0.042 C 
ENDROOT
BRANCH   1   2
ATOM      2  C   UNL     1      -1.471   0.968   0.256  1.00  0.00     0.118 C 
BRANCH   2   3
ATOM      3  N   UNL     1      -0.051   0.837  -0.013  1.00  0.00    -0.351 N 
ATOM      4  C   UNL     1       0.781  -0.221  -0.191  1.00  0.00     0.281 C 
ATOM      5  O   UNL     1       1.952   0.078  -0.457  1.00  0.00    -0.268 OA
ATOM      6  H   UNL     1       0.409   1.705  -0.081  1.00  0.00     0.163 HD
BRANCH   4   7
ATOM      7  C   UNL     1       0.355  -1.706  -0.012  1.00  0.00     0.176 C 
ATOM      8  C   UNL     1       1.291  -2.604  -0.855  1.00  0.00     0.079 C 
ATOM      9  C   UNL     1       0.674  -2.236   1.415  1.00  0.00     0.062 C 
ATOM     10  C   UNL     1       1.112  -3.991  -0.261  1.00  0.00     0.008 C 
ATOM     11  C   UNL     1       0.889  -3.753   1.231  1.00  0.00     0.011 C 
BRANCH   7  12
ATOM     12  N   UNL     1      -1.011  -2.012  -0.473  1.00  0.00    -0.345 N 
ATOM     13  H   UNL     1      -1.208  -3.001  -0.320  1.00  0.00     0.345 HD
ATOM     14  H   UNL     1      -1.089  -1.799  -1.468  1.00  0.00     0.345 HD
ATOM     15  H   UNL     1      -1.680  -1.447   0.050  1.00  0.00     0.345 HD
ENDBRANCH   7  12
BRANCH   9  16
ATOM     16  C   UNL     1      -0.252  -1.760   2.561  1.00  0.00     0.034 C 
BRANCH  16  17
ATOM     17  C   UNL     1      -1.179  -2.772   3.244  1.00  0.00     0.145 C 
BRANCH  17  18
ATOM     18  N   UNL     1      -0.540  -3.836   3.997  1.00  0.00    -0.272 N 
ATOM     19  C   UNL     1       0.710  -3.849   4.552  1.00  0.00     0.123 A 
ATOM     20  N   UNL     1      -1.183  -5.021   4.110  1.00  0.00    -0.180 NA
ATOM     21  C   UNL     1       0.910  -5.140   4.966  1.00  0.00     0.051 A 
ATOM     22  C   UNL     1      -0.286  -5.814   4.704  1.00  0.00     0.149 A 
ATOM     23  I   UNL     1       2.605  -5.885   5.744  1.00  0.00    -0.041 I 
ENDBRANCH  17  18
ENDBRANCH  16  17
ENDBRANCH   9  16
ENDBRANCH   4   7
ENDBRANCH   2   3
ENDBRANCH   1   2
BRANCH   1  24
ATOM     24  C   UNL     1      -1.358   3.279   1.333  1.00  0.00     0.118 C 
BRANCH  24  25
ATOM     25  N   UNL     1      -2.107   3.950   0.278  1.00  0.00    -0.352 N 
ATOM     26  C   UNL     1      -3.080   4.915   0.358  1.00  0.00     0.251 C 
ATOM     27  H   UNL     1      -1.879   3.667  -0.637  1.00  0.00     0.163 HD
ATOM     28  O   UNL     1      -3.743   5.184  -0.645  1.00  0.00    -0.269 OA
BRANCH  26  29
ATOM     29  C   UNL     1      -3.345   5.617   1.631  1.00  0.00     0.039 A 
ATOM     30  C   UNL     1      -4.663   5.911   1.987  1.00  0.00     0.014 A 
ATOM     31  C   UNL     1      -2.296   6.004   2.469  1.00  0.00     0.014 A 
ATOM     32  C   UNL     1      -4.930   6.531   3.211  1.00  0.00     0.010 A 
ATOM     33  C   UNL     1      -2.569   6.521   3.730  1.00  0.00     0.010 A 
ATOM     34  C   UNL     1      -3.887   6.806   4.111  1.00  0.00    -0.014 A 
BRANCH  34  35
ATOM     35  C   UNL     1      -4.150   7.397   5.448  1.00  0.00     0.031 A 
ATOM     36  C   UNL     1      -3.538   8.721   5.825  1.00  0.00     0.074 A 
ATOM     37  C   UNL     1      -4.867   6.703   6.354  1.00  0.00     0.049 A 
ATOM     38  N   UNL     1      -3.601   9.364   6.963  1.00  0.00    -0.248 NA
ATOM     39  C   UNL     1      -2.724   9.399   4.802  1.00  0.00     0.031 C 
ATOM     40  C   UNL     1      -5.445   5.374   6.140  1.00  0.00     0.029 A 
ATOM     41  N   UNL     1      -5.213   7.008   7.647  1.00  0.00    -0.354 N 
ATOM     42  C   UNL     1      -2.809  10.495   6.805  1.00  0.00     0.074 A 
ATOM     43  C   UNL     1      -2.241  10.431   5.477  1.00  0.00     0.031 C 
ATOM     44  C   UNL     1      -6.082   4.984   7.255  1.00  0.00     0.029 A 
ATOM     45  C   UNL     1      -5.929   6.016   8.276  1.00  0.00     0.049 A 
ATOM     46  H   UNL     1      -4.971   7.856   8.084  1.00  0.00     0.167 HD
ATOM     47  C   UNL     1      -2.598  11.514   7.672  1.00  0.00     0.034 A 
ATOM     48  C   UNL     1      -6.402   5.940   9.536  1.00  0.00     0.034 A 
ATOM     49  C   UNL     1      -3.198  11.595   8.976  1.00  0.00     0.049 A 
ATOM     50  C   UNL     1      -6.181   7.100  10.468  1.00  0.00     0.074 A 
ATOM     51  C   UNL     1      -3.116  12.624   9.897  1.00  0.00     0.029 A 
ATOM     52  N   UNL     1      -3.985  10.607   9.548  1.00  0.00    -0.354 N 
ATOM     53  N   UNL     1      -5.555   8.231  10.245  1.00  0.00    -0.248 NA
ATOM     54  C   UNL     1      -6.763   6.990  11.813  1.00  0.00     0.031 C 
ATOM     55  C   UNL     1      -3.829  12.244  11.039  1.00  0.00     0.029 A 
ATOM     56  C   UNL     1      -4.386  10.996  10.814  1.00  0.00     0.049 A 
ATOM     57  H   UNL     1      -4.222   9.755   9.117  1.00  0.00     0.167 HD
ATOM     58  C   UNL     1      -5.703   8.982  11.406  1.00  0.00     0.074 A 
ATOM     59  C   UNL     1      -6.495   8.186  12.320  1.00  0.00     0.031 C 
ATOM     60  C   UNL     1      -5.218  10.215  11.693  1.00  0.00     0.034 A 
BRANCH  47  61
ATOM     61  C   UNL     1      -1.718  12.651   7.218  1.00  0.00     0.023 A 
ATOM     62  C   UNL     1      -2.173  13.528   6.212  1.00  0.00     0.012 A 
ATOM     63  C   UNL     1      -0.468  12.886   7.824  1.00  0.00     0.148 A 
ATOM     64  C   UNL     1      -1.384  14.597   5.789  1.00  0.00     0.002 A 
ATOM     65  C   UNL     1       0.291  13.982   7.432  1.00  0.00     0.091 A 
ATOM     66  F   UNL     1      -0.042  12.031   8.765  1.00  0.00    -0.205 F 
ATOM     67  C   UNL     1      -0.158  14.830   6.406  1.00  0.00     0.022 A 
BRANCH  65  68
ATOM     68  S   UNL     1       1.845  14.419   8.220  1.00  0.00     0.127 S 
ATOM     69  O   UNL     1       2.805  14.139   7.153  1.00  0.00    -0.237 OA
ATOM     70  O   UNL     1       1.653  15.840   8.509  1.00  0.00    -0.237 OA
ATOM     71  O   UNL     1       1.954  13.567   9.395  1.00  0.00    -0.744 OA
ENDBRANCH  65  68
ENDBRANCH  47  61
BRANCH  48  72
ATOM     72  C   UNL     1      -7.183   4.748   9.972  1.00  0.00     0.023 A 
ATOM     73  C   UNL     1      -8.562   4.879  10.232  1.00  0.00     0.012 A 
ATOM     74  C   UNL     1      -6.575   3.486  10.115  1.00  0.00     0.148 A 
ATOM     75  C   UNL     1      -9.312   3.785  10.664  1.00  0.00     0.002 A 
ATOM     76  C   UNL     1      -7.340   2.388  10.489  1.00  0.00     0.091 A 
ATOM     77  F   UNL     1      -5.261   3.384   9.871  1.00  0.00    -0.205 F 
ATOM     78  C   UNL     1      -8.704   2.539  10.784  1.00  0.00     0.022 A 
BRANCH  76  79
ATOM     79  S   UNL     1      -6.671   0.722  10.539  1.00  0.00     0.127 S 
ATOM     80  O   UNL     1      -6.659   0.448  11.974  1.00  0.00    -0.237 OA
ATOM     81  O   UNL     1      -7.670  -0.026   9.775  1.00  0.00    -0.237 OA
ATOM     82  O   UNL     1      -5.365   0.804   9.899  1.00  0.00    -0.744 OA
ENDBRANCH  76  79
ENDBRANCH  48  72
BRANCH  60  83
ATOM     83  C   UNL     1      -5.567  10.808  13.033  1.00  0.00     0.023 A 
ATOM     84  C   UNL     1      -4.989  10.290  14.208  1.00  0.00     0.012 A 
ATOM     85  C   UNL     1      -6.420  11.927  13.117  1.00  0.00     0.148 A 
ATOM     86  C   UNL     1      -5.284  10.851  15.450  1.00  0.00     0.002 A 
ATOM     87  C   UNL     1      -6.667  12.514  14.351  1.00  0.00     0.091 A 
ATOM     88  F   UNL     1      -6.974  12.395  11.989  1.00  0.00    -0.205 F 
ATOM     89  C   UNL     1      -6.112  11.969  15.521  1.00  0.00     0.022 A 
BRANCH  87  90
ATOM     90  S   UNL     1      -7.637  14.015  14.527  1.00  0.00     0.127 S 
ATOM     91  O   UNL     1      -8.856  13.510  15.155  1.00  0.00    -0.237 OA
ATOM     92  O   UNL     1      -6.792  14.830  15.401  1.00  0.00    -0.237 OA
ATOM     93  O   UNL     1      -7.803  14.546  13.180  1.00  0.00    -0.744 OA
ENDBRANCH  87  90
ENDBRANCH  60  83
ENDBRANCH  34  35
ENDBRANCH  26  29
ENDBRANCH  24  25
ENDBRANCH   1  24
TORSDOF 17
