REMARK SMILES Cc1nsc(NC(=O)c2ccc(N)cc2)c1C(=O)NCCCNC(=O)c1ccc(-c2c3nc(c(-c4cccc(S(=O)(=O)[O-])c4F)c4ccc([nH]4)c(-c4cccc(S(=O)(=O)[O-])c4F)c4nc(c(-c5cccc(S(=O)(=O)[O-])c5F)c5ccc2[nH]5)C=C4)C=C3)cc1
REMARK SMILES IDX 21 1 20 2 19 3 17 4 18 5 16 7 1 8 2 9 3 10 4 11 5 12 6 13
REMARK SMILES IDX 7 14 8 16 9 17 10 18 15 19 11 20 14 21 12 22 13 23 22 26
REMARK SMILES IDX 23 27 24 28 25 30 26 31 27 32 88 33 28 34 87 35 29 36 30 37
REMARK SMILES IDX 31 38 81 39 32 40 86 41 80 42 82 43 33 44 85 45 79 46 78 47
REMARK SMILES IDX 34 49 66 50 46 51 65 52 47 53 50 54 64 55 83 56 48 57 49 58
REMARK SMILES IDX 63 60 84 61 51 62 35 63 36 64 44 65 37 66 39 67 45 68 38 69
REMARK SMILES IDX 40 70 41 71 42 72 43 73 67 74 68 75 76 76 69 77 71 78 77 79
REMARK SMILES IDX 70 80 72 81 73 82 74 83 75 84 52 85 53 86 61 87 54 88 56 89
REMARK SMILES IDX 62 90 55 91 57 92 58 93 59 94 60 95
REMARK H PARENT 19 6 6 15 13 24 13 25 23 29 82 48 50 59
REMARK Flexibility Score: inf
ROOT
ATOM      1  C   UNL     1       1.130   2.160  -0.247  1.00  0.00     0.042 C 
ENDROOT
BRANCH   1   2
ATOM      2  C   UNL     1      -0.262   1.541  -0.411  1.00  0.00     0.118 C 
BRANCH   2   3
ATOM      3  N   UNL     1      -0.548   1.173  -1.775  1.00  0.00    -0.352 N 
ATOM      4  C   UNL     1      -0.437   0.028  -2.509  1.00  0.00     0.256 C 
ATOM      5  O   UNL     1      -1.025   0.101  -3.596  1.00  0.00    -0.269 OA
ATOM      6  H   UNL     1      -0.907   1.924  -2.301  1.00  0.00     0.163 HD
BRANCH   4   7
ATOM      7  C   UNL     1       0.284  -1.209  -2.152  1.00  0.00     0.097 A 
ATOM      8  C   UNL     1       1.512  -1.049   0.254  1.00  0.00     0.069 C 
ATOM      9  C   UNL     1       1.137  -1.657  -1.044  1.00  0.00     0.066 A 
ATOM     10  N   UNL     1       1.705  -2.858  -1.186  1.00  0.00    -0.195 NA
ATOM     11  S   UNL     1       1.342  -3.459  -2.653  1.00  0.00    -0.017 S 
ATOM     12  C   UNL     1       0.172  -2.298  -3.038  1.00  0.00     0.129 A 
BRANCH  12  13
ATOM     13  N   UNL     1      -0.646  -2.422  -4.155  1.00  0.00    -0.312 N 
ATOM     14  C   UNL     1      -0.997  -3.517  -4.914  1.00  0.00     0.256 C 
ATOM     15  H   UNL     1      -1.047  -1.575  -4.458  1.00  0.00     0.171 HD
ATOM     16  O   UNL     1      -1.640  -3.392  -5.955  1.00  0.00    -0.269 OA
BRANCH  14  17
ATOM     17  C   UNL     1      -0.683  -4.893  -4.488  1.00  0.00     0.040 A 
ATOM     18  C   UNL     1      -1.126  -5.388  -3.258  1.00  0.00     0.016 A 
ATOM     19  C   UNL     1       0.092  -5.690  -5.332  1.00  0.00     0.016 A 
ATOM     20  C   UNL     1      -0.686  -6.641  -2.825  1.00  0.00     0.026 A 
ATOM     21  C   UNL     1       0.505  -6.950  -4.897  1.00  0.00     0.026 A 
ATOM     22  C   UNL     1       0.169  -7.411  -3.620  1.00  0.00     0.031 A 
BRANCH  22  23
ATOM     23  N   UNL     1       0.571  -8.671  -3.201  1.00  0.00    -0.399 N 
ATOM     24  H   UNL     1       0.331  -8.991  -2.301  1.00  0.00     0.156 HD
ATOM     25  H   UNL     1       1.096  -9.246  -3.803  1.00  0.00     0.156 HD
ENDBRANCH  22  23
ENDBRANCH  14  17
ENDBRANCH  12  13
ENDBRANCH   4   7
ENDBRANCH   2   3
ENDBRANCH   1   2
BRANCH   1  26
ATOM     26  C   UNL     1       1.136   3.654  -0.447  1.00  0.00     0.118 C 
BRANCH  26  27
ATOM     27  N   UNL     1       0.492   4.355   0.674  1.00  0.00    -0.352 N 
ATOM     28  C   UNL     1       0.397   5.717   0.877  1.00  0.00     0.251 C 
ATOM     29  H   UNL     1       0.080   3.784   1.363  1.00  0.00     0.163 HD
ATOM     30  O   UNL     1       0.147   6.174   1.995  1.00  0.00    -0.269 OA
BRANCH  28  31
ATOM     31  C   UNL     1       0.595   6.601  -0.278  1.00  0.00     0.039 A 
ATOM     32  C   UNL     1       1.293   7.808  -0.204  1.00  0.00     0.014 A 
ATOM     33  C   UNL     1       0.129   6.120  -1.494  1.00  0.00     0.014 A 
ATOM     34  C   UNL     1       1.564   8.479  -1.392  1.00  0.00     0.010 A 
ATOM     35  C   UNL     1       0.662   6.605  -2.644  1.00  0.00     0.010 A 
ATOM     36  C   UNL     1       1.255   7.852  -2.609  1.00  0.00    -0.014 A 
BRANCH  36  37
ATOM     37  C   UNL     1       1.615   8.412  -3.898  1.00  0.00     0.031 A 
ATOM     38  C   UNL     1       3.063   8.684  -4.030  1.00  0.00     0.074 A 
ATOM     39  C   UNL     1       0.745   8.442  -4.934  1.00  0.00     0.049 A 
ATOM     40  N   UNL     1       3.635   9.839  -3.983  1.00  0.00    -0.248 NA
ATOM     41  C   UNL     1       4.004   7.553  -3.988  1.00  0.00     0.031 C 
ATOM     42  C   UNL     1      -0.618   7.889  -5.010  1.00  0.00     0.029 A 
ATOM     43  N   UNL     1       0.958   8.848  -6.210  1.00  0.00    -0.354 N 
ATOM     44  C   UNL     1       4.984   9.589  -4.208  1.00  0.00     0.074 A 
ATOM     45  C   UNL     1       5.176   8.192  -3.929  1.00  0.00     0.031 C 
ATOM     46  C   UNL     1      -0.983   7.758  -6.305  1.00  0.00     0.029 A 
ATOM     47  C   UNL     1       0.033   8.371  -7.136  1.00  0.00     0.049 A 
ATOM     48  H   UNL     1       1.708   9.434  -6.462  1.00  0.00     0.167 HD
ATOM     49  C   UNL     1       5.744  10.482  -4.902  1.00  0.00     0.034 A 
ATOM     50  C   UNL     1       0.134   8.443  -8.488  1.00  0.00     0.034 A 
ATOM     51  C   UNL     1       5.043  11.737  -5.059  1.00  0.00     0.049 A 
ATOM     52  C   UNL     1       1.113   9.518  -8.782  1.00  0.00     0.074 A 
ATOM     53  C   UNL     1       4.469  12.647  -4.191  1.00  0.00     0.029 A 
ATOM     54  N   UNL     1       4.468  11.974  -6.287  1.00  0.00    -0.354 N 
ATOM     55  N   UNL     1       0.890  10.774  -8.512  1.00  0.00    -0.248 NA
ATOM     56  C   UNL     1       2.513   9.141  -8.909  1.00  0.00     0.031 C 
ATOM     57  C   UNL     1       3.247  13.028  -4.820  1.00  0.00     0.029 A 
ATOM     58  C   UNL     1       3.190  12.415  -6.073  1.00  0.00     0.049 A 
ATOM     59  H   UNL     1       4.900  11.848  -7.163  1.00  0.00     0.167 HD
ATOM     60  C   UNL     1       2.084  11.219  -7.960  1.00  0.00     0.074 A 
ATOM     61  C   UNL     1       3.076  10.206  -8.329  1.00  0.00     0.031 C 
ATOM     62  C   UNL     1       2.098  12.186  -6.995  1.00  0.00     0.034 A 
BRANCH  49  63
ATOM     63  C   UNL     1       6.913  10.134  -5.798  1.00  0.00     0.023 A 
ATOM     64  C   UNL     1       7.627  11.220  -6.354  1.00  0.00     0.012 A 
ATOM     65  C   UNL     1       7.174   8.856  -6.343  1.00  0.00     0.148 A 
ATOM     66  C   UNL     1       8.483  11.058  -7.447  1.00  0.00     0.002 A 
ATOM     67  C   UNL     1       8.082   8.687  -7.382  1.00  0.00     0.091 A 
ATOM     68  F   UNL     1       6.459   7.798  -5.957  1.00  0.00    -0.205 F 
ATOM     69  C   UNL     1       8.711   9.789  -7.962  1.00  0.00     0.022 A 
BRANCH  67  70
ATOM     70  S   UNL     1       8.447   7.063  -8.063  1.00  0.00     0.127 S 
ATOM     71  O   UNL     1       7.806   7.147  -9.372  1.00  0.00    -0.237 OA
ATOM     72  O   UNL     1       9.909   7.073  -8.084  1.00  0.00    -0.237 OA
ATOM     73  O   UNL     1       7.869   6.104  -7.131  1.00  0.00    -0.744 OA
ENDBRANCH  67  70
ENDBRANCH  49  63
BRANCH  50  74
ATOM     74  C   UNL     1      -0.346   7.517  -9.543  1.00  0.00     0.023 A 
ATOM     75  C   UNL     1      -0.418   7.957 -10.882  1.00  0.00     0.012 A 
ATOM     76  C   UNL     1      -0.448   6.130  -9.298  1.00  0.00     0.148 A 
ATOM     77  C   UNL     1      -0.540   7.046 -11.940  1.00  0.00     0.002 A 
ATOM     78  C   UNL     1      -0.568   5.229 -10.353  1.00  0.00     0.091 A 
ATOM     79  F   UNL     1      -0.328   5.688  -8.039  1.00  0.00    -0.205 F 
ATOM     80  C   UNL     1      -0.603   5.682 -11.677  1.00  0.00     0.022 A 
BRANCH  78  81
ATOM     81  S   UNL     1      -0.608   3.450 -10.089  1.00  0.00     0.127 S 
ATOM     82  O   UNL     1      -1.742   3.046 -10.920  1.00  0.00    -0.237 OA
ATOM     83  O   UNL     1       0.701   3.043 -10.596  1.00  0.00    -0.237 OA
ATOM     84  O   UNL     1      -0.816   3.270  -8.658  1.00  0.00    -0.744 OA
ENDBRANCH  78  81
ENDBRANCH  50  74
BRANCH  62  85
ATOM     85  C   UNL     1       0.812  12.920  -6.697  1.00  0.00     0.023 A 
ATOM     86  C   UNL     1      -0.336  12.277  -6.186  1.00  0.00     0.012 A 
ATOM     87  C   UNL     1       0.829  14.323  -6.756  1.00  0.00     0.148 A 
ATOM     88  C   UNL     1      -1.446  13.016  -5.764  1.00  0.00     0.002 A 
ATOM     89  C   UNL     1      -0.255  15.056  -6.292  1.00  0.00     0.091 A 
ATOM     90  F   UNL     1       1.929  14.921  -7.239  1.00  0.00    -0.205 F 
ATOM     91  C   UNL     1      -1.400  14.407  -5.803  1.00  0.00     0.022 A 
BRANCH  89  92
ATOM     92  S   UNL     1      -0.199  16.845  -6.199  1.00  0.00     0.127 S 
ATOM     93  O   UNL     1      -1.058  17.235  -7.315  1.00  0.00    -0.237 OA
ATOM     94  O   UNL     1      -0.760  17.109  -4.872  1.00  0.00    -0.237 OA
ATOM     95  O   UNL     1       1.206  17.210  -6.331  1.00  0.00    -0.744 OA
ENDBRANCH  89  92
ENDBRANCH  62  85
ENDBRANCH  36  37
ENDBRANCH  28  31
ENDBRANCH  26  27
ENDBRANCH   1  26
TORSDOF 16
