REMARK SMILES Cc1cc([N+](=O)[O-])c(C(C)(C)C)cc1C(=O)NCCCNC(=O)c1ccc(-c2c3nc(c(-c4cccc(S(=O)(=O)[O-])c4F)c4ccc([nH]4)c(-c4cccc(S(=O)(=O)[O-])c4F)c4nc(c(-c5cccc(S(=O)(=O)[O-])c5F)c5ccc2[nH]5)C=C4)C=C3)cc1
REMARK SMILES IDX 20 1 19 2 18 3 17 4 15 5 16 6 14 8 1 9 2 10 3 11 4 12 13 13
REMARK SMILES IDX 8 14 5 15 6 16 7 17 9 18 10 19 11 20 12 21 21 22 22 23 23 25
REMARK SMILES IDX 24 26 25 27 86 28 26 29 85 30 27 31 28 32 29 33 79 34 30 35
REMARK SMILES IDX 84 36 78 37 80 38 31 39 83 40 77 41 76 42 32 44 64 45 44 46
REMARK SMILES IDX 63 47 45 48 48 49 62 50 81 51 46 52 47 53 61 55 82 56 49 57
REMARK SMILES IDX 33 58 34 59 42 60 35 61 37 62 43 63 36 64 38 65 39 66 40 67
REMARK SMILES IDX 41 68 65 69 66 70 74 71 67 72 69 73 75 74 68 75 70 76 71 77
REMARK SMILES IDX 72 78 73 79 50 80 51 81 59 82 52 83 54 84 60 85 53 86 55 87
REMARK SMILES IDX 56 88 57 89 58 90
REMARK H PARENT 17 7 21 24 80 43 48 54
REMARK Flexibility Score: inf
ROOT
ATOM      1  C   UNL     1       5.479   1.532  -0.839  1.00  0.00     0.118 C 
ENDROOT
BRANCH   1   2
ATOM      2  C   UNL     1       4.184   0.809  -0.523  1.00  0.00     0.042 C 
BRANCH   2   3
ATOM      3  C   UNL     1       3.309   1.383   0.588  1.00  0.00     0.118 C 
BRANCH   3   4
ATOM      4  N   UNL     1       2.194   2.131   0.047  1.00  0.00    -0.352 N 
ATOM      5  C   UNL     1       0.901   1.835  -0.291  1.00  0.00     0.251 C 
ATOM      6  O   UNL     1       0.246   2.782  -0.740  1.00  0.00    -0.269 OA
ATOM      7  H   UNL     1       2.419   3.076  -0.117  1.00  0.00     0.163 HD
BRANCH   5   8
ATOM      8  C   UNL     1       0.174   0.524  -0.107  1.00  0.00     0.043 A 
ATOM      9  C   UNL     1       1.958  -1.221  -0.773  1.00  0.00     0.045 C 
ATOM     10  C   UNL     1       0.621  -0.788  -0.276  1.00  0.00    -0.032 A 
ATOM     11  C   UNL     1      -0.275  -1.852  -0.053  1.00  0.00     0.090 A 
ATOM     12  C   UNL     1      -1.657  -1.669   0.149  1.00  0.00     0.273 A 
ATOM     13  C   UNL     1      -1.224   0.690   0.103  1.00  0.00     0.025 A 
ATOM     14  C   UNL     1      -2.190  -0.360   0.149  1.00  0.00     0.036 A 
BRANCH  12  15
ATOM     15  N   UNL     1      -2.410  -2.938   0.316  1.00  0.00     0.063 N 
ATOM     16  O   UNL     1      -1.770  -3.929   0.703  1.00  0.00    -0.258 OA
ATOM     17  O   UNL     1      -3.614  -2.985   0.051  1.00  0.00    -0.258 OA
ENDBRANCH  12  15
BRANCH  14  18
ATOM     18  C   UNL     1      -3.688   0.026   0.096  1.00  0.00    -0.006 C 
ATOM     19  C   UNL     1      -4.305  -0.472  -1.238  1.00  0.00     0.016 C 
ATOM     20  C   UNL     1      -4.439  -0.455   1.355  1.00  0.00     0.016 C 
ATOM     21  C   UNL     1      -3.969   1.563   0.056  1.00  0.00     0.016 C 
ENDBRANCH  14  18
ENDBRANCH   5   8
ENDBRANCH   3   4
ENDBRANCH   2   3
ENDBRANCH   1   2
BRANCH   1  22
ATOM     22  N   UNL     1       6.525   0.531  -1.107  1.00  0.00    -0.352 N 
ATOM     23  C   UNL     1       7.601   0.558  -1.974  1.00  0.00     0.251 C 
ATOM     24  H   UNL     1       6.444  -0.297  -0.579  1.00  0.00     0.163 HD
ATOM     25  O   UNL     1       8.344  -0.397  -2.095  1.00  0.00    -0.269 OA
BRANCH  23  26
ATOM     26  C   UNL     1       7.839   1.831  -2.672  1.00  0.00     0.039 A 
ATOM     27  C   UNL     1       8.776   2.678  -2.075  1.00  0.00     0.014 A 
ATOM     28  C   UNL     1       6.829   2.306  -3.505  1.00  0.00     0.014 A 
ATOM     29  C   UNL     1       8.530   4.041  -2.079  1.00  0.00     0.010 A 
ATOM     30  C   UNL     1       6.559   3.659  -3.461  1.00  0.00     0.010 A 
ATOM     31  C   UNL     1       7.354   4.499  -2.667  1.00  0.00    -0.014 A 
BRANCH  31  32
ATOM     32  C   UNL     1       6.880   5.862  -2.510  1.00  0.00     0.031 A 
ATOM     33  C   UNL     1       7.355   6.872  -3.463  1.00  0.00     0.074 A 
ATOM     34  C   UNL     1       6.029   6.211  -1.520  1.00  0.00     0.049 A 
ATOM     35  N   UNL     1       7.370   8.138  -3.232  1.00  0.00    -0.248 NA
ATOM     36  C   UNL     1       7.936   6.495  -4.742  1.00  0.00     0.031 C 
ATOM     37  C   UNL     1       5.270   7.451  -1.411  1.00  0.00     0.029 A 
ATOM     38  N   UNL     1       5.878   5.604  -0.272  1.00  0.00    -0.354 N 
ATOM     39  C   UNL     1       7.686   8.759  -4.418  1.00  0.00     0.074 A 
ATOM     40  C   UNL     1       8.141   7.697  -5.282  1.00  0.00     0.031 C 
ATOM     41  C   UNL     1       4.972   7.663  -0.121  1.00  0.00     0.029 A 
ATOM     42  C   UNL     1       5.665   6.649   0.652  1.00  0.00     0.049 A 
ATOM     43  H   UNL     1       5.912   4.640  -0.075  1.00  0.00     0.167 HD
ATOM     44  C   UNL     1       7.365  10.075  -4.568  1.00  0.00     0.034 A 
ATOM     45  C   UNL     1       6.447   6.874   1.750  1.00  0.00     0.034 A 
ATOM     46  C   UNL     1       6.897  10.656  -3.294  1.00  0.00     0.049 A 
ATOM     47  C   UNL     1       7.047   8.274   1.793  1.00  0.00     0.074 A 
ATOM     48  C   UNL     1       5.650  10.956  -2.767  1.00  0.00     0.029 A 
ATOM     49  N   UNL     1       7.788  10.752  -2.233  1.00  0.00    -0.354 N 
ATOM     50  N   UNL     1       6.837   9.212   0.911  1.00  0.00    -0.248 NA
ATOM     51  C   UNL     1       8.055   8.659   2.779  1.00  0.00     0.031 C 
ATOM     52  C   UNL     1       5.802  11.220  -1.374  1.00  0.00     0.029 A 
ATOM     53  C   UNL     1       7.143  11.102  -1.054  1.00  0.00     0.049 A 
ATOM     54  H   UNL     1       8.756  10.592  -2.307  1.00  0.00     0.167 HD
ATOM     55  C   UNL     1       7.772  10.210   1.071  1.00  0.00     0.074 A 
ATOM     56  C   UNL     1       8.500   9.816   2.267  1.00  0.00     0.031 C 
ATOM     57  C   UNL     1       7.933  11.232   0.168  1.00  0.00     0.034 A 
BRANCH  44  58
ATOM     58  C   UNL     1       7.170  10.754  -5.918  1.00  0.00     0.023 A 
ATOM     59  C   UNL     1       6.375  11.921  -5.945  1.00  0.00     0.012 A 
ATOM     60  C   UNL     1       7.616  10.294  -7.180  1.00  0.00     0.148 A 
ATOM     61  C   UNL     1       5.952  12.519  -7.139  1.00  0.00     0.002 A 
ATOM     62  C   UNL     1       7.137  10.840  -8.374  1.00  0.00     0.091 A 
ATOM     63  F   UNL     1       8.589   9.386  -7.256  1.00  0.00    -0.205 F 
ATOM     64  C   UNL     1       6.298  11.954  -8.357  1.00  0.00     0.022 A 
BRANCH  62  65
ATOM     65  S   UNL     1       7.495  10.107  -9.983  1.00  0.00     0.127 S 
ATOM     66  O   UNL     1       6.154   9.930 -10.544  1.00  0.00    -0.237 OA
ATOM     67  O   UNL     1       8.292  11.146 -10.632  1.00  0.00    -0.237 OA
ATOM     68  O   UNL     1       8.196   8.856  -9.716  1.00  0.00    -0.744 OA
ENDBRANCH  62  65
ENDBRANCH  44  58
BRANCH  45  69
ATOM     69  C   UNL     1       7.141   5.641   2.235  1.00  0.00     0.023 A 
ATOM     70  C   UNL     1       6.331   4.538   2.598  1.00  0.00     0.012 A 
ATOM     71  C   UNL     1       8.496   5.417   1.947  1.00  0.00     0.148 A 
ATOM     72  C   UNL     1       6.814   3.233   2.481  1.00  0.00     0.002 A 
ATOM     73  C   UNL     1       8.973   4.115   1.851  1.00  0.00     0.091 A 
ATOM     74  F   UNL     1       9.293   6.460   1.686  1.00  0.00    -0.205 F 
ATOM     75  C   UNL     1       8.122   3.021   2.058  1.00  0.00     0.022 A 
BRANCH  73  76
ATOM     76  S   UNL     1      10.667   3.824   1.336  1.00  0.00     0.127 S 
ATOM     77  O   UNL     1      11.382   3.957   2.601  1.00  0.00    -0.237 OA
ATOM     78  O   UNL     1      10.609   2.465   0.800  1.00  0.00    -0.237 OA
ATOM     79  O   UNL     1      10.912   4.850   0.333  1.00  0.00    -0.744 OA
ENDBRANCH  73  76
ENDBRANCH  45  69
BRANCH  57  80
ATOM     80  C   UNL     1       8.908  12.403   0.314  1.00  0.00     0.023 A 
ATOM     81  C   UNL     1       9.496  12.746   1.548  1.00  0.00     0.012 A 
ATOM     82  C   UNL     1       9.217  13.269  -0.773  1.00  0.00     0.148 A 
ATOM     83  C   UNL     1      10.449  13.765   1.672  1.00  0.00     0.002 A 
ATOM     84  C   UNL     1      10.140  14.306  -0.644  1.00  0.00     0.091 A 
ATOM     85  F   UNL     1       8.570  13.137  -1.936  1.00  0.00    -0.205 F 
ATOM     86  C   UNL     1      10.788  14.532   0.570  1.00  0.00     0.022 A 
BRANCH  84  87
ATOM     87  S   UNL     1      10.528  15.430  -1.994  1.00  0.00     0.127 S 
ATOM     88  O   UNL     1       9.903  16.669  -1.531  1.00  0.00    -0.237 OA
ATOM     89  O   UNL     1      11.991  15.440  -1.970  1.00  0.00    -0.237 OA
ATOM     90  O   UNL     1       9.944  14.846  -3.193  1.00  0.00    -0.744 OA
ENDBRANCH  84  87
ENDBRANCH  57  80
ENDBRANCH  31  32
ENDBRANCH  23  26
ENDBRANCH   1  22
TORSDOF 15
