REMARK SMILES C#CCNC(=O)C[N@@H+](CC(=O)NCCCNC(=O)c1ccc(-c2c3nc(c(-c4cccc(S(=O)(=O)[O-])c4F)c4ccc([nH]4)c(-c4cccc(S(=O)(=O)[O-])c4F)c4nc(c(-c5cccc(S(=O)(=O)[O-])c5F)c5ccc2[nH]5)C=C4)C=C3)cc1)C(C)(C)C
REMARK SMILES IDX 13 1 12 2 10 3 11 4 9 6 8 7 7 9 5 10 4 11 6 13 3 14 2 15
REMARK SMILES IDX 1 16 82 17 83 18 84 19 85 20 14 21 15 22 16 23 17 24 18 26
REMARK SMILES IDX 19 27 20 28 81 29 21 30 80 31 22 32 23 33 24 34 74 35 25 36
REMARK SMILES IDX 79 37 73 38 75 39 26 40 78 41 72 42 71 43 27 45 59 46 39 47
REMARK SMILES IDX 58 48 40 49 43 50 57 51 76 52 41 53 42 54 56 56 77 57 44 58
REMARK SMILES IDX 28 59 29 60 37 61 30 62 32 63 38 64 31 65 33 66 34 67 35 68
REMARK SMILES IDX 36 69 60 70 61 71 69 72 62 73 64 74 70 75 63 76 65 77 66 78
REMARK SMILES IDX 67 79 68 80 45 81 46 82 54 83 47 84 49 85 55 86 48 87 50 88
REMARK SMILES IDX 51 89 52 90 53 91
REMARK H PARENT 12 5 8 8 4 12 16 25 75 44 43 55
REMARK Flexibility Score: inf
ROOT
ATOM      1  C   UNL     1      -5.898  -2.057   3.112  1.00  0.00     0.118 C 
ENDROOT
BRANCH   1   2
ATOM      2  N   UNL     1      -4.991  -2.879   3.902  1.00  0.00    -0.351 N 
ATOM      3  C   UNL     1      -3.677  -2.723   4.240  1.00  0.00     0.275 C 
ATOM      4  O   UNL     1      -3.284  -3.358   5.224  1.00  0.00    -0.269 OA
ATOM      5  H   UNL     1      -5.402  -3.699   4.260  1.00  0.00     0.163 HD
BRANCH   3   6
ATOM      6  C   UNL     1      -2.729  -1.783   3.485  1.00  0.00     0.364 C 
BRANCH   6   7
ATOM      7  N   UNL     1      -2.122  -2.316   2.231  1.00  0.00    -0.315 N 
ATOM      8  H   UNL     1      -1.448  -1.618   1.917  1.00  0.00     0.349 HD
BRANCH   7   9
ATOM      9  C   UNL     1      -3.166  -2.446   1.200  1.00  0.00     0.364 C 
BRANCH   9  10
ATOM     10  C   UNL     1      -2.749  -2.279  -0.251  1.00  0.00     0.275 C 
ATOM     11  N   UNL     1      -2.214  -1.107  -0.686  1.00  0.00    -0.340 N 
ATOM     12  H   UNL     1      -2.111  -1.024  -1.661  1.00  0.00     0.164 HD
ATOM     13  O   UNL     1      -3.015  -3.153  -1.077  1.00  0.00    -0.268 OA
BRANCH  11  14
ATOM     14  C   UNL     1      -1.778   0.028   0.085  1.00  0.00     0.206 C 
BRANCH  14  15
ATOM     15  C   UNL     1      -0.258   0.028   0.085  1.00  0.00    -0.085 C 
ATOM     16  C   UNL     1       1.046   0.028   0.085  1.00  0.00     0.006 C 
ENDBRANCH  14  15
ENDBRANCH  11  14
ENDBRANCH   9  10
ENDBRANCH   7   9
BRANCH   7  17
ATOM     17  C   UNL     1      -1.177  -3.470   2.356  1.00  0.00     0.090 C 
ATOM     18  C   UNL     1      -1.812  -4.808   2.798  1.00  0.00     0.078 C 
ATOM     19  C   UNL     1      -0.461  -3.755   1.012  1.00  0.00     0.078 C 
ATOM     20  C   UNL     1      -0.049  -3.119   3.357  1.00  0.00     0.078 C 
ENDBRANCH   7  17
ENDBRANCH   6   7
ENDBRANCH   3   6
ENDBRANCH   1   2
BRANCH   1  21
ATOM     21  C   UNL     1      -6.447  -2.729   1.850  1.00  0.00     0.042 C 
BRANCH  21  22
ATOM     22  C   UNL     1      -7.127  -4.076   2.073  1.00  0.00     0.118 C 
BRANCH  22  23
ATOM     23  N   UNL     1      -8.564  -3.921   2.209  1.00  0.00    -0.352 N 
ATOM     24  C   UNL     1      -9.556  -4.109   1.275  1.00  0.00     0.251 C 
ATOM     25  H   UNL     1      -8.874  -3.639   3.100  1.00  0.00     0.163 HD
ATOM     26  O   UNL     1     -10.664  -3.619   1.486  1.00  0.00    -0.269 OA
BRANCH  24  27
ATOM     27  C   UNL     1      -9.321  -4.886   0.030  1.00  0.00     0.039 A 
ATOM     28  C   UNL     1      -9.958  -4.478  -1.148  1.00  0.00     0.014 A 
ATOM     29  C   UNL     1      -8.569  -6.064   0.027  1.00  0.00     0.014 A 
ATOM     30  C   UNL     1      -9.824  -5.231  -2.322  1.00  0.00     0.010 A 
ATOM     31  C   UNL     1      -8.376  -6.774  -1.161  1.00  0.00     0.010 A 
ATOM     32  C   UNL     1      -9.024  -6.383  -2.342  1.00  0.00    -0.014 A 
BRANCH  32  33
ATOM     33  C   UNL     1      -8.877  -7.207  -3.575  1.00  0.00     0.031 A 
ATOM     34  C   UNL     1      -9.363  -8.634  -3.600  1.00  0.00     0.074 A 
ATOM     35  C   UNL     1      -8.225  -6.710  -4.644  1.00  0.00     0.049 A 
ATOM     36  N   UNL     1      -9.263  -9.525  -4.554  1.00  0.00    -0.248 NA
ATOM     37  C   UNL     1     -10.023  -9.136  -2.384  1.00  0.00     0.031 C 
ATOM     38  C   UNL     1      -7.626  -5.377  -4.722  1.00  0.00     0.029 A 
ATOM     39  N   UNL     1      -7.924  -7.282  -5.857  1.00  0.00    -0.354 N 
ATOM     40  C   UNL     1      -9.794 -10.701  -4.036  1.00  0.00     0.074 A 
ATOM     41  C   UNL     1     -10.199 -10.416  -2.677  1.00  0.00     0.031 C 
ATOM     42  C   UNL     1      -7.016  -5.239  -5.910  1.00  0.00     0.029 A 
ATOM     43  C   UNL     1      -7.160  -6.478  -6.671  1.00  0.00     0.049 A 
ATOM     44  H   UNL     1      -8.226  -8.182  -6.118  1.00  0.00     0.167 HD
ATOM     45  C   UNL     1      -9.959 -11.902  -4.643  1.00  0.00     0.034 A 
ATOM     46  C   UNL     1      -6.624  -6.712  -7.885  1.00  0.00     0.034 A 
ATOM     47  C   UNL     1      -9.627 -12.165  -6.017  1.00  0.00     0.049 A 
ATOM     48  C   UNL     1      -6.882  -8.028  -8.567  1.00  0.00     0.074 A 
ATOM     49  C   UNL     1      -9.893 -13.299  -6.764  1.00  0.00     0.029 A 
ATOM     50  N   UNL     1      -8.947 -11.289  -6.848  1.00  0.00    -0.354 N 
ATOM     51  N   UNL     1      -7.567  -9.059  -8.135  1.00  0.00    -0.248 NA
ATOM     52  C   UNL     1      -6.323  -8.203  -9.916  1.00  0.00     0.031 C 
ATOM     53  C   UNL     1      -9.357 -13.116  -8.044  1.00  0.00     0.029 A 
ATOM     54  C   UNL     1      -8.766 -11.864  -8.095  1.00  0.00     0.049 A 
ATOM     55  H   UNL     1      -8.639 -10.390  -6.590  1.00  0.00     0.167 HD
ATOM     56  C   UNL     1      -7.536  -9.997  -9.162  1.00  0.00     0.074 A 
ATOM     57  C   UNL     1      -6.790  -9.400 -10.250  1.00  0.00     0.031 C 
ATOM     58  C   UNL     1      -8.060 -11.247  -9.190  1.00  0.00     0.034 A 
BRANCH  45  59
ATOM     59  C   UNL     1     -10.586 -13.011  -3.839  1.00  0.00     0.023 A 
ATOM     60  C   UNL     1     -11.965 -12.963  -3.550  1.00  0.00     0.012 A 
ATOM     61  C   UNL     1      -9.830 -14.121  -3.414  1.00  0.00     0.148 A 
ATOM     62  C   UNL     1     -12.574 -13.982  -2.818  1.00  0.00     0.002 A 
ATOM     63  C   UNL     1     -10.453 -15.152  -2.719  1.00  0.00     0.091 A 
ATOM     64  F   UNL     1      -8.515 -14.141  -3.677  1.00  0.00    -0.205 F 
ATOM     65  C   UNL     1     -11.821 -15.080  -2.412  1.00  0.00     0.022 A 
BRANCH  63  66
ATOM     66  S   UNL     1      -9.576 -16.639  -2.220  1.00  0.00     0.127 S 
ATOM     67  O   UNL     1      -9.339 -16.380  -0.801  1.00  0.00    -0.237 OA
ATOM     68  O   UNL     1     -10.560 -17.689  -2.490  1.00  0.00    -0.237 OA
ATOM     69  O   UNL     1      -8.388 -16.698  -3.060  1.00  0.00    -0.744 OA
ENDBRANCH  63  66
ENDBRANCH  45  59
BRANCH  46  70
ATOM     70  C   UNL     1      -5.840  -5.637  -8.557  1.00  0.00     0.023 A 
ATOM     71  C   UNL     1      -6.407  -4.951  -9.649  1.00  0.00     0.012 A 
ATOM     72  C   UNL     1      -4.571  -5.248  -8.083  1.00  0.00     0.148 A 
ATOM     73  C   UNL     1      -5.718  -3.908 -10.268  1.00  0.00     0.002 A 
ATOM     74  C   UNL     1      -3.913  -4.173  -8.672  1.00  0.00     0.091 A 
ATOM     75  F   UNL     1      -4.045  -5.923  -7.052  1.00  0.00    -0.205 F 
ATOM     76  C   UNL     1      -4.479  -3.511  -9.772  1.00  0.00     0.022 A 
BRANCH  74  77
ATOM     77  S   UNL     1      -2.375  -3.506  -8.025  1.00  0.00     0.127 S 
ATOM     78  O   UNL     1      -1.429  -3.857  -9.082  1.00  0.00    -0.237 OA
ATOM     79  O   UNL     1      -2.684  -2.079  -7.926  1.00  0.00    -0.237 OA
ATOM     80  O   UNL     1      -2.164  -4.166  -6.746  1.00  0.00    -0.744 OA
ENDBRANCH  74  77
ENDBRANCH  46  70
BRANCH  58  81
ATOM     81  C   UNL     1      -7.848 -12.070 -10.433  1.00  0.00     0.023 A 
ATOM     82  C   UNL     1      -6.580 -12.633 -10.679  1.00  0.00     0.012 A 
ATOM     83  C   UNL     1      -8.915 -12.362 -11.306  1.00  0.00     0.148 A 
ATOM     84  C   UNL     1      -6.372 -13.456 -11.786  1.00  0.00     0.002 A 
ATOM     85  C   UNL     1      -8.710 -13.217 -12.383  1.00  0.00     0.091 A 
ATOM     86  F   UNL     1     -10.110 -11.802 -11.065  1.00  0.00    -0.205 F 
ATOM     87  C   UNL     1      -7.438 -13.758 -12.629  1.00  0.00     0.022 A 
BRANCH  85  88
ATOM     88  S   UNL     1     -10.045 -13.733 -13.471  1.00  0.00     0.127 S 
ATOM     89  O   UNL     1      -9.756 -12.967 -14.682  1.00  0.00    -0.237 OA
ATOM     90  O   UNL     1      -9.813 -15.173 -13.590  1.00  0.00    -0.237 OA
ATOM     91  O   UNL     1     -11.280 -13.377 -12.785  1.00  0.00    -0.744 OA
ENDBRANCH  85  88
ENDBRANCH  58  81
ENDBRANCH  32  33
ENDBRANCH  24  27
ENDBRANCH  22  23
ENDBRANCH  21  22
ENDBRANCH   1  21
TORSDOF 19
