REMARK SMILES Cn1cc(CCC(=O)N2C[C@@H](C(=O)NCCCNC(=O)c3ccc(-c4c5nc(c(-c6cccc(S(=O)(=O)[O-])c6F)c6ccc([nH]6)c(-c6cccc(S(=O)(=O)[O-])c6F)c6nc(c(-c7cccc(S(=O)(=O)[O-])c7F)c7ccc4[nH]7)C=C6)C=C5)cc3)[C@H](C3CC3)C2)cn1
REMARK SMILES IDX 15 1 14 2 12 3 13 4 11 6 9 7 10 8 88 9 84 10 7 11 8 12 6 13
REMARK SMILES IDX 5 14 4 15 1 16 2 17 3 18 90 19 89 20 85 21 86 22 87 23 16 24
REMARK SMILES IDX 17 25 18 26 19 27 20 29 21 30 22 31 83 32 23 33 82 34 24 35
REMARK SMILES IDX 25 36 26 37 76 38 27 39 81 40 75 41 77 42 28 43 80 44 74 45
REMARK SMILES IDX 73 46 29 48 61 49 41 50 60 51 42 52 45 53 59 54 78 55 43 56
REMARK SMILES IDX 44 57 58 59 79 60 46 61 30 62 31 63 39 64 32 65 34 66 40 67
REMARK SMILES IDX 33 68 35 69 36 70 37 71 38 72 62 73 63 74 71 75 64 76 66 77
REMARK SMILES IDX 72 78 65 79 67 80 68 81 69 82 70 83 47 84 48 85 56 86 49 87
REMARK SMILES IDX 51 88 57 89 50 90 52 91 53 92 54 93 55 94
REMARK H PARENT 14 5 18 28 77 47 45 58
REMARK Flexibility Score: inf
ROOT
ATOM      1  C   UNL     1      -2.050  -0.465  -1.543  1.00  0.00     0.117 C 
ENDROOT
BRANCH   1   2
ATOM      2  N   UNL     1      -1.940   0.913  -1.086  1.00  0.00    -0.356 N 
ATOM      3  C   UNL     1      -1.104   1.936  -1.460  1.00  0.00     0.225 C 
ATOM      4  O   UNL     1      -1.416   3.065  -1.076  1.00  0.00    -0.275 OA
ATOM      5  H   UNL     1      -2.583   1.156  -0.381  1.00  0.00     0.163 HD
BRANCH   3   6
ATOM      6  C   UNL     1       0.180   1.676  -2.242  1.00  0.00     0.103 C 
ATOM      7  N   UNL     1       2.455   1.216  -1.804  1.00  0.00    -0.342 N 
ATOM      8  C   UNL     1       1.133   0.990  -1.295  1.00  0.00     0.133 C 
ATOM      9  C   UNL     1       2.482   2.443  -2.576  1.00  0.00     0.124 C 
ATOM     10  C   UNL     1       1.007   2.934  -2.628  1.00  0.00     0.026 C 
BRANCH   7  11
ATOM     11  C   UNL     1       3.584   0.503  -1.453  1.00  0.00     0.222 C 
ATOM     12  O   UNL     1       4.718   0.920  -1.691  1.00  0.00    -0.275 OA
BRANCH  11  13
ATOM     13  C   UNL     1       3.367  -0.901  -0.885  1.00  0.00     0.105 C 
BRANCH  13  14
ATOM     14  C   UNL     1       3.284  -1.089   0.632  1.00  0.00     0.048 C 
BRANCH  14  15
ATOM     15  C   UNL     1       2.329  -0.232   1.392  1.00  0.00    -0.009 A 
ATOM     16  C   UNL     1      -0.764   1.400   2.206  1.00  0.00     0.173 C 
ATOM     17  N   UNL     1       0.553   0.812   2.175  1.00  0.00    -0.276 N 
ATOM     18  C   UNL     1       0.950  -0.302   1.485  1.00  0.00     0.112 A 
ATOM     19  N   UNL     1       1.579   1.498   2.694  1.00  0.00    -0.182 NA
ATOM     20  C   UNL     1       2.654   0.850   2.244  1.00  0.00     0.138 A 
ENDBRANCH  14  15
ENDBRANCH  13  14
ENDBRANCH  11  13
ENDBRANCH   7  11
BRANCH  10  21
ATOM     21  C   UNL     1       0.677   3.557  -3.966  1.00  0.00    -0.005 C 
ATOM     22  C   UNL     1      -0.463   3.104  -4.850  1.00  0.00     0.004 C 
ATOM     23  C   UNL     1      -0.571   4.398  -4.099  1.00  0.00     0.004 C 
ENDBRANCH  10  21
ENDBRANCH   3   6
ENDBRANCH   1   2
BRANCH   1  24
ATOM     24  C   UNL     1      -2.276  -1.551  -0.467  1.00  0.00     0.042 C 
BRANCH  24  25
ATOM     25  C   UNL     1      -3.153  -1.278   0.765  1.00  0.00     0.118 C 
BRANCH  25  26
ATOM     26  N   UNL     1      -4.578  -1.345   0.516  1.00  0.00    -0.352 N 
ATOM     27  C   UNL     1      -5.561  -1.940   1.279  1.00  0.00     0.251 C 
ATOM     28  H   UNL     1      -4.887  -0.907  -0.310  1.00  0.00     0.163 HD
ATOM     29  O   UNL     1      -6.712  -1.972   0.850  1.00  0.00    -0.269 OA
BRANCH  27  30
ATOM     30  C   UNL     1      -5.258  -2.565   2.594  1.00  0.00     0.039 A 
ATOM     31  C   UNL     1      -5.646  -3.892   2.803  1.00  0.00     0.014 A 
ATOM     32  C   UNL     1      -4.693  -1.840   3.649  1.00  0.00     0.014 A 
ATOM     33  C   UNL     1      -5.444  -4.500   4.050  1.00  0.00     0.010 A 
ATOM     34  C   UNL     1      -4.465  -2.462   4.890  1.00  0.00     0.010 A 
ATOM     35  C   UNL     1      -4.843  -3.798   5.109  1.00  0.00    -0.014 A 
BRANCH  35  36
ATOM     36  C   UNL     1      -4.595  -4.488   6.413  1.00  0.00     0.031 A 
ATOM     37  C   UNL     1      -5.330  -4.093   7.671  1.00  0.00     0.074 A 
ATOM     38  C   UNL     1      -3.685  -5.483   6.474  1.00  0.00     0.049 A 
ATOM     39  N   UNL     1      -5.293  -4.650   8.857  1.00  0.00    -0.248 NA
ATOM     40  C   UNL     1      -6.206  -2.914   7.596  1.00  0.00     0.031 C 
ATOM     41  C   UNL     1      -2.840  -5.917   5.361  1.00  0.00     0.029 A 
ATOM     42  N   UNL     1      -3.306  -6.301   7.514  1.00  0.00    -0.354 N 
ATOM     43  C   UNL     1      -6.116  -3.881   9.674  1.00  0.00     0.074 A 
ATOM     44  C   UNL     1      -6.623  -2.803   8.852  1.00  0.00     0.031 C 
ATOM     45  C   UNL     1      -2.047  -6.920   5.773  1.00  0.00     0.029 A 
ATOM     46  C   UNL     1      -2.311  -7.193   7.183  1.00  0.00     0.049 A 
ATOM     47  H   UNL     1      -3.709  -6.252   8.411  1.00  0.00     0.167 HD
ATOM     48  C   UNL     1      -6.436  -4.063  10.980  1.00  0.00     0.034 A 
ATOM     49  C   UNL     1      -1.676  -8.124   7.925  1.00  0.00     0.034 A 
ATOM     50  C   UNL     1      -5.957  -5.152  11.793  1.00  0.00     0.049 A 
ATOM     51  C   UNL     1      -2.092  -8.339   9.356  1.00  0.00     0.074 A 
ATOM     52  C   UNL     1      -6.312  -5.475  13.092  1.00  0.00     0.029 A 
ATOM     53  N   UNL     1      -5.006  -6.080  11.400  1.00  0.00    -0.354 N 
ATOM     54  N   UNL     1      -3.019  -7.722  10.047  1.00  0.00    -0.248 NA
ATOM     55  C   UNL     1      -1.405  -9.408  10.098  1.00  0.00     0.031 C 
ATOM     56  C   UNL     1      -5.546  -6.574  13.498  1.00  0.00     0.029 A 
ATOM     57  C   UNL     1      -4.745  -6.961  12.437  1.00  0.00     0.049 A 
ATOM     58  H   UNL     1      -4.578  -6.109  10.514  1.00  0.00     0.167 HD
ATOM     59  C   UNL     1      -3.045  -8.343  11.291  1.00  0.00     0.074 A 
ATOM     60  C   UNL     1      -2.066  -9.409  11.247  1.00  0.00     0.031 C 
ATOM     61  C   UNL     1      -3.800  -8.046  12.378  1.00  0.00     0.034 A 
BRANCH  48  62
ATOM     62  C   UNL     1      -7.389  -3.085  11.623  1.00  0.00     0.023 A 
ATOM     63  C   UNL     1      -8.756  -3.115  11.281  1.00  0.00     0.012 A 
ATOM     64  C   UNL     1      -6.952  -2.211  12.640  1.00  0.00     0.148 A 
ATOM     65  C   UNL     1      -9.668  -2.273  11.919  1.00  0.00     0.002 A 
ATOM     66  C   UNL     1      -7.873  -1.406  13.301  1.00  0.00     0.091 A 
ATOM     67  F   UNL     1      -5.647  -2.190  12.946  1.00  0.00    -0.205 F 
ATOM     68  C   UNL     1      -9.229  -1.428  12.934  1.00  0.00     0.022 A 
BRANCH  66  69
ATOM     69  S   UNL     1      -7.427  -0.344  14.680  1.00  0.00     0.127 S 
ATOM     70  O   UNL     1      -7.637   0.985  14.108  1.00  0.00    -0.237 OA
ATOM     71  O   UNL     1      -8.406  -0.732  15.695  1.00  0.00    -0.237 OA
ATOM     72  O   UNL     1      -6.045  -0.667  15.009  1.00  0.00    -0.744 OA
ENDBRANCH  66  69
ENDBRANCH  48  62
BRANCH  49  73
ATOM     73  C   UNL     1      -0.602  -8.961   7.314  1.00  0.00     0.023 A 
ATOM     74  C   UNL     1      -0.810 -10.341   7.119  1.00  0.00     0.012 A 
ATOM     75  C   UNL     1       0.625  -8.393   6.920  1.00  0.00     0.148 A 
ATOM     76  C   UNL     1       0.197 -11.145   6.581  1.00  0.00     0.002 A 
ATOM     77  C   UNL     1       1.598  -9.186   6.325  1.00  0.00     0.091 A 
ATOM     78  F   UNL     1       0.813  -7.082   7.129  1.00  0.00    -0.205 F 
ATOM     79  C   UNL     1       1.396 -10.566   6.174  1.00  0.00     0.022 A 
BRANCH  77  80
ATOM     80  S   UNL     1       3.108  -8.496   5.640  1.00  0.00     0.127 S 
ATOM     81  O   UNL     1       4.108  -8.942   6.604  1.00  0.00    -0.237 OA
ATOM     82  O   UNL     1       3.174  -9.151   4.333  1.00  0.00    -0.237 OA
ATOM     83  O   UNL     1       2.884  -7.056   5.573  1.00  0.00    -0.744 OA
ENDBRANCH  77  80
ENDBRANCH  49  73
BRANCH  61  84
ATOM     84  C   UNL     1      -3.621  -8.899  13.608  1.00  0.00     0.023 A 
ATOM     85  C   UNL     1      -2.434  -8.807  14.363  1.00  0.00     0.012 A 
ATOM     86  C   UNL     1      -4.652  -9.754  14.048  1.00  0.00     0.148 A 
ATOM     87  C   UNL     1      -2.258  -9.583  15.508  1.00  0.00     0.002 A 
ATOM     88  C   UNL     1      -4.491 -10.485  15.220  1.00  0.00     0.091 A 
ATOM     89  F   UNL     1      -5.768  -9.844  13.310  1.00  0.00    -0.205 F 
ATOM     90  C   UNL     1      -3.289 -10.412  15.943  1.00  0.00     0.022 A 
BRANCH  88  91
ATOM     91  S   UNL     1      -5.801 -11.504  15.907  1.00  0.00     0.127 S 
ATOM     92  O   UNL     1      -5.303 -12.852  15.634  1.00  0.00    -0.237 OA
ATOM     93  O   UNL     1      -5.784 -11.122  17.319  1.00  0.00    -0.237 OA
ATOM     94  O   UNL     1      -7.015 -11.130  15.195  1.00  0.00    -0.744 OA
ENDBRANCH  88  91
ENDBRANCH  61  84
ENDBRANCH  35  36
ENDBRANCH  27  30
ENDBRANCH  25  26
ENDBRANCH  24  25
ENDBRANCH   1  24
TORSDOF 18
