REMARK SMILES Cc1ccc(OCCC[N@H+]2CCCC[C@@H]2C(=O)NCCCNC(=O)c2ccc(-c3c4nc(c(-c5cccc(S(=O)(=O)[O-])c5F)c5ccc([nH]5)c(-c5cccc(S(=O)(=O)[O-])c5F)c5nc(c(-c6cccc(S(=O)(=O)[O-])c6F)c6ccc3[nH]6)C=C5)C=C4)cc2)cc1C
REMARK SMILES IDX 19 1 18 2 16 3 17 4 15 6 10 7 11 8 12 10 14 11 13 12 9 13
REMARK SMILES IDX 8 14 7 15 6 16 5 17 1 18 2 19 3 20 89 21 4 22 88 23 90 24
REMARK SMILES IDX 20 25 21 26 22 27 23 28 24 30 25 31 26 32 87 33 27 34 86 35
REMARK SMILES IDX 28 36 29 37 30 38 80 39 31 40 85 41 79 42 81 43 32 44 84 45
REMARK SMILES IDX 78 46 77 47 33 49 65 50 45 51 64 52 46 53 49 54 63 55 82 56
REMARK SMILES IDX 47 57 48 58 62 60 83 61 50 62 34 63 35 64 43 65 36 66 38 67
REMARK SMILES IDX 44 68 37 69 39 70 40 71 41 72 42 73 66 74 67 75 75 76 68 77
REMARK SMILES IDX 70 78 76 79 69 80 71 81 72 82 73 83 74 84 51 85 52 86 60 87
REMARK SMILES IDX 53 88 55 89 61 90 54 91 56 92 57 93 58 94 59 95
REMARK H PARENT 18 5 10 9 22 29 81 48 49 59
REMARK Flexibility Score: inf
ROOT
ATOM      1  C   UNL     1      -2.492   1.003  -2.630  1.00  0.00     0.118 C 
ENDROOT
BRANCH   1   2
ATOM      2  N   UNL     1      -1.415   1.398  -1.733  1.00  0.00    -0.351 N 
ATOM      3  C   UNL     1      -1.375   2.384  -0.789  1.00  0.00     0.278 C 
ATOM      4  O   UNL     1      -0.305   2.589  -0.205  1.00  0.00    -0.268 OA
ATOM      5  H   UNL     1      -0.587   0.873  -1.821  1.00  0.00     0.163 HD
BRANCH   3   6
ATOM      6  C   UNL     1      -2.598   3.269  -0.480  1.00  0.00     0.274 C 
ATOM      7  N   UNL     1      -3.817   2.454  -0.154  1.00  0.00    -0.325 N 
ATOM      8  C   UNL     1      -5.006   3.330  -0.051  1.00  0.00     0.262 C 
ATOM      9  H   UNL     1      -3.957   1.775  -0.902  1.00  0.00     0.348 HD
ATOM     10  C   UNL     1      -5.197   4.265  -1.246  1.00  0.00     0.062 C 
ATOM     11  C   UNL     1      -2.753   4.266  -1.639  1.00  0.00     0.076 C 
ATOM     12  C   UNL     1      -3.974   5.145  -1.450  1.00  0.00     0.012 C 
BRANCH   7  13
ATOM     13  C   UNL     1      -3.629   1.741   1.139  1.00  0.00     0.266 C 
BRANCH  13  14
ATOM     14  C   UNL     1      -4.265   0.339   1.222  1.00  0.00     0.103 C 
BRANCH  14  15
ATOM     15  C   UNL     1      -3.521  -0.758   0.448  1.00  0.00     0.235 C 
BRANCH  15  16
ATOM     16  O   UNL     1      -2.681  -1.576   1.292  1.00  0.00    -0.493 OA
BRANCH  16  17
ATOM     17  C   UNL     1      -1.365  -1.208   1.193  1.00  0.00     0.119 A 
ATOM     18  C   UNL     1       2.619   0.329   0.686  1.00  0.00     0.044 C 
ATOM     19  C   UNL     1       1.266  -0.296   0.890  1.00  0.00    -0.048 A 
ATOM     20  C   UNL     1       0.388   0.321   1.792  1.00  0.00     0.007 A 
ATOM     21  C   UNL     1       0.857  -1.474   0.234  1.00  0.00    -0.045 A 
ATOM     22  C   UNL     1      -0.903  -0.161   1.974  1.00  0.00     0.047 A 
ATOM     23  C   UNL     1      -0.480  -1.907   0.373  1.00  0.00     0.050 A 
ATOM     24  C   UNL     1       1.826  -2.340  -0.526  1.00  0.00     0.045 C 
ENDBRANCH  16  17
ENDBRANCH  15  16
ENDBRANCH  14  15
ENDBRANCH  13  14
ENDBRANCH   7  13
ENDBRANCH   3   6
ENDBRANCH   1   2
BRANCH   1  25
ATOM     25  C   UNL     1      -2.058   1.015  -4.088  1.00  0.00     0.042 C 
BRANCH  25  26
ATOM     26  C   UNL     1      -1.073  -0.099  -4.429  1.00  0.00     0.118 C 
BRANCH  26  27
ATOM     27  N   UNL     1      -1.681  -1.427  -4.404  1.00  0.00    -0.352 N 
ATOM     28  C   UNL     1      -1.825  -2.343  -5.424  1.00  0.00     0.251 C 
ATOM     29  H   UNL     1      -2.041  -1.709  -3.532  1.00  0.00     0.163 HD
ATOM     30  O   UNL     1      -2.504  -3.348  -5.263  1.00  0.00    -0.269 OA
BRANCH  28  31
ATOM     31  C   UNL     1      -1.168  -2.086  -6.723  1.00  0.00     0.039 A 
ATOM     32  C   UNL     1      -1.913  -2.187  -7.900  1.00  0.00     0.014 A 
ATOM     33  C   UNL     1       0.175  -1.707  -6.766  1.00  0.00     0.014 A 
ATOM     34  C   UNL     1      -1.335  -1.813  -9.117  1.00  0.00     0.010 A 
ATOM     35  C   UNL     1       0.724  -1.263  -7.963  1.00  0.00     0.010 A 
ATOM     36  C   UNL     1      -0.026  -1.304  -9.149  1.00  0.00    -0.014 A 
BRANCH  36  37
ATOM     37  C   UNL     1       0.588  -0.781 -10.395  1.00  0.00     0.031 A 
ATOM     38  C   UNL     1       1.833  -1.424 -10.941  1.00  0.00     0.074 A 
ATOM     39  C   UNL     1       0.112   0.352 -10.950  1.00  0.00     0.049 A 
ATOM     40  N   UNL     1       2.610  -1.024 -11.913  1.00  0.00    -0.248 NA
ATOM     41  C   UNL     1       2.284  -2.662 -10.281  1.00  0.00     0.031 C 
ATOM     42  C   UNL     1      -1.041   1.115 -10.464  1.00  0.00     0.029 A 
ATOM     43  N   UNL     1       0.566   1.085 -12.019  1.00  0.00    -0.354 N 
ATOM     44  C   UNL     1       3.667  -1.925 -11.946  1.00  0.00     0.074 A 
ATOM     45  C   UNL     1       3.443  -2.882 -10.885  1.00  0.00     0.031 C 
ATOM     46  C   UNL     1      -1.198   2.209 -11.227  1.00  0.00     0.029 A 
ATOM     47  C   UNL     1      -0.144   2.244 -12.234  1.00  0.00     0.049 A 
ATOM     48  H   UNL     1       1.326   0.806 -12.578  1.00  0.00     0.167 HD
ATOM     49  C   UNL     1       4.715  -1.969 -12.802  1.00  0.00     0.034 A 
ATOM     50  C   UNL     1       0.042   3.230 -13.135  1.00  0.00     0.034 A 
ATOM     51  C   UNL     1       4.894  -1.062 -13.901  1.00  0.00     0.049 A 
ATOM     52  C   UNL     1       1.173   3.116 -14.121  1.00  0.00     0.074 A 
ATOM     53  C   UNL     1       5.864  -1.086 -14.887  1.00  0.00     0.029 A 
ATOM     54  N   UNL     1       4.080   0.029 -14.165  1.00  0.00    -0.354 N 
ATOM     55  N   UNL     1       2.073   2.170 -14.235  1.00  0.00    -0.248 NA
ATOM     56  C   UNL     1       1.296   4.186 -15.123  1.00  0.00     0.031 C 
ATOM     57  C   UNL     1       5.636  -0.008 -15.748  1.00  0.00     0.029 A 
ATOM     58  C   UNL     1       4.522   0.684 -15.300  1.00  0.00     0.049 A 
ATOM     59  H   UNL     1       3.302   0.297 -13.625  1.00  0.00     0.167 HD
ATOM     60  C   UNL     1       2.845   2.510 -15.340  1.00  0.00     0.074 A 
ATOM     61  C   UNL     1       2.298   3.741 -15.870  1.00  0.00     0.031 C 
ATOM     62  C   UNL     1       3.922   1.869 -15.857  1.00  0.00     0.034 A 
BRANCH  49  63
ATOM     63  C   UNL     1       5.712  -3.082 -12.627  1.00  0.00     0.023 A 
ATOM     64  C   UNL     1       5.357  -4.392 -13.007  1.00  0.00     0.012 A 
ATOM     65  C   UNL     1       7.010  -2.830 -12.142  1.00  0.00     0.148 A 
ATOM     66  C   UNL     1       6.266  -5.440 -12.880  1.00  0.00     0.002 A 
ATOM     67  C   UNL     1       7.925  -3.874 -12.054  1.00  0.00     0.091 A 
ATOM     68  F   UNL     1       7.322  -1.583 -11.761  1.00  0.00    -0.205 F 
ATOM     69  C   UNL     1       7.552  -5.179 -12.414  1.00  0.00     0.022 A 
BRANCH  67  70
ATOM     70  S   UNL     1       9.626  -3.621 -11.533  1.00  0.00     0.127 S 
ATOM     71  O   UNL     1       9.594  -4.130 -10.164  1.00  0.00    -0.237 OA
ATOM     72  O   UNL     1      10.369  -4.457 -12.477  1.00  0.00    -0.237 OA
ATOM     73  O   UNL     1       9.873  -2.192 -11.670  1.00  0.00    -0.744 OA
ENDBRANCH  67  70
ENDBRANCH  49  63
BRANCH  50  74
ATOM     74  C   UNL     1      -0.918   4.368 -13.196  1.00  0.00     0.023 A 
ATOM     75  C   UNL     1      -1.823   4.441 -14.273  1.00  0.00     0.012 A 
ATOM     76  C   UNL     1      -0.974   5.347 -12.186  1.00  0.00     0.148 A 
ATOM     77  C   UNL     1      -2.749   5.481 -14.356  1.00  0.00     0.002 A 
ATOM     78  C   UNL     1      -1.933   6.353 -12.249  1.00  0.00     0.091 A 
ATOM     79  F   UNL     1      -0.095   5.272 -11.176  1.00  0.00    -0.205 F 
ATOM     80  C   UNL     1      -2.812   6.430 -13.340  1.00  0.00     0.022 A 
BRANCH  78  81
ATOM     81  S   UNL     1      -2.167   7.535 -10.916  1.00  0.00     0.127 S 
ATOM     82  O   UNL     1      -1.532   8.732 -11.460  1.00  0.00    -0.237 OA
ATOM     83  O   UNL     1      -3.626   7.603 -10.816  1.00  0.00    -0.237 OA
ATOM     84  O   UNL     1      -1.520   6.940  -9.754  1.00  0.00    -0.744 OA
ENDBRANCH  78  81
ENDBRANCH  50  74
BRANCH  62  85
ATOM     85  C   UNL     1       4.569   2.456 -17.081  1.00  0.00     0.023 A 
ATOM     86  C   UNL     1       5.402   3.584 -16.951  1.00  0.00     0.012 A 
ATOM     87  C   UNL     1       4.439   1.828 -18.335  1.00  0.00     0.148 A 
ATOM     88  C   UNL     1       6.084   4.089 -18.057  1.00  0.00     0.002 A 
ATOM     89  C   UNL     1       5.154   2.312 -19.424  1.00  0.00     0.091 A 
ATOM     90  F   UNL     1       3.625   0.767 -18.439  1.00  0.00    -0.205 F 
ATOM     91  C   UNL     1       5.972   3.446 -19.288  1.00  0.00     0.022 A 
BRANCH  89  92
ATOM     92  S   UNL     1       5.140   1.494 -21.023  1.00  0.00     0.127 S 
ATOM     93  O   UNL     1       4.298   2.393 -21.811  1.00  0.00    -0.237 OA
ATOM     94  O   UNL     1       6.556   1.503 -21.393  1.00  0.00    -0.237 OA
ATOM     95  O   UNL     1       4.589   0.166 -20.787  1.00  0.00    -0.744 OA
ENDBRANCH  89  92
ENDBRANCH  62  85
ENDBRANCH  36  37
ENDBRANCH  28  31
ENDBRANCH  26  27
ENDBRANCH  25  26
ENDBRANCH   1  25
TORSDOF 18
