REMARK SMILES O=C(CCS(=O)(=O)c1ccc2[nH]c(=O)oc2c1)NCCCNC(=O)c1ccc(-c2c3nc(c(-c4cccc(S(=O)(=O)[O-])c4F)c4ccc([nH]4)c(-c4cccc(S(=O)(=O)[O-])c4F)c4nc(c(-c5cccc(S(=O)(=O)[O-])c5F)c5ccc2[nH]5)C=C4)C=C3)cc1
REMARK SMILES IDX 20 1 19 2 18 3 1 4 2 5 3 7 4 8 5 9 6 10 7 11 8 12 9 13 17 14
REMARK SMILES IDX 10 15 16 16 11 17 15 18 12 19 13 20 14 22 21 23 22 24 23 25
REMARK SMILES IDX 24 27 25 28 26 29 87 30 27 31 86 32 28 33 29 34 30 35 80 36
REMARK SMILES IDX 31 37 85 38 79 39 81 40 32 41 84 42 78 43 77 44 33 46 65 47
REMARK SMILES IDX 45 48 64 49 46 50 49 51 63 52 82 53 47 54 48 55 62 57 83 58
REMARK SMILES IDX 50 59 34 60 35 61 43 62 36 63 38 64 44 65 37 66 39 67 40 68
REMARK SMILES IDX 41 69 42 70 66 71 67 72 75 73 68 74 70 75 76 76 69 77 71 78
REMARK SMILES IDX 72 79 73 80 74 81 51 82 52 83 60 84 53 85 55 86 61 87 54 88
REMARK SMILES IDX 56 89 57 90 58 91 59 92
REMARK H PARENT 18 6 12 21 22 26 81 45 49 56
REMARK Flexibility Score: inf
ROOT
ATOM      1  C   UNL     1       2.807   3.730  -0.992  1.00  0.00     0.042 C 
ENDROOT
BRANCH   1   2
ATOM      2  C   UNL     1       2.222   2.320  -1.031  1.00  0.00     0.117 C 
BRANCH   2   3
ATOM      3  N   UNL     1       2.859   1.306  -0.213  1.00  0.00    -0.356 N 
ATOM      4  O   UNL     1       1.245  -0.265  -0.667  1.00  0.00    -0.275 OA
ATOM      5  C   UNL     1       2.299   0.053  -0.124  1.00  0.00     0.221 C 
ATOM      6  H   UNL     1       3.688   1.514   0.275  1.00  0.00     0.163 HD
BRANCH   5   7
ATOM      7  C   UNL     1       3.112  -0.964   0.634  1.00  0.00     0.116 C 
BRANCH   7   8
ATOM      8  C   UNL     1       3.551  -2.082  -0.302  1.00  0.00     0.152 C 
BRANCH   8   9
ATOM      9  S   UNL     1       4.817  -1.610  -1.453  1.00  0.00     0.179 S 
ATOM     10  O   UNL     1       5.677  -0.664  -0.759  1.00  0.00    -0.224 OA
ATOM     11  O   UNL     1       5.373  -2.816  -2.032  1.00  0.00    -0.224 OA
BRANCH   9  12
ATOM     12  C   UNL     1       4.050  -0.734  -2.797  1.00  0.00     0.071 A 
ATOM     13  C   UNL     1       4.598   0.513  -3.146  1.00  0.00     0.023 A 
ATOM     14  C   UNL     1       2.944  -1.249  -3.484  1.00  0.00     0.069 A 
ATOM     15  C   UNL     1       3.979   1.324  -4.098  1.00  0.00     0.031 A 
ATOM     16  C   UNL     1       2.368  -0.430  -4.439  1.00  0.00     0.157 A 
ATOM     17  C   UNL     1       2.859   0.829  -4.698  1.00  0.00     0.087 A 
ATOM     18  O   UNL     1       1.257  -0.713  -5.222  1.00  0.00    -0.408 OA
ATOM     19  N   UNL     1       2.038   1.406  -5.617  1.00  0.00    -0.287 N 
ATOM     20  C   UNL     1       1.083   0.480  -5.947  1.00  0.00     0.417 A 
ATOM     21  H   UNL     1       2.115   2.318  -5.977  1.00  0.00     0.173 HD
ATOM     22  O   UNL     1       0.195   0.655  -6.773  1.00  0.00    -0.224 OA
ENDBRANCH   9  12
ENDBRANCH   8   9
ENDBRANCH   7   8
ENDBRANCH   5   7
ENDBRANCH   2   3
ENDBRANCH   1   2
BRANCH   1  23
ATOM     23  C   UNL     1       4.320   3.907  -0.906  1.00  0.00     0.118 C 
BRANCH  23  24
ATOM     24  N   UNL     1       5.041   3.612  -2.136  1.00  0.00    -0.352 N 
ATOM     25  C   UNL     1       5.533   4.415  -3.135  1.00  0.00     0.251 C 
ATOM     26  H   UNL     1       5.209   2.652  -2.278  1.00  0.00     0.163 HD
ATOM     27  O   UNL     1       5.885   3.951  -4.215  1.00  0.00    -0.269 OA
BRANCH  25  28
ATOM     28  C   UNL     1       5.756   5.830  -2.870  1.00  0.00     0.039 A 
ATOM     29  C   UNL     1       5.589   6.782  -3.880  1.00  0.00     0.014 A 
ATOM     30  C   UNL     1       6.288   6.168  -1.627  1.00  0.00     0.014 A 
ATOM     31  C   UNL     1       5.948   8.097  -3.618  1.00  0.00     0.010 A 
ATOM     32  C   UNL     1       6.511   7.484  -1.324  1.00  0.00     0.010 A 
ATOM     33  C   UNL     1       6.401   8.440  -2.336  1.00  0.00    -0.014 A 
BRANCH  33  34
ATOM     34  C   UNL     1       6.844   9.794  -1.995  1.00  0.00     0.031 A 
ATOM     35  C   UNL     1       8.269   9.991  -1.567  1.00  0.00     0.074 A 
ATOM     36  C   UNL     1       5.909  10.752  -1.904  1.00  0.00     0.049 A 
ATOM     37  N   UNL     1       8.829  11.043  -1.042  1.00  0.00    -0.248 NA
ATOM     38  C   UNL     1       9.170   8.825  -1.680  1.00  0.00     0.031 C 
ATOM     39  C   UNL     1       4.483  10.573  -2.199  1.00  0.00     0.029 A 
ATOM     40  N   UNL     1       6.007  12.048  -1.494  1.00  0.00    -0.354 N 
ATOM     41  C   UNL     1      10.122  10.653  -0.715  1.00  0.00     0.074 A 
ATOM     42  C   UNL     1      10.250   9.255  -1.046  1.00  0.00     0.031 C 
ATOM     43  C   UNL     1       3.840  11.726  -1.966  1.00  0.00     0.029 A 
ATOM     44  C   UNL     1       4.800  12.703  -1.474  1.00  0.00     0.049 A 
ATOM     45  H   UNL     1       6.857  12.472  -1.238  1.00  0.00     0.167 HD
ATOM     46  C   UNL     1      11.118  11.416  -0.211  1.00  0.00     0.034 A 
ATOM     47  C   UNL     1       4.519  13.958  -1.088  1.00  0.00     0.034 A 
ATOM     48  C   UNL     1      10.950  12.817   0.057  1.00  0.00     0.049 A 
ATOM     49  C   UNL     1       5.665  14.811  -0.629  1.00  0.00     0.074 A 
ATOM     50  C   UNL     1      11.892  13.738   0.468  1.00  0.00     0.029 A 
ATOM     51  N   UNL     1       9.745  13.496  -0.069  1.00  0.00    -0.354 N 
ATOM     52  N   UNL     1       6.923  14.477  -0.458  1.00  0.00    -0.248 NA
ATOM     53  C   UNL     1       5.370  16.220  -0.356  1.00  0.00     0.031 C 
ATOM     54  C   UNL     1      11.247  14.971   0.617  1.00  0.00     0.029 A 
ATOM     55  C   UNL     1       9.915  14.826   0.256  1.00  0.00     0.049 A 
ATOM     56  H   UNL     1       8.894  13.087  -0.349  1.00  0.00     0.167 HD
ATOM     57  C   UNL     1       7.582  15.644  -0.101  1.00  0.00     0.074 A 
ATOM     58  C   UNL     1       6.580  16.695  -0.097  1.00  0.00     0.031 C 
ATOM     59  C   UNL     1       8.890  15.838   0.203  1.00  0.00     0.034 A 
BRANCH  46  60
ATOM     60  C   UNL     1      12.456  10.765   0.029  1.00  0.00     0.023 A 
ATOM     61  C   UNL     1      13.219  10.300  -1.064  1.00  0.00     0.012 A 
ATOM     62  C   UNL     1      12.976  10.637   1.331  1.00  0.00     0.148 A 
ATOM     63  C   UNL     1      14.452   9.680  -0.863  1.00  0.00     0.002 A 
ATOM     64  C   UNL     1      14.230  10.066   1.520  1.00  0.00     0.091 A 
ATOM     65  F   UNL     1      12.229  11.057   2.362  1.00  0.00    -0.205 F 
ATOM     66  C   UNL     1      14.962   9.574   0.427  1.00  0.00     0.022 A 
BRANCH  64  67
ATOM     67  S   UNL     1      15.014   9.955   3.132  1.00  0.00     0.127 S 
ATOM     68  O   UNL     1      15.036   8.509   3.351  1.00  0.00    -0.237 OA
ATOM     69  O   UNL     1      16.324  10.554   2.876  1.00  0.00    -0.237 OA
ATOM     70  O   UNL     1      14.166  10.708   4.046  1.00  0.00    -0.744 OA
ENDBRANCH  64  67
ENDBRANCH  46  60
BRANCH  47  71
ATOM     71  C   UNL     1       3.134  14.481  -1.223  1.00  0.00     0.023 A 
ATOM     72  C   UNL     1       2.851  15.428  -2.226  1.00  0.00     0.012 A 
ATOM     73  C   UNL     1       2.086  13.998  -0.418  1.00  0.00     0.148 A 
ATOM     74  C   UNL     1       1.555  15.914  -2.400  1.00  0.00     0.002 A 
ATOM     75  C   UNL     1       0.787  14.445  -0.631  1.00  0.00     0.091 A 
ATOM     76  F   UNL     1       2.376  13.088   0.524  1.00  0.00    -0.205 F 
ATOM     77  C   UNL     1       0.523  15.417  -1.609  1.00  0.00     0.022 A 
BRANCH  75  78
ATOM     78  S   UNL     1      -0.623  13.760   0.246  1.00  0.00     0.127 S 
ATOM     79  O   UNL     1      -1.003  14.872   1.113  1.00  0.00    -0.237 OA
ATOM     80  O   UNL     1      -1.554  13.485  -0.849  1.00  0.00    -0.237 OA
ATOM     81  O   UNL     1      -0.125  12.570   0.922  1.00  0.00    -0.744 OA
ENDBRANCH  75  78
ENDBRANCH  47  71
BRANCH  59  82
ATOM     82  C   UNL     1       9.310  17.247   0.510  1.00  0.00     0.023 A 
ATOM     83  C   UNL     1       8.920  17.855   1.718  1.00  0.00     0.012 A 
ATOM     84  C   UNL     1      10.150  17.939  -0.383  1.00  0.00     0.148 A 
ATOM     85  C   UNL     1       9.325  19.154   2.014  1.00  0.00     0.002 A 
ATOM     86  C   UNL     1      10.600  19.208  -0.052  1.00  0.00     0.091 A 
ATOM     87  F   UNL     1      10.492  17.344  -1.535  1.00  0.00    -0.205 F 
ATOM     88  C   UNL     1      10.175  19.824   1.136  1.00  0.00     0.022 A 
BRANCH  86  89
ATOM     89  S   UNL     1      11.783  20.096  -1.068  1.00  0.00     0.127 S 
ATOM     90  O   UNL     1      10.944  21.138  -1.658  1.00  0.00    -0.237 OA
ATOM     91  O   UNL     1      12.744  20.575  -0.074  1.00  0.00    -0.237 OA
ATOM     92  O   UNL     1      12.321  19.120  -2.006  1.00  0.00    -0.744 OA
ENDBRANCH  86  89
ENDBRANCH  59  82
ENDBRANCH  33  34
ENDBRANCH  25  28
ENDBRANCH  23  24
ENDBRANCH   1  23
TORSDOF 16
