REMARK SMILES Cc1nc2cc(SCC(=O)NCCCNC(=O)c3ccc(-c4c5nc(c(-c6cccc(S(=O)(=O)[O-])c6F)c6ccc([nH]6)c(-c6cccc(S(=O)(=O)[O-])c6F)c6nc(c(-c7cccc(S(=O)(=O)[O-])c7F)c7ccc4[nH]7)C=C6)C=C5)cc3)ccc2s1
REMARK SMILES IDX 13 1 12 2 11 3 9 4 10 5 8 7 7 8 6 9 1 10 2 11 3 12 84 13
REMARK SMILES IDX 4 14 83 15 5 16 82 17 81 18 14 19 15 20 16 21 17 23 18 24
REMARK SMILES IDX 19 25 80 26 20 27 79 28 21 29 22 30 23 31 73 32 24 33 78 34
REMARK SMILES IDX 72 35 74 36 25 37 77 38 71 39 70 40 26 42 58 43 38 44 57 45
REMARK SMILES IDX 39 46 42 47 56 48 75 49 40 50 41 51 55 53 76 54 43 55 27 56
REMARK SMILES IDX 28 57 36 58 29 59 31 60 37 61 30 62 32 63 33 64 34 65 35 66
REMARK SMILES IDX 59 67 60 68 68 69 61 70 63 71 69 72 62 73 64 74 65 75 66 76
REMARK SMILES IDX 67 77 44 78 45 79 53 80 46 81 48 82 54 83 47 84 49 85 50 86
REMARK SMILES IDX 51 87 52 88
REMARK H PARENT 11 6 15 22 74 41 42 52
REMARK Flexibility Score: inf
ROOT
ATOM      1  C   UNL     1       4.907   2.325   3.348  1.00  0.00     0.042 C 
ENDROOT
BRANCH   1   2
ATOM      2  C   UNL     1       6.113   1.720   2.633  1.00  0.00     0.117 C 
BRANCH   2   3
ATOM      3  N   UNL     1       5.937   0.304   2.363  1.00  0.00    -0.355 N 
ATOM      4  C   UNL     1       5.698  -0.335   1.185  1.00  0.00     0.230 C 
ATOM      5  O   UNL     1       5.596  -1.565   1.212  1.00  0.00    -0.274 OA
ATOM      6  H   UNL     1       6.000  -0.282   3.151  1.00  0.00     0.163 HD
BRANCH   4   7
ATOM      7  C   UNL     1       5.665   0.417  -0.132  1.00  0.00     0.174 C 
BRANCH   7   8
ATOM      8  S   UNL     1       4.297   1.600  -0.301  1.00  0.00    -0.116 SA
BRANCH   8   9
ATOM      9  C   UNL     1       2.796   0.636  -0.198  1.00  0.00     0.010 A 
ATOM     10  C   UNL     1      -3.290   0.780   0.070  1.00  0.00     0.079 C 
ATOM     11  C   UNL     1      -1.839   0.453   0.029  1.00  0.00     0.091 A 
ATOM     12  N   UNL     1      -0.881   1.350  -0.033  1.00  0.00    -0.241 NA
ATOM     13  S   UNL     1      -1.321  -1.184   0.042  1.00  0.00    -0.119 S 
ATOM     14  C   UNL     1       0.353   0.728  -0.068  1.00  0.00     0.083 A 
ATOM     15  C   UNL     1       0.319  -0.665  -0.053  1.00  0.00     0.055 A 
ATOM     16  C   UNL     1       1.603   1.375  -0.129  1.00  0.00     0.045 A 
ATOM     17  C   UNL     1       1.493  -1.428  -0.116  1.00  0.00     0.022 A 
ATOM     18  C   UNL     1       2.722  -0.756  -0.207  1.00  0.00     0.016 A 
ENDBRANCH   8   9
ENDBRANCH   7   8
ENDBRANCH   4   7
ENDBRANCH   2   3
ENDBRANCH   1   2
BRANCH   1  19
ATOM     19  C   UNL     1       4.622   1.728   4.724  1.00  0.00     0.118 C 
BRANCH  19  20
ATOM     20  N   UNL     1       5.715   1.927   5.667  1.00  0.00    -0.352 N 
ATOM     21  C   UNL     1       5.726   2.542   6.893  1.00  0.00     0.251 C 
ATOM     22  H   UNL     1       6.582   1.562   5.378  1.00  0.00     0.163 HD
ATOM     23  O   UNL     1       6.806   2.751   7.448  1.00  0.00    -0.269 OA
BRANCH  21  24
ATOM     24  C   UNL     1       4.469   2.971   7.545  1.00  0.00     0.039 A 
ATOM     25  C   UNL     1       4.438   4.206   8.200  1.00  0.00     0.014 A 
ATOM     26  C   UNL     1       3.333   2.156   7.545  1.00  0.00     0.014 A 
ATOM     27  C   UNL     1       3.254   4.650   8.796  1.00  0.00     0.010 A 
ATOM     28  C   UNL     1       2.134   2.633   8.073  1.00  0.00     0.010 A 
ATOM     29  C   UNL     1       2.081   3.883   8.707  1.00  0.00    -0.014 A 
BRANCH  29  30
ATOM     30  C   UNL     1       0.790   4.386   9.248  1.00  0.00     0.031 A 
ATOM     31  C   UNL     1       0.081   3.650  10.353  1.00  0.00     0.074 A 
ATOM     32  C   UNL     1       0.213   5.467   8.685  1.00  0.00     0.049 A 
ATOM     33  N   UNL     1      -1.071   3.915  10.914  1.00  0.00    -0.248 NA
ATOM     34  C   UNL     1       0.739   2.443  10.881  1.00  0.00     0.031 C 
ATOM     35  C   UNL     1       0.756   6.222   7.554  1.00  0.00     0.029 A 
ATOM     36  N   UNL     1      -0.972   6.101   8.967  1.00  0.00    -0.354 N 
ATOM     37  C   UNL     1      -1.293   2.896  11.832  1.00  0.00     0.074 A 
ATOM     38  C   UNL     1      -0.171   1.988  11.732  1.00  0.00     0.031 C 
ATOM     39  C   UNL     1      -0.089   7.217   7.241  1.00  0.00     0.029 A 
ATOM     40  C   UNL     1      -1.249   7.152   8.124  1.00  0.00     0.049 A 
ATOM     41  H   UNL     1      -1.567   5.828   9.702  1.00  0.00     0.167 HD
ATOM     42  C   UNL     1      -2.322   2.743  12.701  1.00  0.00     0.034 A 
ATOM     43  C   UNL     1      -2.320   7.968   8.060  1.00  0.00     0.034 A 
ATOM     44  C   UNL     1      -3.419   3.666  12.824  1.00  0.00     0.049 A 
ATOM     45  C   UNL     1      -3.433   7.796   9.059  1.00  0.00     0.074 A 
ATOM     46  C   UNL     1      -4.463   3.644  13.732  1.00  0.00     0.029 A 
ATOM     47  N   UNL     1      -3.623   4.768  12.008  1.00  0.00    -0.354 N 
ATOM     48  N   UNL     1      -3.544   6.921  10.028  1.00  0.00    -0.248 NA
ATOM     49  C   UNL     1      -4.550   8.749   8.979  1.00  0.00     0.031 C 
ATOM     50  C   UNL     1      -5.314   4.717  13.448  1.00  0.00     0.029 A 
ATOM     51  C   UNL     1      -4.782   5.427  12.384  1.00  0.00     0.049 A 
ATOM     52  H   UNL     1      -3.032   5.042  11.271  1.00  0.00     0.167 HD
ATOM     53  C   UNL     1      -4.723   7.237  10.694  1.00  0.00     0.074 A 
ATOM     54  C   UNL     1      -5.277   8.400  10.032  1.00  0.00     0.031 C 
ATOM     55  C   UNL     1      -5.301   6.612  11.749  1.00  0.00     0.034 A 
BRANCH  42  56
ATOM     56  C   UNL     1      -2.287   1.553  13.627  1.00  0.00     0.023 A 
ATOM     57  C   UNL     1      -1.341   1.513  14.673  1.00  0.00     0.012 A 
ATOM     58  C   UNL     1      -3.224   0.509  13.505  1.00  0.00     0.148 A 
ATOM     59  C   UNL     1      -1.304   0.437  15.558  1.00  0.00     0.002 A 
ATOM     60  C   UNL     1      -3.211  -0.538  14.420  1.00  0.00     0.091 A 
ATOM     61  F   UNL     1      -4.104   0.553  12.495  1.00  0.00    -0.205 F 
ATOM     62  C   UNL     1      -2.244  -0.582  15.438  1.00  0.00     0.022 A 
BRANCH  60  63
ATOM     63  S   UNL     1      -4.429  -1.858  14.402  1.00  0.00     0.127 S 
ATOM     64  O   UNL     1      -3.623  -2.998  13.968  1.00  0.00    -0.237 OA
ATOM     65  O   UNL     1      -4.849  -1.907  15.803  1.00  0.00    -0.237 OA
ATOM     66  O   UNL     1      -5.466  -1.436  13.471  1.00  0.00    -0.744 OA
ENDBRANCH  60  63
ENDBRANCH  42  56
BRANCH  43  67
ATOM     67  C   UNL     1      -2.365   9.059   7.046  1.00  0.00     0.023 A 
ATOM     68  C   UNL     1      -2.255  10.400   7.466  1.00  0.00     0.012 A 
ATOM     69  C   UNL     1      -2.490   8.778   5.672  1.00  0.00     0.148 A 
ATOM     70  C   UNL     1      -2.303  11.441   6.539  1.00  0.00     0.002 A 
ATOM     71  C   UNL     1      -2.480   9.818   4.750  1.00  0.00     0.091 A 
ATOM     72  F   UNL     1      -2.603   7.497   5.295  1.00  0.00    -0.205 F 
ATOM     73  C   UNL     1      -2.406  11.150   5.182  1.00  0.00     0.022 A 
BRANCH  71  74
ATOM     74  S   UNL     1      -2.475   9.531   2.976  1.00  0.00     0.127 S 
ATOM     75  O   UNL     1      -3.802  10.010   2.594  1.00  0.00    -0.237 OA
ATOM     76  O   UNL     1      -1.365  10.380   2.539  1.00  0.00    -0.237 OA
ATOM     77  O   UNL     1      -2.244   8.105   2.808  1.00  0.00    -0.744 OA
ENDBRANCH  71  74
ENDBRANCH  43  67
BRANCH  55  78
ATOM     78  C   UNL     1      -6.585   7.191  12.287  1.00  0.00     0.023 A 
ATOM     79  C   UNL     1      -7.776   7.069  11.544  1.00  0.00     0.012 A 
ATOM     80  C   UNL     1      -6.622   7.797  13.558  1.00  0.00     0.148 A 
ATOM     81  C   UNL     1      -8.977   7.574  12.043  1.00  0.00     0.002 A 
ATOM     82  C   UNL     1      -7.831   8.251  14.071  1.00  0.00     0.091 A 
ATOM     83  F   UNL     1      -5.475   7.920  14.242  1.00  0.00    -0.205 F 
ATOM     84  C   UNL     1      -9.007   8.153  13.309  1.00  0.00     0.022 A 
BRANCH  82  85
ATOM     85  S   UNL     1      -7.983   8.921  15.730  1.00  0.00     0.127 S 
ATOM     86  O   UNL     1      -8.197  10.342  15.459  1.00  0.00    -0.237 OA
ATOM     87  O   UNL     1      -9.158   8.215  16.244  1.00  0.00    -0.237 OA
ATOM     88  O   UNL     1      -6.737   8.596  16.411  1.00  0.00    -0.744 OA
ENDBRANCH  82  85
ENDBRANCH  55  78
ENDBRANCH  29  30
ENDBRANCH  21  24
ENDBRANCH  19  20
ENDBRANCH   1  19
TORSDOF 15
