REMARK SMILES O=C(CCCN1C(=O)c2ccc3c4c(ccc(c24)C1=O)C(=O)NC3=O)NCCCNC(=O)c1ccc(-c2c3nc(c(-c4cccc(S(=O)(=O)[O-])c4F)c4ccc([nH]4)c(-c4cccc(S(=O)(=O)[O-])c4F)c4nc(c(-c5cccc(S(=O)(=O)[O-])c5F)c5ccc2[nH]5)C=C4)C=C3)cc1
REMARK SMILES IDX 28 1 27 2 26 3 1 4 2 5 3 7 4 8 5 9 6 10 19 11 7 12 20 13
REMARK SMILES IDX 17 14 9 15 8 16 16 17 18 18 10 19 15 20 13 21 11 22 14 23
REMARK SMILES IDX 12 24 21 25 24 26 23 27 22 28 25 29 29 31 30 32 31 33 32 35
REMARK SMILES IDX 33 36 34 37 95 38 35 39 94 40 36 41 37 42 38 43 88 44 39 45
REMARK SMILES IDX 93 46 87 47 89 48 40 49 92 50 86 51 85 52 41 54 73 55 53 56
REMARK SMILES IDX 72 57 54 58 57 59 71 60 90 61 55 62 56 63 70 65 91 66 58 67
REMARK SMILES IDX 42 68 43 69 51 70 44 71 46 72 52 73 45 74 47 75 48 76 49 77
REMARK SMILES IDX 50 78 74 79 75 80 83 81 76 82 78 83 84 84 77 85 79 86 80 87
REMARK SMILES IDX 81 88 82 89 59 90 60 91 68 92 61 93 63 94 69 95 62 96 64 97
REMARK SMILES IDX 65 98 66 99 67 100
REMARK H PARENT 26 6 23 30 30 34 89 53 57 64
REMARK Flexibility Score: inf
ROOT
ATOM      1  C   UNL     1       2.375  -0.441  -3.550  1.00  0.00     0.042 C 
ENDROOT
BRANCH   1   2
ATOM      2  C   UNL     1       2.017  -1.158  -2.255  1.00  0.00     0.117 C 
BRANCH   2   3
ATOM      3  N   UNL     1       2.512  -0.462  -1.086  1.00  0.00    -0.356 N 
ATOM      4  O   UNL     1       0.980  -1.356   0.377  1.00  0.00    -0.275 OA
ATOM      5  C   UNL     1       1.929  -0.614   0.149  1.00  0.00     0.220 C 
ATOM      6  H   UNL     1       3.287   0.138  -1.179  1.00  0.00     0.163 HD
BRANCH   5   7
ATOM      7  C   UNL     1       2.591   0.209   1.226  1.00  0.00     0.102 C 
BRANCH   7   8
ATOM      8  C   UNL     1       3.724  -0.548   1.917  1.00  0.00     0.032 C 
BRANCH   8   9
ATOM      9  C   UNL     1       5.019  -0.736   1.115  1.00  0.00     0.130 C 
BRANCH   9  10
ATOM     10  N   UNL     1       5.808   0.422   0.667  1.00  0.00    -0.274 N 
ATOM     11  C   UNL     1       5.539   1.716   1.096  1.00  0.00     0.261 C 
ATOM     12  C   UNL     1       6.968   0.095  -0.054  1.00  0.00     0.261 C 
ATOM     13  O   UNL     1       4.789   2.021   2.017  1.00  0.00    -0.269 OA
ATOM     14  C   UNL     1       6.263   2.811   0.417  1.00  0.00     0.049 A 
ATOM     15  C   UNL     1       7.865   1.207  -0.454  1.00  0.00     0.049 A 
ATOM     16  O   UNL     1       7.279  -1.055  -0.351  1.00  0.00    -0.269 OA
ATOM     17  C   UNL     1       5.799   4.128   0.532  1.00  0.00     0.015 A 
ATOM     18  C   UNL     1       7.447   2.526  -0.262  1.00  0.00     0.009 A 
ATOM     19  C   UNL     1       9.102   0.934  -1.054  1.00  0.00     0.015 A 
ATOM     20  C   UNL     1       6.546   5.176  -0.000  1.00  0.00     0.015 A 
ATOM     21  C   UNL     1       8.245   3.594  -0.739  1.00  0.00     0.009 A 
ATOM     22  C   UNL     1       9.925   1.985  -1.462  1.00  0.00     0.015 A 
ATOM     23  C   UNL     1       7.778   4.911  -0.606  1.00  0.00     0.048 A 
ATOM     24  C   UNL     1       9.491   3.307  -1.311  1.00  0.00     0.048 A 
ATOM     25  C   UNL     1       8.614   6.030  -1.097  1.00  0.00     0.258 C 
ATOM     26  C   UNL     1      10.369   4.425  -1.726  1.00  0.00     0.258 C 
ATOM     27  N   UNL     1       9.827   5.686  -1.646  1.00  0.00    -0.288 N 
ATOM     28  O   UNL     1       8.248   7.192  -0.973  1.00  0.00    -0.269 OA
ATOM     29  O   UNL     1      11.524   4.220  -2.069  1.00  0.00    -0.269 OA
ATOM     30  H   UNL     1      10.364   6.421  -2.021  1.00  0.00     0.173 HD
ENDBRANCH   9  10
ENDBRANCH   8   9
ENDBRANCH   7   8
ENDBRANCH   5   7
ENDBRANCH   2   3
ENDBRANCH   1   2
BRANCH   1  31
ATOM     31  C   UNL     1       3.871  -0.371  -3.842  1.00  0.00     0.118 C 
BRANCH  31  32
ATOM     32  N   UNL     1       4.468  -1.673  -4.107  1.00  0.00    -0.352 N 
ATOM     33  C   UNL     1       5.183  -2.092  -5.205  1.00  0.00     0.251 C 
ATOM     34  H   UNL     1       4.342  -2.347  -3.401  1.00  0.00     0.163 HD
ATOM     35  O   UNL     1       5.489  -3.274  -5.329  1.00  0.00    -0.269 OA
BRANCH  33  36
ATOM     36  C   UNL     1       5.558  -1.116  -6.251  1.00  0.00     0.039 A 
ATOM     37  C   UNL     1       5.291  -1.418  -7.589  1.00  0.00     0.014 A 
ATOM     38  C   UNL     1       6.144   0.104  -5.907  1.00  0.00     0.014 A 
ATOM     39  C   UNL     1       5.533  -0.459  -8.577  1.00  0.00     0.010 A 
ATOM     40  C   UNL     1       6.321   1.081  -6.883  1.00  0.00     0.010 A 
ATOM     41  C   UNL     1       6.008   0.814  -8.225  1.00  0.00    -0.014 A 
BRANCH  41  42
ATOM     42  C   UNL     1       6.157   1.903  -9.226  1.00  0.00     0.031 A 
ATOM     43  C   UNL     1       7.511   2.502  -9.489  1.00  0.00     0.074 A 
ATOM     44  C   UNL     1       5.059   2.440  -9.796  1.00  0.00     0.049 A 
ATOM     45  N   UNL     1       7.822   3.559 -10.192  1.00  0.00    -0.248 NA
ATOM     46  C   UNL     1       8.663   1.845  -8.850  1.00  0.00     0.031 C 
ATOM     47  C   UNL     1       3.683   1.993  -9.572  1.00  0.00     0.029 A 
ATOM     48  N   UNL     1       4.925   3.508 -10.649  1.00  0.00    -0.354 N 
ATOM     49  C   UNL     1       9.193   3.724 -10.042  1.00  0.00     0.074 A 
ATOM     50  C   UNL     1       9.652   2.669  -9.165  1.00  0.00     0.031 C 
ATOM     51  C   UNL     1       2.845   2.785 -10.258  1.00  0.00     0.029 A 
ATOM     52  C   UNL     1       3.616   3.817 -10.944  1.00  0.00     0.049 A 
ATOM     53  H   UNL     1       5.691   4.006 -11.014  1.00  0.00     0.167 HD
ATOM     54  C   UNL     1      10.001   4.654 -10.604  1.00  0.00     0.034 A 
ATOM     55  C   UNL     1       3.095   4.826 -11.669  1.00  0.00     0.034 A 
ATOM     56  C   UNL     1       9.553   5.662 -11.525  1.00  0.00     0.049 A 
ATOM     57  C   UNL     1       4.021   5.814 -12.325  1.00  0.00     0.074 A 
ATOM     58  C   UNL     1      10.309   6.595 -12.214  1.00  0.00     0.029 A 
ATOM     59  N   UNL     1       8.233   5.868 -11.893  1.00  0.00    -0.354 N 
ATOM     60  N   UNL     1       5.329   5.869 -12.282  1.00  0.00    -0.248 NA
ATOM     61  C   UNL     1       3.403   6.859 -13.156  1.00  0.00     0.031 C 
ATOM     62  C   UNL     1       9.444   7.369 -12.993  1.00  0.00     0.029 A 
ATOM     63  C   UNL     1       8.152   6.910 -12.800  1.00  0.00     0.049 A 
ATOM     64  H   UNL     1       7.466   5.349 -11.559  1.00  0.00     0.167 HD
ATOM     65  C   UNL     1       5.694   6.923 -13.112  1.00  0.00     0.074 A 
ATOM     66  C   UNL     1       4.469   7.475 -13.652  1.00  0.00     0.031 C 
ATOM     67  C   UNL     1       6.932   7.399 -13.389  1.00  0.00     0.034 A 
BRANCH  54  68
ATOM     68  C   UNL     1      11.471   4.590 -10.285  1.00  0.00     0.023 A 
ATOM     69  C   UNL     1      12.258   3.569 -10.854  1.00  0.00     0.012 A 
ATOM     70  C   UNL     1      12.084   5.571  -9.482  1.00  0.00     0.148 A 
ATOM     71  C   UNL     1      13.628   3.506 -10.605  1.00  0.00     0.002 A 
ATOM     72  C   UNL     1      13.458   5.527  -9.273  1.00  0.00     0.091 A 
ATOM     73  F   UNL     1      11.315   6.520  -8.930  1.00  0.00    -0.205 F 
ATOM     74  C   UNL     1      14.229   4.490  -9.824  1.00  0.00     0.022 A 
BRANCH  72  75
ATOM     75  S   UNL     1      14.334   6.795  -8.349  1.00  0.00     0.127 S 
ATOM     76  O   UNL     1      14.621   6.101  -7.095  1.00  0.00    -0.237 OA
ATOM     77  O   UNL     1      15.504   7.040  -9.192  1.00  0.00    -0.237 OA
ATOM     78  O   UNL     1      13.414   7.920  -8.249  1.00  0.00    -0.744 OA
ENDBRANCH  72  75
ENDBRANCH  54  68
BRANCH  55  79
ATOM     79  C   UNL     1       1.620   4.910 -11.870  1.00  0.00     0.023 A 
ATOM     80  C   UNL     1       1.082   4.610 -13.136  1.00  0.00     0.012 A 
ATOM     81  C   UNL     1       0.750   5.244 -10.815  1.00  0.00     0.148 A 
ATOM     82  C   UNL     1      -0.295   4.666 -13.356  1.00  0.00     0.002 A 
ATOM     83  C   UNL     1      -0.625   5.248 -11.027  1.00  0.00     0.091 A 
ATOM     84  F   UNL     1       1.282   5.542  -9.621  1.00  0.00    -0.205 F 
ATOM     85  C   UNL     1      -1.148   4.974 -12.300  1.00  0.00     0.022 A 
BRANCH  83  86
ATOM     86  S   UNL     1      -1.798   5.502  -9.690  1.00  0.00     0.127 S 
ATOM     87  O   UNL     1      -2.254   6.865  -9.947  1.00  0.00    -0.237 OA
ATOM     88  O   UNL     1      -2.791   4.459  -9.953  1.00  0.00    -0.237 OA
ATOM     89  O   UNL     1      -1.037   5.304  -8.463  1.00  0.00    -0.744 OA
ENDBRANCH  83  86
ENDBRANCH  55  79
BRANCH  67  90
ATOM     90  C   UNL     1       7.048   8.544 -14.359  1.00  0.00     0.023 A 
ATOM     91  C   UNL     1       6.716   9.848 -13.944  1.00  0.00     0.012 A 
ATOM     92  C   UNL     1       7.586   8.339 -15.645  1.00  0.00     0.148 A 
ATOM     93  C   UNL     1       6.903  10.931 -14.802  1.00  0.00     0.002 A 
ATOM     94  C   UNL     1       7.810   9.428 -16.479  1.00  0.00     0.091 A 
ATOM     95  F   UNL     1       7.876   7.086 -16.025  1.00  0.00    -0.205 F 
ATOM     96  C   UNL     1       7.462  10.724 -16.062  1.00  0.00     0.022 A 
BRANCH  94  97
ATOM     97  S   UNL     1       8.610   9.266 -18.079  1.00  0.00     0.127 S 
ATOM     98  O   UNL     1       7.488   9.471 -18.994  1.00  0.00    -0.237 OA
ATOM     99  O   UNL     1       9.583  10.359 -18.053  1.00  0.00    -0.237 OA
ATOM    100  O   UNL     1       9.198   7.934 -18.100  1.00  0.00    -0.744 OA
ENDBRANCH  94  97
ENDBRANCH  67  90
ENDBRANCH  41  42
ENDBRANCH  33  36
ENDBRANCH  31  32
ENDBRANCH   1  31
TORSDOF 16
