REMARK SMILES CC1(C)[C@H](C(=O)NCCCNC(=O)c2ccc(-c3c4nc(c(-c5cccc(S(=O)(=O)[O-])c5F)c5ccc([nH]5)c(-c5cccc(S(=O)(=O)[O-])c5F)c5nc(c(-c6cccc(S(=O)(=O)[O-])c6F)c6ccc3[nH]6)C=C5)C=C4)cc2)[C@H]1C(=O)Nc1cccc2[nH]ccc12
REMARK SMILES IDX 9 1 8 2 7 3 5 4 6 5 4 7 1 8 2 9 3 10 77 11 78 12 79 13 80 14
REMARK SMILES IDX 81 16 82 17 89 18 83 19 85 20 88 21 84 22 86 23 87 24 10 26
REMARK SMILES IDX 11 27 12 28 13 30 14 31 15 32 76 33 16 34 75 35 17 36 18 37
REMARK SMILES IDX 19 38 69 39 20 40 74 41 68 42 70 43 21 44 73 45 67 46 66 47
REMARK SMILES IDX 22 49 54 50 34 51 53 52 35 53 38 54 52 55 71 56 36 57 37 58
REMARK SMILES IDX 51 60 72 61 39 62 23 63 24 64 32 65 25 66 27 67 33 68 26 69
REMARK SMILES IDX 28 70 29 71 30 72 31 73 55 74 56 75 64 76 57 77 59 78 65 79
REMARK SMILES IDX 58 80 60 81 61 82 62 83 63 84 40 85 41 86 49 87 42 88 44 89
REMARK SMILES IDX 50 90 43 91 45 92 46 93 47 94 48 95
REMARK H PARENT 7 6 80 15 86 25 11 29 70 48 38 59
REMARK Flexibility Score: inf
ROOT
ATOM      1  C   UNL     1      -0.646   4.056  -0.648  1.00  0.00     0.042 C 
ENDROOT
BRANCH   1   2
ATOM      2  C   UNL     1      -1.814   3.180  -0.205  1.00  0.00     0.117 C 
BRANCH   2   3
ATOM      3  N   UNL     1      -2.162   2.200  -1.206  1.00  0.00    -0.356 N 
ATOM      4  C   UNL     1      -1.823   0.899  -1.431  1.00  0.00     0.224 C 
ATOM      5  O   UNL     1      -2.384   0.377  -2.401  1.00  0.00    -0.275 OA
ATOM      6  H   UNL     1      -2.788   2.551  -1.880  1.00  0.00     0.163 HD
BRANCH   4   7
ATOM      7  C   UNL     1      -0.892   0.036  -0.655  1.00  0.00     0.098 C 
ATOM      8  C   UNL     1       1.558  -0.464  -0.322  1.00  0.00     0.013 C 
ATOM      9  C   UNL     1       0.387   0.371   0.123  1.00  0.00    -0.011 C 
ATOM     10  C   UNL     1       0.909   1.642   0.734  1.00  0.00     0.013 C 
ATOM     11  C   UNL     1      -0.887  -0.151   0.817  1.00  0.00     0.098 C 
BRANCH  11  12
ATOM     12  C   UNL     1      -0.928  -1.383   1.663  1.00  0.00     0.228 C 
ATOM     13  O   UNL     1      -0.923  -1.216   2.884  1.00  0.00    -0.274 OA
ATOM     14  N   UNL     1      -1.248  -2.635   1.195  1.00  0.00    -0.325 N 
ATOM     15  H   UNL     1      -1.846  -3.158   1.776  1.00  0.00     0.169 HD
BRANCH  14  16
ATOM     16  C   UNL     1      -0.854  -3.278   0.020  1.00  0.00     0.050 A 
ATOM     17  C   UNL     1      -1.852  -3.803  -0.808  1.00  0.00     0.027 A 
ATOM     18  C   UNL     1       0.496  -3.569  -0.284  1.00  0.00     0.023 A 
ATOM     19  C   UNL     1      -1.524  -4.409  -2.020  1.00  0.00     0.004 A 
ATOM     20  C   UNL     1       0.795  -4.109  -1.538  1.00  0.00     0.047 A 
ATOM     21  C   UNL     1       1.734  -3.502   0.422  1.00  0.00     0.030 A 
ATOM     22  C   UNL     1      -0.195  -4.514  -2.438  1.00  0.00     0.027 A 
ATOM     23  N   UNL     1       2.167  -4.114  -1.663  1.00  0.00    -0.361 N 
ATOM     24  C   UNL     1       2.746  -3.798  -0.464  1.00  0.00     0.083 A 
ATOM     25  H   UNL     1       2.658  -4.316  -2.492  1.00  0.00     0.166 HD
ENDBRANCH  14  16
ENDBRANCH  11  12
ENDBRANCH   4   7
ENDBRANCH   2   3
ENDBRANCH   1   2
BRANCH   1  26
ATOM     26  C   UNL     1      -1.027   5.172  -1.612  1.00  0.00     0.118 C 
BRANCH  26  27
ATOM     27  N   UNL     1      -1.838   6.200  -0.977  1.00  0.00    -0.352 N 
ATOM     28  C   UNL     1      -1.540   7.503  -0.661  1.00  0.00     0.251 C 
ATOM     29  H   UNL     1      -2.748   5.915  -0.734  1.00  0.00     0.163 HD
ATOM     30  O   UNL     1      -2.298   8.123   0.082  1.00  0.00    -0.269 OA
BRANCH  28  31
ATOM     31  C   UNL     1      -0.328   8.167  -1.196  1.00  0.00     0.039 A 
ATOM     32  C   UNL     1       0.367   9.067  -0.380  1.00  0.00     0.014 A 
ATOM     33  C   UNL     1       0.095   7.961  -2.511  1.00  0.00     0.014 A 
ATOM     34  C   UNL     1       1.505   9.718  -0.866  1.00  0.00     0.010 A 
ATOM     35  C   UNL     1       1.277   8.540  -2.964  1.00  0.00     0.010 A 
ATOM     36  C   UNL     1       1.986   9.441  -2.155  1.00  0.00    -0.014 A 
BRANCH  36  37
ATOM     37  C   UNL     1       3.204  10.100  -2.695  1.00  0.00     0.031 A 
ATOM     38  C   UNL     1       3.106  10.971  -3.922  1.00  0.00     0.074 A 
ATOM     39  C   UNL     1       4.407   9.847  -2.140  1.00  0.00     0.049 A 
ATOM     40  N   UNL     1       4.061  11.544  -4.607  1.00  0.00    -0.248 NA
ATOM     41  C   UNL     1       1.758  11.205  -4.469  1.00  0.00     0.031 C 
ATOM     42  C   UNL     1       4.642   8.971  -0.990  1.00  0.00     0.029 A 
ATOM     43  N   UNL     1       5.662  10.280  -2.487  1.00  0.00    -0.354 N 
ATOM     44  C   UNL     1       3.438  12.169  -5.681  1.00  0.00     0.074 A 
ATOM     45  C   UNL     1       2.026  11.875  -5.580  1.00  0.00     0.031 C 
ATOM     46  C   UNL     1       5.959   8.932  -0.728  1.00  0.00     0.029 A 
ATOM     47  C   UNL     1       6.665   9.751  -1.707  1.00  0.00     0.049 A 
ATOM     48  H   UNL     1       5.830  10.910  -3.225  1.00  0.00     0.167 HD
ATOM     49  C   UNL     1       3.984  12.946  -6.647  1.00  0.00     0.034 A 
ATOM     50  C   UNL     1       8.002   9.901  -1.780  1.00  0.00     0.034 A 
ATOM     51  C   UNL     1       5.380  13.282  -6.713  1.00  0.00     0.049 A 
ATOM     52  C   UNL     1       8.578  10.800  -2.842  1.00  0.00     0.074 A 
ATOM     53  C   UNL     1       6.022  14.118  -7.608  1.00  0.00     0.029 A 
ATOM     54  N   UNL     1       6.348  12.805  -5.844  1.00  0.00    -0.354 N 
ATOM     55  N   UNL     1       7.955  11.490  -3.767  1.00  0.00    -0.248 NA
ATOM     56  C   UNL     1      10.038  10.972  -2.849  1.00  0.00     0.031 C 
ATOM     57  C   UNL     1       7.383  14.137  -7.288  1.00  0.00     0.029 A 
ATOM     58  C   UNL     1       7.583  13.330  -6.180  1.00  0.00     0.049 A 
ATOM     59  H   UNL     1       6.182  12.184  -5.098  1.00  0.00     0.167 HD
ATOM     60  C   UNL     1       8.939  12.211  -4.433  1.00  0.00     0.074 A 
ATOM     61  C   UNL     1      10.198  11.887  -3.796  1.00  0.00     0.031 C 
ATOM     62  C   UNL     1       8.815  13.053  -5.488  1.00  0.00     0.034 A 
BRANCH  49  63
ATOM     63  C   UNL     1       3.060  13.546  -7.675  1.00  0.00     0.023 A 
ATOM     64  C   UNL     1       2.186  14.586  -7.296  1.00  0.00     0.012 A 
ATOM     65  C   UNL     1       3.103  13.138  -9.023  1.00  0.00     0.148 A 
ATOM     66  C   UNL     1       1.348  15.188  -8.233  1.00  0.00     0.002 A 
ATOM     67  C   UNL     1       2.297  13.774  -9.960  1.00  0.00     0.091 A 
ATOM     68  F   UNL     1       3.928  12.137  -9.362  1.00  0.00    -0.205 F 
ATOM     69  C   UNL     1       1.411  14.791  -9.565  1.00  0.00     0.022 A 
BRANCH  67  70
ATOM     70  S   UNL     1       2.358  13.393 -11.715  1.00  0.00     0.127 S 
ATOM     71  O   UNL     1       1.051  12.772 -11.928  1.00  0.00    -0.237 OA
ATOM     72  O   UNL     1       2.505  14.721 -12.312  1.00  0.00    -0.237 OA
ATOM     73  O   UNL     1       3.503  12.512 -11.897  1.00  0.00    -0.744 OA
ENDBRANCH  67  70
ENDBRANCH  49  63
BRANCH  50  74
ATOM     74  C   UNL     1       8.890   9.239  -0.781  1.00  0.00     0.023 A 
ATOM     75  C   UNL     1       9.576  10.030   0.162  1.00  0.00     0.012 A 
ATOM     76  C   UNL     1       9.057   7.842  -0.752  1.00  0.00     0.148 A 
ATOM     77  C   UNL     1      10.444   9.447   1.086  1.00  0.00     0.002 A 
ATOM     78  C   UNL     1       9.880   7.261   0.207  1.00  0.00     0.091 A 
ATOM     79  F   UNL     1       8.408   7.104  -1.665  1.00  0.00    -0.205 F 
ATOM     80  C   UNL     1      10.588   8.063   1.115  1.00  0.00     0.022 A 
BRANCH  78  81
ATOM     81  S   UNL     1      10.021   5.481   0.396  1.00  0.00     0.127 S 
ATOM     82  O   UNL     1      11.337   5.221  -0.182  1.00  0.00    -0.237 OA
ATOM     83  O   UNL     1       9.944   5.320   1.849  1.00  0.00    -0.237 OA
ATOM     84  O   UNL     1       8.886   4.922  -0.326  1.00  0.00    -0.744 OA
ENDBRANCH  78  81
ENDBRANCH  50  74
BRANCH  62  85
ATOM     85  C   UNL     1      10.059  13.734  -5.992  1.00  0.00     0.023 A 
ATOM     86  C   UNL     1      11.016  13.001  -6.720  1.00  0.00     0.012 A 
ATOM     87  C   UNL     1      10.234  15.121  -5.817  1.00  0.00     0.148 A 
ATOM     88  C   UNL     1      12.144  13.633  -7.242  1.00  0.00     0.002 A 
ATOM     89  C   UNL     1      11.334  15.753  -6.382  1.00  0.00     0.091 A 
ATOM     90  F   UNL     1       9.319  15.797  -5.105  1.00  0.00    -0.205 F 
ATOM     91  C   UNL     1      12.296  15.009  -7.085  1.00  0.00     0.022 A 
BRANCH  89  92
ATOM     92  S   UNL     1      11.562  17.534  -6.316  1.00  0.00     0.127 S 
ATOM     93  O   UNL     1      12.674  17.657  -5.375  1.00  0.00    -0.237 OA
ATOM     94  O   UNL     1      11.899  17.855  -7.703  1.00  0.00    -0.237 OA
ATOM     95  O   UNL     1      10.293  18.084  -5.860  1.00  0.00    -0.744 OA
ENDBRANCH  89  92
ENDBRANCH  62  85
ENDBRANCH  36  37
ENDBRANCH  28  31
ENDBRANCH  26  27
ENDBRANCH   1  26
TORSDOF 15
