REMARK SMILES CC[N@@H+](C)Cc1cc2c(cc1Cl)C=C(C(=O)NCCCNC(=O)c1ccc(-c3c4nc(c(-c5cccc(S(=O)(=O)[O-])c5F)c5ccc([nH]5)c(-c5cccc(S(=O)(=O)[O-])c5F)c5nc(c(-c6cccc(S(=O)(=O)[O-])c6F)c6ccc3[nH]6)C=C5)C=C4)cc1)[C@@H](C(F)(F)F)O2
REMARK SMILES IDX 19 1 18 2 17 3 15 4 16 5 14 7 6 8 7 9 11 10 8 11 10 12 12 13
REMARK SMILES IDX 9 14 92 15 13 16 87 17 5 18 3 19 4 20 2 22 1 23 88 24 89 25
REMARK SMILES IDX 90 26 91 27 20 28 21 29 22 30 23 32 24 33 25 34 86 35 26 36
REMARK SMILES IDX 85 37 27 38 28 39 29 40 79 41 30 42 84 43 78 44 80 45 31 46
REMARK SMILES IDX 83 47 77 48 76 49 32 51 64 52 44 53 63 54 45 55 48 56 62 57
REMARK SMILES IDX 81 58 46 59 47 60 61 62 82 63 49 64 33 65 34 66 42 67 35 68
REMARK SMILES IDX 37 69 43 70 36 71 38 72 39 73 40 74 41 75 65 76 66 77 74 78
REMARK SMILES IDX 67 79 69 80 75 81 68 82 70 83 71 84 72 85 73 86 50 87 51 88
REMARK SMILES IDX 59 89 52 90 54 91 60 92 53 93 55 94 56 95 57 96 58 97
REMARK H PARENT 17 6 3 21 21 31 80 50 48 61
REMARK Flexibility Score: inf
ROOT
ATOM      1  C   UNL     1       3.374   7.428  -4.508  1.00  0.00     0.042 C 
ENDROOT
BRANCH   1   2
ATOM      2  C   UNL     1       2.530   6.543  -5.413  1.00  0.00     0.118 C 
BRANCH   2   3
ATOM      3  N   UNL     1       3.341   5.748  -6.323  1.00  0.00    -0.352 N 
ATOM      4  C   UNL     1       3.799   4.476  -6.384  1.00  0.00     0.251 C 
ATOM      5  O   UNL     1       4.461   4.198  -7.389  1.00  0.00    -0.270 OA
ATOM      6  H   UNL     1       3.635   6.276  -7.100  1.00  0.00     0.163 HD
BRANCH   4   7
ATOM      7  C   UNL     1       3.554   3.429  -5.354  1.00  0.00     0.067 C 
ATOM      8  C   UNL     1       3.101  -0.831  -2.747  1.00  0.00     0.029 A 
ATOM      9  C   UNL     1       3.078   0.531  -2.412  1.00  0.00     0.058 A 
ATOM     10  C   UNL     1       3.591  -1.186  -4.018  1.00  0.00     0.050 A 
ATOM     11  C   UNL     1       3.378   1.497  -3.361  1.00  0.00     0.128 A 
ATOM     12  C   UNL     1       3.963  -0.203  -4.949  1.00  0.00     0.033 A 
ATOM     13  Cl  UNL     1       3.746  -2.834  -4.519  1.00  0.00    -0.084 Cl
ATOM     14  C   UNL     1       3.817   1.147  -4.635  1.00  0.00     0.019 A 
ATOM     15  O   UNL     1       3.176   2.800  -2.996  1.00  0.00    -0.475 OA
ATOM     16  C   UNL     1       4.082   2.212  -5.598  1.00  0.00     0.025 C 
ATOM     17  C   UNL     1       2.751   3.647  -4.101  1.00  0.00     0.314 C 
BRANCH   8  18
ATOM     18  C   UNL     1       2.538  -1.825  -1.747  1.00  0.00     0.300 C 
BRANCH  18  19
ATOM     19  N   UNL     1       1.063  -1.915  -1.666  1.00  0.00    -0.334 N 
ATOM     20  C   UNL     1       0.467  -2.336  -2.935  1.00  0.00     0.333 C 
ATOM     21  H   UNL     1       0.921  -2.637  -0.960  1.00  0.00     0.348 HD
BRANCH  19  22
ATOM     22  C   UNL     1       0.365  -0.733  -1.144  1.00  0.00     0.258 C 
ATOM     23  C   UNL     1       0.738  -0.369   0.290  1.00  0.00     0.071 C 
ENDBRANCH  19  22
ENDBRANCH  18  19
ENDBRANCH   8  18
BRANCH  17  24
ATOM     24  C   UNL     1       1.230   3.499  -4.336  1.00  0.00     0.429 C 
ATOM     25  F   UNL     1       0.534   4.040  -3.305  1.00  0.00    -0.167 F 
ATOM     26  F   UNL     1       0.816   4.135  -5.458  1.00  0.00    -0.167 F 
ATOM     27  F   UNL     1       0.832   2.212  -4.458  1.00  0.00    -0.167 F 
ENDBRANCH  17  24
ENDBRANCH   4   7
ENDBRANCH   2   3
ENDBRANCH   1   2
BRANCH   1  28
ATOM     28  C   UNL     1       3.856   8.691  -5.210  1.00  0.00     0.118 C 
BRANCH  28  29
ATOM     29  N   UNL     1       2.754   9.590  -5.547  1.00  0.00    -0.352 N 
ATOM     30  C   UNL     1       2.498  10.875  -5.132  1.00  0.00     0.251 C 
ATOM     31  H   UNL     1       2.089   9.215  -6.169  1.00  0.00     0.163 HD
ATOM     32  O   UNL     1       1.404  11.380  -5.369  1.00  0.00    -0.269 OA
BRANCH  30  33
ATOM     33  C   UNL     1       3.527  11.629  -4.387  1.00  0.00     0.039 A 
ATOM     34  C   UNL     1       4.866  11.549  -4.766  1.00  0.00     0.014 A 
ATOM     35  C   UNL     1       3.154  12.411  -3.290  1.00  0.00     0.014 A 
ATOM     36  C   UNL     1       5.846  12.078  -3.937  1.00  0.00     0.010 A 
ATOM     37  C   UNL     1       4.139  13.035  -2.517  1.00  0.00     0.010 A 
ATOM     38  C   UNL     1       5.497  12.827  -2.802  1.00  0.00    -0.014 A 
BRANCH  38  39
ATOM     39  C   UNL     1       6.579  13.369  -1.939  1.00  0.00     0.031 A 
ATOM     40  C   UNL     1       6.718  12.931  -0.504  1.00  0.00     0.074 A 
ATOM     41  C   UNL     1       7.489  14.203  -2.483  1.00  0.00     0.049 A 
ATOM     42  N   UNL     1       7.633  13.268   0.368  1.00  0.00    -0.248 NA
ATOM     43  C   UNL     1       5.708  11.999   0.028  1.00  0.00     0.031 C 
ATOM     44  C   UNL     1       7.456  14.705  -3.860  1.00  0.00     0.029 A 
ATOM     45  N   UNL     1       8.636  14.748  -1.963  1.00  0.00    -0.354 N 
ATOM     46  C   UNL     1       7.286  12.633   1.555  1.00  0.00     0.074 A 
ATOM     47  C   UNL     1       6.077  11.884   1.298  1.00  0.00     0.031 C 
ATOM     48  C   UNL     1       8.566  15.418  -4.098  1.00  0.00     0.029 A 
ATOM     49  C   UNL     1       9.358  15.482  -2.876  1.00  0.00     0.049 A 
ATOM     50  H   UNL     1       8.915  14.626  -1.027  1.00  0.00     0.167 HD
ATOM     51  C   UNL     1       7.932  12.653   2.744  1.00  0.00     0.034 A 
ATOM     52  C   UNL     1      10.528  16.136  -2.747  1.00  0.00     0.034 A 
ATOM     53  C   UNL     1       9.173  13.337   2.978  1.00  0.00     0.049 A 
ATOM     54  C   UNL     1      11.226  16.126  -1.419  1.00  0.00     0.074 A 
ATOM     55  C   UNL     1       9.917  13.382   4.145  1.00  0.00     0.029 A 
ATOM     56  N   UNL     1       9.862  14.075   2.031  1.00  0.00    -0.354 N 
ATOM     57  N   UNL     1      10.903  15.476  -0.328  1.00  0.00    -0.248 NA
ATOM     58  C   UNL     1      12.446  16.937  -1.301  1.00  0.00     0.031 C 
ATOM     59  C   UNL     1      11.060  14.147   3.902  1.00  0.00     0.029 A 
ATOM     60  C   UNL     1      11.026  14.577   2.585  1.00  0.00     0.049 A 
ATOM     61  H   UNL     1       9.568  14.222   1.103  1.00  0.00     0.167 HD
ATOM     62  C   UNL     1      11.883  15.790   0.603  1.00  0.00     0.074 A 
ATOM     63  C   UNL     1      12.826  16.670  -0.058  1.00  0.00     0.031 C 
ATOM     64  C   UNL     1      11.979  15.405   1.897  1.00  0.00     0.034 A 
BRANCH  51  65
ATOM     65  C   UNL     1       7.356  11.867   3.889  1.00  0.00     0.023 A 
ATOM     66  C   UNL     1       7.630  10.489   3.977  1.00  0.00     0.012 A 
ATOM     67  C   UNL     1       6.680  12.514   4.942  1.00  0.00     0.148 A 
ATOM     68  C   UNL     1       7.240   9.763   5.102  1.00  0.00     0.002 A 
ATOM     69  C   UNL     1       6.318  11.789   6.071  1.00  0.00     0.091 A 
ATOM     70  F   UNL     1       6.432  13.826   4.828  1.00  0.00    -0.205 F 
ATOM     71  C   UNL     1       6.596  10.414   6.151  1.00  0.00     0.022 A 
BRANCH  69  72
ATOM     72  S   UNL     1       5.533  12.537   7.503  1.00  0.00     0.127 S 
ATOM     73  O   UNL     1       4.276  11.791   7.573  1.00  0.00    -0.237 OA
ATOM     74  O   UNL     1       6.486  12.228   8.568  1.00  0.00    -0.237 OA
ATOM     75  O   UNL     1       5.388  13.952   7.192  1.00  0.00    -0.744 OA
ENDBRANCH  69  72
ENDBRANCH  51  65
BRANCH  52  76
ATOM     76  C   UNL     1      11.132  16.811  -3.927  1.00  0.00     0.023 A 
ATOM     77  C   UNL     1      12.276  16.252  -4.527  1.00  0.00     0.012 A 
ATOM     78  C   UNL     1      10.553  17.965  -4.488  1.00  0.00     0.148 A 
ATOM     79  C   UNL     1      12.840  16.837  -5.661  1.00  0.00     0.002 A 
ATOM     80  C   UNL     1      11.092  18.516  -5.644  1.00  0.00     0.091 A 
ATOM     81  F   UNL     1       9.475  18.490  -3.888  1.00  0.00    -0.205 F 
ATOM     82  C   UNL     1      12.242  17.960  -6.226  1.00  0.00     0.022 A 
BRANCH  80  83
ATOM     83  S   UNL     1      10.316  19.890  -6.503  1.00  0.00     0.127 S 
ATOM     84  O   UNL     1      11.230  20.986  -6.198  1.00  0.00    -0.237 OA
ATOM     85  O   UNL     1      10.342  19.432  -7.893  1.00  0.00    -0.237 OA
ATOM     86  O   UNL     1       8.979  20.000  -5.935  1.00  0.00    -0.744 OA
ENDBRANCH  80  83
ENDBRANCH  52  76
BRANCH  64  87
ATOM     87  C   UNL     1      13.139  15.915   2.699  1.00  0.00     0.023 A 
ATOM     88  C   UNL     1      13.076  17.211   3.244  1.00  0.00     0.012 A 
ATOM     89  C   UNL     1      14.219  15.071   3.021  1.00  0.00     0.148 A 
ATOM     90  C   UNL     1      14.078  17.664   4.100  1.00  0.00     0.002 A 
ATOM     91  C   UNL     1      15.197  15.518   3.900  1.00  0.00     0.091 A 
ATOM     92  F   UNL     1      14.253  13.845   2.480  1.00  0.00    -0.205 F 
ATOM     93  C   UNL     1      15.130  16.815   4.437  1.00  0.00     0.022 A 
BRANCH  91  94
ATOM     94  S   UNL     1      16.550  14.475   4.454  1.00  0.00     0.127 S 
ATOM     95  O   UNL     1      17.706  15.153   3.869  1.00  0.00    -0.237 OA
ATOM     96  O   UNL     1      16.448  14.586   5.909  1.00  0.00    -0.237 OA
ATOM     97  O   UNL     1      16.279  13.145   3.924  1.00  0.00    -0.744 OA
ENDBRANCH  91  94
ENDBRANCH  64  87
ENDBRANCH  38  39
ENDBRANCH  30  33
ENDBRANCH  28  29
ENDBRANCH   1  28
TORSDOF 17
