REMARK SMILES O=C(/C=C/C(=O)c1ccc(F)c(Br)c1)NCCCNC(=O)c1ccc(-c2c3nc(c(-c4cccc(S(=O)(=O)[O-])c4F)c4ccc([nH]4)c(-c4cccc(S(=O)(=O)[O-])c4F)c4nc(c(-c5cccc(S(=O)(=O)[O-])c5F)c5ccc2[nH]5)C=C4)C=C3)cc1
REMARK SMILES IDX 17 1 16 2 15 3 1 4 2 5 3 7 4 8 5 9 6 10 7 11 8 12 14 13 9 14
REMARK SMILES IDX 12 15 10 16 13 17 11 18 18 19 19 20 20 21 21 23 22 24 23 25
REMARK SMILES IDX 84 26 24 27 83 28 25 29 26 30 27 31 77 32 28 33 82 34 76 35
REMARK SMILES IDX 78 36 29 37 81 38 75 39 74 40 30 42 62 43 42 44 61 45 43 46
REMARK SMILES IDX 46 47 60 48 79 49 44 50 45 51 59 53 80 54 47 55 31 56 32 57
REMARK SMILES IDX 40 58 33 59 35 60 41 61 34 62 36 63 37 64 38 65 39 66 63 67
REMARK SMILES IDX 64 68 72 69 65 70 67 71 73 72 66 73 68 74 69 75 70 76 71 77
REMARK SMILES IDX 48 78 49 79 57 80 50 81 52 82 58 83 51 84 53 85 54 86 55 87
REMARK SMILES IDX 56 88
REMARK H PARENT 15 6 19 22 78 41 46 52
REMARK Flexibility Score: inf
ROOT
ATOM      1  C   UNL     1       2.405   3.192  -1.233  1.00  0.00     0.042 C 
ENDROOT
BRANCH   1   2
ATOM      2  C   UNL     1       2.151   1.740  -1.621  1.00  0.00     0.118 C 
BRANCH   2   3
ATOM      3  N   UNL     1       2.843   0.809  -0.750  1.00  0.00    -0.352 N 
ATOM      4  O   UNL     1       0.965   0.078   0.348  1.00  0.00    -0.270 OA
ATOM      5  C   UNL     1       2.183   0.062   0.184  1.00  0.00     0.244 C 
ATOM      6  H   UNL     1       3.819   0.712  -0.834  1.00  0.00     0.163 HD
BRANCH   5   7
ATOM      7  C   UNL     1       2.999  -0.826   1.048  1.00  0.00     0.075 C 
ATOM      8  C   UNL     1       4.307  -1.091   0.928  1.00  0.00     0.058 C 
BRANCH   8   9
ATOM      9  C   UNL     1       5.059  -2.002   1.831  1.00  0.00     0.186 C 
ATOM     10  O   UNL     1       6.271  -1.859   1.951  1.00  0.00    -0.289 OA
BRANCH   9  11
ATOM     11  C   UNL     1       4.375  -3.088   2.574  1.00  0.00     0.023 A 
ATOM     12  C   UNL     1       3.366  -3.863   1.985  1.00  0.00     0.015 A 
ATOM     13  C   UNL     1       4.804  -3.367   3.879  1.00  0.00     0.031 A 
ATOM     14  C   UNL     1       2.751  -4.878   2.719  1.00  0.00     0.041 A 
ATOM     15  C   UNL     1       4.189  -4.389   4.604  1.00  0.00     0.054 A 
ATOM     16  C   UNL     1       3.162  -5.133   4.025  1.00  0.00     0.137 A 
ATOM     17  Br  UNL     1       4.762  -4.756   6.368  1.00  0.00    -0.048 Br
ATOM     18  F   UNL     1       2.555  -6.116   4.707  1.00  0.00    -0.206 F 
ENDBRANCH   9  11
ENDBRANCH   8   9
ENDBRANCH   5   7
ENDBRANCH   2   3
ENDBRANCH   1   2
BRANCH   1  19
ATOM     19  C   UNL     1       3.868   3.622  -1.305  1.00  0.00     0.118 C 
BRANCH  19  20
ATOM     20  N   UNL     1       4.434   3.501  -2.641  1.00  0.00    -0.352 N 
ATOM     21  C   UNL     1       5.122   4.415  -3.400  1.00  0.00     0.251 C 
ATOM     22  H   UNL     1       4.302   2.624  -3.069  1.00  0.00     0.163 HD
ATOM     23  O   UNL     1       5.381   4.138  -4.569  1.00  0.00    -0.269 OA
BRANCH  21  24
ATOM     24  C   UNL     1       5.539   5.723  -2.842  1.00  0.00     0.039 A 
ATOM     25  C   UNL     1       5.474   6.850  -3.667  1.00  0.00     0.014 A 
ATOM     26  C   UNL     1       6.038   5.845  -1.543  1.00  0.00     0.014 A 
ATOM     27  C   UNL     1       5.875   8.098  -3.180  1.00  0.00     0.010 A 
ATOM     28  C   UNL     1       6.360   7.103  -1.032  1.00  0.00     0.010 A 
ATOM     29  C   UNL     1       6.305   8.240  -1.851  1.00  0.00    -0.014 A 
BRANCH  29  30
ATOM     30  C   UNL     1       6.728   9.564  -1.322  1.00  0.00     0.031 A 
ATOM     31  C   UNL     1       8.146   9.782  -0.858  1.00  0.00     0.074 A 
ATOM     32  C   UNL     1       5.827  10.560  -1.208  1.00  0.00     0.049 A 
ATOM     33  N   UNL     1       8.695  10.861  -0.362  1.00  0.00    -0.248 NA
ATOM     34  C   UNL     1       9.061   8.631  -0.939  1.00  0.00     0.031 C 
ATOM     35  C   UNL     1       4.406  10.459  -1.547  1.00  0.00     0.029 A 
ATOM     36  N   UNL     1       5.968  11.849  -0.756  1.00  0.00    -0.354 N 
ATOM     37  C   UNL     1      10.002  10.511  -0.041  1.00  0.00     0.074 A 
ATOM     38  C   UNL     1      10.153   9.109  -0.361  1.00  0.00     0.031 C 
ATOM     39  C   UNL     1       3.810  11.637  -1.303  1.00  0.00     0.029 A 
ATOM     40  C   UNL     1       4.796  12.570  -0.765  1.00  0.00     0.049 A 
ATOM     41  H   UNL     1       6.827  12.223  -0.454  1.00  0.00     0.167 HD
ATOM     42  C   UNL     1      10.998  11.290   0.446  1.00  0.00     0.034 A 
ATOM     43  C   UNL     1       4.543  13.838  -0.385  1.00  0.00     0.034 A 
ATOM     44  C   UNL     1      10.860  12.694   0.724  1.00  0.00     0.049 A 
ATOM     45  C   UNL     1       5.678  14.695   0.108  1.00  0.00     0.074 A 
ATOM     46  C   UNL     1      11.831  13.588   1.142  1.00  0.00     0.029 A 
ATOM     47  N   UNL     1       9.678  13.409   0.619  1.00  0.00    -0.354 N 
ATOM     48  N   UNL     1       6.943  14.386   0.257  1.00  0.00    -0.248 NA
ATOM     49  C   UNL     1       5.358  16.091   0.442  1.00  0.00     0.031 C 
ATOM     50  C   UNL     1      11.228  14.838   1.315  1.00  0.00     0.029 A 
ATOM     51  C   UNL     1       9.891  14.732   0.968  1.00  0.00     0.049 A 
ATOM     52  H   UNL     1       8.813  13.032   0.338  1.00  0.00     0.167 HD
ATOM     53  C   UNL     1       7.577  15.557   0.656  1.00  0.00     0.074 A 
ATOM     54  C   UNL     1       6.559  16.586   0.710  1.00  0.00     0.031 C 
ATOM     55  C   UNL     1       8.883  15.760   0.961  1.00  0.00     0.034 A 
BRANCH  42  56
ATOM     56  C   UNL     1      12.346  10.649   0.663  1.00  0.00     0.023 A 
ATOM     57  C   UNL     1      13.122  10.263  -0.450  1.00  0.00     0.012 A 
ATOM     58  C   UNL     1      12.869  10.480   1.960  1.00  0.00     0.148 A 
ATOM     59  C   UNL     1      14.377   9.682  -0.276  1.00  0.00     0.002 A 
ATOM     60  C   UNL     1      14.142   9.945   2.124  1.00  0.00     0.091 A 
ATOM     61  F   UNL     1      12.111  10.835   3.007  1.00  0.00    -0.205 F 
ATOM     62  C   UNL     1      14.891   9.534   1.010  1.00  0.00     0.022 A 
BRANCH  60  63
ATOM     63  S   UNL     1      14.928   9.790   3.732  1.00  0.00     0.127 S 
ATOM     64  O   UNL     1      14.929   8.339   3.920  1.00  0.00    -0.237 OA
ATOM     65  O   UNL     1      16.248  10.373   3.486  1.00  0.00    -0.237 OA
ATOM     66  O   UNL     1      14.096  10.540   4.661  1.00  0.00    -0.744 OA
ENDBRANCH  60  63
ENDBRANCH  42  56
BRANCH  43  67
ATOM     67  C   UNL     1       3.169  14.399  -0.525  1.00  0.00     0.023 A 
ATOM     68  C   UNL     1       2.920  15.390  -1.494  1.00  0.00     0.012 A 
ATOM     69  C   UNL     1       2.108  13.948   0.284  1.00  0.00     0.148 A 
ATOM     70  C   UNL     1       1.649  15.949  -1.631  1.00  0.00     0.002 A 
ATOM     71  C   UNL     1       0.832  14.468   0.105  1.00  0.00     0.091 A 
ATOM     72  F   UNL     1       2.368  13.010   1.206  1.00  0.00    -0.205 F 
ATOM     73  C   UNL     1       0.604  15.483  -0.838  1.00  0.00     0.022 A 
BRANCH  71  74
ATOM     74  S   UNL     1      -0.599  13.838   0.989  1.00  0.00     0.127 S 
ATOM     75  O   UNL     1      -0.919  14.956   1.874  1.00  0.00    -0.237 OA
ATOM     76  O   UNL     1      -1.553  13.620  -0.099  1.00  0.00    -0.237 OA
ATOM     77  O   UNL     1      -0.149  12.619   1.647  1.00  0.00    -0.744 OA
ENDBRANCH  71  74
ENDBRANCH  43  67
BRANCH  55  78
ATOM     78  C   UNL     1       9.309  17.160   1.324  1.00  0.00     0.023 A 
ATOM     79  C   UNL     1       8.921  17.722   2.555  1.00  0.00     0.012 A 
ATOM     80  C   UNL     1      10.154  17.892   0.465  1.00  0.00     0.148 A 
ATOM     81  C   UNL     1       9.334  19.007   2.909  1.00  0.00     0.002 A 
ATOM     82  C   UNL     1      10.604  19.150   0.848  1.00  0.00     0.091 A 
ATOM     83  F   UNL     1      10.497  17.349  -0.712  1.00  0.00    -0.205 F 
ATOM     84  C   UNL     1      10.183  19.715   2.062  1.00  0.00     0.022 A 
BRANCH  82  85
ATOM     85  S   UNL     1      11.780  20.087  -0.134  1.00  0.00     0.127 S 
ATOM     86  O   UNL     1      10.929  21.130  -0.704  1.00  0.00    -0.237 OA
ATOM     87  O   UNL     1      12.725  20.559   0.880  1.00  0.00    -0.237 OA
ATOM     88  O   UNL     1      12.345  19.145  -1.091  1.00  0.00    -0.744 OA
ENDBRANCH  82  85
ENDBRANCH  55  78
ENDBRANCH  29  30
ENDBRANCH  21  24
ENDBRANCH  19  20
ENDBRANCH   1  19
TORSDOF 15
