REMARK SMILES CCCc1c(C(=O)NCCCNC(=O)c2ccc(-c3c4nc(c(-c5cccc(S(=O)(=O)[O-])c5F)c5ccc([nH]5)c(-c5cccc(S(=O)(=O)[O-])c5F)c5nc(c(-c6cccc(S(=O)(=O)[O-])c6F)c6ccc3[nH]6)C=C5)C=C4)cc2)nnn1[C@@H](C)[C@H](C)O
REMARK SMILES IDX 10 1 9 2 8 3 6 4 7 5 5 7 4 8 80 9 78 10 79 11 3 12 2 13 1 14
REMARK SMILES IDX 81 15 82 16 83 17 84 18 85 19 11 21 12 22 13 23 14 25 15 26
REMARK SMILES IDX 16 27 77 28 17 29 76 30 18 31 19 32 20 33 70 34 21 35 75 36
REMARK SMILES IDX 69 37 71 38 22 39 74 40 68 41 67 42 23 44 55 45 35 46 54 47
REMARK SMILES IDX 36 48 39 49 53 50 72 51 37 52 38 53 52 55 73 56 40 57 24 58
REMARK SMILES IDX 25 59 33 60 26 61 28 62 34 63 27 64 29 65 30 66 31 67 32 68
REMARK SMILES IDX 56 69 57 70 65 71 58 72 60 73 66 74 59 75 61 76 62 77 63 78
REMARK SMILES IDX 64 79 41 80 42 81 50 82 43 83 45 84 51 85 44 86 46 87 47 88
REMARK SMILES IDX 48 89 49 90
REMARK H PARENT 8 6 85 20 12 24 71 43 39 54
REMARK Flexibility Score: inf
ROOT
ATOM      1  C   UNL     1      -4.041  10.160   4.456  1.00  0.00     0.042 C 
ENDROOT
BRANCH   1   2
ATOM      2  C   UNL     1      -4.269   8.951   3.568  1.00  0.00     0.118 C 
BRANCH   2   3
ATOM      3  N   UNL     1      -5.060   9.095   2.382  1.00  0.00    -0.351 N 
ATOM      4  C   UNL     1      -5.145   8.148   1.378  1.00  0.00     0.273 C 
ATOM      5  O   UNL     1      -6.140   8.150   0.654  1.00  0.00    -0.267 OA
ATOM      6  H   UNL     1      -5.579   9.925   2.275  1.00  0.00     0.163 HD
BRANCH   4   7
ATOM      7  C   UNL     1      -4.024   7.236   1.126  1.00  0.00     0.173 A 
ATOM      8  C   UNL     1      -3.254   6.352   1.897  1.00  0.00     0.072 A 
ATOM      9  N   UNL     1      -2.240   6.020   1.004  1.00  0.00    -0.243 N 
ATOM     10  N   UNL     1      -3.588   7.164  -0.187  1.00  0.00    -0.125 NA
ATOM     11  N   UNL     1      -2.523   6.395  -0.247  1.00  0.00    -0.066 NA
BRANCH   8  12
ATOM     12  C   UNL     1      -3.184   5.761   3.278  1.00  0.00     0.058 C 
BRANCH  12  13
ATOM     13  C   UNL     1      -4.316   5.770   4.293  1.00  0.00     0.003 C 
ATOM     14  C   UNL     1      -5.716   5.507   3.784  1.00  0.00     0.004 C 
ENDBRANCH  12  13
ENDBRANCH   8  12
BRANCH   9  15
ATOM     15  C   UNL     1      -1.018   5.246   1.240  1.00  0.00     0.135 C 
ATOM     16  C   UNL     1      -1.158   3.873   0.584  1.00  0.00     0.036 C 
BRANCH  15  17
ATOM     17  C   UNL     1       0.238   6.054   0.829  1.00  0.00     0.135 C 
ATOM     18  C   UNL     1       1.485   5.200   0.617  1.00  0.00     0.040 C 
BRANCH  17  19
ATOM     19  O   UNL     1       0.539   7.011   1.859  1.00  0.00    -0.391 OA
ATOM     20  H   UNL     1       0.749   6.545   2.683  1.00  0.00     0.211 HD
ENDBRANCH  17  19
ENDBRANCH  15  17
ENDBRANCH   9  15
ENDBRANCH   4   7
ENDBRANCH   2   3
ENDBRANCH   1   2
BRANCH   1  21
ATOM     21  C   UNL     1      -5.169  10.334   5.463  1.00  0.00     0.118 C 
BRANCH  21  22
ATOM     22  N   UNL     1      -5.282   9.263   6.477  1.00  0.00    -0.352 N 
ATOM     23  C   UNL     1      -6.174   9.208   7.551  1.00  0.00     0.251 C 
ATOM     24  H   UNL     1      -4.659   8.506   6.385  1.00  0.00     0.163 HD
ATOM     25  O   UNL     1      -6.118   8.353   8.404  1.00  0.00    -0.269 OA
BRANCH  23  26
ATOM     26  C   UNL     1      -7.200  10.273   7.588  1.00  0.00     0.039 A 
ATOM     27  C   UNL     1      -7.128  11.293   8.540  1.00  0.00     0.014 A 
ATOM     28  C   UNL     1      -7.930  10.419   6.423  1.00  0.00     0.014 A 
ATOM     29  C   UNL     1      -7.646  12.552   8.219  1.00  0.00     0.010 A 
ATOM     30  C   UNL     1      -8.230  11.705   6.040  1.00  0.00     0.010 A 
ATOM     31  C   UNL     1      -8.128  12.789   6.925  1.00  0.00    -0.014 A 
BRANCH  31  32
ATOM     32  C   UNL     1      -8.387  14.153   6.427  1.00  0.00     0.031 A 
ATOM     33  C   UNL     1      -7.432  15.260   6.781  1.00  0.00     0.074 A 
ATOM     34  C   UNL     1      -9.280  14.413   5.443  1.00  0.00     0.049 A 
ATOM     35  N   UNL     1      -7.707  16.360   7.410  1.00  0.00    -0.248 NA
ATOM     36  C   UNL     1      -6.019  15.149   6.390  1.00  0.00     0.031 C 
ATOM     37  C   UNL     1     -10.142  13.478   4.705  1.00  0.00     0.029 A 
ATOM     38  N   UNL     1      -9.448  15.573   4.750  1.00  0.00    -0.354 N 
ATOM     39  C   UNL     1      -6.565  17.164   7.338  1.00  0.00     0.074 A 
ATOM     40  C   UNL     1      -5.524  16.322   6.801  1.00  0.00     0.031 C 
ATOM     41  C   UNL     1     -10.432  13.999   3.496  1.00  0.00     0.029 A 
ATOM     42  C   UNL     1     -10.013  15.383   3.497  1.00  0.00     0.049 A 
ATOM     43  H   UNL     1      -9.194  16.457   5.101  1.00  0.00     0.167 HD
ATOM     44  C   UNL     1      -6.597  18.511   7.565  1.00  0.00     0.034 A 
ATOM     45  C   UNL     1     -10.131  16.296   2.511  1.00  0.00     0.034 A 
ATOM     46  C   UNL     1      -7.859  18.944   8.104  1.00  0.00     0.049 A 
ATOM     47  C   UNL     1     -10.133  17.625   3.156  1.00  0.00     0.074 A 
ATOM     48  C   UNL     1      -8.625  18.628   9.208  1.00  0.00     0.029 A 
ATOM     49  N   UNL     1      -8.704  19.635   7.267  1.00  0.00    -0.354 N 
ATOM     50  N   UNL     1     -11.062  18.012   3.989  1.00  0.00    -0.248 NA
ATOM     51  C   UNL     1      -8.893  18.378   3.208  1.00  0.00     0.031 C 
ATOM     52  C   UNL     1      -9.970  18.654   8.729  1.00  0.00     0.029 A 
ATOM     53  C   UNL     1      -9.925  19.027   7.383  1.00  0.00     0.049 A 
ATOM     54  H   UNL     1      -8.477  20.407   6.700  1.00  0.00     0.167 HD
ATOM     55  C   UNL     1     -10.381  18.732   4.961  1.00  0.00     0.074 A 
ATOM     56  C   UNL     1      -9.086  19.039   4.354  1.00  0.00     0.031 C 
ATOM     57  C   UNL     1     -10.805  18.761   6.264  1.00  0.00     0.034 A 
BRANCH  44  58
ATOM     58  C   UNL     1      -5.609  19.537   7.058  1.00  0.00     0.023 A 
ATOM     59  C   UNL     1      -5.623  20.821   7.657  1.00  0.00     0.012 A 
ATOM     60  C   UNL     1      -4.864  19.396   5.870  1.00  0.00     0.148 A 
ATOM     61  C   UNL     1      -4.960  21.914   7.085  1.00  0.00     0.002 A 
ATOM     62  C   UNL     1      -4.142  20.468   5.347  1.00  0.00     0.091 A 
ATOM     63  F   UNL     1      -4.952  18.264   5.163  1.00  0.00    -0.205 F 
ATOM     64  C   UNL     1      -4.208  21.735   5.933  1.00  0.00     0.022 A 
BRANCH  62  65
ATOM     65  S   UNL     1      -3.099  20.257   3.900  1.00  0.00     0.127 S 
ATOM     66  O   UNL     1      -3.999  20.663   2.826  1.00  0.00    -0.237 OA
ATOM     67  O   UNL     1      -1.999  21.185   4.171  1.00  0.00    -0.237 OA
ATOM     68  O   UNL     1      -2.710  18.852   3.935  1.00  0.00    -0.744 OA
ENDBRANCH  62  65
ENDBRANCH  44  58
BRANCH  45  69
ATOM     69  C   UNL     1     -10.070  16.063   1.057  1.00  0.00     0.023 A 
ATOM     70  C   UNL     1     -10.710  16.943   0.170  1.00  0.00     0.012 A 
ATOM     71  C   UNL     1      -9.193  15.088   0.524  1.00  0.00     0.148 A 
ATOM     72  C   UNL     1     -10.477  16.863  -1.208  1.00  0.00     0.002 A 
ATOM     73  C   UNL     1      -8.972  15.007  -0.847  1.00  0.00     0.091 A 
ATOM     74  F   UNL     1      -8.514  14.298   1.369  1.00  0.00    -0.205 F 
ATOM     75  C   UNL     1      -9.608  15.899  -1.717  1.00  0.00     0.022 A 
BRANCH  73  76
ATOM     76  S   UNL     1      -7.860  13.787  -1.559  1.00  0.00     0.127 S 
ATOM     77  O   UNL     1      -8.614  13.334  -2.729  1.00  0.00    -0.237 OA
ATOM     78  O   UNL     1      -6.682  14.594  -1.863  1.00  0.00    -0.237 OA
ATOM     79  O   UNL     1      -7.689  12.772  -0.526  1.00  0.00    -0.744 OA
ENDBRANCH  73  76
ENDBRANCH  45  69
BRANCH  57  80
ATOM     80  C   UNL     1     -12.144  18.147   6.616  1.00  0.00     0.023 A 
ATOM     81  C   UNL     1     -12.403  16.778   6.392  1.00  0.00     0.012 A 
ATOM     82  C   UNL     1     -13.063  18.880   7.387  1.00  0.00     0.148 A 
ATOM     83  C   UNL     1     -13.547  16.158   6.900  1.00  0.00     0.002 A 
ATOM     84  C   UNL     1     -14.183  18.252   7.928  1.00  0.00     0.091 A 
ATOM     85  F   UNL     1     -12.808  20.178   7.615  1.00  0.00    -0.205 F 
ATOM     86  C   UNL     1     -14.431  16.893   7.681  1.00  0.00     0.022 A 
BRANCH  84  87
ATOM     87  S   UNL     1     -15.293  19.105   9.053  1.00  0.00     0.127 S 
ATOM     88  O   UNL     1     -16.427  19.416   8.187  1.00  0.00    -0.237 OA
ATOM     89  O   UNL     1     -15.563  18.086  10.070  1.00  0.00    -0.237 OA
ATOM     90  O   UNL     1     -14.546  20.253   9.553  1.00  0.00    -0.744 OA
ENDBRANCH  84  87
ENDBRANCH  57  80
ENDBRANCH  31  32
ENDBRANCH  23  26
ENDBRANCH  21  22
ENDBRANCH   1  21
TORSDOF 18
