REMARK SMILES Cn1cc(S(=O)(=O)N[C@@H]2C=C[C@@H](C(=O)NCCCNC(=O)c3ccc(-c4c5nc(c(-c6cccc(S(=O)(=O)[O-])c6F)c6ccc([nH]6)c(-c6cccc(S(=O)(=O)[O-])c6F)c6nc(c(-c7cccc(S(=O)(=O)[O-])c7F)c7ccc4[nH]7)C=C6)C=C5)cc3)C2)cc1C(N)=O
REMARK SMILES IDX 16 1 15 2 13 3 14 4 12 6 9 7 10 8 85 9 11 10 8 11 5 13 6 14
REMARK SMILES IDX 7 15 4 16 1 17 2 18 3 19 87 20 86 21 88 22 89 23 90 24 17 27
REMARK SMILES IDX 18 28 19 29 20 30 21 32 22 33 23 34 84 35 24 36 83 37 25 38
REMARK SMILES IDX 26 39 27 40 77 41 28 42 82 43 76 44 78 45 29 46 81 47 75 48
REMARK SMILES IDX 74 49 30 51 62 52 42 53 61 54 43 55 46 56 60 57 79 58 44 59
REMARK SMILES IDX 45 60 59 62 80 63 47 64 31 65 32 66 40 67 33 68 35 69 41 70
REMARK SMILES IDX 34 71 36 72 37 73 38 74 39 75 63 76 64 77 72 78 65 79 67 80
REMARK SMILES IDX 73 81 66 82 68 83 69 84 70 85 71 86 48 87 49 88 57 89 50 90
REMARK SMILES IDX 52 91 58 92 51 93 53 94 54 95 55 96 56 97
REMARK H PARENT 15 5 8 12 89 25 89 26 19 31 78 50 46 61
REMARK Flexibility Score: inf
ROOT
ATOM      1  C   UNL     1      -4.009  -2.826  -1.583  1.00  0.00     0.117 C 
ENDROOT
BRANCH   1   2
ATOM      2  N   UNL     1      -3.246  -3.621  -0.634  1.00  0.00    -0.356 N 
ATOM      3  C   UNL     1      -3.148  -3.547   0.723  1.00  0.00     0.226 C 
ATOM      4  O   UNL     1      -2.473  -4.410   1.292  1.00  0.00    -0.274 OA
ATOM      5  H   UNL     1      -2.708  -4.337  -1.043  1.00  0.00     0.163 HD
BRANCH   3   6
ATOM      6  C   UNL     1      -3.838  -2.451   1.539  1.00  0.00     0.103 C 
ATOM      7  C   UNL     1      -4.525  -0.109   1.198  1.00  0.00     0.093 C 
ATOM      8  C   UNL     1      -5.644  -1.076   0.986  1.00  0.00    -0.011 C 
ATOM      9  C   UNL     1      -3.298  -1.040   1.264  1.00  0.00     0.042 C 
ATOM     10  C   UNL     1      -5.298  -2.344   1.231  1.00  0.00    -0.016 C 
BRANCH   7  11
ATOM     11  N   UNL     1      -4.688   0.574   2.495  1.00  0.00    -0.204 NA
ATOM     12  H   UNL     1      -4.807  -0.147   3.206  1.00  0.00     0.142 HD
BRANCH  11  13
ATOM     13  S   UNL     1      -5.974   1.663   2.659  1.00  0.00     0.242 S 
ATOM     14  O   UNL     1      -6.127   2.377   1.414  1.00  0.00    -0.207 OA
ATOM     15  O   UNL     1      -5.798   2.333   3.928  1.00  0.00    -0.207 OA
BRANCH  13  16
ATOM     16  C   UNL     1      -7.446   0.781   2.852  1.00  0.00     0.100 A 
ATOM     17  C   UNL     1     -10.976   0.186   2.373  1.00  0.00     0.150 C 
ATOM     18  N   UNL     1      -9.561   0.123   2.675  1.00  0.00    -0.345 N 
ATOM     19  C   UNL     1      -8.705   1.177   2.461  1.00  0.00     0.107 A 
ATOM     20  C   UNL     1      -8.857  -0.977   3.138  1.00  0.00     0.107 A 
ATOM     21  C   UNL     1      -7.563  -0.526   3.378  1.00  0.00     0.055 A 
BRANCH  20  22
ATOM     22  C   UNL     1      -9.391  -2.314   3.305  1.00  0.00     0.265 C 
ATOM     23  N   UNL     1      -8.459  -3.313   3.298  1.00  0.00    -0.364 N 
ATOM     24  O   UNL     1     -10.581  -2.596   3.399  1.00  0.00    -0.268 OA
ATOM     25  H   UNL     1      -7.503  -3.094   3.223  1.00  0.00     0.160 HD
ATOM     26  H   UNL     1      -8.745  -4.253   3.369  1.00  0.00     0.160 HD
ENDBRANCH  20  22
ENDBRANCH  13  16
ENDBRANCH  11  13
ENDBRANCH   7  11
ENDBRANCH   3   6
ENDBRANCH   1   2
BRANCH   1  27
ATOM     27  C   UNL     1      -3.124  -2.085  -2.570  1.00  0.00     0.042 C 
BRANCH  27  28
ATOM     28  C   UNL     1      -2.483  -3.002  -3.597  1.00  0.00     0.118 C 
BRANCH  28  29
ATOM     29  N   UNL     1      -3.463  -3.578  -4.511  1.00  0.00    -0.352 N 
ATOM     30  C   UNL     1      -3.614  -3.393  -5.865  1.00  0.00     0.251 C 
ATOM     31  H   UNL     1      -4.114  -4.189  -4.097  1.00  0.00     0.163 HD
ATOM     32  O   UNL     1      -4.627  -3.800  -6.426  1.00  0.00    -0.269 OA
BRANCH  30  33
ATOM     33  C   UNL     1      -2.563  -2.695  -6.634  1.00  0.00     0.039 A 
ATOM     34  C   UNL     1      -2.930  -1.752  -7.599  1.00  0.00     0.014 A 
ATOM     35  C   UNL     1      -1.214  -2.971  -6.400  1.00  0.00     0.014 A 
ATOM     36  C   UNL     1      -1.941  -1.036  -8.277  1.00  0.00     0.010 A 
ATOM     37  C   UNL     1      -0.236  -2.194  -7.006  1.00  0.00     0.010 A 
ATOM     38  C   UNL     1      -0.587  -1.228  -7.959  1.00  0.00    -0.014 A 
BRANCH  38  39
ATOM     39  C   UNL     1       0.497  -0.459  -8.620  1.00  0.00     0.031 A 
ATOM     40  C   UNL     1       1.543  -1.193  -9.416  1.00  0.00     0.074 A 
ATOM     41  C   UNL     1       0.609   0.867  -8.408  1.00  0.00     0.049 A 
ATOM     42  N   UNL     1       2.657  -0.743  -9.930  1.00  0.00    -0.248 NA
ATOM     43  C   UNL     1       1.326  -2.635  -9.628  1.00  0.00     0.031 C 
ATOM     44  C   UNL     1      -0.303   1.678  -7.598  1.00  0.00     0.029 A 
ATOM     45  N   UNL     1       1.559   1.761  -8.833  1.00  0.00    -0.354 N 
ATOM     46  C   UNL     1       3.294  -1.849 -10.480  1.00  0.00     0.074 A 
ATOM     47  C   UNL     1       2.459  -2.998 -10.210  1.00  0.00     0.031 C 
ATOM     48  C   UNL     1       0.131   2.949  -7.587  1.00  0.00     0.029 A 
ATOM     49  C   UNL     1       1.364   3.039  -8.362  1.00  0.00     0.049 A 
ATOM     50  H   UNL     1       2.309   1.512  -9.419  1.00  0.00     0.167 HD
ATOM     51  C   UNL     1       4.451  -1.900 -11.181  1.00  0.00     0.034 A 
ATOM     52  C   UNL     1       2.100   4.154  -8.535  1.00  0.00     0.034 A 
ATOM     53  C   UNL     1       5.237  -0.745 -11.514  1.00  0.00     0.049 A 
ATOM     54  C   UNL     1       3.343   4.083  -9.381  1.00  0.00     0.074 A 
ATOM     55  C   UNL     1       6.392  -0.678 -12.271  1.00  0.00     0.029 A 
ATOM     56  N   UNL     1       4.934   0.551 -11.128  1.00  0.00    -0.354 N 
ATOM     57  N   UNL     1       3.865   3.047  -9.992  1.00  0.00    -0.248 NA
ATOM     58  C   UNL     1       4.079   5.338  -9.591  1.00  0.00     0.031 C 
ATOM     59  C   UNL     1       6.781   0.663 -12.355  1.00  0.00     0.029 A 
ATOM     60  C   UNL     1       5.868   1.429 -11.647  1.00  0.00     0.049 A 
ATOM     61  H   UNL     1       4.167   0.809 -10.566  1.00  0.00     0.167 HD
ATOM     62  C   UNL     1       4.965   3.531 -10.689  1.00  0.00     0.074 A 
ATOM     63  C   UNL     1       5.025   4.956 -10.439  1.00  0.00     0.031 C 
ATOM     64  C   UNL     1       5.859   2.855 -11.451  1.00  0.00     0.034 A 
BRANCH  51  65
ATOM     65  C   UNL     1       4.885  -3.240 -11.709  1.00  0.00     0.023 A 
ATOM     66  C   UNL     1       4.197  -3.799 -12.806  1.00  0.00     0.012 A 
ATOM     67  C   UNL     1       5.988  -3.924 -11.162  1.00  0.00     0.148 A 
ATOM     68  C   UNL     1       4.580  -5.031 -13.332  1.00  0.00     0.002 A 
ATOM     69  C   UNL     1       6.387  -5.135 -11.717  1.00  0.00     0.091 A 
ATOM     70  F   UNL     1       6.613  -3.390 -10.103  1.00  0.00    -0.205 F 
ATOM     71  C   UNL     1       5.680  -5.694 -12.795  1.00  0.00     0.022 A 
BRANCH  69  72
ATOM     72  S   UNL     1       7.833  -6.031 -11.139  1.00  0.00     0.127 S 
ATOM     73  O   UNL     1       7.221  -7.128 -10.391  1.00  0.00    -0.237 OA
ATOM     74  O   UNL     1       8.473  -6.431 -12.393  1.00  0.00    -0.237 OA
ATOM     75  O   UNL     1       8.600  -5.080 -10.346  1.00  0.00    -0.744 OA
ENDBRANCH  69  72
ENDBRANCH  51  65
BRANCH  52  76
ATOM     76  C   UNL     1       1.632   5.452  -7.973  1.00  0.00     0.023 A 
ATOM     77  C   UNL     1       1.137   6.437  -8.850  1.00  0.00     0.012 A 
ATOM     78  C   UNL     1       1.645   5.712  -6.590  1.00  0.00     0.148 A 
ATOM     79  C   UNL     1       0.692   7.667  -8.364  1.00  0.00     0.002 A 
ATOM     80  C   UNL     1       1.153   6.921  -6.107  1.00  0.00     0.091 A 
ATOM     81  F   UNL     1       2.136   4.774  -5.767  1.00  0.00    -0.205 F 
ATOM     82  C   UNL     1       0.690   7.905  -6.993  1.00  0.00     0.022 A 
BRANCH  80  83
ATOM     83  S   UNL     1       1.002   7.236  -4.345  1.00  0.00     0.127 S 
ATOM     84  O   UNL     1       2.238   7.958  -4.059  1.00  0.00    -0.237 OA
ATOM     85  O   UNL     1      -0.215   8.046  -4.272  1.00  0.00    -0.237 OA
ATOM     86  O   UNL     1       0.871   5.917  -3.739  1.00  0.00    -0.744 OA
ENDBRANCH  80  83
ENDBRANCH  52  76
BRANCH  64  87
ATOM     87  C   UNL     1       6.956   3.646 -12.108  1.00  0.00     0.023 A 
ATOM     88  C   UNL     1       8.054   4.078 -11.341  1.00  0.00     0.012 A 
ATOM     89  C   UNL     1       6.941   3.878 -13.497  1.00  0.00     0.148 A 
ATOM     90  C   UNL     1       9.116   4.749 -11.945  1.00  0.00     0.002 A 
ATOM     91  C   UNL     1       8.021   4.514 -14.098  1.00  0.00     0.091 A 
ATOM     92  F   UNL     1       5.874   3.478 -14.204  1.00  0.00    -0.205 F 
ATOM     93  C   UNL     1       9.106   4.955 -13.323  1.00  0.00     0.022 A 
BRANCH  91  94
ATOM     94  S   UNL     1       8.126   4.741 -15.877  1.00  0.00     0.127 S 
ATOM     95  O   UNL     1       7.771   6.152 -16.019  1.00  0.00    -0.237 OA
ATOM     96  O   UNL     1       9.530   4.435 -16.152  1.00  0.00    -0.237 OA
ATOM     97  O   UNL     1       7.182   3.792 -16.453  1.00  0.00    -0.744 OA
ENDBRANCH  91  94
ENDBRANCH  64  87
ENDBRANCH  38  39
ENDBRANCH  30  33
ENDBRANCH  28  29
ENDBRANCH  27  28
ENDBRANCH   1  27
TORSDOF 17
