REMARK SMILES Cc1c(C(=O)NCCCNC(=O)c2ccc(-c3c4nc(c(-c5cccc(S(=O)(=O)[O-])c5F)c5ccc([nH]5)c(-c5cccc(S(=O)(=O)[O-])c5F)c5nc(c(-c6cccc(S(=O)(=O)[O-])c6F)c6ccc3[nH]6)C=C5)C=C4)cc2)cnc2nc(CO)nn12
REMARK SMILES IDX 8 1 7 2 6 3 4 4 5 5 3 7 1 8 2 9 84 10 76 11 78 12 83 13
REMARK SMILES IDX 77 14 79 15 80 16 81 17 82 18 9 20 10 21 11 22 12 24 13 25
REMARK SMILES IDX 14 26 75 27 15 28 74 29 16 30 17 31 18 32 68 33 19 34 73 35
REMARK SMILES IDX 67 36 69 37 20 38 72 39 66 40 65 41 21 43 53 44 33 45 52 46
REMARK SMILES IDX 34 47 37 48 51 49 70 50 35 51 36 52 50 54 71 55 38 56 22 57
REMARK SMILES IDX 23 58 31 59 24 60 26 61 32 62 25 63 27 64 28 65 29 66 30 67
REMARK SMILES IDX 54 68 55 69 63 70 56 71 58 72 64 73 57 74 59 75 60 76 61 77
REMARK SMILES IDX 62 78 39 79 40 80 48 81 41 82 43 83 49 84 42 85 44 86 45 87
REMARK SMILES IDX 46 88 47 89
REMARK H PARENT 6 6 82 19 10 23 69 42 37 53
REMARK Flexibility Score: inf
ROOT
ATOM      1  C   UNL     1      -3.593   2.053   3.625  1.00  0.00     0.042 C 
ENDROOT
BRANCH   1   2
ATOM      2  C   UNL     1      -2.198   1.499   3.955  1.00  0.00     0.118 C 
BRANCH   2   3
ATOM      3  N   UNL     1      -1.825   0.428   3.043  1.00  0.00    -0.352 N 
ATOM      4  C   UNL     1      -1.117   0.355   1.885  1.00  0.00     0.254 C 
ATOM      5  O   UNL     1      -1.068  -0.755   1.359  1.00  0.00    -0.269 OA
ATOM      6  H   UNL     1      -2.164  -0.449   3.333  1.00  0.00     0.163 HD
BRANCH   4   7
ATOM      7  C   UNL     1      -0.418   1.526   1.270  1.00  0.00     0.079 A 
ATOM      8  C   UNL     1       1.203   0.095  -0.110  1.00  0.00     0.068 C 
ATOM      9  C   UNL     1       0.607   1.392   0.385  1.00  0.00     0.057 A 
ATOM     10  N   UNL     1       1.207   2.553  -0.139  1.00  0.00    -0.200 N 
ATOM     11  C   UNL     1      -0.836   2.945   1.486  1.00  0.00     0.131 A 
ATOM     12  C   UNL     1       0.789   3.838   0.231  1.00  0.00     0.252 A 
ATOM     13  N   UNL     1       2.234   2.668  -1.024  1.00  0.00    -0.147 NA
ATOM     14  N   UNL     1      -0.274   4.030   1.052  1.00  0.00    -0.219 NA
ATOM     15  N   UNL     1       1.530   4.737  -0.374  1.00  0.00    -0.191 NA
ATOM     16  C   UNL     1       2.355   3.992  -1.164  1.00  0.00     0.178 A 
BRANCH  16  17
ATOM     17  C   UNL     1       3.335   4.631  -2.094  1.00  0.00     0.235 C 
BRANCH  17  18
ATOM     18  O   UNL     1       4.702   4.357  -1.767  1.00  0.00    -0.388 OA
ATOM     19  H   UNL     1       4.902   4.715  -0.889  1.00  0.00     0.211 HD
ENDBRANCH  17  18
ENDBRANCH  16  17
ENDBRANCH   4   7
ENDBRANCH   2   3
ENDBRANCH   1   2
BRANCH   1  20
ATOM     20  C   UNL     1      -4.703   1.122   4.099  1.00  0.00     0.118 C 
BRANCH  20  21
ATOM     21  N   UNL     1      -4.831   1.136   5.549  1.00  0.00    -0.352 N 
ATOM     22  C   UNL     1      -5.769   0.528   6.351  1.00  0.00     0.251 C 
ATOM     23  H   UNL     1      -4.146   1.658   6.026  1.00  0.00     0.163 HD
ATOM     24  O   UNL     1      -5.908   0.928   7.500  1.00  0.00    -0.269 OA
BRANCH  22  25
ATOM     25  C   UNL     1      -6.601  -0.585   5.844  1.00  0.00     0.039 A 
ATOM     26  C   UNL     1      -7.889  -0.750   6.362  1.00  0.00     0.014 A 
ATOM     27  C   UNL     1      -6.097  -1.504   4.919  1.00  0.00     0.014 A 
ATOM     28  C   UNL     1      -8.672  -1.808   5.916  1.00  0.00     0.010 A 
ATOM     29  C   UNL     1      -6.900  -2.506   4.411  1.00  0.00     0.010 A 
ATOM     30  C   UNL     1      -8.177  -2.674   4.928  1.00  0.00    -0.014 A 
BRANCH  30  31
ATOM     31  C   UNL     1      -9.077  -3.637   4.311  1.00  0.00     0.031 A 
ATOM     32  C   UNL     1     -10.271  -3.002   3.701  1.00  0.00     0.074 A 
ATOM     33  C   UNL     1      -8.832  -4.955   4.168  1.00  0.00     0.049 A 
ATOM     34  N   UNL     1     -11.459  -2.978   4.205  1.00  0.00    -0.248 NA
ATOM     35  C   UNL     1     -10.104  -2.148   2.516  1.00  0.00     0.031 C 
ATOM     36  C   UNL     1      -7.600  -5.689   4.460  1.00  0.00     0.029 A 
ATOM     37  N   UNL     1      -9.630  -5.912   3.614  1.00  0.00    -0.354 N 
ATOM     38  C   UNL     1     -12.249  -2.348   3.253  1.00  0.00     0.074 A 
ATOM     39  C   UNL     1     -11.344  -1.674   2.359  1.00  0.00     0.031 C 
ATOM     40  C   UNL     1      -7.652  -6.904   3.868  1.00  0.00     0.029 A 
ATOM     41  C   UNL     1      -8.967  -7.092   3.281  1.00  0.00     0.049 A 
ATOM     42  H   UNL     1     -10.593  -5.781   3.461  1.00  0.00     0.167 HD
ATOM     43  C   UNL     1     -13.561  -2.682   3.117  1.00  0.00     0.034 A 
ATOM     44  C   UNL     1      -9.466  -8.113   2.535  1.00  0.00     0.034 A 
ATOM     45  C   UNL     1     -14.038  -3.446   4.244  1.00  0.00     0.049 A 
ATOM     46  C   UNL     1     -10.942  -8.036   2.661  1.00  0.00     0.074 A 
ATOM     47  C   UNL     1     -14.031  -3.265   5.614  1.00  0.00     0.029 A 
ATOM     48  N   UNL     1     -14.239  -4.792   4.043  1.00  0.00    -0.354 N 
ATOM     49  N   UNL     1     -11.579  -8.250   3.779  1.00  0.00    -0.248 NA
ATOM     50  C   UNL     1     -11.678  -7.297   1.647  1.00  0.00     0.031 C 
ATOM     51  C   UNL     1     -13.716  -4.549   6.146  1.00  0.00     0.029 A 
ATOM     52  C   UNL     1     -13.638  -5.448   5.082  1.00  0.00     0.049 A 
ATOM     53  H   UNL     1     -14.724  -5.205   3.292  1.00  0.00     0.167 HD
ATOM     54  C   UNL     1     -12.572  -7.282   3.789  1.00  0.00     0.074 A 
ATOM     55  C   UNL     1     -12.650  -6.796   2.413  1.00  0.00     0.031 C 
ATOM     56  C   UNL     1     -13.027  -6.751   4.960  1.00  0.00     0.034 A 
BRANCH  43  57
ATOM     57  C   UNL     1     -14.301  -2.693   1.804  1.00  0.00     0.023 A 
ATOM     58  C   UNL     1     -15.704  -2.846   1.851  1.00  0.00     0.012 A 
ATOM     59  C   UNL     1     -13.673  -2.866   0.551  1.00  0.00     0.148 A 
ATOM     60  C   UNL     1     -16.437  -3.199   0.715  1.00  0.00     0.002 A 
ATOM     61  C   UNL     1     -14.415  -3.138  -0.590  1.00  0.00     0.091 A 
ATOM     62  F   UNL     1     -12.340  -2.915   0.472  1.00  0.00    -0.205 F 
ATOM     63  C   UNL     1     -15.794  -3.335  -0.509  1.00  0.00     0.022 A 
BRANCH  61  64
ATOM     64  S   UNL     1     -13.633  -3.303  -2.199  1.00  0.00     0.127 S 
ATOM     65  O   UNL     1     -13.723  -4.743  -2.419  1.00  0.00    -0.237 OA
ATOM     66  O   UNL     1     -14.510  -2.487  -3.039  1.00  0.00    -0.237 OA
ATOM     67  O   UNL     1     -12.290  -2.762  -2.037  1.00  0.00    -0.744 OA
ENDBRANCH  61  64
ENDBRANCH  43  57
BRANCH  44  68
ATOM     68  C   UNL     1      -8.813  -8.986   1.520  1.00  0.00     0.023 A 
ATOM     69  C   UNL     1      -9.568 -10.023   0.924  1.00  0.00     0.012 A 
ATOM     70  C   UNL     1      -7.587  -8.643   0.911  1.00  0.00     0.148 A 
ATOM     71  C   UNL     1      -9.162 -10.632  -0.271  1.00  0.00     0.002 A 
ATOM     72  C   UNL     1      -7.180  -9.259  -0.271  1.00  0.00     0.091 A 
ATOM     73  F   UNL     1      -6.858  -7.647   1.427  1.00  0.00    -0.205 F 
ATOM     74  C   UNL     1      -7.974 -10.239  -0.877  1.00  0.00     0.022 A 
BRANCH  72  75
ATOM     75  S   UNL     1      -5.655  -8.792  -1.104  1.00  0.00     0.127 S 
ATOM     76  O   UNL     1      -5.118 -10.090  -1.517  1.00  0.00    -0.237 OA
ATOM     77  O   UNL     1      -6.147  -7.958  -2.196  1.00  0.00    -0.237 OA
ATOM     78  O   UNL     1      -4.851  -8.111  -0.096  1.00  0.00    -0.744 OA
ENDBRANCH  72  75
ENDBRANCH  44  68
BRANCH  56  79
ATOM     79  C   UNL     1     -12.662  -7.417   6.258  1.00  0.00     0.023 A 
ATOM     80  C   UNL     1     -11.344  -7.434   6.759  1.00  0.00     0.012 A 
ATOM     81  C   UNL     1     -13.720  -7.813   7.093  1.00  0.00     0.148 A 
ATOM     82  C   UNL     1     -11.093  -7.827   8.077  1.00  0.00     0.002 A 
ATOM     83  C   UNL     1     -13.471  -8.162   8.412  1.00  0.00     0.091 A 
ATOM     84  F   UNL     1     -14.964  -7.781   6.591  1.00  0.00    -0.205 F 
ATOM     85  C   UNL     1     -12.158  -8.172   8.909  1.00  0.00     0.022 A 
BRANCH  83  86
ATOM     86  S   UNL     1     -14.803  -8.501   9.564  1.00  0.00     0.127 S 
ATOM     87  O   UNL     1     -14.597  -9.918   9.860  1.00  0.00    -0.237 OA
ATOM     88  O   UNL     1     -14.495  -7.593  10.670  1.00  0.00    -0.237 OA
ATOM     89  O   UNL     1     -16.042  -8.191   8.860  1.00  0.00    -0.744 OA
ENDBRANCH  83  86
ENDBRANCH  56  79
ENDBRANCH  30  31
ENDBRANCH  22  25
ENDBRANCH  20  21
ENDBRANCH   1  20
TORSDOF 15
