REMARK SMILES COC(=O)c1ccc(Cl)c(-c2ccc(C(=O)NCCCNC(=O)c3ccc(-c4c5nc(c(-c6cccc(S(=O)(=O)[O-])c6F)c6ccc([nH]6)c(-c6cccc(S(=O)(=O)[O-])c6F)c6nc(c(-c7cccc(S(=O)(=O)[O-])c7F)c7ccc4[nH]7)C=C6)C=C5)cc3)c(F)c2)c1
REMARK SMILES IDX 19 1 18 2 17 3 15 4 16 5 14 7 11 8 12 9 89 10 13 11 87 12
REMARK SMILES IDX 88 13 10 14 5 15 6 16 90 17 7 18 8 19 9 20 3 21 4 22 2 23
REMARK SMILES IDX 1 24 20 25 21 26 22 27 23 29 24 30 25 31 86 32 26 33 85 34
REMARK SMILES IDX 27 35 28 36 29 37 79 38 30 39 84 40 78 41 80 42 31 43 83 44
REMARK SMILES IDX 77 45 76 46 32 48 64 49 44 50 63 51 45 52 48 53 62 54 81 55
REMARK SMILES IDX 46 56 47 57 61 59 82 60 49 61 33 62 34 63 42 64 35 65 37 66
REMARK SMILES IDX 43 67 36 68 38 69 39 70 40 71 41 72 65 73 66 74 74 75 67 76
REMARK SMILES IDX 69 77 75 78 68 79 70 80 71 81 72 82 73 83 50 84 51 85 59 86
REMARK SMILES IDX 52 87 54 88 60 89 53 90 55 91 56 92 57 93 58 94
REMARK H PARENT 17 6 21 28 80 47 48 58
REMARK Flexibility Score: inf
ROOT
ATOM      1  C   UNL     1       6.809  -3.473   8.844  1.00  0.00     0.042 C 
ENDROOT
BRANCH   1   2
ATOM      2  C   UNL     1       6.720  -4.634   7.853  1.00  0.00     0.118 C 
BRANCH   2   3
ATOM      3  N   UNL     1       5.975  -5.753   8.404  1.00  0.00    -0.352 N 
ATOM      4  C   UNL     1       4.688  -6.186   8.218  1.00  0.00     0.254 C 
ATOM      5  O   UNL     1       4.365  -7.237   8.777  1.00  0.00    -0.269 OA
ATOM      6  H   UNL     1       6.494  -6.306   9.032  1.00  0.00     0.163 HD
BRANCH   4   7
ATOM      7  C   UNL     1       3.689  -5.524   7.339  1.00  0.00     0.075 A 
ATOM      8  C   UNL     1       1.673  -4.453   5.645  1.00  0.00    -0.014 A 
ATOM      9  C   UNL     1       1.713  -5.823   5.922  1.00  0.00     0.010 A 
ATOM     10  C   UNL     1       2.630  -3.630   6.250  1.00  0.00     0.048 A 
ATOM     11  C   UNL     1       2.709  -6.350   6.758  1.00  0.00     0.017 A 
ATOM     12  C   UNL     1       3.601  -4.157   7.098  1.00  0.00     0.136 A 
ATOM     13  F   UNL     1       4.407  -3.270   7.683  1.00  0.00    -0.206 F 
BRANCH   8  14
ATOM     14  C   UNL     1       0.680  -3.851   4.749  1.00  0.00     0.001 A 
ATOM     15  C   UNL     1       0.262  -2.639   2.666  1.00  0.00     0.060 A 
ATOM     16  C   UNL     1      -1.064  -2.420   3.048  1.00  0.00     0.017 A 
ATOM     17  C   UNL     1       1.117  -3.367   3.501  1.00  0.00     0.026 A 
ATOM     18  C   UNL     1      -1.526  -2.928   4.264  1.00  0.00     0.022 A 
ATOM     19  C   UNL     1      -0.662  -3.633   5.112  1.00  0.00     0.048 A 
ATOM     20  Cl  UNL     1      -1.299  -4.175   6.626  1.00  0.00    -0.084 Cl
BRANCH  15  21
ATOM     21  C   UNL     1       0.827  -2.092   1.409  1.00  0.00     0.337 C 
ATOM     22  O   UNL     1       1.730  -2.619   0.791  1.00  0.00    -0.246 OA
BRANCH  21  23
ATOM     23  O   UNL     1       0.250  -0.894   1.141  1.00  0.00    -0.465 OA
ATOM     24  C   UNL     1       0.868  -0.188   0.065  1.00  0.00     0.282 C 
ENDBRANCH  21  23
ENDBRANCH  15  21
ENDBRANCH   8  14
ENDBRANCH   4   7
ENDBRANCH   2   3
ENDBRANCH   1   2
BRANCH   1  25
ATOM     25  C   UNL     1       7.833  -3.675   9.953  1.00  0.00     0.118 C 
BRANCH  25  26
ATOM     26  N   UNL     1       9.199  -3.609   9.456  1.00  0.00    -0.352 N 
ATOM     27  C   UNL     1      10.242  -2.810   9.852  1.00  0.00     0.251 C 
ATOM     28  H   UNL     1       9.407  -4.233   8.723  1.00  0.00     0.163 HD
ATOM     29  O   UNL     1      11.254  -2.764   9.155  1.00  0.00    -0.269 OA
BRANCH  27  30
ATOM     30  C   UNL     1      10.165  -2.005  11.094  1.00  0.00     0.039 A 
ATOM     31  C   UNL     1      10.753  -0.736  11.105  1.00  0.00     0.014 A 
ATOM     32  C   UNL     1       9.581  -2.508  12.260  1.00  0.00     0.014 A 
ATOM     33  C   UNL     1      10.727   0.037  12.270  1.00  0.00     0.010 A 
ATOM     34  C   UNL     1       9.491  -1.708  13.399  1.00  0.00     0.010 A 
ATOM     35  C   UNL     1      10.079  -0.436  13.423  1.00  0.00    -0.014 A 
BRANCH  35  36
ATOM     36  C   UNL     1      10.017   0.386  14.659  1.00  0.00     0.031 A 
ATOM     37  C   UNL     1      10.680  -0.091  15.925  1.00  0.00     0.074 A 
ATOM     38  C   UNL     1       9.299   1.527  14.663  1.00  0.00     0.049 A 
ATOM     39  N   UNL     1      10.696   0.470  17.106  1.00  0.00    -0.248 NA
ATOM     40  C   UNL     1      11.396  -1.377  15.867  1.00  0.00     0.031 C 
ATOM     41  C   UNL     1       8.540   2.048  13.525  1.00  0.00     0.029 A 
ATOM     42  N   UNL     1       9.067   2.439  15.663  1.00  0.00    -0.354 N 
ATOM     43  C   UNL     1      11.380  -0.408  17.938  1.00  0.00     0.074 A 
ATOM     44  C   UNL     1      11.746  -1.553  17.134  1.00  0.00     0.031 C 
ATOM     45  C   UNL     1       7.926   3.185  13.889  1.00  0.00     0.029 A 
ATOM     46  C   UNL     1       8.226   3.463  15.291  1.00  0.00     0.049 A 
ATOM     47  H   UNL     1       9.464   2.368  16.561  1.00  0.00     0.167 HD
ATOM     48  C   UNL     1      11.698  -0.261  19.245  1.00  0.00     0.034 A 
ATOM     49  C   UNL     1       7.744   4.505  15.998  1.00  0.00     0.034 A 
ATOM     50  C   UNL     1      11.395   0.912  20.018  1.00  0.00     0.049 A 
ATOM     51  C   UNL     1       8.183   4.686  17.426  1.00  0.00     0.074 A 
ATOM     52  C   UNL     1      11.783   1.206  21.313  1.00  0.00     0.029 A 
ATOM     53  N   UNL     1      10.633   1.980  19.575  1.00  0.00    -0.354 N 
ATOM     54  N   UNL     1       8.979   3.929  18.142  1.00  0.00    -0.248 NA
ATOM     55  C   UNL     1       7.694   5.879  18.133  1.00  0.00     0.031 C 
ATOM     56  C   UNL     1      11.236   2.443  21.661  1.00  0.00     0.029 A 
ATOM     57  C   UNL     1      10.528   2.931  20.574  1.00  0.00     0.049 A 
ATOM     58  H   UNL     1      10.225   2.052  18.681  1.00  0.00     0.167 HD
ATOM     59  C   UNL     1       9.108   4.566  19.371  1.00  0.00     0.074 A 
ATOM     60  C   UNL     1       8.327   5.783  19.296  1.00  0.00     0.031 C 
ATOM     61  C   UNL     1       9.796   4.166  20.468  1.00  0.00     0.034 A 
BRANCH  48  62
ATOM     62  C   UNL     1      12.478  -1.357  19.923  1.00  0.00     0.023 A 
ATOM     63  C   UNL     1      13.848  -1.514  19.632  1.00  0.00     0.012 A 
ATOM     64  C   UNL     1      11.890  -2.139  20.937  1.00  0.00     0.148 A 
ATOM     65  C   UNL     1      14.618  -2.443  20.329  1.00  0.00     0.002 A 
ATOM     66  C   UNL     1      12.674  -3.032  21.657  1.00  0.00     0.091 A 
ATOM     67  F   UNL     1      10.582  -1.984  21.186  1.00  0.00    -0.205 F 
ATOM     68  C   UNL     1      14.036  -3.191  21.350  1.00  0.00     0.022 A 
BRANCH  66  69
ATOM     69  S   UNL     1      12.045  -3.980  23.048  1.00  0.00     0.127 S 
ATOM     70  O   UNL     1      12.138  -5.348  22.539  1.00  0.00    -0.237 OA
ATOM     71  O   UNL     1      13.008  -3.655  24.100  1.00  0.00    -0.237 OA
ATOM     72  O   UNL     1      10.692  -3.498  23.287  1.00  0.00    -0.744 OA
ENDBRANCH  66  69
ENDBRANCH  48  62
BRANCH  49  73
ATOM     73  C   UNL     1       6.850   5.495  15.331  1.00  0.00     0.023 A 
ATOM     74  C   UNL     1       7.337   6.785  15.044  1.00  0.00     0.012 A 
ATOM     75  C   UNL     1       5.548   5.146  14.922  1.00  0.00     0.148 A 
ATOM     76  C   UNL     1       6.536   7.716  14.381  1.00  0.00     0.002 A 
ATOM     77  C   UNL     1       4.777   6.058  14.210  1.00  0.00     0.091 A 
ATOM     78  F   UNL     1       5.096   3.919  15.218  1.00  0.00    -0.205 F 
ATOM     79  C   UNL     1       5.263   7.349  13.953  1.00  0.00     0.022 A 
BRANCH  77  80
ATOM     80  S   UNL     1       3.190   5.619  13.491  1.00  0.00     0.127 S 
ATOM     81  O   UNL     1       2.259   6.335  14.359  1.00  0.00    -0.237 OA
ATOM     82  O   UNL     1       3.310   6.160  12.136  1.00  0.00    -0.237 OA
ATOM     83  O   UNL     1       3.123   4.165  13.549  1.00  0.00    -0.744 OA
ENDBRANCH  77  80
ENDBRANCH  49  73
BRANCH  61  84
ATOM     84  C   UNL     1       9.765   5.048  21.689  1.00  0.00     0.023 A 
ATOM     85  C   UNL     1       8.604   5.093  22.483  1.00  0.00     0.012 A 
ATOM     86  C   UNL     1      10.927   5.720  22.118  1.00  0.00     0.148 A 
ATOM     87  C   UNL     1       8.593   5.807  23.681  1.00  0.00     0.002 A 
ATOM     88  C   UNL     1      10.924   6.389  23.336  1.00  0.00     0.091 A 
ATOM     89  F   UNL     1      12.017   5.676  21.338  1.00  0.00    -0.205 F 
ATOM     90  C   UNL     1       9.756   6.441  24.114  1.00  0.00     0.022 A 
BRANCH  88  91
ATOM     91  S   UNL     1      12.402   7.143  24.026  1.00  0.00     0.127 S 
ATOM     92  O   UNL     1      12.100   8.567  23.891  1.00  0.00    -0.237 OA
ATOM     93  O   UNL     1      12.391   6.645  25.402  1.00  0.00    -0.237 OA
ATOM     94  O   UNL     1      13.514   6.662  23.218  1.00  0.00    -0.744 OA
ENDBRANCH  88  91
ENDBRANCH  61  84
ENDBRANCH  35  36
ENDBRANCH  27  30
ENDBRANCH  25  26
ENDBRANCH   1  25
TORSDOF 16
