REMARK SMILES CCc1c(C(=O)NCCCNC(=O)c2ccc(-c3c4nc(c(-c5cccc(S(=O)(=O)[O-])c5F)c5ccc([nH]5)c(-c5cccc(S(=O)(=O)[O-])c5F)c5nc(c(-c6cccc(S(=O)(=O)[O-])c6F)c6ccc3[nH]6)C=C5)C=C4)cc2)nnn1-c1ccc(Br)c(C)c1
REMARK SMILES IDX 10 1 9 2 8 3 7 4 5 5 6 6 4 8 3 9 79 10 77 11 78 12 2 13 1 14
REMARK SMILES IDX 80 15 81 16 87 17 82 18 85 19 83 20 86 21 84 22 11 23 12 24
REMARK SMILES IDX 13 26 14 27 15 28 76 29 16 30 75 31 17 32 18 33 19 34 69 35
REMARK SMILES IDX 20 36 74 37 68 38 70 39 21 40 73 41 67 42 66 43 22 45 54 46
REMARK SMILES IDX 34 47 53 48 35 49 38 50 52 51 71 52 36 53 37 54 51 56 72 57
REMARK SMILES IDX 39 58 23 59 24 60 32 61 25 62 27 63 33 64 26 65 28 66 29 67
REMARK SMILES IDX 30 68 31 69 55 70 56 71 64 72 57 73 59 74 65 75 58 76 60 77
REMARK SMILES IDX 61 78 62 79 63 80 40 81 41 82 49 83 42 84 44 85 50 86 43 87
REMARK SMILES IDX 45 88 46 89 47 90 48 91
REMARK H PARENT 7 7 11 25 70 44 38 55
REMARK Flexibility Score: inf
ROOT
ATOM      1  C   UNL     1      -2.303   0.974  -1.463  1.00  0.00     0.118 C 
ENDROOT
BRANCH   1   2
ATOM      2  C   UNL     1      -1.562   0.839  -0.152  1.00  0.00     0.042 C 
BRANCH   2   3
ATOM      3  C   UNL     1      -0.350   1.774  -0.110  1.00  0.00     0.118 C 
BRANCH   3   4
ATOM      4  N   UNL     1      -0.377   2.739   0.955  1.00  0.00    -0.351 N 
ATOM      5  C   UNL     1       0.271   2.839   2.157  1.00  0.00     0.273 C 
ATOM      6  O   UNL     1       0.283   3.982   2.625  1.00  0.00    -0.267 OA
ATOM      7  H   UNL     1      -0.993   3.487   0.784  1.00  0.00     0.163 HD
BRANCH   5   8
ATOM      8  C   UNL     1       0.886   1.738   2.916  1.00  0.00     0.174 A 
ATOM      9  C   UNL     1       1.213   0.389   2.724  1.00  0.00     0.077 A 
ATOM     10  N   UNL     1       1.692  -0.011   3.970  1.00  0.00    -0.217 N 
ATOM     11  N   UNL     1       1.180   2.048   4.238  1.00  0.00    -0.124 NA
ATOM     12  N   UNL     1       1.562   0.964   4.875  1.00  0.00    -0.061 NA
BRANCH   9  13
ATOM     13  C   UNL     1       0.974  -0.625   1.655  1.00  0.00     0.055 C 
ATOM     14  C   UNL     1       1.968  -0.616   0.502  1.00  0.00     0.011 C 
ENDBRANCH   9  13
BRANCH  10  15
ATOM     15  C   UNL     1       2.175  -1.276   4.365  1.00  0.00     0.067 A 
ATOM     16  C   UNL     1       1.704  -1.847   5.548  1.00  0.00     0.029 A 
ATOM     17  C   UNL     1       3.093  -1.957   3.561  1.00  0.00     0.033 A 
ATOM     18  C   UNL     1       2.105  -3.139   5.882  1.00  0.00     0.018 A 
ATOM     19  C   UNL     1       3.510  -3.252   3.891  1.00  0.00    -0.035 A 
ATOM     20  C   UNL     1       2.997  -3.839   5.058  1.00  0.00     0.021 A 
ATOM     21  C   UNL     1       4.495  -3.942   2.990  1.00  0.00     0.045 C 
ATOM     22  Br  UNL     1       3.484  -5.596   5.588  1.00  0.00    -0.051 Br
ENDBRANCH  10  15
ENDBRANCH   5   8
ENDBRANCH   3   4
ENDBRANCH   2   3
ENDBRANCH   1   2
BRANCH   1  23
ATOM     23  N   UNL     1      -1.496   0.511  -2.613  1.00  0.00    -0.352 N 
ATOM     24  C   UNL     1      -1.783   0.624  -3.973  1.00  0.00     0.251 C 
ATOM     25  H   UNL     1      -0.647   0.066  -2.390  1.00  0.00     0.163 HD
ATOM     26  O   UNL     1      -1.207  -0.030  -4.811  1.00  0.00    -0.269 OA
BRANCH  24  27
ATOM     27  C   UNL     1      -2.807   1.618  -4.338  1.00  0.00     0.039 A 
ATOM     28  C   UNL     1      -3.910   1.337  -5.150  1.00  0.00     0.014 A 
ATOM     29  C   UNL     1      -2.710   2.803  -3.634  1.00  0.00     0.014 A 
ATOM     30  C   UNL     1      -4.972   2.243  -5.147  1.00  0.00     0.010 A 
ATOM     31  C   UNL     1      -3.869   3.455  -3.363  1.00  0.00     0.010 A 
ATOM     32  C   UNL     1      -4.945   3.290  -4.219  1.00  0.00    -0.014 A 
BRANCH  32  33
ATOM     33  C   UNL     1      -6.018   4.250  -4.013  1.00  0.00     0.031 A 
ATOM     34  C   UNL     1      -7.303   3.658  -3.558  1.00  0.00     0.074 A 
ATOM     35  C   UNL     1      -5.721   5.569  -3.912  1.00  0.00     0.049 A 
ATOM     36  N   UNL     1      -8.409   3.564  -4.218  1.00  0.00    -0.248 NA
ATOM     37  C   UNL     1      -7.318   2.929  -2.278  1.00  0.00     0.031 C 
ATOM     38  C   UNL     1      -4.390   6.214  -3.972  1.00  0.00     0.029 A 
ATOM     39  N   UNL     1      -6.519   6.607  -3.566  1.00  0.00    -0.354 N 
ATOM     40  C   UNL     1      -9.328   3.000  -3.331  1.00  0.00     0.074 A 
ATOM     41  C   UNL     1      -8.549   2.410  -2.279  1.00  0.00     0.031 C 
ATOM     42  C   UNL     1      -4.449   7.447  -3.425  1.00  0.00     0.029 A 
ATOM     43  C   UNL     1      -5.839   7.763  -3.185  1.00  0.00     0.049 A 
ATOM     44  H   UNL     1      -7.502   6.550  -3.581  1.00  0.00     0.167 HD
ATOM     45  C   UNL     1     -10.652   3.323  -3.388  1.00  0.00     0.034 A 
ATOM     46  C   UNL     1      -6.390   8.901  -2.703  1.00  0.00     0.034 A 
ATOM     47  C   UNL     1     -10.925   4.097  -4.575  1.00  0.00     0.049 A 
ATOM     48  C   UNL     1      -7.814   8.865  -3.092  1.00  0.00     0.074 A 
ATOM     49  C   UNL     1     -10.935   3.869  -5.933  1.00  0.00     0.029 A 
ATOM     50  N   UNL     1     -10.841   5.457  -4.391  1.00  0.00    -0.354 N 
ATOM     51  N   UNL     1      -8.216   8.896  -4.331  1.00  0.00    -0.248 NA
ATOM     52  C   UNL     1      -8.786   8.381  -2.126  1.00  0.00     0.031 C 
ATOM     53  C   UNL     1     -10.498   5.093  -6.520  1.00  0.00     0.029 A 
ATOM     54  C   UNL     1     -10.301   6.035  -5.506  1.00  0.00     0.049 A 
ATOM     55  H   UNL     1     -11.127   5.939  -3.582  1.00  0.00     0.167 HD
ATOM     56  C   UNL     1      -9.294   8.024  -4.360  1.00  0.00     0.074 A 
ATOM     57  C   UNL     1      -9.698   7.878  -2.964  1.00  0.00     0.031 C 
ATOM     58  C   UNL     1      -9.553   7.277  -5.472  1.00  0.00     0.034 A 
BRANCH  45  59
ATOM     59  C   UNL     1     -11.637   3.347  -2.231  1.00  0.00     0.023 A 
ATOM     60  C   UNL     1     -12.984   3.646  -2.550  1.00  0.00     0.012 A 
ATOM     61  C   UNL     1     -11.297   3.366  -0.859  1.00  0.00     0.148 A 
ATOM     62  C   UNL     1     -13.919   4.005  -1.571  1.00  0.00     0.002 A 
ATOM     63  C   UNL     1     -12.247   3.655   0.118  1.00  0.00     0.091 A 
ATOM     64  F   UNL     1     -10.026   3.231  -0.479  1.00  0.00    -0.205 F 
ATOM     65  C   UNL     1     -13.551   4.006  -0.234  1.00  0.00     0.022 A 
BRANCH  63  66
ATOM     66  S   UNL     1     -11.839   3.635   1.871  1.00  0.00     0.127 S 
ATOM     67  O   UNL     1     -11.849   5.060   2.189  1.00  0.00    -0.237 OA
ATOM     68  O   UNL     1     -12.953   2.867   2.427  1.00  0.00    -0.237 OA
ATOM     69  O   UNL     1     -10.547   2.966   1.964  1.00  0.00    -0.744 OA
ENDBRANCH  63  66
ENDBRANCH  45  59
BRANCH  46  70
ATOM     70  C   UNL     1      -5.868   9.925  -1.776  1.00  0.00     0.023 A 
ATOM     71  C   UNL     1      -6.355  11.245  -1.847  1.00  0.00     0.012 A 
ATOM     72  C   UNL     1      -5.147   9.534  -0.628  1.00  0.00     0.148 A 
ATOM     73  C   UNL     1      -6.173  12.137  -0.784  1.00  0.00     0.002 A 
ATOM     74  C   UNL     1      -4.981  10.421   0.432  1.00  0.00     0.091 A 
ATOM     75  F   UNL     1      -4.714   8.268  -0.548  1.00  0.00    -0.205 F 
ATOM     76  C   UNL     1      -5.503  11.720   0.362  1.00  0.00     0.022 A 
BRANCH  74  77
ATOM     77  S   UNL     1      -4.193   9.946   1.977  1.00  0.00     0.127 S 
ATOM     78  O   UNL     1      -3.180  10.990   2.129  1.00  0.00    -0.237 OA
ATOM     79  O   UNL     1      -5.308  10.030   2.918  1.00  0.00    -0.237 OA
ATOM     80  O   UNL     1      -3.660   8.609   1.750  1.00  0.00    -0.744 OA
ENDBRANCH  74  77
ENDBRANCH  46  70
BRANCH  58  81
ATOM     81  C   UNL     1      -8.842   7.661  -6.746  1.00  0.00     0.023 A 
ATOM     82  C   UNL     1      -7.459   7.461  -6.944  1.00  0.00     0.012 A 
ATOM     83  C   UNL     1      -9.628   8.080  -7.827  1.00  0.00     0.148 A 
ATOM     84  C   UNL     1      -6.874   7.684  -8.195  1.00  0.00     0.002 A 
ATOM     85  C   UNL     1      -9.055   8.252  -9.080  1.00  0.00     0.091 A 
ATOM     86  F   UNL     1     -10.940   8.266  -7.617  1.00  0.00    -0.205 F 
ATOM     87  C   UNL     1      -7.676   8.065  -9.268  1.00  0.00     0.022 A 
BRANCH  85  88
ATOM     88  S   UNL     1     -10.058   8.601 -10.524  1.00  0.00     0.127 S 
ATOM     89  O   UNL     1      -9.730   9.999 -10.792  1.00  0.00    -0.237 OA
ATOM     90  O   UNL     1      -9.534   7.649 -11.504  1.00  0.00    -0.237 OA
ATOM     91  O   UNL     1     -11.437   8.345 -10.126  1.00  0.00    -0.744 OA
ENDBRANCH  85  88
ENDBRANCH  58  81
ENDBRANCH  32  33
ENDBRANCH  24  27
ENDBRANCH   1  23
TORSDOF 15
