REMARK SMILES C[NH2+]C[C@@H](C)C(=O)Nc1ccc(Cl)cc1C(=O)NCCCNC(=O)c1ccc(-c2c3nc(c(-c4cccc(S(=O)(=O)[O-])c4F)c4ccc([nH]4)c(-c4cccc(S(=O)(=O)[O-])c4F)c4nc(c(-c5cccc(S(=O)(=O)[O-])c5F)c5ccc2[nH]5)C=C4)C=C3)cc1
REMARK SMILES IDX 19 1 18 2 16 3 17 4 15 6 9 7 10 8 11 9 14 10 12 11 13 12
REMARK SMILES IDX 8 13 6 14 7 15 4 17 5 18 3 19 2 20 1 21 20 24 21 25 22 26
REMARK SMILES IDX 23 27 24 29 25 30 26 31 87 32 27 33 86 34 28 35 29 36 30 37
REMARK SMILES IDX 80 38 31 39 85 40 79 41 81 42 32 43 84 44 78 45 77 46 33 48
REMARK SMILES IDX 65 49 45 50 64 51 46 52 49 53 63 54 82 55 47 56 48 57 62 59
REMARK SMILES IDX 83 60 50 61 34 62 35 63 43 64 36 65 38 66 44 67 37 68 39 69
REMARK SMILES IDX 40 70 41 71 42 72 66 73 67 74 75 75 68 76 70 77 76 78 69 79
REMARK SMILES IDX 71 80 72 81 73 82 74 83 51 84 52 85 60 86 53 87 55 88 61 89
REMARK SMILES IDX 54 90 56 91 57 92 58 93 59 94
REMARK H PARENT 18 5 8 16 2 22 2 23 22 28 81 47 49 58
REMARK Flexibility Score: inf
ROOT
ATOM      1  C   UNL     1      -5.100  -2.958  -0.407  1.00  0.00     0.118 C 
ENDROOT
BRANCH   1   2
ATOM      2  N   UNL     1      -5.114  -4.241   0.237  1.00  0.00    -0.352 N 
ATOM      3  C   UNL     1      -4.363  -4.780   1.247  1.00  0.00     0.253 C 
ATOM      4  O   UNL     1      -4.678  -5.943   1.536  1.00  0.00    -0.269 OA
ATOM      5  H   UNL     1      -5.798  -4.854  -0.117  1.00  0.00     0.163 HD
BRANCH   3   6
ATOM      6  C   UNL     1      -3.239  -4.146   2.038  1.00  0.00     0.064 A 
ATOM      7  C   UNL     1      -2.847  -2.802   2.229  1.00  0.00     0.054 A 
ATOM      8  C   UNL     1      -1.895  -2.478   3.215  1.00  0.00     0.028 A 
ATOM      9  C   UNL     1      -1.183  -3.455   3.895  1.00  0.00     0.023 A 
ATOM     10  C   UNL     1      -2.467  -5.120   2.728  1.00  0.00     0.036 A 
ATOM     11  C   UNL     1      -1.446  -4.782   3.617  1.00  0.00     0.041 A 
ATOM     12  Cl  UNL     1      -0.529  -6.012   4.393  1.00  0.00    -0.084 Cl
BRANCH   7  13
ATOM     13  N   UNL     1      -3.358  -1.684   1.568  1.00  0.00    -0.325 N 
ATOM     14  C   UNL     1      -2.744  -0.902   0.612  1.00  0.00     0.232 C 
ATOM     15  O   UNL     1      -3.419   0.031   0.158  1.00  0.00    -0.274 OA
ATOM     16  H   UNL     1      -4.274  -1.420   1.816  1.00  0.00     0.169 HD
BRANCH  14  17
ATOM     17  C   UNL     1      -1.336  -1.170   0.036  1.00  0.00     0.130 C 
ATOM     18  C   UNL     1      -1.108  -2.593  -0.477  1.00  0.00     0.024 C 
BRANCH  17  19
ATOM     19  C   UNL     1      -0.251  -0.661   0.993  1.00  0.00     0.273 C 
BRANCH  19  20
ATOM     20  N   UNL     1       1.135  -0.659   0.522  1.00  0.00    -0.348 N 
ATOM     21  C   UNL     1       1.380   0.324  -0.524  1.00  0.00     0.330 C 
ATOM     22  H   UNL     1       1.746  -0.452   1.312  1.00  0.00     0.346 HD
ATOM     23  H   UNL     1       1.323  -1.580   0.125  1.00  0.00     0.346 HD
ENDBRANCH  19  20
ENDBRANCH  17  19
ENDBRANCH  14  17
ENDBRANCH   7  13
ENDBRANCH   3   6
ENDBRANCH   1   2
BRANCH   1  24
ATOM     24  C   UNL     1      -5.171  -2.965  -1.916  1.00  0.00     0.042 C 
BRANCH  24  25
ATOM     25  C   UNL     1      -6.508  -3.372  -2.490  1.00  0.00     0.118 C 
BRANCH  25  26
ATOM     26  N   UNL     1      -7.577  -2.424  -2.191  1.00  0.00    -0.352 N 
ATOM     27  C   UNL     1      -8.133  -1.413  -2.939  1.00  0.00     0.251 C 
ATOM     28  H   UNL     1      -7.970  -2.527  -1.294  1.00  0.00     0.163 HD
ATOM     29  O   UNL     1      -8.918  -0.632  -2.397  1.00  0.00    -0.269 OA
BRANCH  27  30
ATOM     30  C   UNL     1      -7.787  -1.232  -4.368  1.00  0.00     0.039 A 
ATOM     31  C   UNL     1      -7.689   0.059  -4.898  1.00  0.00     0.014 A 
ATOM     32  C   UNL     1      -7.573  -2.329  -5.199  1.00  0.00     0.014 A 
ATOM     33  C   UNL     1      -7.295   0.238  -6.229  1.00  0.00     0.010 A 
ATOM     34  C   UNL     1      -7.037  -2.148  -6.466  1.00  0.00     0.010 A 
ATOM     35  C   UNL     1      -6.917  -0.865  -7.012  1.00  0.00    -0.014 A 
BRANCH  35  36
ATOM     36  C   UNL     1      -6.421  -0.719  -8.406  1.00  0.00     0.031 A 
ATOM     37  C   UNL     1      -7.111  -1.451  -9.532  1.00  0.00     0.074 A 
ATOM     38  C   UNL     1      -5.290  -0.025  -8.648  1.00  0.00     0.049 A 
ATOM     39  N   UNL     1      -6.768  -1.541 -10.791  1.00  0.00    -0.248 NA
ATOM     40  C   UNL     1      -8.323  -2.219  -9.191  1.00  0.00     0.031 C 
ATOM     41  C   UNL     1      -4.475   0.649  -7.634  1.00  0.00     0.029 A 
ATOM     42  N   UNL     1      -4.610   0.201  -9.819  1.00  0.00    -0.354 N 
ATOM     43  C   UNL     1      -7.683  -2.413 -11.372  1.00  0.00     0.074 A 
ATOM     44  C   UNL     1      -8.568  -2.861 -10.323  1.00  0.00     0.031 C 
ATOM     45  C   UNL     1      -3.415   1.221  -8.228  1.00  0.00     0.029 A 
ATOM     46  C   UNL     1      -3.450   0.921  -9.655  1.00  0.00     0.049 A 
ATOM     47  H   UNL     1      -4.924  -0.122 -10.695  1.00  0.00     0.167 HD
ATOM     48  C   UNL     1      -7.799  -2.783 -12.669  1.00  0.00     0.034 A 
ATOM     49  C   UNL     1      -2.511   1.287 -10.550  1.00  0.00     0.034 A 
ATOM     50  C   UNL     1      -6.957  -2.284 -13.721  1.00  0.00     0.049 A 
ATOM     51  C   UNL     1      -2.698   0.915 -11.995  1.00  0.00     0.074 A 
ATOM     52  C   UNL     1      -7.060  -2.506 -15.082  1.00  0.00     0.029 A 
ATOM     53  N   UNL     1      -5.853  -1.470 -13.528  1.00  0.00    -0.354 N 
ATOM     54  N   UNL     1      -3.664   0.225 -12.551  1.00  0.00    -0.248 NA
ATOM     55  C   UNL     1      -1.687   1.402 -12.944  1.00  0.00     0.031 C 
ATOM     56  C   UNL     1      -5.996  -1.853 -15.710  1.00  0.00     0.029 A 
ATOM     57  C   UNL     1      -5.255  -1.191 -14.745  1.00  0.00     0.049 A 
ATOM     58  H   UNL     1      -5.540  -1.139 -12.656  1.00  0.00     0.167 HD
ATOM     59  C   UNL     1      -3.399   0.226 -13.915  1.00  0.00     0.074 A 
ATOM     60  C   UNL     1      -2.192   1.004 -14.104  1.00  0.00     0.031 C 
ATOM     61  C   UNL     1      -4.083  -0.373 -14.920  1.00  0.00     0.034 A 
BRANCH  48  62
ATOM     62  C   UNL     1      -8.909  -3.735 -13.034  1.00  0.00     0.023 A 
ATOM     63  C   UNL     1     -10.251  -3.304 -12.980  1.00  0.00     0.012 A 
ATOM     64  C   UNL     1      -8.621  -5.037 -13.490  1.00  0.00     0.148 A 
ATOM     65  C   UNL     1     -11.289  -4.164 -13.336  1.00  0.00     0.002 A 
ATOM     66  C   UNL     1      -9.658  -5.871 -13.891  1.00  0.00     0.091 A 
ATOM     67  F   UNL     1      -7.342  -5.437 -13.515  1.00  0.00    -0.205 F 
ATOM     68  C   UNL     1     -10.992  -5.442 -13.802  1.00  0.00     0.022 A 
BRANCH  66  69
ATOM     69  S   UNL     1      -9.377  -7.503 -14.587  1.00  0.00     0.127 S 
ATOM     70  O   UNL     1      -9.913  -8.367 -13.537  1.00  0.00    -0.237 OA
ATOM     71  O   UNL     1     -10.181  -7.457 -15.808  1.00  0.00    -0.237 OA
ATOM     72  O   UNL     1      -7.941  -7.606 -14.806  1.00  0.00    -0.744 OA
ENDBRANCH  66  69
ENDBRANCH  48  62
BRANCH  49  73
ATOM     73  C   UNL     1      -1.337   2.097 -10.112  1.00  0.00     0.023 A 
ATOM     74  C   UNL     1      -1.229   3.441 -10.521  1.00  0.00     0.012 A 
ATOM     75  C   UNL     1      -0.342   1.552  -9.277  1.00  0.00     0.148 A 
ATOM     76  C   UNL     1      -0.133   4.215 -10.139  1.00  0.00     0.002 A 
ATOM     77  C   UNL     1       0.717   2.346  -8.852  1.00  0.00     0.091 A 
ATOM     78  F   UNL     1      -0.458   0.270  -8.905  1.00  0.00    -0.205 F 
ATOM     79  C   UNL     1       0.834   3.672  -9.298  1.00  0.00     0.022 A 
BRANCH  77  80
ATOM     80  S   UNL     1       1.935   1.771  -7.664  1.00  0.00     0.127 S 
ATOM     81  O   UNL     1       3.132   1.659  -8.493  1.00  0.00    -0.237 OA
ATOM     82  O   UNL     1       1.955   2.869  -6.697  1.00  0.00    -0.237 OA
ATOM     83  O   UNL     1       1.411   0.518  -7.136  1.00  0.00    -0.744 OA
ENDBRANCH  77  80
ENDBRANCH  49  73
BRANCH  61  84
ATOM     84  C   UNL     1      -3.578  -0.178 -16.326  1.00  0.00     0.023 A 
ATOM     85  C   UNL     1      -2.395  -0.817 -16.745  1.00  0.00     0.012 A 
ATOM     86  C   UNL     1      -4.325   0.575 -17.253  1.00  0.00     0.148 A 
ATOM     87  C   UNL     1      -1.944  -0.680 -18.057  1.00  0.00     0.002 A 
ATOM     88  C   UNL     1      -3.899   0.662 -18.572  1.00  0.00     0.091 A 
ATOM     89  F   UNL     1      -5.441   1.187 -16.829  1.00  0.00    -0.205 F 
ATOM     90  C   UNL     1      -2.702   0.048 -18.972  1.00  0.00     0.022 A 
BRANCH  88  91
ATOM     91  S   UNL     1      -4.862   1.489 -19.843  1.00  0.00     0.127 S 
ATOM     92  O   UNL     1      -4.046   2.673 -20.110  1.00  0.00    -0.237 OA
ATOM     93  O   UNL     1      -4.869   0.498 -20.919  1.00  0.00    -0.237 OA
ATOM     94  O   UNL     1      -6.167   1.752 -19.253  1.00  0.00    -0.744 OA
ENDBRANCH  88  91
ENDBRANCH  61  84
ENDBRANCH  35  36
ENDBRANCH  27  30
ENDBRANCH  25  26
ENDBRANCH  24  25
ENDBRANCH   1  24
TORSDOF 17
