REMARK SMILES C=CCC(=O)N[C@@](C)(CC)C(=O)NCCCNC(=O)c1ccc(-c2c3nc(c(-c4cccc(S(=O)(=O)[O-])c4F)c4ccc([nH]4)c(-c4cccc(S(=O)(=O)[O-])c4F)c4nc(c(-c5cccc(S(=O)(=O)[O-])c5F)c5ccc2[nH]5)C=C4)C=C3)cc1
REMARK SMILES IDX 15 1 14 2 13 3 11 4 12 5 7 7 8 8 6 9 4 10 5 11 3 13 2 14
REMARK SMILES IDX 1 15 9 16 10 17 16 18 17 19 18 20 19 22 20 23 21 24 82 25
REMARK SMILES IDX 22 26 81 27 23 28 24 29 25 30 75 31 26 32 80 33 74 34 76 35
REMARK SMILES IDX 27 36 79 37 73 38 72 39 28 41 60 42 40 43 59 44 41 45 44 46
REMARK SMILES IDX 58 47 77 48 42 49 43 50 57 52 78 53 45 54 29 55 30 56 38 57
REMARK SMILES IDX 31 58 33 59 39 60 32 61 34 62 35 63 36 64 37 65 61 66 62 67
REMARK SMILES IDX 70 68 63 69 65 70 71 71 64 72 66 73 67 74 68 75 69 76 46 77
REMARK SMILES IDX 47 78 55 79 48 80 50 81 56 82 49 83 51 84 52 85 53 86 54 87
REMARK H PARENT 13 6 6 12 17 21 76 40 44 51
REMARK Flexibility Score: inf
ROOT
ATOM      1  C   UNL     1       0.959  -1.488   4.327  1.00  0.00     0.042 C 
ENDROOT
BRANCH   1   2
ATOM      2  C   UNL     1       1.493  -0.321   3.502  1.00  0.00     0.117 C 
BRANCH   2   3
ATOM      3  N   UNL     1       0.963  -0.359   2.151  1.00  0.00    -0.354 N 
ATOM      4  C   UNL     1      -0.226   0.136   1.699  1.00  0.00     0.245 C 
ATOM      5  O   UNL     1      -0.912  -0.639   1.029  1.00  0.00    -0.272 OA
ATOM      6  H   UNL     1       1.532  -0.796   1.477  1.00  0.00     0.163 HD
BRANCH   4   7
ATOM      7  C   UNL     1      -0.695   1.577   2.056  1.00  0.00     0.116 C 
ATOM      8  C   UNL     1       0.483   2.565   2.178  1.00  0.00     0.045 C 
BRANCH   7   9
ATOM      9  N   UNL     1      -1.624   2.168   1.047  1.00  0.00    -0.342 N 
ATOM     10  C   UNL     1      -1.487   2.361  -0.295  1.00  0.00     0.224 C 
ATOM     11  O   UNL     1      -1.964   3.402  -0.762  1.00  0.00    -0.275 OA
ATOM     12  H   UNL     1      -2.485   2.471   1.415  1.00  0.00     0.164 HD
BRANCH  10  13
ATOM     13  C   UNL     1      -0.878   1.311  -1.218  1.00  0.00     0.126 C 
BRANCH  13  14
ATOM     14  C   UNL     1       0.621   1.307  -1.268  1.00  0.00    -0.025 C 
ATOM     15  C   UNL     1       1.357   0.188  -1.230  1.00  0.00     0.004 C 
ENDBRANCH  13  14
ENDBRANCH  10  13
ENDBRANCH   7   9
BRANCH   7  16
ATOM     16  C   UNL     1      -1.465   1.514   3.407  1.00  0.00     0.035 C 
ATOM     17  C   UNL     1      -2.768   0.715   3.350  1.00  0.00     0.007 C 
ENDBRANCH   7  16
ENDBRANCH   4   7
ENDBRANCH   2   3
ENDBRANCH   1   2
BRANCH   1  18
ATOM     18  C   UNL     1       1.256  -2.857   3.725  1.00  0.00     0.118 C 
BRANCH  18  19
ATOM     19  N   UNL     1       2.684  -3.100   3.573  1.00  0.00    -0.352 N 
ATOM     20  C   UNL     1       3.451  -4.107   4.097  1.00  0.00     0.251 C 
ATOM     21  H   UNL     1       3.167  -2.448   3.015  1.00  0.00     0.163 HD
ATOM     22  O   UNL     1       4.680  -4.033   4.030  1.00  0.00    -0.269 OA
BRANCH  20  23
ATOM     23  C   UNL     1       2.809  -5.267   4.747  1.00  0.00     0.039 A 
ATOM     24  C   UNL     1       3.350  -5.769   5.933  1.00  0.00     0.014 A 
ATOM     25  C   UNL     1       1.685  -5.871   4.177  1.00  0.00     0.014 A 
ATOM     26  C   UNL     1       2.739  -6.853   6.566  1.00  0.00     0.010 A 
ATOM     27  C   UNL     1       1.026  -6.890   4.855  1.00  0.00     0.010 A 
ATOM     28  C   UNL     1       1.561  -7.411   6.042  1.00  0.00    -0.014 A 
BRANCH  28  29
ATOM     29  C   UNL     1       0.903  -8.575   6.688  1.00  0.00     0.031 A 
ATOM     30  C   UNL     1       0.781  -9.875   5.934  1.00  0.00     0.074 A 
ATOM     31  C   UNL     1       0.359  -8.448   7.914  1.00  0.00     0.049 A 
ATOM     32  N   UNL     1       0.180 -10.981   6.287  1.00  0.00    -0.248 NA
ATOM     33  C   UNL     1       1.389  -9.930   4.592  1.00  0.00     0.031 C 
ATOM     34  C   UNL     1       0.344  -7.221   8.714  1.00  0.00     0.029 A 
ATOM     35  N   UNL     1      -0.312  -9.358   8.692  1.00  0.00    -0.354 N 
ATOM     36  C   UNL     1       0.309 -11.846   5.206  1.00  0.00     0.074 A 
ATOM     37  C   UNL     1       1.003 -11.123   4.165  1.00  0.00     0.031 C 
ATOM     38  C   UNL     1      -0.303  -7.455   9.867  1.00  0.00     0.029 A 
ATOM     39  C   UNL     1      -0.772  -8.837   9.880  1.00  0.00     0.049 A 
ATOM     40  H   UNL     1      -0.452 -10.295   8.426  1.00  0.00     0.167 HD
ATOM     41  C   UNL     1      -0.077 -13.140   5.101  1.00  0.00     0.034 A 
ATOM     42  C   UNL     1      -1.494  -9.410  10.864  1.00  0.00     0.034 A 
ATOM     43  C   UNL     1      -0.720 -13.872   6.157  1.00  0.00     0.049 A 
ATOM     44  C   UNL     1      -1.862 -10.865  10.741  1.00  0.00     0.074 A 
ATOM     45  C   UNL     1      -1.105 -15.201   6.172  1.00  0.00     0.029 A 
ATOM     46  N   UNL     1      -1.063 -13.341   7.389  1.00  0.00    -0.354 N 
ATOM     47  N   UNL     1      -1.614 -11.701   9.762  1.00  0.00    -0.248 NA
ATOM     48  C   UNL     1      -2.568 -11.470  11.881  1.00  0.00     0.031 C 
ATOM     49  C   UNL     1      -1.688 -15.471   7.415  1.00  0.00     0.029 A 
ATOM     50  C   UNL     1      -1.641 -14.318   8.180  1.00  0.00     0.049 A 
ATOM     51  H   UNL     1      -0.918 -12.406   7.662  1.00  0.00     0.167 HD
ATOM     52  C   UNL     1      -2.085 -12.938  10.189  1.00  0.00     0.074 A 
ATOM     53  C   UNL     1      -2.617 -12.745  11.522  1.00  0.00     0.031 C 
ATOM     54  C   UNL     1      -2.091 -14.124   9.533  1.00  0.00     0.034 A 
BRANCH  41  55
ATOM     55  C   UNL     1       0.256 -13.871   3.826  1.00  0.00     0.023 A 
ATOM     56  C   UNL     1       1.598 -14.208   3.555  1.00  0.00     0.012 A 
ATOM     57  C   UNL     1      -0.754 -14.286   2.937  1.00  0.00     0.148 A 
ATOM     58  C   UNL     1       1.934 -14.920   2.404  1.00  0.00     0.002 A 
ATOM     59  C   UNL     1      -0.417 -15.036   1.816  1.00  0.00     0.091 A 
ATOM     60  F   UNL     1      -2.022 -13.941   3.204  1.00  0.00    -0.205 F 
ATOM     61  C   UNL     1       0.927 -15.343   1.542  1.00  0.00     0.022 A 
BRANCH  59  62
ATOM     62  S   UNL     1      -1.642 -15.702   0.684  1.00  0.00     0.127 S 
ATOM     63  O   UNL     1      -1.347 -14.957  -0.541  1.00  0.00    -0.237 OA
ATOM     64  O   UNL     1      -1.279 -17.118   0.639  1.00  0.00    -0.237 OA
ATOM     65  O   UNL     1      -2.939 -15.422   1.282  1.00  0.00    -0.744 OA
ENDBRANCH  59  62
ENDBRANCH  41  55
BRANCH  42  66
ATOM     66  C   UNL     1      -1.863  -8.632  12.081  1.00  0.00     0.023 A 
ATOM     67  C   UNL     1      -1.281  -8.964  13.321  1.00  0.00     0.012 A 
ATOM     68  C   UNL     1      -2.792  -7.576  12.023  1.00  0.00     0.148 A 
ATOM     69  C   UNL     1      -1.656  -8.296  14.487  1.00  0.00     0.002 A 
ATOM     70  C   UNL     1      -3.118  -6.875  13.179  1.00  0.00     0.091 A 
ATOM     71  F   UNL     1      -3.345  -7.279  10.838  1.00  0.00    -0.205 F 
ATOM     72  C   UNL     1      -2.568  -7.247  14.415  1.00  0.00     0.022 A 
BRANCH  70  73
ATOM     73  S   UNL     1      -4.180  -5.427  13.149  1.00  0.00     0.127 S 
ATOM     74  O   UNL     1      -5.428  -5.960  13.688  1.00  0.00    -0.237 OA
ATOM     75  O   UNL     1      -3.468  -4.507  14.038  1.00  0.00    -0.237 OA
ATOM     76  O   UNL     1      -4.215  -5.001  11.757  1.00  0.00    -0.744 OA
ENDBRANCH  70  73
ENDBRANCH  42  66
BRANCH  54  77
ATOM     77  C   UNL     1      -2.620 -15.327  10.268  1.00  0.00     0.023 A 
ATOM     78  C   UNL     1      -4.001 -15.456  10.515  1.00  0.00     0.012 A 
ATOM     79  C   UNL     1      -1.747 -16.364  10.654  1.00  0.00     0.148 A 
ATOM     80  C   UNL     1      -4.500 -16.580  11.173  1.00  0.00     0.002 A 
ATOM     81  C   UNL     1      -2.258 -17.504  11.262  1.00  0.00     0.091 A 
ATOM     82  F   UNL     1      -0.434 -16.214  10.427  1.00  0.00    -0.205 F 
ATOM     83  C   UNL     1      -3.631 -17.607  11.535  1.00  0.00     0.022 A 
BRANCH  81  84
ATOM     84  S   UNL     1      -1.226 -18.916  11.669  1.00  0.00     0.127 S 
ATOM     85  O   UNL     1      -1.104 -18.788  13.120  1.00  0.00    -0.237 OA
ATOM     86  O   UNL     1      -2.047 -20.042  11.223  1.00  0.00    -0.237 OA
ATOM     87  O   UNL     1       0.009 -18.738  10.917  1.00  0.00    -0.744 OA
ENDBRANCH  81  84
ENDBRANCH  54  77
ENDBRANCH  28  29
ENDBRANCH  20  23
ENDBRANCH  18  19
ENDBRANCH   1  18
TORSDOF 17
