REMARK SMILES Cc1cc(C(=O)NCCCNC(=O)c2ccc(-c3c4nc(c(-c5cccc(S(=O)(=O)[O-])c5F)c5ccc([nH]5)c(-c5cccc(S(=O)(=O)[O-])c5F)c5nc(c(-c6cccc(S(=O)(=O)[O-])c6F)c6ccc3[nH]6)C=C5)C=C4)cc2)cc(S(=O)(=O)NNC(=O)c2c[nH]c3ccccc23)c1C
REMARK SMILES IDX 8 1 7 2 5 3 6 4 4 6 1 7 2 8 3 9 95 10 78 11 96 12 77 13
REMARK SMILES IDX 79 14 80 15 81 16 82 17 83 19 84 20 85 22 86 23 87 24 94 25
REMARK SMILES IDX 88 26 89 27 93 28 90 30 92 31 91 32 9 33 10 34 11 35 12 36
REMARK SMILES IDX 13 38 14 39 15 40 76 41 16 42 75 43 17 44 18 45 19 46 69 47
REMARK SMILES IDX 20 48 74 49 68 50 70 51 21 52 73 53 67 54 66 55 22 57 54 58
REMARK SMILES IDX 34 59 53 60 35 61 38 62 52 63 71 64 36 65 37 66 51 68 72 69
REMARK SMILES IDX 39 70 23 71 24 72 32 73 25 74 27 75 33 76 26 77 28 78 29 79
REMARK SMILES IDX 30 80 31 81 55 82 56 83 64 84 57 85 59 86 65 87 58 88 60 89
REMARK SMILES IDX 61 90 62 91 63 92 40 93 41 94 49 95 42 96 44 97 50 98 43 99
REMARK SMILES IDX 45 100 46 101 47 102 48 103
REMARK H PARENT 7 5 82 18 83 21 88 29 11 37 70 56 38 67
REMARK Flexibility Score: inf
ROOT
ATOM      1  C   UNL     1      -2.335   3.488   0.642  1.00  0.00     0.118 C 
ENDROOT
BRANCH   1   2
ATOM      2  N   UNL     1      -3.288   2.476   0.213  1.00  0.00    -0.352 N 
ATOM      3  C   UNL     1      -3.183   1.150  -0.126  1.00  0.00     0.251 C 
ATOM      4  O   UNL     1      -4.232   0.550  -0.373  1.00  0.00    -0.269 OA
ATOM      5  H   UNL     1      -4.210   2.816   0.152  1.00  0.00     0.163 HD
BRANCH   3   6
ATOM      6  C   UNL     1      -1.905   0.379  -0.182  1.00  0.00     0.041 A 
ATOM      7  C   UNL     1       1.857   0.912  -0.247  1.00  0.00     0.044 C 
ATOM      8  C   UNL     1       0.535   0.186  -0.248  1.00  0.00    -0.046 A 
ATOM      9  C   UNL     1      -0.640   0.958  -0.275  1.00  0.00     0.017 A 
ATOM     10  C   UNL     1       0.444  -1.221  -0.233  1.00  0.00    -0.028 A 
ATOM     11  C   UNL     1      -0.843  -1.815  -0.275  1.00  0.00     0.088 A 
ATOM     12  C   UNL     1       1.691  -2.073  -0.191  1.00  0.00     0.046 C 
ATOM     13  C   UNL     1      -1.997  -1.025  -0.204  1.00  0.00     0.036 A 
BRANCH  11  14
ATOM     14  S   UNL     1      -0.970  -3.570  -0.568  1.00  0.00     0.257 S 
ATOM     15  O   UNL     1      -0.431  -3.807  -1.902  1.00  0.00    -0.205 OA
ATOM     16  O   UNL     1      -0.434  -4.243   0.583  1.00  0.00    -0.205 OA
BRANCH  14  17
ATOM     17  N   UNL     1      -2.617  -4.006  -0.596  1.00  0.00    -0.123 NA
ATOM     18  H   UNL     1      -3.068  -3.492   0.161  1.00  0.00     0.167 HD
BRANCH  17  19
ATOM     19  N   UNL     1      -3.428  -3.779  -1.800  1.00  0.00    -0.273 N 
ATOM     20  C   UNL     1      -4.376  -4.717  -2.188  1.00  0.00     0.268 C 
ATOM     21  H   UNL     1      -3.298  -2.962  -2.334  1.00  0.00     0.186 HD
ATOM     22  O   UNL     1      -5.578  -4.527  -2.026  1.00  0.00    -0.268 OA
BRANCH  20  23
ATOM     23  C   UNL     1      -3.843  -5.749  -3.077  1.00  0.00     0.066 A 
ATOM     24  C   UNL     1      -2.508  -5.936  -3.394  1.00  0.00     0.097 A 
ATOM     25  C   UNL     1      -4.555  -6.622  -3.964  1.00  0.00     0.012 A 
ATOM     26  N   UNL     1      -2.489  -6.293  -4.715  1.00  0.00    -0.360 N 
ATOM     27  C   UNL     1      -3.728  -6.754  -5.082  1.00  0.00     0.046 A 
ATOM     28  C   UNL     1      -5.846  -7.184  -4.023  1.00  0.00     0.011 A 
ATOM     29  H   UNL     1      -1.707  -6.230  -5.310  1.00  0.00     0.166 HD
ATOM     30  C   UNL     1      -4.181  -7.240  -6.310  1.00  0.00     0.027 A 
ATOM     31  C   UNL     1      -6.262  -7.819  -5.202  1.00  0.00     0.001 A 
ATOM     32  C   UNL     1      -5.463  -7.790  -6.344  1.00  0.00     0.002 A 
ENDBRANCH  20  23
ENDBRANCH  17  19
ENDBRANCH  14  17
ENDBRANCH  11  14
ENDBRANCH   3   6
ENDBRANCH   1   2
BRANCH   1  33
ATOM     33  C   UNL     1      -1.907   4.398  -0.512  1.00  0.00     0.042 C 
BRANCH  33  34
ATOM     34  C   UNL     1      -2.944   5.465  -0.872  1.00  0.00     0.118 C 
BRANCH  34  35
ATOM     35  N   UNL     1      -3.070   6.480   0.167  1.00  0.00    -0.352 N 
ATOM     36  C   UNL     1      -3.006   7.850   0.085  1.00  0.00     0.251 C 
ATOM     37  H   UNL     1      -3.225   6.128   1.073  1.00  0.00     0.163 HD
ATOM     38  O   UNL     1      -2.947   8.504   1.124  1.00  0.00    -0.269 OA
BRANCH  36  39
ATOM     39  C   UNL     1      -2.999   8.544  -1.223  1.00  0.00     0.039 A 
ATOM     40  C   UNL     1      -2.180   9.668  -1.382  1.00  0.00     0.014 A 
ATOM     41  C   UNL     1      -3.830   8.139  -2.271  1.00  0.00     0.014 A 
ATOM     42  C   UNL     1      -2.156  10.351  -2.602  1.00  0.00     0.010 A 
ATOM     43  C   UNL     1      -3.760   8.784  -3.506  1.00  0.00     0.010 A 
ATOM     44  C   UNL     1      -2.927   9.899  -3.684  1.00  0.00    -0.014 A 
BRANCH  44  45
ATOM     45  C   UNL     1      -2.865  10.567  -5.011  1.00  0.00     0.031 A 
ATOM     46  C   UNL     1      -4.085  11.236  -5.587  1.00  0.00     0.074 A 
ATOM     47  C   UNL     1      -1.734  10.488  -5.741  1.00  0.00     0.049 A 
ATOM     48  N   UNL     1      -4.242  11.796  -6.759  1.00  0.00    -0.248 NA
ATOM     49  C   UNL     1      -5.294  11.254  -4.748  1.00  0.00     0.031 C 
ATOM     50  C   UNL     1      -0.508   9.804  -5.326  1.00  0.00     0.029 A 
ATOM     51  N   UNL     1      -1.442  10.957  -6.998  1.00  0.00    -0.354 N 
ATOM     52  C   UNL     1      -5.572  12.197  -6.815  1.00  0.00     0.074 A 
ATOM     53  C   UNL     1      -6.186  11.792  -5.568  1.00  0.00     0.031 C 
ATOM     54  C   UNL     1       0.401   9.894  -6.310  1.00  0.00     0.029 A 
ATOM     55  C   UNL     1      -0.184  10.615  -7.436  1.00  0.00     0.049 A 
ATOM     56  H   UNL     1      -2.074  11.489  -7.534  1.00  0.00     0.167 HD
ATOM     57  C   UNL     1      -6.218  12.864  -7.801  1.00  0.00     0.034 A 
ATOM     58  C   UNL     1       0.428  10.846  -8.614  1.00  0.00     0.034 A 
ATOM     59  C   UNL     1      -5.593  13.308  -9.018  1.00  0.00     0.049 A 
ATOM     60  C   UNL     1      -0.297  11.631  -9.674  1.00  0.00     0.074 A 
ATOM     61  C   UNL     1      -6.137  14.070 -10.037  1.00  0.00     0.029 A 
ATOM     62  N   UNL     1      -4.285  13.029  -9.384  1.00  0.00    -0.354 N 
ATOM     63  N   UNL     1      -1.505  12.140  -9.642  1.00  0.00    -0.248 NA
ATOM     64  C   UNL     1       0.438  11.909 -10.916  1.00  0.00     0.031 C 
ATOM     65  C   UNL     1      -5.163  14.237 -11.028  1.00  0.00     0.029 A 
ATOM     66  C   UNL     1      -4.006  13.597 -10.616  1.00  0.00     0.049 A 
ATOM     67  H   UNL     1      -3.649  12.503  -8.848  1.00  0.00     0.167 HD
ATOM     68  C   UNL     1      -1.662  12.826 -10.840  1.00  0.00     0.074 A 
ATOM     69  C   UNL     1      -0.417  12.685 -11.568  1.00  0.00     0.031 C 
ATOM     70  C   UNL     1      -2.744  13.499 -11.303  1.00  0.00     0.034 A 
BRANCH  57  71
ATOM     71  C   UNL     1      -7.669  13.208  -7.582  1.00  0.00     0.023 A 
ATOM     72  C   UNL     1      -8.011  14.209  -6.650  1.00  0.00     0.012 A 
ATOM     73  C   UNL     1      -8.687  12.592  -8.337  1.00  0.00     0.148 A 
ATOM     74  C   UNL     1      -9.343  14.567  -6.446  1.00  0.00     0.002 A 
ATOM     75  C   UNL     1     -10.009  12.985  -8.159  1.00  0.00     0.091 A 
ATOM     76  F   UNL     1      -8.347  11.629  -9.205  1.00  0.00    -0.205 F 
ATOM     77  C   UNL     1     -10.340  13.963  -7.206  1.00  0.00     0.022 A 
BRANCH  75  78
ATOM     78  S   UNL     1     -11.358  12.323  -9.145  1.00  0.00     0.127 S 
ATOM     79  O   UNL     1     -12.044  11.473  -8.174  1.00  0.00    -0.237 OA
ATOM     80  O   UNL     1     -12.089  13.534  -9.520  1.00  0.00    -0.237 OA
ATOM     81  O   UNL     1     -10.733  11.624 -10.259  1.00  0.00    -0.744 OA
ENDBRANCH  75  78
ENDBRANCH  57  71
BRANCH  58  82
ATOM     82  C   UNL     1       1.830  10.387  -8.825  1.00  0.00     0.023 A 
ATOM     83  C   UNL     1       2.865  11.341  -8.881  1.00  0.00     0.012 A 
ATOM     84  C   UNL     1       2.150   9.020  -8.932  1.00  0.00     0.148 A 
ATOM     85  C   UNL     1       4.189  10.944  -9.071  1.00  0.00     0.002 A 
ATOM     86  C   UNL     1       3.477   8.628  -9.065  1.00  0.00     0.091 A 
ATOM     87  F   UNL     1       1.150   8.128  -8.889  1.00  0.00    -0.205 F 
ATOM     88  C   UNL     1       4.497   9.588  -9.152  1.00  0.00     0.022 A 
BRANCH  86  89
ATOM     89  S   UNL     1       3.977   6.902  -9.039  1.00  0.00     0.127 S 
ATOM     90  O   UNL     1       4.338   6.673 -10.435  1.00  0.00    -0.237 OA
ATOM     91  O   UNL     1       5.104   6.926  -8.106  1.00  0.00    -0.237 OA
ATOM     92  O   UNL     1       2.817   6.167  -8.553  1.00  0.00    -0.744 OA
ENDBRANCH  86  89
ENDBRANCH  58  82
BRANCH  70  93
ATOM     93  C   UNL     1      -2.628  14.170 -12.647  1.00  0.00     0.023 A 
ATOM     94  C   UNL     1      -2.631  13.392 -13.821  1.00  0.00     0.012 A 
ATOM     95  C   UNL     1      -2.597  15.575 -12.748  1.00  0.00     0.148 A 
ATOM     96  C   UNL     1      -2.573  14.000 -15.074  1.00  0.00     0.002 A 
ATOM     97  C   UNL     1      -2.588  16.176 -14.001  1.00  0.00     0.091 A 
ATOM     98  F   UNL     1      -2.575  16.298 -11.618  1.00  0.00    -0.205 F 
ATOM     99  C   UNL     1      -2.565  15.390 -15.165  1.00  0.00     0.022 A 
BRANCH  97 100
ATOM    100  S   UNL     1      -2.671  17.958 -14.213  1.00  0.00     0.127 S 
ATOM    101  O   UNL     1      -1.303  18.274 -14.617  1.00  0.00    -0.237 OA
ATOM    102  O   UNL     1      -3.668  18.099 -15.276  1.00  0.00    -0.237 OA
ATOM    103  O   UNL     1      -3.086  18.495 -12.924  1.00  0.00    -0.744 OA
ENDBRANCH  97 100
ENDBRANCH  70  93
ENDBRANCH  44  45
ENDBRANCH  36  39
ENDBRANCH  34  35
ENDBRANCH  33  34
ENDBRANCH   1  33
TORSDOF 17
