REMARK SMILES COc1cc(/C=C2\SC(=S)N(CC(=O)NCCCNC(=O)c3ccc(-c4c5nc(c(-c6cccc(S(=O)(=O)[O-])c6F)c6ccc([nH]6)c(-c6cccc(S(=O)(=O)[O-])c6F)c6nc(c(-c7cccc(S(=O)(=O)[O-])c7F)c7ccc4[nH]7)C=C6)C=C5)cc3)C2=O)cc2c1OCO2
REMARK SMILES IDX 17 1 16 2 15 3 13 4 14 5 12 7 11 8 6 9 7 10 8 11 85 12 9 13
REMARK SMILES IDX 86 14 10 15 5 16 3 17 4 18 89 19 88 20 90 21 87 22 92 23
REMARK SMILES IDX 91 24 2 25 1 26 18 27 19 28 20 29 21 31 22 32 23 33 84 34
REMARK SMILES IDX 24 35 83 36 25 37 26 38 27 39 77 40 28 41 82 42 76 43 78 44
REMARK SMILES IDX 29 45 81 46 75 47 74 48 30 50 62 51 42 52 61 53 43 54 46 55
REMARK SMILES IDX 60 56 79 57 44 58 45 59 59 61 80 62 47 63 31 64 32 65 40 66
REMARK SMILES IDX 33 67 35 68 41 69 34 70 36 71 37 72 38 73 39 74 63 75 64 76
REMARK SMILES IDX 72 77 65 78 67 79 73 80 66 81 68 82 69 83 70 84 71 85 48 86
REMARK SMILES IDX 49 87 57 88 50 89 52 90 58 91 51 92 53 93 54 94 55 95 56 96
REMARK H PARENT 15 6 19 30 78 49 46 60
REMARK Flexibility Score: inf
ROOT
ATOM      1  C   UNL     1      -2.199   0.155   8.822  1.00  0.00     0.042 C 
ENDROOT
BRANCH   1   2
ATOM      2  C   UNL     1      -2.429  -0.696  10.062  1.00  0.00     0.117 C 
BRANCH   2   3
ATOM      3  N   UNL     1      -3.481  -1.675   9.882  1.00  0.00    -0.354 N 
ATOM      4  C   UNL     1      -3.408  -3.034   9.821  1.00  0.00     0.240 C 
ATOM      5  O   UNL     1      -4.460  -3.660   9.989  1.00  0.00    -0.273 OA
ATOM      6  H   UNL     1      -4.387  -1.301   9.790  1.00  0.00     0.163 HD
BRANCH   4   7
ATOM      7  C   UNL     1      -2.065  -3.770   9.746  1.00  0.00     0.227 C 
BRANCH   7   8
ATOM      8  N   UNL     1      -1.167  -3.302   8.693  1.00  0.00    -0.283 N 
ATOM      9  C   UNL     1      -0.704  -3.120   5.116  1.00  0.00     0.029 C 
ATOM     10  C   UNL     1      -0.529  -3.033   6.440  1.00  0.00     0.081 C 
ATOM     11  S   UNL     1       0.825  -2.442   7.312  1.00  0.00    -0.054 SA
ATOM     12  C   UNL     1      -1.583  -3.486   7.383  1.00  0.00     0.266 C 
ATOM     13  C   UNL     1       0.130  -2.871   8.867  1.00  0.00     0.148 C 
ATOM     14  O   UNL     1      -2.641  -3.982   7.038  1.00  0.00    -0.268 OA
ATOM     15  S   UNL     1       1.008  -2.770  10.284  1.00  0.00    -0.052 S 
BRANCH   9  16
ATOM     16  C   UNL     1       0.249  -2.747   4.065  1.00  0.00    -0.017 A 
ATOM     17  C   UNL     1       0.622  -1.603   1.921  1.00  0.00     0.165 A 
ATOM     18  C   UNL     1      -0.205  -1.937   3.003  1.00  0.00     0.058 A 
ATOM     19  C   UNL     1       1.915  -2.091   1.944  1.00  0.00     0.207 A 
ATOM     20  C   UNL     1       2.369  -2.862   2.997  1.00  0.00     0.170 A 
ATOM     21  O   UNL     1       2.889  -1.950   1.002  1.00  0.00    -0.450 OA
ATOM     22  C   UNL     1       1.560  -3.232   4.050  1.00  0.00     0.059 A 
ATOM     23  O   UNL     1       3.680  -3.221   2.860  1.00  0.00    -0.453 OA
ATOM     24  C   UNL     1       4.041  -2.370   1.748  1.00  0.00     0.468 C 
BRANCH  17  25
ATOM     25  O   UNL     1       0.015  -0.833   0.974  1.00  0.00    -0.493 OA
ATOM     26  C   UNL     1       0.824  -0.354  -0.094  1.00  0.00     0.278 C 
ENDBRANCH  17  25
ENDBRANCH   9  16
ENDBRANCH   7   8
ENDBRANCH   4   7
ENDBRANCH   2   3
ENDBRANCH   1   2
BRANCH   1  27
ATOM     27  C   UNL     1      -3.352   1.105   8.514  1.00  0.00     0.118 C 
BRANCH  27  28
ATOM     28  N   UNL     1      -3.542   2.117   9.549  1.00  0.00    -0.352 N 
ATOM     29  C   UNL     1      -3.533   3.488   9.444  1.00  0.00     0.251 C 
ATOM     30  H   UNL     1      -3.700   1.767  10.455  1.00  0.00     0.163 HD
ATOM     31  O   UNL     1      -3.543   4.182  10.456  1.00  0.00    -0.269 OA
BRANCH  29  32
ATOM     32  C   UNL     1      -3.494   4.117   8.108  1.00  0.00     0.039 A 
ATOM     33  C   UNL     1      -2.588   5.153   7.864  1.00  0.00     0.014 A 
ATOM     34  C   UNL     1      -4.337   3.662   7.093  1.00  0.00     0.014 A 
ATOM     35  C   UNL     1      -2.470   5.676   6.573  1.00  0.00     0.010 A 
ATOM     36  C   UNL     1      -4.161   4.126   5.796  1.00  0.00     0.010 A 
ATOM     37  C   UNL     1      -3.224   5.135   5.520  1.00  0.00    -0.014 A 
BRANCH  37  38
ATOM     38  C   UNL     1      -3.066   5.584   4.113  1.00  0.00     0.031 A 
ATOM     39  C   UNL     1      -4.243   6.184   3.393  1.00  0.00     0.074 A 
ATOM     40  C   UNL     1      -1.915   5.337   3.454  1.00  0.00     0.049 A 
ATOM     41  N   UNL     1      -4.374   6.481   2.128  1.00  0.00    -0.248 NA
ATOM     42  C   UNL     1      -5.445   6.457   4.201  1.00  0.00     0.031 C 
ATOM     43  C   UNL     1      -0.715   4.740   4.042  1.00  0.00     0.029 A 
ATOM     44  N   UNL     1      -1.575   5.530   2.137  1.00  0.00    -0.354 N 
ATOM     45  C   UNL     1      -5.682   6.924   1.977  1.00  0.00     0.074 A 
ATOM     46  C   UNL     1      -6.313   6.836   3.275  1.00  0.00     0.031 C 
ATOM     47  C   UNL     1       0.234   4.634   3.098  1.00  0.00     0.029 A 
ATOM     48  C   UNL     1      -0.305   5.097   1.823  1.00  0.00     0.049 A 
ATOM     49  H   UNL     1      -2.182   5.939   1.479  1.00  0.00     0.167 HD
ATOM     50  C   UNL     1      -6.296   7.383   0.862  1.00  0.00     0.034 A 
ATOM     51  C   UNL     1       0.341   5.066   0.640  1.00  0.00     0.034 A 
ATOM     52  C   UNL     1      -5.645   7.511  -0.413  1.00  0.00     0.049 A 
ATOM     53  C   UNL     1      -0.384   5.558  -0.590  1.00  0.00     0.074 A 
ATOM     54  C   UNL     1      -6.151   8.040  -1.586  1.00  0.00     0.029 A 
ATOM     55  N   UNL     1      -4.349   7.099  -0.682  1.00  0.00    -0.354 N 
ATOM     56  N   UNL     1      -1.580   6.088  -0.690  1.00  0.00    -0.248 NA
ATOM     57  C   UNL     1       0.336   5.467  -1.870  1.00  0.00     0.031 C 
ATOM     58  C   UNL     1      -5.171   7.916  -2.575  1.00  0.00     0.029 A 
ATOM     59  C   UNL     1      -4.042   7.348  -2.007  1.00  0.00     0.049 A 
ATOM     60  H   UNL     1      -3.738   6.691  -0.027  1.00  0.00     0.167 HD
ATOM     61  C   UNL     1      -1.728   6.454  -2.024  1.00  0.00     0.074 A 
ATOM     62  C   UNL     1      -0.501   6.081  -2.696  1.00  0.00     0.031 C 
ATOM     63  C   UNL     1      -2.783   7.042  -2.638  1.00  0.00     0.034 A 
BRANCH  50  64
ATOM     64  C   UNL     1      -7.735   7.815   0.975  1.00  0.00     0.023 A 
ATOM     65  C   UNL     1      -8.062   8.988   1.685  1.00  0.00     0.012 A 
ATOM     66  C   UNL     1      -8.758   7.092   0.329  1.00  0.00     0.148 A 
ATOM     67  C   UNL     1      -9.386   9.414   1.784  1.00  0.00     0.002 A 
ATOM     68  C   UNL     1     -10.069   7.550   0.390  1.00  0.00     0.091 A 
ATOM     69  F   UNL     1      -8.432   5.968  -0.325  1.00  0.00    -0.205 F 
ATOM     70  C   UNL     1     -10.386   8.702   1.128  1.00  0.00     0.022 A 
BRANCH  68  71
ATOM     71  S   UNL     1     -11.416   6.752  -0.489  1.00  0.00     0.127 S 
ATOM     72  O   UNL     1     -12.191   6.183   0.613  1.00  0.00    -0.237 OA
ATOM     73  O   UNL     1     -12.055   7.883  -1.163  1.00  0.00    -0.237 OA
ATOM     74  O   UNL     1     -10.797   5.782  -1.381  1.00  0.00    -0.744 OA
ENDBRANCH  68  71
ENDBRANCH  50  64
BRANCH  51  75
ATOM     75  C   UNL     1       1.776   4.647   0.563  1.00  0.00     0.023 A 
ATOM     76  C   UNL     1       2.737   5.600   0.169  1.00  0.00     0.012 A 
ATOM     77  C   UNL     1       2.213   3.348   0.890  1.00  0.00     0.148 A 
ATOM     78  C   UNL     1       4.086   5.261   0.056  1.00  0.00     0.002 A 
ATOM     79  C   UNL     1       3.571   3.038   0.849  1.00  0.00     0.091 A 
ATOM     80  F   UNL     1       1.297   2.433   1.240  1.00  0.00    -0.205 F 
ATOM     81  C   UNL     1       4.505   3.983   0.406  1.00  0.00     0.022 A 
BRANCH  79  82
ATOM     82  S   UNL     1       4.207   1.479   1.469  1.00  0.00     0.127 S 
ATOM     83  O   UNL     1       4.322   0.686   0.250  1.00  0.00    -0.237 OA
ATOM     84  O   UNL     1       5.489   1.862   2.062  1.00  0.00    -0.237 OA
ATOM     85  O   UNL     1       3.222   1.034   2.446  1.00  0.00    -0.744 OA
ENDBRANCH  79  82
ENDBRANCH  51  75
BRANCH  63  86
ATOM     86  C   UNL     1      -2.647   7.404  -4.094  1.00  0.00     0.023 A 
ATOM     87  C   UNL     1      -2.697   6.402  -5.082  1.00  0.00     0.012 A 
ATOM     88  C   UNL     1      -2.592   8.759  -4.482  1.00  0.00     0.148 A 
ATOM     89  C   UNL     1      -2.675   6.742  -6.434  1.00  0.00     0.002 A 
ATOM     90  C   UNL     1      -2.624   9.092  -5.829  1.00  0.00     0.091 A 
ATOM     91  F   UNL     1      -2.532   9.694  -3.523  1.00  0.00    -0.205 F 
ATOM     92  C   UNL     1      -2.654   8.085  -6.807  1.00  0.00     0.022 A 
BRANCH  90  93
ATOM     93  S   UNL     1      -2.708  10.792  -6.403  1.00  0.00     0.127 S 
ATOM     94  O   UNL     1      -1.412  10.949  -7.061  1.00  0.00    -0.237 OA
ATOM     95  O   UNL     1      -3.853  10.753  -7.312  1.00  0.00    -0.237 OA
ATOM     96  O   UNL     1      -2.903  11.612  -5.215  1.00  0.00    -0.744 OA
ENDBRANCH  90  93
ENDBRANCH  63  86
ENDBRANCH  37  38
ENDBRANCH  29  32
ENDBRANCH  27  28
ENDBRANCH   1  27
TORSDOF 16
