REMARK SMILES C[C@@H]1[C@@H](C(=O)NCCCNC(=O)c2ccc(-c3c4nc(c(-c5cccc(S(=O)(=O)[O-])c5F)c5ccc([nH]5)c(-c5cccc(S(=O)(=O)[O-])c5F)c5nc(c(-c6cccc(S(=O)(=O)[O-])c6F)c6ccc3[nH]6)C=C5)C=C4)cc2)CCN1c1ccc(C(F)(F)F)cc1C#N
REMARK SMILES IDX 8 1 7 2 6 3 4 4 5 5 3 7 1 8 2 9 78 10 76 11 77 12 79 13
REMARK SMILES IDX 80 14 88 15 81 16 87 17 82 18 89 19 90 20 83 21 84 22 85 23
REMARK SMILES IDX 86 24 9 25 10 26 11 27 12 29 13 30 14 31 75 32 15 33 74 34
REMARK SMILES IDX 16 35 17 36 18 37 68 38 19 39 73 40 67 41 69 42 20 43 72 44
REMARK SMILES IDX 66 45 65 46 21 48 53 49 33 50 52 51 34 52 37 53 51 54 70 55
REMARK SMILES IDX 35 56 36 57 50 59 71 60 38 61 22 62 23 63 31 64 24 65 26 66
REMARK SMILES IDX 32 67 25 68 27 69 28 70 29 71 30 72 54 73 55 74 63 75 56 76
REMARK SMILES IDX 58 77 64 78 57 79 59 80 60 81 61 82 62 83 39 84 40 85 48 86
REMARK SMILES IDX 41 87 43 88 49 89 42 90 44 91 45 92 46 93 47 94
REMARK H PARENT 6 6 10 28 69 47 37 58
REMARK Flexibility Score: inf
ROOT
ATOM      1  C   UNL     1      -2.971   4.194  -1.193  1.00  0.00     0.042 C 
ENDROOT
BRANCH   1   2
ATOM      2  C   UNL     1      -2.625   2.768  -0.823  1.00  0.00     0.117 C 
BRANCH   2   3
ATOM      3  N   UNL     1      -1.892   2.052  -1.849  1.00  0.00    -0.356 N 
ATOM      4  C   UNL     1      -0.857   1.177  -1.719  1.00  0.00     0.225 C 
ATOM      5  O   UNL     1      -0.441   0.646  -2.749  1.00  0.00    -0.275 OA
ATOM      6  H   UNL     1      -2.186   2.223  -2.773  1.00  0.00     0.163 HD
BRANCH   4   7
ATOM      7  C   UNL     1      -0.213   0.965  -0.353  1.00  0.00     0.102 C 
ATOM      8  C   UNL     1       2.037   0.189   0.469  1.00  0.00     0.032 C 
ATOM      9  C   UNL     1       0.842  -0.176  -0.411  1.00  0.00     0.091 C 
ATOM     10  N   UNL     1       0.122  -1.352   0.136  1.00  0.00    -0.367 N 
ATOM     11  C   UNL     1      -1.162   0.482   0.749  1.00  0.00     0.037 C 
ATOM     12  C   UNL     1      -1.247  -1.005   0.496  1.00  0.00     0.118 C 
BRANCH  10  13
ATOM     13  C   UNL     1       0.370  -2.651  -0.267  1.00  0.00     0.055 A 
ATOM     14  C   UNL     1      -0.424  -3.254  -1.261  1.00  0.00     0.028 A 
ATOM     15  C   UNL     1       1.327  -3.458   0.373  1.00  0.00     0.076 A 
ATOM     16  C   UNL     1      -0.321  -4.616  -1.564  1.00  0.00     0.015 A 
ATOM     17  C   UNL     1       1.448  -4.821   0.051  1.00  0.00     0.034 A 
ATOM     18  C   UNL     1       0.611  -5.419  -0.900  1.00  0.00     0.057 A 
BRANCH  15  19
ATOM     19  C   UNL     1       2.154  -2.958   1.440  1.00  0.00     0.101 C 
ATOM     20  N   UNL     1       2.849  -2.628   2.304  1.00  0.00    -0.192 NA
ENDBRANCH  15  19
BRANCH  18  21
ATOM     21  C   UNL     1       0.675  -6.900  -1.174  1.00  0.00     0.416 C 
ATOM     22  F   UNL     1      -0.459  -7.547  -0.785  1.00  0.00    -0.166 F 
ATOM     23  F   UNL     1       0.836  -7.186  -2.495  1.00  0.00    -0.166 F 
ATOM     24  F   UNL     1       1.698  -7.526  -0.529  1.00  0.00    -0.166 F 
ENDBRANCH  18  21
ENDBRANCH  10  13
ENDBRANCH   4   7
ENDBRANCH   2   3
ENDBRANCH   1   2
BRANCH   1  25
ATOM     25  C   UNL     1      -3.739   4.344  -2.492  1.00  0.00     0.118 C 
BRANCH  25  26
ATOM     26  N   UNL     1      -5.051   3.710  -2.471  1.00  0.00    -0.352 N 
ATOM     27  C   UNL     1      -6.307   4.273  -2.498  1.00  0.00     0.251 C 
ATOM     28  H   UNL     1      -5.037   2.726  -2.431  1.00  0.00     0.163 HD
ATOM     29  O   UNL     1      -7.295   3.564  -2.327  1.00  0.00    -0.269 OA
BRANCH  27  30
ATOM     30  C   UNL     1      -6.461   5.732  -2.694  1.00  0.00     0.039 A 
ATOM     31  C   UNL     1      -7.377   6.433  -1.908  1.00  0.00     0.014 A 
ATOM     32  C   UNL     1      -5.678   6.415  -3.626  1.00  0.00     0.014 A 
ATOM     33  C   UNL     1      -7.437   7.826  -1.994  1.00  0.00     0.010 A 
ATOM     34  C   UNL     1      -5.644   7.803  -3.614  1.00  0.00     0.010 A 
ATOM     35  C   UNL     1      -6.533   8.528  -2.809  1.00  0.00    -0.014 A 
BRANCH  35  36
ATOM     36  C   UNL     1      -6.503  10.013  -2.843  1.00  0.00     0.031 A 
ATOM     37  C   UNL     1      -6.715  10.744  -4.144  1.00  0.00     0.074 A 
ATOM     38  C   UNL     1      -6.201  10.704  -1.725  1.00  0.00     0.049 A 
ATOM     39  N   UNL     1      -6.664  12.028  -4.386  1.00  0.00    -0.248 NA
ATOM     40  C   UNL     1      -6.988   9.924  -5.338  1.00  0.00     0.031 C 
ATOM     41  C   UNL     1      -5.896  10.113  -0.419  1.00  0.00     0.029 A 
ATOM     42  N   UNL     1      -6.080  12.055  -1.511  1.00  0.00    -0.354 N 
ATOM     43  C   UNL     1      -6.860  12.165  -5.755  1.00  0.00     0.074 A 
ATOM     44  C   UNL     1      -6.983  10.833  -6.301  1.00  0.00     0.031 C 
ATOM     45  C   UNL     1      -5.642  11.094   0.461  1.00  0.00     0.029 A 
ATOM     46  C   UNL     1      -5.721  12.380  -0.223  1.00  0.00     0.049 A 
ATOM     47  H   UNL     1      -6.234  12.727  -2.213  1.00  0.00     0.167 HD
ATOM     48  C   UNL     1      -6.963  13.297  -6.491  1.00  0.00     0.034 A 
ATOM     49  C   UNL     1      -5.471  13.578   0.342  1.00  0.00     0.034 A 
ATOM     50  C   UNL     1      -6.874  14.622  -5.941  1.00  0.00     0.049 A 
ATOM     51  C   UNL     1      -5.609  14.822  -0.494  1.00  0.00     0.074 A 
ATOM     52  C   UNL     1      -7.046  15.833  -6.587  1.00  0.00     0.029 A 
ATOM     53  N   UNL     1      -6.575  14.912  -4.619  1.00  0.00    -0.354 N 
ATOM     54  N   UNL     1      -5.941  14.936  -1.757  1.00  0.00    -0.248 NA
ATOM     55  C   UNL     1      -5.369  16.106   0.181  1.00  0.00     0.031 C 
ATOM     56  C   UNL     1      -6.809  16.856  -5.665  1.00  0.00     0.029 A 
ATOM     57  C   UNL     1      -6.541  16.282  -4.432  1.00  0.00     0.049 A 
ATOM     58  H   UNL     1      -6.412  14.241  -3.917  1.00  0.00     0.167 HD
ATOM     59  C   UNL     1      -5.992  16.301  -2.016  1.00  0.00     0.074 A 
ATOM     60  C   UNL     1      -5.674  16.973  -0.774  1.00  0.00     0.031 C 
ATOM     61  C   UNL     1      -6.269  16.939  -3.180  1.00  0.00     0.034 A 
BRANCH  48  62
ATOM     62  C   UNL     1      -7.222  13.151  -7.969  1.00  0.00     0.023 A 
ATOM     63  C   UNL     1      -8.467  12.666  -8.419  1.00  0.00     0.012 A 
ATOM     64  C   UNL     1      -6.253  13.545  -8.913  1.00  0.00     0.148 A 
ATOM     65  C   UNL     1      -8.730  12.536  -9.782  1.00  0.00     0.002 A 
ATOM     66  C   UNL     1      -6.542  13.462 -10.270  1.00  0.00     0.091 A 
ATOM     67  F   UNL     1      -5.068  13.985  -8.467  1.00  0.00    -0.205 F 
ATOM     68  C   UNL     1      -7.772  12.944 -10.706  1.00  0.00     0.022 A 
BRANCH  66  69
ATOM     69  S   UNL     1      -5.410  14.039 -11.539  1.00  0.00     0.127 S 
ATOM     70  O   UNL     1      -5.027  12.784 -12.185  1.00  0.00    -0.237 OA
ATOM     71  O   UNL     1      -6.272  14.902 -12.346  1.00  0.00    -0.237 OA
ATOM     72  O   UNL     1      -4.337  14.731 -10.839  1.00  0.00    -0.744 OA
ENDBRANCH  66  69
ENDBRANCH  48  62
BRANCH  49  73
ATOM     73  C   UNL     1      -5.114  13.666   1.787  1.00  0.00     0.023 A 
ATOM     74  C   UNL     1      -6.020  14.252   2.693  1.00  0.00     0.012 A 
ATOM     75  C   UNL     1      -3.890  13.165   2.268  1.00  0.00     0.148 A 
ATOM     76  C   UNL     1      -5.696  14.373   4.045  1.00  0.00     0.002 A 
ATOM     77  C   UNL     1      -3.598  13.234   3.625  1.00  0.00     0.091 A 
ATOM     78  F   UNL     1      -3.039  12.617   1.389  1.00  0.00    -0.205 F 
ATOM     79  C   UNL     1      -4.490  13.856   4.513  1.00  0.00     0.022 A 
BRANCH  77  80
ATOM     80  S   UNL     1      -2.131  12.482   4.337  1.00  0.00     0.127 S 
ATOM     81  O   UNL     1      -1.375  13.653   4.772  1.00  0.00    -0.237 OA
ATOM     82  O   UNL     1      -2.702  11.678   5.418  1.00  0.00    -0.237 OA
ATOM     83  O   UNL     1      -1.527  11.703   3.264  1.00  0.00    -0.744 OA
ENDBRANCH  77  80
ENDBRANCH  49  73
BRANCH  61  84
ATOM     84  C   UNL     1      -6.296  18.446  -3.163  1.00  0.00     0.023 A 
ATOM     85  C   UNL     1      -5.100  19.177  -3.023  1.00  0.00     0.012 A 
ATOM     86  C   UNL     1      -7.509  19.136  -3.358  1.00  0.00     0.148 A 
ATOM     87  C   UNL     1      -5.116  20.571  -3.041  1.00  0.00     0.002 A 
ATOM     88  C   UNL     1      -7.510  20.523  -3.431  1.00  0.00     0.091 A 
ATOM     89  F   UNL     1      -8.639  18.422  -3.474  1.00  0.00    -0.205 F 
ATOM     90  C   UNL     1      -6.317  21.243  -3.257  1.00  0.00     0.022 A 
BRANCH  88  91
ATOM     91  S   UNL     1      -8.990  21.468  -3.807  1.00  0.00     0.127 S 
ATOM     92  O   UNL     1      -9.245  22.140  -2.534  1.00  0.00    -0.237 OA
ATOM     93  O   UNL     1      -8.529  22.348  -4.881  1.00  0.00    -0.237 OA
ATOM     94  O   UNL     1      -9.998  20.497  -4.210  1.00  0.00    -0.744 OA
ENDBRANCH  88  91
ENDBRANCH  61  84
ENDBRANCH  35  36
ENDBRANCH  27  30
ENDBRANCH  25  26
ENDBRANCH   1  25
TORSDOF 16
