REMARK SMILES C[C@H](Oc1ccc(Cl)cc1Cl)C(=O)NNC(=O)[C@H]1CCCC[C@H]1C(=O)NCCCNC(=O)c1ccc(-c2c3nc(c(-c4cccc(S(=O)(=O)[O-])c4F)c4ccc([nH]4)c(-c4cccc(S(=O)(=O)[O-])c4F)c4nc(c(-c5cccc(S(=O)(=O)[O-])c5F)c5ccc2[nH]5)C=C4)C=C3)cc1
REMARK SMILES IDX 27 1 26 2 24 3 25 4 23 6 18 7 19 8 20 9 22 10 21 11 16 12
REMARK SMILES IDX 15 13 17 15 14 16 12 17 13 18 2 20 1 21 3 22 4 23 5 24 10 25
REMARK SMILES IDX 6 26 9 27 11 28 7 29 8 30 28 31 29 32 30 33 31 34 32 36
REMARK SMILES IDX 33 37 34 38 95 39 35 40 94 41 36 42 37 43 38 44 88 45 39 46
REMARK SMILES IDX 93 47 87 48 89 49 40 50 92 51 86 52 85 53 41 55 73 56 53 57
REMARK SMILES IDX 72 58 54 59 57 60 71 61 90 62 55 63 56 64 70 66 91 67 58 68
REMARK SMILES IDX 42 69 43 70 51 71 44 72 46 73 52 74 45 75 47 76 48 77 49 78
REMARK SMILES IDX 50 79 74 80 75 81 83 82 76 83 78 84 84 85 77 86 79 87 80 88
REMARK SMILES IDX 81 89 82 90 59 91 60 92 68 93 61 94 63 95 69 96 62 97 64 98
REMARK SMILES IDX 65 99 66 100 67 101
REMARK H PARENT 26 5 15 14 14 19 30 35 89 54 57 65
REMARK Flexibility Score: inf
ROOT
ATOM      1  C   UNL     1      -5.245   0.450   0.218  1.00  0.00     0.117 C 
ENDROOT
BRANCH   1   2
ATOM      2  N   UNL     1      -4.272  -0.295   1.006  1.00  0.00    -0.356 N 
ATOM      3  C   UNL     1      -3.656  -0.047   2.194  1.00  0.00     0.223 C 
ATOM      4  O   UNL     1      -2.855  -0.896   2.602  1.00  0.00    -0.275 OA
ATOM      5  H   UNL     1      -4.006  -1.150   0.596  1.00  0.00     0.163 HD
BRANCH   3   6
ATOM      6  C   UNL     1      -3.971   1.171   3.070  1.00  0.00     0.091 C 
ATOM      7  C   UNL     1      -3.299   2.544   2.695  1.00  0.00     0.092 C 
ATOM      8  C   UNL     1      -3.997   3.722   3.395  1.00  0.00     0.014 C 
ATOM      9  C   UNL     1      -5.514   3.643   3.385  1.00  0.00     0.001 C 
ATOM     10  C   UNL     1      -5.471   1.153   3.442  1.00  0.00     0.014 C 
ATOM     11  C   UNL     1      -5.967   2.406   4.136  1.00  0.00     0.001 C 
BRANCH   7  12
ATOM     12  C   UNL     1      -2.835   2.682   1.226  1.00  0.00     0.242 C 
ATOM     13  N   UNL     1      -2.903   3.851   0.509  1.00  0.00    -0.267 N 
ATOM     14  H   UNL     1      -3.227   3.819  -0.420  1.00  0.00     0.191 HD
ATOM     15  O   UNL     1      -2.288   1.728   0.665  1.00  0.00    -0.273 OA
BRANCH  13  16
ATOM     16  N   UNL     1      -2.530   5.080   1.048  1.00  0.00    -0.264 N 
ATOM     17  C   UNL     1      -2.654   6.299   0.418  1.00  0.00     0.279 C 
ATOM     18  O   UNL     1      -2.226   7.289   1.020  1.00  0.00    -0.269 OA
ATOM     19  H   UNL     1      -2.146   5.077   1.954  1.00  0.00     0.191 HD
BRANCH  17  20
ATOM     20  C   UNL     1      -3.397   6.426  -0.925  1.00  0.00     0.260 C 
ATOM     21  C   UNL     1      -4.883   6.117  -0.687  1.00  0.00     0.064 C 
BRANCH  20  22
ATOM     22  O   UNL     1      -2.774   5.573  -1.894  1.00  0.00    -0.479 OA
BRANCH  22  23
ATOM     23  C   UNL     1      -3.496   5.409  -3.046  1.00  0.00     0.139 A 
ATOM     24  C   UNL     1      -4.036   6.463  -3.783  1.00  0.00     0.049 A 
ATOM     25  C   UNL     1      -3.725   4.100  -3.458  1.00  0.00     0.084 A 
ATOM     26  C   UNL     1      -4.903   6.192  -4.849  1.00  0.00     0.024 A 
ATOM     27  C   UNL     1      -4.673   3.824  -4.439  1.00  0.00     0.045 A 
ATOM     28  Cl  UNL     1      -2.704   2.839  -2.884  1.00  0.00    -0.080 Cl
ATOM     29  C   UNL     1      -5.248   4.875  -5.147  1.00  0.00     0.042 A 
ATOM     30  Cl  UNL     1      -6.301   4.534  -6.465  1.00  0.00    -0.084 Cl
ENDBRANCH  22  23
ENDBRANCH  20  22
ENDBRANCH  17  20
ENDBRANCH  13  16
ENDBRANCH   7  12
ENDBRANCH   3   6
ENDBRANCH   1   2
BRANCH   1  31
ATOM     31  C   UNL     1      -4.743   0.864  -1.159  1.00  0.00     0.042 C 
BRANCH  31  32
ATOM     32  C   UNL     1      -4.252  -0.252  -2.073  1.00  0.00     0.118 C 
BRANCH  32  33
ATOM     33  N   UNL     1      -5.307  -0.791  -2.917  1.00  0.00    -0.352 N 
ATOM     34  C   UNL     1      -5.537  -0.692  -4.271  1.00  0.00     0.251 C 
ATOM     35  H   UNL     1      -5.979  -1.323  -2.432  1.00  0.00     0.163 HD
ATOM     36  O   UNL     1      -6.607  -1.117  -4.706  1.00  0.00    -0.269 OA
BRANCH  34  37
ATOM     37  C   UNL     1      -4.574  -0.048  -5.212  1.00  0.00     0.039 A 
ATOM     38  C   UNL     1      -5.089   0.686  -6.292  1.00  0.00     0.014 A 
ATOM     39  C   UNL     1      -3.188  -0.161  -5.084  1.00  0.00     0.014 A 
ATOM     40  C   UNL     1      -4.232   1.393  -7.152  1.00  0.00     0.010 A 
ATOM     41  C   UNL     1      -2.333   0.581  -5.911  1.00  0.00     0.010 A 
ATOM     42  C   UNL     1      -2.845   1.379  -6.944  1.00  0.00    -0.014 A 
BRANCH  42  43
ATOM     43  C   UNL     1      -1.921   2.119  -7.852  1.00  0.00     0.031 A 
ATOM     44  C   UNL     1      -1.149   1.359  -8.872  1.00  0.00     0.074 A 
ATOM     45  C   UNL     1      -1.690   3.440  -7.717  1.00  0.00     0.049 A 
ATOM     46  N   UNL     1      -0.236   1.803  -9.689  1.00  0.00    -0.248 NA
ATOM     47  C   UNL     1      -1.371  -0.093  -8.924  1.00  0.00     0.031 C 
ATOM     48  C   UNL     1      -2.202   4.217  -6.613  1.00  0.00     0.029 A 
ATOM     49  N   UNL     1      -0.967   4.360  -8.436  1.00  0.00    -0.354 N 
ATOM     50  C   UNL     1       0.281   0.679 -10.306  1.00  0.00     0.074 A 
ATOM     51  C   UNL     1      -0.420  -0.467  -9.766  1.00  0.00     0.031 C 
ATOM     52  C   UNL     1      -1.888   5.510  -6.758  1.00  0.00     0.029 A 
ATOM     53  C   UNL     1      -1.058   5.649  -7.941  1.00  0.00     0.049 A 
ATOM     54  H   UNL     1      -0.434   4.124  -9.229  1.00  0.00     0.167 HD
ATOM     55  C   UNL     1       1.260   0.616 -11.235  1.00  0.00     0.034 A 
ATOM     56  C   UNL     1      -0.504   6.806  -8.363  1.00  0.00     0.034 A 
ATOM     57  C   UNL     1       1.956   1.765 -11.745  1.00  0.00     0.049 A 
ATOM     58  C   UNL     1       0.488   6.716  -9.486  1.00  0.00     0.074 A 
ATOM     59  C   UNL     1       2.944   1.809 -12.710  1.00  0.00     0.029 A 
ATOM     60  N   UNL     1       1.746   3.072 -11.326  1.00  0.00    -0.354 N 
ATOM     61  N   UNL     1       0.889   5.650 -10.134  1.00  0.00    -0.248 NA
ATOM     62  C   UNL     1       1.131   7.964  -9.921  1.00  0.00     0.031 C 
ATOM     63  C   UNL     1       3.336   3.141 -12.872  1.00  0.00     0.029 A 
ATOM     64  C   UNL     1       2.565   3.933 -12.035  1.00  0.00     0.049 A 
ATOM     65  H   UNL     1       1.108   3.346 -10.628  1.00  0.00     0.167 HD
ATOM     66  C   UNL     1       1.828   6.093 -11.050  1.00  0.00     0.074 A 
ATOM     67  C   UNL     1       1.905   7.534 -10.908  1.00  0.00     0.031 C 
ATOM     68  C   UNL     1       2.583   5.368 -11.907  1.00  0.00     0.034 A 
BRANCH  55  69
ATOM     69  C   UNL     1       1.603  -0.749 -11.755  1.00  0.00     0.023 A 
ATOM     70  C   UNL     1       0.667  -1.438 -12.554  1.00  0.00     0.012 A 
ATOM     71  C   UNL     1       2.833  -1.356 -11.445  1.00  0.00     0.148 A 
ATOM     72  C   UNL     1       0.930  -2.732 -12.997  1.00  0.00     0.002 A 
ATOM     73  C   UNL     1       3.110  -2.624 -11.935  1.00  0.00     0.091 A 
ATOM     74  F   UNL     1       3.696  -0.692 -10.663  1.00  0.00    -0.205 F 
ATOM     75  C   UNL     1       2.154  -3.321 -12.694  1.00  0.00     0.022 A 
BRANCH  73  76
ATOM     76  S   UNL     1       4.683  -3.447 -11.670  1.00  0.00     0.127 S 
ATOM     77  O   UNL     1       4.283  -4.599 -10.865  1.00  0.00    -0.237 OA
ATOM     78  O   UNL     1       5.090  -3.767 -13.037  1.00  0.00    -0.237 OA
ATOM     79  O   UNL     1       5.535  -2.481 -10.987  1.00  0.00    -0.744 OA
ENDBRANCH  73  76
ENDBRANCH  55  69
BRANCH  56  80
ATOM     80  C   UNL     1      -0.862   8.129  -7.758  1.00  0.00     0.023 A 
ATOM     81  C   UNL     1      -1.487   9.106  -8.564  1.00  0.00     0.012 A 
ATOM     82  C   UNL     1      -0.605   8.442  -6.411  1.00  0.00     0.148 A 
ATOM     83  C   UNL     1      -1.802  10.370  -8.057  1.00  0.00     0.002 A 
ATOM     84  C   UNL     1      -1.007   9.669  -5.887  1.00  0.00     0.091 A 
ATOM     85  F   UNL     1       0.032   7.538  -5.652  1.00  0.00    -0.205 F 
ATOM     86  C   UNL     1      -1.576  10.647  -6.714  1.00  0.00     0.022 A 
BRANCH  84  87
ATOM     87  S   UNL     1      -0.962   9.994  -4.120  1.00  0.00     0.127 S 
ATOM     88  O   UNL     1       0.265  10.771  -3.984  1.00  0.00    -0.237 OA
ATOM     89  O   UNL     1      -2.201  10.746  -3.912  1.00  0.00    -0.237 OA
ATOM     90  O   UNL     1      -0.975   8.675  -3.498  1.00  0.00    -0.744 OA
ENDBRANCH  84  87
ENDBRANCH  56  80
BRANCH  68  91
ATOM     91  C   UNL     1       3.508   6.130 -12.812  1.00  0.00     0.023 A 
ATOM     92  C   UNL     1       4.699   6.686 -12.309  1.00  0.00     0.012 A 
ATOM     93  C   UNL     1       3.215   6.224 -14.184  1.00  0.00     0.148 A 
ATOM     94  C   UNL     1       5.580   7.348 -13.163  1.00  0.00     0.002 A 
ATOM     95  C   UNL     1       4.121   6.837 -15.036  1.00  0.00     0.091 A 
ATOM     96  F   UNL     1       2.060   5.707 -14.627  1.00  0.00    -0.205 F 
ATOM     97  C   UNL     1       5.298   7.410 -14.527  1.00  0.00     0.022 A 
BRANCH  95  98
ATOM     98  S   UNL     1       3.886   6.877 -16.814  1.00  0.00     0.127 S 
ATOM     99  O   UNL     1       3.665   8.303 -17.052  1.00  0.00    -0.237 OA
ATOM    100  O   UNL     1       5.167   6.367 -17.304  1.00  0.00    -0.237 OA
ATOM    101  O   UNL     1       2.743   6.018 -17.092  1.00  0.00    -0.744 OA
ENDBRANCH  95  98
ENDBRANCH  68  91
ENDBRANCH  42  43
ENDBRANCH  34  37
ENDBRANCH  32  33
ENDBRANCH  31  32
ENDBRANCH   1  31
TORSDOF 18
