REMARK SMILES C#CC[C@]1(C(=O)NCCCNC(=O)c2ccc(-c3c4nc(c(-c5cccc(S(=O)(=O)[O-])c5F)c5ccc([nH]5)c(-c5cccc(S(=O)(=O)[O-])c5F)c5nc(c(-c6cccc(S(=O)(=O)[O-])c6F)c6ccc3[nH]6)C=C5)C=C4)cc2)CC[C@@H](C)C1
REMARK SMILES IDX 9 1 8 2 7 3 5 4 6 5 4 7 77 8 81 9 78 10 79 11 80 12 3 13
REMARK SMILES IDX 2 14 1 15 10 16 11 17 12 18 13 20 14 21 15 22 76 23 16 24
REMARK SMILES IDX 75 25 17 26 18 27 19 28 69 29 20 30 74 31 68 32 70 33 21 34
REMARK SMILES IDX 73 35 67 36 66 37 22 39 54 40 34 41 53 42 35 43 38 44 52 45
REMARK SMILES IDX 71 46 36 47 37 48 51 50 72 51 39 52 23 53 24 54 32 55 25 56
REMARK SMILES IDX 27 57 33 58 26 59 28 60 29 61 30 62 31 63 55 64 56 65 64 66
REMARK SMILES IDX 57 67 59 68 65 69 58 70 60 71 61 72 62 73 63 74 40 75 41 76
REMARK SMILES IDX 49 77 42 78 44 79 50 80 43 81 45 82 46 83 47 84 48 85
REMARK H PARENT 7 6 11 19 70 38 38 49
REMARK Flexibility Score: inf
ROOT
ATOM      1  C   UNL     1      -4.750   0.357  -1.785  1.00  0.00     0.042 C 
ENDROOT
BRANCH   1   2
ATOM      2  C   UNL     1      -3.592  -0.618  -1.655  1.00  0.00     0.117 C 
BRANCH   2   3
ATOM      3  N   UNL     1      -2.388  -0.030  -1.109  1.00  0.00    -0.356 N 
ATOM      4  C   UNL     1      -1.739  -0.178   0.071  1.00  0.00     0.227 C 
ATOM      5  O   UNL     1      -0.567   0.226   0.066  1.00  0.00    -0.274 OA
ATOM      6  H   UNL     1      -1.952   0.607  -1.719  1.00  0.00     0.163 HD
BRANCH   4   7
ATOM      7  C   UNL     1      -2.320  -0.813   1.361  1.00  0.00     0.060 C 
ATOM      8  C   UNL     1      -3.850  -1.026   1.422  1.00  0.00     0.018 C 
ATOM      9  C   UNL     1      -1.755  -2.244   1.540  1.00  0.00     0.021 C 
ATOM     10  C   UNL     1      -4.131  -2.516   1.184  1.00  0.00     0.004 C 
ATOM     11  C   UNL     1      -2.789  -3.213   0.967  1.00  0.00    -0.013 C 
ATOM     12  C   UNL     1      -2.507  -3.612  -0.480  1.00  0.00     0.007 C 
BRANCH   7  13
ATOM     13  C   UNL     1      -1.747   0.117   2.501  1.00  0.00     0.106 C 
BRANCH  13  14
ATOM     14  C   UNL     1      -2.684   0.214   3.693  1.00  0.00    -0.106 C 
ATOM     15  C   UNL     1      -3.488   0.296   4.717  1.00  0.00     0.004 C 
ENDBRANCH  13  14
ENDBRANCH   7  13
ENDBRANCH   4   7
ENDBRANCH   2   3
ENDBRANCH   1   2
BRANCH   1  16
ATOM     16  C   UNL     1      -4.792   1.027  -3.146  1.00  0.00     0.118 C 
BRANCH  16  17
ATOM     17  N   UNL     1      -5.015   0.067  -4.231  1.00  0.00    -0.352 N 
ATOM     18  C   UNL     1      -6.011   0.017  -5.174  1.00  0.00     0.251 C 
ATOM     19  H   UNL     1      -4.348  -0.654  -4.293  1.00  0.00     0.163 HD
ATOM     20  O   UNL     1      -6.135  -0.967  -5.888  1.00  0.00    -0.269 OA
BRANCH  18  21
ATOM     21  C   UNL     1      -6.936   1.161  -5.305  1.00  0.00     0.039 A 
ATOM     22  C   UNL     1      -8.306   0.927  -5.450  1.00  0.00     0.014 A 
ATOM     23  C   UNL     1      -6.438   2.463  -5.254  1.00  0.00     0.014 A 
ATOM     24  C   UNL     1      -9.188   2.009  -5.469  1.00  0.00     0.010 A 
ATOM     25  C   UNL     1      -7.321   3.524  -5.165  1.00  0.00     0.010 A 
ATOM     26  C   UNL     1      -8.702   3.312  -5.288  1.00  0.00    -0.014 A 
BRANCH  26  27
ATOM     27  C   UNL     1      -9.584   4.502  -5.250  1.00  0.00     0.031 A 
ATOM     28  C   UNL     1      -9.352   5.605  -6.247  1.00  0.00     0.074 A 
ATOM     29  C   UNL     1     -10.452   4.666  -4.234  1.00  0.00     0.049 A 
ATOM     30  N   UNL     1      -9.806   6.828  -6.247  1.00  0.00    -0.248 NA
ATOM     31  C   UNL     1      -8.428   5.305  -7.356  1.00  0.00     0.031 C 
ATOM     32  C   UNL     1     -10.697   3.700  -3.162  1.00  0.00     0.029 A 
ATOM     33  N   UNL     1     -11.251   5.733  -3.909  1.00  0.00    -0.354 N 
ATOM     34  C   UNL     1      -9.159   7.466  -7.298  1.00  0.00     0.074 A 
ATOM     35  C   UNL     1      -8.263   6.502  -7.897  1.00  0.00     0.031 C 
ATOM     36  C   UNL     1     -11.576   4.221  -2.292  1.00  0.00     0.029 A 
ATOM     37  C   UNL     1     -11.928   5.570  -2.723  1.00  0.00     0.049 A 
ATOM     38  H   UNL     1     -11.332   6.537  -4.471  1.00  0.00     0.167 HD
ATOM     39  C   UNL     1      -9.317   8.735  -7.743  1.00  0.00     0.034 A 
ATOM     40  C   UNL     1     -12.729   6.422  -2.053  1.00  0.00     0.034 A 
ATOM     41  C   UNL     1     -10.286   9.646  -7.202  1.00  0.00     0.049 A 
ATOM     42  C   UNL     1     -12.992   7.782  -2.639  1.00  0.00     0.074 A 
ATOM     43  C   UNL     1     -10.627  10.908  -7.652  1.00  0.00     0.029 A 
ATOM     44  N   UNL     1     -11.085   9.380  -6.100  1.00  0.00    -0.354 N 
ATOM     45  N   UNL     1     -12.481   8.324  -3.719  1.00  0.00    -0.248 NA
ATOM     46  C   UNL     1     -13.966   8.634  -1.944  1.00  0.00     0.031 C 
ATOM     47  C   UNL     1     -11.637  11.404  -6.821  1.00  0.00     0.029 A 
ATOM     48  C   UNL     1     -11.929  10.447  -5.861  1.00  0.00     0.049 A 
ATOM     49  H   UNL     1     -11.055   8.553  -5.567  1.00  0.00     0.167 HD
ATOM     50  C   UNL     1     -13.097   9.562  -3.855  1.00  0.00     0.074 A 
ATOM     51  C   UNL     1     -14.028   9.686  -2.751  1.00  0.00     0.031 C 
ATOM     52  C   UNL     1     -12.901  10.514  -4.799  1.00  0.00     0.034 A 
BRANCH  39  53
ATOM     53  C   UNL     1      -8.472   9.175  -8.908  1.00  0.00     0.023 A 
ATOM     54  C   UNL     1      -8.716   8.638 -10.188  1.00  0.00     0.012 A 
ATOM     55  C   UNL     1      -7.449  10.129  -8.745  1.00  0.00     0.148 A 
ATOM     56  C   UNL     1      -7.926   9.003 -11.277  1.00  0.00     0.002 A 
ATOM     57  C   UNL     1      -6.695  10.524  -9.846  1.00  0.00     0.091 A 
ATOM     58  F   UNL     1      -7.207  10.612  -7.518  1.00  0.00    -0.205 F 
ATOM     59  C   UNL     1      -6.922   9.952 -11.108  1.00  0.00     0.022 A 
BRANCH  57  60
ATOM     60  S   UNL     1      -5.437  11.802  -9.731  1.00  0.00     0.127 S 
ATOM     61  O   UNL     1      -4.214  11.008  -9.639  1.00  0.00    -0.237 OA
ATOM     62  O   UNL     1      -5.602  12.520 -10.996  1.00  0.00    -0.237 OA
ATOM     63  O   UNL     1      -5.779  12.583  -8.551  1.00  0.00    -0.744 OA
ENDBRANCH  57  60
ENDBRANCH  39  53
BRANCH  40  64
ATOM     64  C   UNL     1     -13.402   5.966  -0.804  1.00  0.00     0.023 A 
ATOM     65  C   UNL     1     -14.777   5.663  -0.842  1.00  0.00     0.012 A 
ATOM     66  C   UNL     1     -12.684   5.753   0.389  1.00  0.00     0.148 A 
ATOM     67  C   UNL     1     -15.430   5.174   0.289  1.00  0.00     0.002 A 
ATOM     68  C   UNL     1     -13.330   5.219   1.499  1.00  0.00     0.091 A 
ATOM     69  F   UNL     1     -11.377   6.050   0.404  1.00  0.00    -0.205 F 
ATOM     70  C   UNL     1     -14.706   4.942   1.455  1.00  0.00     0.022 A 
BRANCH  68  71
ATOM     71  S   UNL     1     -12.456   4.760   3.001  1.00  0.00     0.127 S 
ATOM     72  O   UNL     1     -12.959   5.746   3.953  1.00  0.00    -0.237 OA
ATOM     73  O   UNL     1     -12.932   3.393   3.220  1.00  0.00    -0.237 OA
ATOM     74  O   UNL     1     -11.039   4.857   2.678  1.00  0.00    -0.744 OA
ENDBRANCH  68  71
ENDBRANCH  40  64
BRANCH  52  75
ATOM     75  C   UNL     1     -13.736  11.762  -4.724  1.00  0.00     0.023 A 
ATOM     76  C   UNL     1     -13.416  12.760  -3.785  1.00  0.00     0.012 A 
ATOM     77  C   UNL     1     -14.754  11.995  -5.670  1.00  0.00     0.148 A 
ATOM     78  C   UNL     1     -14.107  13.971  -3.780  1.00  0.00     0.002 A 
ATOM     79  C   UNL     1     -15.409  13.220  -5.686  1.00  0.00     0.091 A 
ATOM     80  F   UNL     1     -15.053  11.020  -6.541  1.00  0.00    -0.205 F 
ATOM     81  C   UNL     1     -15.091  14.206  -4.739  1.00  0.00     0.022 A 
BRANCH  79  82
ATOM     82  S   UNL     1     -16.619  13.645  -6.944  1.00  0.00     0.127 S 
ATOM     83  O   UNL     1     -17.868  13.589  -6.186  1.00  0.00    -0.237 OA
ATOM     84  O   UNL     1     -16.202  14.992  -7.335  1.00  0.00    -0.237 OA
ATOM     85  O   UNL     1     -16.478  12.642  -7.992  1.00  0.00    -0.744 OA
ENDBRANCH  79  82
ENDBRANCH  52  75
ENDBRANCH  26  27
ENDBRANCH  18  21
ENDBRANCH  16  17
ENDBRANCH   1  16
TORSDOF 15
