REMARK SMILES [NH3+][C@@H](Cc1ccncc1)C(=O)NCCCNC(=O)c1ccc(-c2c3nc(c(-c4cccc(S(=O)(=O)[O-])c4F)c4ccc([nH]4)c(-c4cccc(S(=O)(=O)[O-])c4F)c4nc(c(-c5cccc(S(=O)(=O)[O-])c5F)c5ccc2[nH]5)C=C4)C=C3)cc1
REMARK SMILES IDX 14 1 13 2 12 3 10 4 11 5 2 7 1 8 3 12 4 13 5 14 9 15 6 16
REMARK SMILES IDX 8 17 7 18 15 19 16 20 17 21 18 23 19 24 20 25 81 26 21 27
REMARK SMILES IDX 80 28 22 29 23 30 24 31 74 32 25 33 79 34 73 35 75 36 26 37
REMARK SMILES IDX 78 38 72 39 71 40 27 42 59 43 39 44 58 45 40 46 43 47 57 48
REMARK SMILES IDX 76 49 41 50 42 51 56 53 77 54 44 55 28 56 29 57 37 58 30 59
REMARK SMILES IDX 32 60 38 61 31 62 33 63 34 64 35 65 36 66 60 67 61 68 69 69
REMARK SMILES IDX 62 70 64 71 70 72 63 73 65 74 66 75 67 76 68 77 45 78 46 79
REMARK SMILES IDX 54 80 47 81 49 82 55 83 48 84 50 85 51 86 52 87 53 88
REMARK H PARENT 12 6 1 9 1 10 1 11 16 22 75 41 43 52
REMARK Flexibility Score: inf
ROOT
ATOM      1  C   UNL     1      -1.953  -1.091   1.800  1.00  0.00     0.042 C 
ENDROOT
BRANCH   1   2
ATOM      2  C   UNL     1      -1.562  -1.798   0.520  1.00  0.00     0.118 C 
BRANCH   2   3
ATOM      3  N   UNL     1      -1.699  -1.031  -0.689  1.00  0.00    -0.351 N 
ATOM      4  C   UNL     1      -0.728  -0.746  -1.610  1.00  0.00     0.278 C 
ATOM      5  O   UNL     1      -1.103  -0.394  -2.734  1.00  0.00    -0.268 OA
ATOM      6  H   UNL     1      -2.595  -0.669  -0.876  1.00  0.00     0.163 HD
BRANCH   4   7
ATOM      7  C   UNL     1       0.790  -0.829  -1.273  1.00  0.00     0.275 C 
BRANCH   7   8
ATOM      8  N   UNL     1       1.129   0.068  -0.153  1.00  0.00    -0.347 N 
ATOM      9  H   UNL     1       2.127  -0.003   0.049  1.00  0.00     0.345 HD
ATOM     10  H   UNL     1       0.595  -0.202   0.672  1.00  0.00     0.345 HD
ATOM     11  H   UNL     1       0.901   1.029  -0.407  1.00  0.00     0.345 HD
ENDBRANCH   7   8
BRANCH   7  12
ATOM     12  C   UNL     1       1.447  -2.240  -1.288  1.00  0.00     0.111 C 
BRANCH  12  13
ATOM     13  C   UNL     1       1.322  -3.216  -0.134  1.00  0.00    -0.038 A 
ATOM     14  C   UNL     1       1.644  -2.882   1.190  1.00  0.00     0.024 A 
ATOM     15  C   UNL     1       0.867  -4.519  -0.376  1.00  0.00     0.024 A 
ATOM     16  C   UNL     1       1.395  -3.804   2.199  1.00  0.00     0.111 A 
ATOM     17  C   UNL     1       0.689  -5.385   0.695  1.00  0.00     0.111 A 
ATOM     18  N   UNL     1       0.923  -5.047   1.977  1.00  0.00    -0.265 NA
ENDBRANCH  12  13
ENDBRANCH   7  12
ENDBRANCH   4   7
ENDBRANCH   2   3
ENDBRANCH   1   2
BRANCH   1  19
ATOM     19  C   UNL     1      -3.347  -1.431   2.296  1.00  0.00     0.118 C 
BRANCH  19  20
ATOM     20  N   UNL     1      -3.581  -2.861   2.478  1.00  0.00    -0.352 N 
ATOM     21  C   UNL     1      -4.103  -3.577   3.526  1.00  0.00     0.251 C 
ATOM     22  H   UNL     1      -3.316  -3.413   1.706  1.00  0.00     0.163 HD
ATOM     23  O   UNL     1      -4.157  -4.803   3.433  1.00  0.00    -0.269 OA
BRANCH  21  24
ATOM     24  C   UNL     1      -4.567  -2.913   4.763  1.00  0.00     0.039 A 
ATOM     25  C   UNL     1      -4.401  -3.578   5.982  1.00  0.00     0.014 A 
ATOM     26  C   UNL     1      -5.165  -1.653   4.743  1.00  0.00     0.014 A 
ATOM     27  C   UNL     1      -4.772  -2.950   7.173  1.00  0.00     0.010 A 
ATOM     28  C   UNL     1      -5.406  -0.978   5.933  1.00  0.00     0.010 A 
ATOM     29  C   UNL     1      -5.239  -1.626   7.162  1.00  0.00    -0.014 A 
BRANCH  29  30
ATOM     30  C   UNL     1      -5.572  -0.913   8.421  1.00  0.00     0.031 A 
ATOM     31  C   UNL     1      -6.959  -0.367   8.644  1.00  0.00     0.074 A 
ATOM     32  C   UNL     1      -4.603  -0.691   9.331  1.00  0.00     0.049 A 
ATOM     33  N   UNL     1      -7.429   0.290   9.673  1.00  0.00    -0.248 NA
ATOM     34  C   UNL     1      -7.938  -0.543   7.556  1.00  0.00     0.031 C 
ATOM     35  C   UNL     1      -3.195  -1.068   9.180  1.00  0.00     0.029 A 
ATOM     36  N   UNL     1      -4.651  -0.083  10.560  1.00  0.00    -0.354 N 
ATOM     37  C   UNL     1      -8.733   0.639   9.339  1.00  0.00     0.074 A 
ATOM     38  C   UNL     1      -8.965   0.170   7.992  1.00  0.00     0.031 C 
ATOM     39  C   UNL     1      -2.521  -0.709  10.284  1.00  0.00     0.029 A 
ATOM     40  C   UNL     1      -3.440  -0.058  11.211  1.00  0.00     0.049 A 
ATOM     41  H   UNL     1      -5.475   0.300  10.939  1.00  0.00     0.167 HD
ATOM     42  C   UNL     1      -9.670   1.254  10.098  1.00  0.00     0.034 A 
ATOM     43  C   UNL     1      -3.111   0.423  12.425  1.00  0.00     0.034 A 
ATOM     44  C   UNL     1      -9.455   1.657  11.461  1.00  0.00     0.049 A 
ATOM     45  C   UNL     1      -4.195   1.011  13.288  1.00  0.00     0.074 A 
ATOM     46  C   UNL     1     -10.363   2.194  12.355  1.00  0.00     0.029 A 
ATOM     47  N   UNL     1      -8.244   1.560  12.129  1.00  0.00    -0.354 N 
ATOM     48  N   UNL     1      -5.468   1.173  13.018  1.00  0.00    -0.248 NA
ATOM     49  C   UNL     1      -3.807   1.437  14.639  1.00  0.00     0.031 C 
ATOM     50  C   UNL     1      -9.696   2.436  13.561  1.00  0.00     0.029 A 
ATOM     51  C   UNL     1      -8.379   2.028  13.424  1.00  0.00     0.049 A 
ATOM     52  H   UNL     1      -7.410   1.211  11.739  1.00  0.00     0.167 HD
ATOM     53  C   UNL     1      -6.040   1.688  14.175  1.00  0.00     0.074 A 
ATOM     54  C   UNL     1      -4.978   1.781  15.157  1.00  0.00     0.031 C 
ATOM     55  C   UNL     1      -7.322   2.066  14.402  1.00  0.00     0.034 A 
BRANCH  42  56
ATOM     56  C   UNL     1     -11.035   1.461   9.492  1.00  0.00     0.023 A 
ATOM     57  C   UNL     1     -11.869   0.346   9.259  1.00  0.00     0.012 A 
ATOM     58  C   UNL     1     -11.514   2.752   9.196  1.00  0.00     0.148 A 
ATOM     59  C   UNL     1     -13.137   0.508   8.704  1.00  0.00     0.002 A 
ATOM     60  C   UNL     1     -12.799   2.910   8.688  1.00  0.00     0.091 A 
ATOM     61  F   UNL     1     -10.702   3.799   9.402  1.00  0.00    -0.205 F 
ATOM     62  C   UNL     1     -13.606   1.789   8.429  1.00  0.00     0.022 A 
BRANCH  60  63
ATOM     63  S   UNL     1     -13.527   4.522   8.376  1.00  0.00     0.127 S 
ATOM     64  O   UNL     1     -13.558   4.554   6.915  1.00  0.00    -0.237 OA
ATOM     65  O   UNL     1     -14.840   4.393   9.010  1.00  0.00    -0.237 OA
ATOM     66  O   UNL     1     -12.642   5.491   9.005  1.00  0.00    -0.744 OA
ENDBRANCH  60  63
ENDBRANCH  42  56
BRANCH  43  67
ATOM     67  C   UNL     1      -1.718   0.273  12.934  1.00  0.00     0.023 A 
ATOM     68  C   UNL     1      -1.458  -0.638  13.976  1.00  0.00     0.012 A 
ATOM     69  C   UNL     1      -0.648   0.995  12.371  1.00  0.00     0.148 A 
ATOM     70  C   UNL     1      -0.165  -0.801  14.474  1.00  0.00     0.002 A 
ATOM     71  C   UNL     1       0.646   0.787  12.834  1.00  0.00     0.091 A 
ATOM     72  F   UNL     1      -0.916   1.864  11.386  1.00  0.00    -0.205 F 
ATOM     73  C   UNL     1       0.888  -0.097  13.897  1.00  0.00     0.022 A 
BRANCH  71  74
ATOM     74  S   UNL     1       2.077   1.546  12.058  1.00  0.00     0.127 S 
ATOM     75  O   UNL     1       2.460   2.548  13.050  1.00  0.00    -0.237 OA
ATOM     76  O   UNL     1       2.997   0.414  11.940  1.00  0.00    -0.237 OA
ATOM     77  O   UNL     1       1.601   2.064  10.783  1.00  0.00    -0.744 OA
ENDBRANCH  71  74
ENDBRANCH  43  67
BRANCH  55  78
ATOM     78  C   UNL     1      -7.657   2.587  15.774  1.00  0.00     0.023 A 
ATOM     79  C   UNL     1      -7.187   3.853  16.176  1.00  0.00     0.012 A 
ATOM     80  C   UNL     1      -8.478   1.846  16.645  1.00  0.00     0.148 A 
ATOM     81  C   UNL     1      -7.492   4.354  17.441  1.00  0.00     0.002 A 
ATOM     82  C   UNL     1      -8.820   2.373  17.885  1.00  0.00     0.091 A 
ATOM     83  F   UNL     1      -8.900   0.634  16.255  1.00  0.00    -0.205 F 
ATOM     84  C   UNL     1      -8.316   3.619  18.290  1.00  0.00     0.022 A 
BRANCH  82  85
ATOM     85  S   UNL     1      -9.956   1.536  18.996  1.00  0.00     0.127 S 
ATOM     86  O   UNL     1      -9.040   0.946  19.970  1.00  0.00    -0.237 OA
ATOM     87  O   UNL     1     -10.764   2.642  19.511  1.00  0.00    -0.237 OA
ATOM     88  O   UNL     1     -10.693   0.590  18.168  1.00  0.00    -0.744 OA
ENDBRANCH  82  85
ENDBRANCH  55  78
ENDBRANCH  29  30
ENDBRANCH  21  24
ENDBRANCH  19  20
ENDBRANCH   1  19
TORSDOF 16
