REMARK SMILES CO[C@H]1C[C@@H](C(=O)NCCCNC(=O)c2ccc(-c3c4nc(c(-c5cccc(S(=O)(=O)[O-])c5F)c5ccc([nH]5)c(-c5cccc(S(=O)(=O)[O-])c5F)c5nc(c(-c6cccc(S(=O)(=O)[O-])c6F)c6ccc3[nH]6)C=C5)C=C4)cc2)N(C(=O)[C@@H](CCSC)NC(N)=O)C1
REMARK SMILES IDX 9 1 8 2 6 3 7 4 5 6 3 7 4 8 90 9 78 10 2 11 1 12 79 13 80 14
REMARK SMILES IDX 81 15 82 16 83 17 84 18 85 19 86 20 87 21 88 23 89 24 10 27
REMARK SMILES IDX 11 28 12 29 13 30 14 32 15 33 16 34 77 35 17 36 76 37 18 38
REMARK SMILES IDX 19 39 20 40 70 41 21 42 75 43 69 44 71 45 22 46 74 47 68 48
REMARK SMILES IDX 67 49 23 51 55 52 35 53 54 54 36 55 39 56 53 57 72 58 37 59
REMARK SMILES IDX 38 60 52 62 73 63 40 64 24 65 25 66 33 67 26 68 28 69 34 70
REMARK SMILES IDX 27 71 29 72 30 73 31 74 32 75 56 76 57 77 65 78 58 79 60 80
REMARK SMILES IDX 66 81 59 82 61 83 62 84 63 85 64 86 41 87 42 88 50 89 43 90
REMARK SMILES IDX 45 91 51 92 44 93 46 94 47 95 48 96 49 97
REMARK H PARENT 8 5 86 22 88 25 88 26 12 31 71 50 39 61
REMARK Flexibility Score: inf
ROOT
ATOM      1  C   UNL     1      -3.843  -1.310  -1.752  1.00  0.00     0.117 C 
ENDROOT
BRANCH   1   2
ATOM      2  N   UNL     1      -2.884  -0.680  -2.650  1.00  0.00    -0.354 N 
ATOM      3  C   UNL     1      -1.628  -1.070  -3.027  1.00  0.00     0.242 C 
ATOM      4  O   UNL     1      -1.108  -0.435  -3.947  1.00  0.00    -0.273 OA
ATOM      5  H   UNL     1      -3.190   0.165  -3.052  1.00  0.00     0.163 HD
BRANCH   3   6
ATOM      6  C   UNL     1      -0.856  -2.138  -2.211  1.00  0.00     0.177 C 
ATOM      7  C   UNL     1       1.325  -2.037  -1.057  1.00  0.00     0.139 C 
ATOM      8  C   UNL     1       0.248  -1.181  -1.665  1.00  0.00     0.069 C 
ATOM      9  C   UNL     1       1.209  -3.326  -1.851  1.00  0.00     0.152 C 
ATOM     10  N   UNL     1      -0.027  -3.306  -2.662  1.00  0.00    -0.326 N 
BRANCH   7  11
ATOM     11  O   UNL     1       2.646  -1.517  -1.222  1.00  0.00    -0.380 OA
ATOM     12  C   UNL     1       2.819  -0.165  -0.826  1.00  0.00     0.195 C 
ENDBRANCH   7  11
BRANCH  10  13
ATOM     13  C   UNL     1      -0.245  -4.539  -3.271  1.00  0.00     0.246 C 
ATOM     14  O   UNL     1       0.609  -5.428  -3.054  1.00  0.00    -0.272 OA
BRANCH  13  15
ATOM     15  C   UNL     1      -1.288  -4.947  -4.351  1.00  0.00     0.174 C 
BRANCH  15  16
ATOM     16  C   UNL     1      -2.783  -4.698  -4.210  1.00  0.00     0.046 C 
BRANCH  16  17
ATOM     17  C   UNL     1      -3.361  -3.378  -4.693  1.00  0.00     0.072 C 
BRANCH  17  18
ATOM     18  S   UNL     1      -3.202  -2.903  -6.446  1.00  0.00    -0.165 SA
ATOM     19  C   UNL     1      -1.767  -1.790  -6.358  1.00  0.00     0.085 C 
ENDBRANCH  17  18
ENDBRANCH  16  17
ENDBRANCH  15  16
BRANCH  15  20
ATOM     20  N   UNL     1      -0.801  -4.760  -5.710  1.00  0.00    -0.327 N 
ATOM     21  C   UNL     1      -0.901  -5.712  -6.682  1.00  0.00     0.312 C 
ATOM     22  H   UNL     1      -0.378  -3.901  -5.940  1.00  0.00     0.166 HD
ATOM     23  N   UNL     1      -0.880  -5.163  -7.926  1.00  0.00    -0.352 N 
ATOM     24  O   UNL     1      -1.061  -6.903  -6.512  1.00  0.00    -0.249 OA
ATOM     25  H   UNL     1      -0.748  -4.194  -8.034  1.00  0.00     0.161 HD
ATOM     26  H   UNL     1      -0.996  -5.736  -8.718  1.00  0.00     0.161 HD
ENDBRANCH  15  20
ENDBRANCH  13  15
ENDBRANCH  10  13
ENDBRANCH   3   6
ENDBRANCH   1   2
BRANCH   1  27
ATOM     27  C   UNL     1      -5.226  -0.660  -1.853  1.00  0.00     0.042 C 
BRANCH  27  28
ATOM     28  C   UNL     1      -5.853  -0.716  -3.248  1.00  0.00     0.118 C 
BRANCH  28  29
ATOM     29  N   UNL     1      -6.695  -1.885  -3.462  1.00  0.00    -0.352 N 
ATOM     30  C   UNL     1      -8.054  -1.970  -3.665  1.00  0.00     0.251 C 
ATOM     31  H   UNL     1      -6.219  -2.746  -3.462  1.00  0.00     0.163 HD
ATOM     32  O   UNL     1      -8.588  -3.075  -3.724  1.00  0.00    -0.269 OA
BRANCH  30  33
ATOM     33  C   UNL     1      -8.878  -0.745  -3.763  1.00  0.00     0.039 A 
ATOM     34  C   UNL     1     -10.057  -0.666  -3.016  1.00  0.00     0.014 A 
ATOM     35  C   UNL     1      -8.493   0.326  -4.571  1.00  0.00     0.014 A 
ATOM     36  C   UNL     1     -10.803   0.517  -3.019  1.00  0.00     0.010 A 
ATOM     37  C   UNL     1      -9.184   1.534  -4.497  1.00  0.00     0.010 A 
ATOM     38  C   UNL     1     -10.353   1.643  -3.728  1.00  0.00    -0.014 A 
BRANCH  38  39
ATOM     39  C   UNL     1     -11.096   2.931  -3.683  1.00  0.00     0.031 A 
ATOM     40  C   UNL     1     -11.648   3.537  -4.949  1.00  0.00     0.074 A 
ATOM     41  C   UNL     1     -11.211   3.601  -2.518  1.00  0.00     0.049 A 
ATOM     42  N   UNL     1     -12.290   4.665  -5.113  1.00  0.00    -0.248 NA
ATOM     43  C   UNL     1     -11.415   2.797  -6.201  1.00  0.00     0.031 C 
ATOM     44  C   UNL     1     -10.638   3.180  -1.237  1.00  0.00     0.029 A 
ATOM     45  N   UNL     1     -11.834   4.789  -2.224  1.00  0.00    -0.354 N 
ATOM     46  C   UNL     1     -12.496   4.791  -6.482  1.00  0.00     0.074 A 
ATOM     47  C   UNL     1     -11.870   3.647  -7.109  1.00  0.00     0.031 C 
ATOM     48  C   UNL     1     -10.950   4.085  -0.294  1.00  0.00     0.029 A 
ATOM     49  C   UNL     1     -11.728   5.160  -0.903  1.00  0.00     0.049 A 
ATOM     50  H   UNL     1     -12.313   5.327  -2.896  1.00  0.00     0.167 HD
ATOM     51  C   UNL     1     -13.179   5.745  -7.159  1.00  0.00     0.034 A 
ATOM     52  C   UNL     1     -12.213   6.236  -0.252  1.00  0.00     0.034 A 
ATOM     53  C   UNL     1     -13.863   6.842  -6.530  1.00  0.00     0.049 A 
ATOM     54  C   UNL     1     -13.051   7.231  -1.010  1.00  0.00     0.074 A 
ATOM     55  C   UNL     1     -14.663   7.808  -7.114  1.00  0.00     0.029 A 
ATOM     56  N   UNL     1     -13.835   7.115  -5.171  1.00  0.00    -0.354 N 
ATOM     57  N   UNL     1     -13.375   7.239  -2.280  1.00  0.00    -0.248 NA
ATOM     58  C   UNL     1     -13.631   8.338  -0.235  1.00  0.00     0.031 C 
ATOM     59  C   UNL     1     -15.114   8.669  -6.108  1.00  0.00     0.029 A 
ATOM     60  C   UNL     1     -14.608   8.229  -4.895  1.00  0.00     0.049 A 
ATOM     61  H   UNL     1     -13.338   6.593  -4.501  1.00  0.00     0.167 HD
ATOM     62  C   UNL     1     -14.226   8.326  -2.449  1.00  0.00     0.074 A 
ATOM     63  C   UNL     1     -14.387   8.937  -1.145  1.00  0.00     0.031 C 
ATOM     64  C   UNL     1     -14.808   8.789  -3.584  1.00  0.00     0.034 A 
BRANCH  51  65
ATOM     65  C   UNL     1     -13.280   5.600  -8.656  1.00  0.00     0.023 A 
ATOM     66  C   UNL     1     -14.079   4.572  -9.199  1.00  0.00     0.012 A 
ATOM     67  C   UNL     1     -12.623   6.494  -9.523  1.00  0.00     0.148 A 
ATOM     68  C   UNL     1     -14.188   4.409 -10.579  1.00  0.00     0.002 A 
ATOM     69  C   UNL     1     -12.774   6.353 -10.899  1.00  0.00     0.091 A 
ATOM     70  F   UNL     1     -11.850   7.452  -8.991  1.00  0.00    -0.205 F 
ATOM     71  C   UNL     1     -13.545   5.305 -11.428  1.00  0.00     0.022 A 
BRANCH  69  72
ATOM     72  S   UNL     1     -12.051   7.503 -12.075  1.00  0.00     0.127 S 
ATOM     73  O   UNL     1     -10.974   6.698 -12.650  1.00  0.00    -0.237 OA
ATOM     74  O   UNL     1     -13.170   7.761 -12.981  1.00  0.00    -0.237 OA
ATOM     75  O   UNL     1     -11.623   8.656 -11.296  1.00  0.00    -0.744 OA
ENDBRANCH  69  72
ENDBRANCH  51  65
BRANCH  52  76
ATOM     76  C   UNL     1     -12.003   6.377   1.218  1.00  0.00     0.023 A 
ATOM     77  C   UNL     1     -13.098   6.205   2.088  1.00  0.00     0.012 A 
ATOM     78  C   UNL     1     -10.734   6.655   1.760  1.00  0.00     0.148 A 
ATOM     79  C   UNL     1     -12.941   6.343   3.468  1.00  0.00     0.002 A 
ATOM     80  C   UNL     1     -10.573   6.737   3.139  1.00  0.00     0.091 A 
ATOM     81  F   UNL     1      -9.706   6.826   0.917  1.00  0.00    -0.205 F 
ATOM     82  C   UNL     1     -11.678   6.599   3.994  1.00  0.00     0.022 A 
BRANCH  80  83
ATOM     83  S   UNL     1      -8.961   6.929   3.908  1.00  0.00     0.127 S 
ATOM     84  O   UNL     1      -9.010   8.314   4.367  1.00  0.00    -0.237 OA
ATOM     85  O   UNL     1      -9.009   5.924   4.972  1.00  0.00    -0.237 OA
ATOM     86  O   UNL     1      -7.992   6.639   2.860  1.00  0.00    -0.744 OA
ENDBRANCH  80  83
ENDBRANCH  52  76
BRANCH  64  87
ATOM     87  C   UNL     1     -15.704   9.993  -3.465  1.00  0.00     0.023 A 
ATOM     88  C   UNL     1     -15.143  11.264  -3.228  1.00  0.00     0.012 A 
ATOM     89  C   UNL     1     -17.096   9.876  -3.647  1.00  0.00     0.148 A 
ATOM     90  C   UNL     1     -15.957  12.392  -3.136  1.00  0.00     0.002 A 
ATOM     91  C   UNL     1     -17.895  11.012  -3.602  1.00  0.00     0.091 A 
ATOM     92  F   UNL     1     -17.617   8.656  -3.850  1.00  0.00    -0.205 F 
ATOM     93  C   UNL     1     -17.330  12.269  -3.334  1.00  0.00     0.022 A 
BRANCH  91  94
ATOM     94  S   UNL     1     -19.658  10.948  -3.943  1.00  0.00     0.127 S 
ATOM     95  O   UNL     1     -20.224  10.963  -2.596  1.00  0.00    -0.237 OA
ATOM     96  O   UNL     1     -19.877  12.175  -4.710  1.00  0.00    -0.237 OA
ATOM     97  O   UNL     1     -19.866   9.722  -4.703  1.00  0.00    -0.744 OA
ENDBRANCH  91  94
ENDBRANCH  64  87
ENDBRANCH  38  39
ENDBRANCH  30  33
ENDBRANCH  28  29
ENDBRANCH  27  28
ENDBRANCH   1  27
TORSDOF 20
