REMARK SMILES Cc1nc(-c2ccccc2)sc1C(=O)N[C@@H](CC1=c2ccccc2=NC1)C(=O)NCCCNC(=O)c1ccc(-c2c3nc(c(-c4cccc(S(=O)(=O)[O-])c4F)c4ccc([nH]4)c(-c4cccc(S(=O)(=O)[O-])c4F)c4nc(c(-c5cccc(S(=O)(=O)[O-])c5F)c5ccc2[nH]5)C=C4)C=C3)cc1
REMARK SMILES IDX 31 1 30 2 29 3 27 4 28 5 16 7 15 8 13 9 14 10 12 12 1 13
REMARK SMILES IDX 2 14 3 15 4 16 11 17 5 18 6 19 10 20 7 21 9 22 8 23 17 24
REMARK SMILES IDX 18 25 19 26 26 27 20 28 24 29 25 30 21 31 23 32 22 33 32 34
REMARK SMILES IDX 33 35 34 36 35 38 36 39 37 40 98 41 38 42 97 43 39 44 40 45
REMARK SMILES IDX 41 46 91 47 42 48 96 49 90 50 92 51 43 52 95 53 89 54 88 55
REMARK SMILES IDX 44 57 76 58 56 59 75 60 57 61 60 62 74 63 93 64 58 65 59 66
REMARK SMILES IDX 73 68 94 69 61 70 45 71 46 72 54 73 47 74 49 75 55 76 48 77
REMARK SMILES IDX 50 78 51 79 52 80 53 81 77 82 78 83 86 84 79 85 81 86 87 87
REMARK SMILES IDX 80 88 82 89 83 90 84 91 85 92 62 93 63 94 71 95 64 96 66 97
REMARK SMILES IDX 72 98 65 99 67 100 68 101 69 102 70 103
REMARK H PARENT 29 6 15 11 33 37 92 56 60 67
REMARK Flexibility Score: inf
ROOT
ATOM      1  C   UNL     1      -3.305  -6.238   2.033  1.00  0.00     0.042 C 
ENDROOT
BRANCH   1   2
ATOM      2  C   UNL     1      -3.830  -5.125   1.168  1.00  0.00     0.117 C 
BRANCH   2   3
ATOM      3  N   UNL     1      -4.138  -3.903   1.863  1.00  0.00    -0.354 N 
ATOM      4  C   UNL     1      -4.008  -2.630   1.410  1.00  0.00     0.242 C 
ATOM      5  O   UNL     1      -4.639  -1.751   2.008  1.00  0.00    -0.273 OA
ATOM      6  H   UNL     1      -4.487  -4.002   2.778  1.00  0.00     0.163 HD
BRANCH   4   7
ATOM      7  C   UNL     1      -3.157  -2.262   0.176  1.00  0.00     0.175 C 
BRANCH   7   8
ATOM      8  N   UNL     1      -1.768  -2.673   0.234  1.00  0.00    -0.339 N 
ATOM      9  C   UNL     1      -0.584  -2.000   0.087  1.00  0.00     0.263 C 
ATOM     10  O   UNL     1       0.387  -2.769   0.093  1.00  0.00    -0.268 OA
ATOM     11  H   UNL     1      -1.652  -3.634   0.416  1.00  0.00     0.164 HD
BRANCH   9  12
ATOM     12  C   UNL     1      -0.428  -0.550  -0.047  1.00  0.00     0.115 A 
ATOM     13  C   UNL     1      -2.652   0.823  -0.541  1.00  0.00     0.068 C 
ATOM     14  C   UNL     1      -1.210   0.589  -0.266  1.00  0.00     0.062 A 
ATOM     15  N   UNL     1      -0.523   1.788  -0.225  1.00  0.00    -0.241 NA
ATOM     16  C   UNL     1       0.759   1.607  -0.067  1.00  0.00     0.124 A 
ATOM     17  S   UNL     1       1.248  -0.006   0.081  1.00  0.00    -0.108 S 
BRANCH  16  18
ATOM     18  C   UNL     1       1.681   2.731  -0.009  1.00  0.00     0.010 A 
ATOM     19  C   UNL     1       1.488   3.699   0.987  1.00  0.00     0.011 A 
ATOM     20  C   UNL     1       2.611   2.964  -1.028  1.00  0.00     0.011 A 
ATOM     21  C   UNL     1       2.196   4.897   0.954  1.00  0.00     0.001 A 
ATOM     22  C   UNL     1       3.314   4.170  -1.064  1.00  0.00     0.001 A 
ATOM     23  C   UNL     1       3.099   5.137  -0.080  1.00  0.00     0.000 A 
ENDBRANCH  16  18
ENDBRANCH   9  12
ENDBRANCH   7   8
BRANCH   7  24
ATOM     24  C   UNL     1      -3.802  -2.465  -1.222  1.00  0.00     0.068 C 
BRANCH  24  25
ATOM     25  C   UNL     1      -4.014  -3.859  -1.732  1.00  0.00    -0.037 C 
ATOM     26  C   UNL     1      -3.117  -4.795  -2.044  1.00  0.00     0.001 A 
ATOM     27  C   UNL     1      -5.405  -4.414  -1.850  1.00  0.00     0.174 C 
ATOM     28  C   UNL     1      -1.691  -4.861  -2.098  1.00  0.00     0.010 A 
ATOM     29  C   UNL     1      -3.945  -6.017  -2.096  1.00  0.00     0.065 A 
ATOM     30  N   UNL     1      -5.233  -5.872  -2.028  1.00  0.00    -0.280 NA
ATOM     31  C   UNL     1      -1.098  -6.065  -2.091  1.00  0.00     0.001 A 
ATOM     32  C   UNL     1      -3.218  -7.306  -2.089  1.00  0.00     0.028 A 
ATOM     33  C   UNL     1      -1.875  -7.293  -2.046  1.00  0.00     0.002 A 
ENDBRANCH  24  25
ENDBRANCH   7  24
ENDBRANCH   4   7
ENDBRANCH   2   3
ENDBRANCH   1   2
BRANCH   1  34
ATOM     34  C   UNL     1      -4.288  -6.690   3.090  1.00  0.00     0.118 C 
BRANCH  34  35
ATOM     35  N   UNL     1      -5.574  -7.124   2.550  1.00  0.00    -0.352 N 
ATOM     36  C   UNL     1      -6.178  -8.363   2.549  1.00  0.00     0.251 C 
ATOM     37  H   UNL     1      -6.096  -6.413   2.113  1.00  0.00     0.163 HD
ATOM     38  O   UNL     1      -7.211  -8.540   1.929  1.00  0.00    -0.269 OA
BRANCH  36  39
ATOM     39  C   UNL     1      -5.542  -9.481   3.280  1.00  0.00     0.039 A 
ATOM     40  C   UNL     1      -5.509 -10.748   2.696  1.00  0.00     0.014 A 
ATOM     41  C   UNL     1      -4.936  -9.263   4.515  1.00  0.00     0.014 A 
ATOM     42  C   UNL     1      -4.782 -11.766   3.314  1.00  0.00     0.010 A 
ATOM     43  C   UNL     1      -4.083 -10.221   5.037  1.00  0.00     0.010 A 
ATOM     44  C   UNL     1      -4.017 -11.494   4.461  1.00  0.00    -0.014 A 
BRANCH  44  45
ATOM     45  C   UNL     1      -3.150 -12.527   5.080  1.00  0.00     0.031 A 
ATOM     46  C   UNL     1      -3.339 -12.908   6.526  1.00  0.00     0.074 A 
ATOM     47  C   UNL     1      -2.140 -13.060   4.363  1.00  0.00     0.049 A 
ATOM     48  N   UNL     1      -2.673 -13.776   7.241  1.00  0.00    -0.248 NA
ATOM     49  C   UNL     1      -4.379 -12.190   7.285  1.00  0.00     0.031 C 
ATOM     50  C   UNL     1      -1.778 -12.680   2.994  1.00  0.00     0.029 A 
ATOM     51  N   UNL     1      -1.224 -14.026   4.689  1.00  0.00    -0.354 N 
ATOM     52  C   UNL     1      -3.182 -13.676   8.530  1.00  0.00     0.074 A 
ATOM     53  C   UNL     1      -4.168 -12.621   8.518  1.00  0.00     0.031 C 
ATOM     54  C   UNL     1      -0.744 -13.431   2.586  1.00  0.00     0.029 A 
ATOM     55  C   UNL     1      -0.349 -14.324   3.670  1.00  0.00     0.049 A 
ATOM     56  H   UNL     1      -1.194 -14.466   5.569  1.00  0.00     0.167 HD
ATOM     57  C   UNL     1      -2.894 -14.427   9.619  1.00  0.00     0.034 A 
ATOM     58  C   UNL     1       0.650 -15.226   3.613  1.00  0.00     0.034 A 
ATOM     59  C   UNL     1      -1.961 -15.519   9.606  1.00  0.00     0.049 A 
ATOM     60  C   UNL     1       0.891 -16.108   4.806  1.00  0.00     0.074 A 
ATOM     61  C   UNL     1      -1.671 -16.417  10.616  1.00  0.00     0.029 A 
ATOM     62  N   UNL     1      -1.163 -15.859   8.524  1.00  0.00    -0.354 N 
ATOM     63  N   UNL     1       0.270 -16.122   5.961  1.00  0.00    -0.248 NA
ATOM     64  C   UNL     1       1.941 -17.127   4.675  1.00  0.00     0.031 C 
ATOM     65  C   UNL     1      -0.680 -17.288  10.151  1.00  0.00     0.029 A 
ATOM     66  C   UNL     1      -0.373 -16.948   8.843  1.00  0.00     0.049 A 
ATOM     67  H   UNL     1      -1.160 -15.393   7.657  1.00  0.00     0.167 HD
ATOM     68  C   UNL     1       0.835 -17.165   6.685  1.00  0.00     0.074 A 
ATOM     69  C   UNL     1       1.823 -17.781   5.822  1.00  0.00     0.031 C 
ATOM     70  C   UNL     1       0.577 -17.567   7.955  1.00  0.00     0.034 A 
BRANCH  57  71
ATOM     71  C   UNL     1      -3.649 -14.133  10.890  1.00  0.00     0.023 A 
ATOM     72  C   UNL     1      -5.028 -14.425  10.965  1.00  0.00     0.012 A 
ATOM     73  C   UNL     1      -2.995 -13.604  12.019  1.00  0.00     0.148 A 
ATOM     74  C   UNL     1      -5.752 -14.156  12.126  1.00  0.00     0.002 A 
ATOM     75  C   UNL     1      -3.712 -13.386  13.190  1.00  0.00     0.091 A 
ATOM     76  F   UNL     1      -1.691 -13.309  11.923  1.00  0.00    -0.205 F 
ATOM     77  C   UNL     1      -5.092 -13.648  13.241  1.00  0.00     0.022 A 
BRANCH  75  78
ATOM     78  S   UNL     1      -2.941 -12.810  14.706  1.00  0.00     0.127 S 
ATOM     79  O   UNL     1      -3.477 -11.454  14.813  1.00  0.00    -0.237 OA
ATOM     80  O   UNL     1      -3.468 -13.752  15.694  1.00  0.00    -0.237 OA
ATOM     81  O   UNL     1      -1.505 -12.900  14.486  1.00  0.00    -0.744 OA
ENDBRANCH  75  78
ENDBRANCH  57  71
BRANCH  58  82
ATOM     82  C   UNL     1       1.429 -15.397   2.353  1.00  0.00     0.023 A 
ATOM     83  C   UNL     1       1.258 -16.568   1.588  1.00  0.00     0.012 A 
ATOM     84  C   UNL     1       2.303 -14.396   1.888  1.00  0.00     0.148 A 
ATOM     85  C   UNL     1       1.968 -16.753   0.402  1.00  0.00     0.002 A 
ATOM     86  C   UNL     1       2.962 -14.562   0.676  1.00  0.00     0.091 A 
ATOM     87  F   UNL     1       2.458 -13.293   2.634  1.00  0.00    -0.205 F 
ATOM     88  C   UNL     1       2.811 -15.747  -0.060  1.00  0.00     0.022 A 
BRANCH  86  89
ATOM     89  S   UNL     1       3.954 -13.259  -0.065  1.00  0.00     0.127 S 
ATOM     90  O   UNL     1       5.306 -13.789   0.089  1.00  0.00    -0.237 OA
ATOM     91  O   UNL     1       3.450 -13.240  -1.439  1.00  0.00    -0.237 OA
ATOM     92  O   UNL     1       3.653 -12.056   0.698  1.00  0.00    -0.744 OA
ENDBRANCH  86  89
ENDBRANCH  58  82
BRANCH  70  93
ATOM     93  C   UNL     1       1.367 -18.736   8.480  1.00  0.00     0.023 A 
ATOM     94  C   UNL     1       2.736 -18.577   8.774  1.00  0.00     0.012 A 
ATOM     95  C   UNL     1       0.743 -19.973   8.732  1.00  0.00     0.148 A 
ATOM     96  C   UNL     1       3.483 -19.646   9.267  1.00  0.00     0.002 A 
ATOM     97  C   UNL     1       1.482 -21.017   9.274  1.00  0.00     0.091 A 
ATOM     98  F   UNL     1      -0.556 -20.109   8.430  1.00  0.00    -0.205 F 
ATOM     99  C   UNL     1       2.854 -20.861   9.527  1.00  0.00     0.022 A 
BRANCH  97 100
ATOM    100  S   UNL     1       0.731 -22.583   9.732  1.00  0.00     0.127 S 
ATOM    101  O   UNL     1       1.182 -23.457   8.651  1.00  0.00    -0.237 OA
ATOM    102  O   UNL     1       1.345 -22.855  11.033  1.00  0.00    -0.237 OA
ATOM    103  O   UNL     1      -0.703 -22.337   9.785  1.00  0.00    -0.744 OA
ENDBRANCH  97 100
ENDBRANCH  70  93
ENDBRANCH  44  45
ENDBRANCH  36  39
ENDBRANCH  34  35
ENDBRANCH   1  34
TORSDOF 18
