REMARK SMILES O=C(CC(=O)c1ccco1)C(=O)NCCCNC(=O)c1ccc(-c2c3nc(c(-c4cccc(S(=O)(=O)[O-])c4F)c4ccc([nH]4)c(-c4cccc(S(=O)(=O)[O-])c4F)c4nc(c(-c5cccc(S(=O)(=O)[O-])c5F)c5ccc2[nH]5)C=C4)C=C3)cc1
REMARK SMILES IDX 15 1 14 2 13 3 11 4 12 5 2 7 1 8 3 9 4 10 5 11 6 12 7 13
REMARK SMILES IDX 10 14 8 15 9 16 16 17 17 18 18 19 19 21 20 22 21 23 82 24
REMARK SMILES IDX 22 25 81 26 23 27 24 28 25 29 75 30 26 31 80 32 74 33 76 34
REMARK SMILES IDX 27 35 79 36 73 37 72 38 28 40 60 41 40 42 59 43 41 44 44 45
REMARK SMILES IDX 58 46 77 47 42 48 43 49 57 51 78 52 45 53 29 54 30 55 38 56
REMARK SMILES IDX 31 57 33 58 39 59 32 60 34 61 35 62 36 63 37 64 61 65 62 66
REMARK SMILES IDX 70 67 63 68 65 69 71 70 64 71 66 72 67 73 68 74 69 75 46 76
REMARK SMILES IDX 47 77 55 78 48 79 50 80 56 81 49 82 51 83 52 84 53 85 54 86
REMARK H PARENT 13 6 17 20 76 39 44 50
REMARK Flexibility Score: inf
ROOT
ATOM      1  C   UNL     1       6.248  -0.520   0.458  1.00  0.00     0.042 C 
ENDROOT
BRANCH   1   2
ATOM      2  C   UNL     1       5.338   0.302  -0.459  1.00  0.00     0.118 C 
BRANCH   2   3
ATOM      3  N   UNL     1       4.320  -0.545  -1.055  1.00  0.00    -0.349 N 
ATOM      4  C   UNL     1       2.975  -0.686  -0.851  1.00  0.00     0.287 C 
ATOM      5  O   UNL     1       2.399  -1.634  -1.382  1.00  0.00    -0.266 OA
ATOM      6  H   UNL     1       4.672  -1.143  -1.753  1.00  0.00     0.163 HD
BRANCH   4   7
ATOM      7  C   UNL     1       2.113   0.317  -0.090  1.00  0.00     0.227 C 
ATOM      8  O   UNL     1       1.052   0.661  -0.616  1.00  0.00    -0.288 OA
BRANCH   7   9
ATOM      9  C   UNL     1       2.518   0.902   1.215  1.00  0.00     0.171 C 
BRANCH   9  10
ATOM     10  C   UNL     1       3.338   0.096   2.171  1.00  0.00     0.205 C 
ATOM     11  O   UNL     1       4.362   0.618   2.620  1.00  0.00    -0.290 OA
BRANCH  10  12
ATOM     12  C   UNL     1       2.859  -1.197   2.611  1.00  0.00     0.169 A 
ATOM     13  C   UNL     1       1.878  -2.069   2.174  1.00  0.00     0.054 A 
ATOM     14  O   UNL     1       3.472  -1.736   3.711  1.00  0.00    -0.461 OA
ATOM     15  C   UNL     1       1.907  -3.188   3.047  1.00  0.00     0.043 A 
ATOM     16  C   UNL     1       2.886  -2.928   3.973  1.00  0.00     0.196 A 
ENDBRANCH  10  12
ENDBRANCH   9  10
ENDBRANCH   7   9
ENDBRANCH   4   7
ENDBRANCH   2   3
ENDBRANCH   1   2
BRANCH   1  17
ATOM     17  C   UNL     1       7.168  -1.497  -0.274  1.00  0.00     0.118 C 
BRANCH  17  18
ATOM     18  N   UNL     1       8.159  -0.815  -1.089  1.00  0.00    -0.352 N 
ATOM     19  C   UNL     1       9.530  -0.826  -1.018  1.00  0.00     0.251 C 
ATOM     20  H   UNL     1       7.788  -0.255  -1.807  1.00  0.00     0.163 HD
ATOM     21  O   UNL     1      10.156   0.011  -1.665  1.00  0.00    -0.269 OA
BRANCH  19  22
ATOM     22  C   UNL     1      10.261  -1.814  -0.189  1.00  0.00     0.039 A 
ATOM     23  C   UNL     1      11.434  -1.402   0.452  1.00  0.00     0.014 A 
ATOM     24  C   UNL     1       9.859  -3.150  -0.096  1.00  0.00     0.014 A 
ATOM     25  C   UNL     1      12.176  -2.312   1.209  1.00  0.00     0.010 A 
ATOM     26  C   UNL     1      10.561  -4.041   0.720  1.00  0.00     0.010 A 
ATOM     27  C   UNL     1      11.735  -3.637   1.371  1.00  0.00    -0.014 A 
BRANCH  27  28
ATOM     28  C   UNL     1      12.494  -4.587   2.228  1.00  0.00     0.031 A 
ATOM     29  C   UNL     1      13.138  -5.817   1.642  1.00  0.00     0.074 A 
ATOM     30  C   UNL     1      12.569  -4.360   3.555  1.00  0.00     0.049 A 
ATOM     31  N   UNL     1      13.849  -6.739   2.240  1.00  0.00    -0.248 NA
ATOM     32  C   UNL     1      12.942  -6.058   0.203  1.00  0.00     0.031 C 
ATOM     33  C   UNL     1      11.914  -3.256   4.262  1.00  0.00     0.029 A 
ATOM     34  N   UNL     1      13.216  -5.051   4.550  1.00  0.00    -0.354 N 
ATOM     35  C   UNL     1      14.171  -7.673   1.262  1.00  0.00     0.074 A 
ATOM     36  C   UNL     1      13.541  -7.229   0.037  1.00  0.00     0.031 C 
ATOM     37  C   UNL     1      12.198  -3.340   5.571  1.00  0.00     0.029 A 
ATOM     38  C   UNL     1      13.039  -4.510   5.803  1.00  0.00     0.049 A 
ATOM     39  H   UNL     1      13.755  -5.857   4.383  1.00  0.00     0.167 HD
ATOM     40  C   UNL     1      14.948  -8.778   1.362  1.00  0.00     0.034 A 
ATOM     41  C   UNL     1      13.505  -4.908   7.003  1.00  0.00     0.034 A 
ATOM     42  C   UNL     1      15.606  -9.198   2.571  1.00  0.00     0.049 A 
ATOM     43  C   UNL     1      14.414  -6.105   7.072  1.00  0.00     0.074 A 
ATOM     44  C   UNL     1      16.464 -10.268   2.758  1.00  0.00     0.029 A 
ATOM     45  N   UNL     1      15.483  -8.568   3.799  1.00  0.00    -0.354 N 
ATOM     46  N   UNL     1      14.833  -6.881   6.103  1.00  0.00    -0.248 NA
ATOM     47  C   UNL     1      14.952  -6.453   8.395  1.00  0.00     0.031 C 
ATOM     48  C   UNL     1      16.853 -10.289   4.102  1.00  0.00     0.029 A 
ATOM     49  C   UNL     1      16.251  -9.222   4.748  1.00  0.00     0.049 A 
ATOM     50  H   UNL     1      14.931  -7.771   3.972  1.00  0.00     0.167 HD
ATOM     51  C   UNL     1      15.704  -7.790   6.692  1.00  0.00     0.074 A 
ATOM     52  C   UNL     1      15.781  -7.443   8.096  1.00  0.00     0.031 C 
ATOM     53  C   UNL     1      16.360  -8.835   6.130  1.00  0.00     0.034 A 
BRANCH  40  54
ATOM     54  C   UNL     1      15.203  -9.576   0.107  1.00  0.00     0.023 A 
ATOM     55  C   UNL     1      16.060  -9.046  -0.879  1.00  0.00     0.012 A 
ATOM     56  C   UNL     1      14.675 -10.871  -0.061  1.00  0.00     0.148 A 
ATOM     57  C   UNL     1      16.368  -9.779  -2.024  1.00  0.00     0.002 A 
ATOM     58  C   UNL     1      15.019 -11.613  -1.186  1.00  0.00     0.091 A 
ATOM     59  F   UNL     1      13.851 -11.353   0.880  1.00  0.00    -0.205 F 
ATOM     60  C   UNL     1      15.857 -11.065  -2.172  1.00  0.00     0.022 A 
BRANCH  58  61
ATOM     61  S   UNL     1      14.477 -13.307  -1.442  1.00  0.00     0.127 S 
ATOM     62  O   UNL     1      13.594 -13.162  -2.599  1.00  0.00    -0.237 OA
ATOM     63  O   UNL     1      15.739 -13.993  -1.722  1.00  0.00    -0.237 OA
ATOM     64  O   UNL     1      13.822 -13.713  -0.207  1.00  0.00    -0.744 OA
ENDBRANCH  58  61
ENDBRANCH  40  54
BRANCH  41  65
ATOM     65  C   UNL     1      13.176  -4.128   8.230  1.00  0.00     0.023 A 
ATOM     66  C   UNL     1      14.191  -3.402   8.885  1.00  0.00     0.012 A 
ATOM     67  C   UNL     1      11.867  -4.095   8.748  1.00  0.00     0.148 A 
ATOM     68  C   UNL     1      13.917  -2.693  10.055  1.00  0.00     0.002 A 
ATOM     69  C   UNL     1      11.590  -3.340   9.883  1.00  0.00     0.091 A 
ATOM     70  F   UNL     1      10.917  -4.805   8.125  1.00  0.00    -0.205 F 
ATOM     71  C   UNL     1      12.616  -2.654  10.549  1.00  0.00     0.022 A 
BRANCH  69  72
ATOM     72  S   UNL     1       9.914  -3.132  10.494  1.00  0.00     0.127 S 
ATOM     73  O   UNL     1       9.884  -4.072  11.613  1.00  0.00    -0.237 OA
ATOM     74  O   UNL     1       9.899  -1.719  10.879  1.00  0.00    -0.237 OA
ATOM     75  O   UNL     1       9.051  -3.450   9.367  1.00  0.00    -0.744 OA
ENDBRANCH  69  72
ENDBRANCH  41  65
BRANCH  53  76
ATOM     76  C   UNL     1      17.236  -9.665   7.031  1.00  0.00     0.023 A 
ATOM     77  C   UNL     1      16.645 -10.517   7.986  1.00  0.00     0.012 A 
ATOM     78  C   UNL     1      18.639  -9.635   6.907  1.00  0.00     0.148 A 
ATOM     79  C   UNL     1      17.436 -11.291   8.833  1.00  0.00     0.002 A 
ATOM     80  C   UNL     1      19.420 -10.447   7.723  1.00  0.00     0.091 A 
ATOM     81  F   UNL     1      19.186  -8.805   6.007  1.00  0.00    -0.205 F 
ATOM     82  C   UNL     1      18.821 -11.264   8.695  1.00  0.00     0.022 A 
BRANCH  80  83
ATOM     83  S   UNL     1      21.205 -10.540   7.550  1.00  0.00     0.127 S 
ATOM     84  O   UNL     1      21.657  -9.722   8.673  1.00  0.00    -0.237 OA
ATOM     85  O   UNL     1      21.460 -11.974   7.700  1.00  0.00    -0.237 OA
ATOM     86  O   UNL     1      21.503 -10.013   6.225  1.00  0.00    -0.744 OA
ENDBRANCH  80  83
ENDBRANCH  53  76
ENDBRANCH  27  28
ENDBRANCH  19  22
ENDBRANCH  17  18
ENDBRANCH   1  17
TORSDOF 16
