REMARK SMILES C[C@H](CNS(=O)(=O)c1ccc(C(=O)NCCCNC(=O)c2ccc(-c3c4nc(c(-c5cccc(S(=O)(=O)[O-])c5F)c5ccc([nH]5)c(-c5cccc(S(=O)(=O)[O-])c5F)c5nc(c(-c6cccc(S(=O)(=O)[O-])c6F)c6ccc3[nH]6)C=C5)C=C4)cc2)cc1F)[NH+](C)C
REMARK SMILES IDX 15 1 14 2 12 3 13 4 11 6 8 7 9 8 85 9 10 10 84 11 86 12 5 13
REMARK SMILES IDX 6 14 7 15 4 16 3 18 2 19 1 20 87 21 88 22 89 23 16 25 17 26
REMARK SMILES IDX 18 27 19 28 20 30 21 31 22 32 83 33 23 34 82 35 24 36 25 37
REMARK SMILES IDX 26 38 76 39 27 40 81 41 75 42 77 43 28 44 80 45 74 46 73 47
REMARK SMILES IDX 29 49 61 50 41 51 60 52 42 53 45 54 59 55 78 56 43 57 44 58
REMARK SMILES IDX 58 60 79 61 46 62 30 63 31 64 39 65 32 66 34 67 40 68 33 69
REMARK SMILES IDX 35 70 36 71 37 72 38 73 62 74 63 75 71 76 64 77 66 78 72 79
REMARK SMILES IDX 65 80 67 81 68 82 69 83 70 84 47 85 48 86 56 87 49 88 51 89
REMARK SMILES IDX 57 90 50 91 52 92 53 93 54 94 55 95
REMARK H PARENT 14 5 4 17 87 24 18 29 77 48 45 59
REMARK Flexibility Score: inf
ROOT
ATOM      1  C   UNL     1       6.458  -5.854  -1.487  1.00  0.00     0.118 C 
ENDROOT
BRANCH   1   2
ATOM      2  N   UNL     1       7.038  -4.819  -0.649  1.00  0.00    -0.352 N 
ATOM      3  C   UNL     1       6.698  -3.516  -0.399  1.00  0.00     0.251 C 
ATOM      4  O   UNL     1       7.389  -2.902   0.416  1.00  0.00    -0.269 OA
ATOM      5  H   UNL     1       7.840  -5.115  -0.161  1.00  0.00     0.163 HD
BRANCH   3   6
ATOM      6  C   UNL     1       5.509  -2.834  -0.986  1.00  0.00     0.042 A 
ATOM      7  C   UNL     1       3.144  -1.550  -1.791  1.00  0.00     0.118 A 
ATOM      8  C   UNL     1       3.837  -1.076  -0.680  1.00  0.00     0.026 A 
ATOM      9  C   UNL     1       3.680  -2.582  -2.548  1.00  0.00     0.144 A 
ATOM     10  C   UNL     1       5.003  -1.732  -0.272  1.00  0.00     0.015 A 
ATOM     11  C   UNL     1       4.872  -3.200  -2.171  1.00  0.00     0.054 A 
ATOM     12  F   UNL     1       3.052  -3.032  -3.642  1.00  0.00    -0.205 F 
BRANCH   7  13
ATOM     13  S   UNL     1       1.546  -0.974  -2.239  1.00  0.00     0.243 S 
ATOM     14  O   UNL     1       0.597  -2.037  -1.982  1.00  0.00    -0.207 OA
ATOM     15  O   UNL     1       1.649  -0.317  -3.520  1.00  0.00    -0.207 OA
BRANCH  13  16
ATOM     16  N   UNL     1       1.195   0.275  -1.163  1.00  0.00    -0.205 NA
ATOM     17  H   UNL     1       2.060   0.795  -1.017  1.00  0.00     0.141 HD
BRANCH  16  18
ATOM     18  C   UNL     1       0.661  -0.054   0.172  1.00  0.00     0.163 C 
BRANCH  18  19
ATOM     19  C   UNL     1       0.156   1.208   0.936  1.00  0.00     0.195 C 
ATOM     20  C   UNL     1       0.999   2.461   0.646  1.00  0.00     0.076 C 
BRANCH  19  21
ATOM     21  N   UNL     1      -1.309   1.395   0.808  1.00  0.00    -0.337 N 
ATOM     22  C   UNL     1      -1.830   2.426   1.704  1.00  0.00     0.332 C 
ATOM     23  C   UNL     1      -1.790   1.601  -0.554  1.00  0.00     0.332 C 
ATOM     24  H   UNL     1      -1.687   0.494   1.101  1.00  0.00     0.347 HD
ENDBRANCH  19  21
ENDBRANCH  18  19
ENDBRANCH  16  18
ENDBRANCH  13  16
ENDBRANCH   7  13
ENDBRANCH   3   6
ENDBRANCH   1   2
BRANCH   1  25
ATOM     25  C   UNL     1       7.149  -5.920  -2.848  1.00  0.00     0.042 C 
BRANCH  25  26
ATOM     26  C   UNL     1       8.550  -6.527  -2.787  1.00  0.00     0.118 C 
BRANCH  26  27
ATOM     27  N   UNL     1       8.510  -7.962  -2.542  1.00  0.00    -0.352 N 
ATOM     28  C   UNL     1       9.011  -8.994  -3.297  1.00  0.00     0.251 C 
ATOM     29  H   UNL     1       8.056  -8.233  -1.711  1.00  0.00     0.163 HD
ATOM     30  O   UNL     1       8.683 -10.148  -3.034  1.00  0.00    -0.269 OA
BRANCH  28  31
ATOM     31  C   UNL     1       9.932  -8.726  -4.424  1.00  0.00     0.039 A 
ATOM     32  C   UNL     1       9.751  -9.422  -5.624  1.00  0.00     0.014 A 
ATOM     33  C   UNL     1      10.996  -7.829  -4.291  1.00  0.00     0.014 A 
ATOM     34  C   UNL     1      10.598  -9.174  -6.709  1.00  0.00     0.010 A 
ATOM     35  C   UNL     1      11.808  -7.545  -5.388  1.00  0.00     0.010 A 
ATOM     36  C   UNL     1      11.616  -8.212  -6.607  1.00  0.00    -0.014 A 
BRANCH  36  37
ATOM     37  C   UNL     1      12.467  -7.858  -7.773  1.00  0.00     0.031 A 
ATOM     38  C   UNL     1      13.943  -8.146  -7.756  1.00  0.00     0.074 A 
ATOM     39  C   UNL     1      11.924  -7.177  -8.801  1.00  0.00     0.049 A 
ATOM     40  N   UNL     1      14.854  -7.815  -8.634  1.00  0.00    -0.248 NA
ATOM     41  C   UNL     1      14.470  -8.882  -6.595  1.00  0.00     0.031 C 
ATOM     42  C   UNL     1      10.519  -6.772  -8.896  1.00  0.00     0.029 A 
ATOM     43  N   UNL     1      12.493  -6.670  -9.944  1.00  0.00    -0.354 N 
ATOM     44  C   UNL     1      16.063  -8.263  -8.116  1.00  0.00     0.074 A 
ATOM     45  C   UNL     1      15.774  -8.882  -6.841  1.00  0.00     0.031 C 
ATOM     46  C   UNL     1      10.340  -6.068 -10.025  1.00  0.00     0.029 A 
ATOM     47  C   UNL     1      11.617  -5.950 -10.723  1.00  0.00     0.049 A 
ATOM     48  H   UNL     1      13.438  -6.809 -10.182  1.00  0.00     0.167 HD
ATOM     49  C   UNL     1      17.298  -8.184  -8.666  1.00  0.00     0.034 A 
ATOM     50  C   UNL     1      11.819  -5.262 -11.864  1.00  0.00     0.034 A 
ATOM     51  C   UNL     1      17.573  -7.625  -9.961  1.00  0.00     0.049 A 
ATOM     52  C   UNL     1      13.188  -5.259 -12.487  1.00  0.00     0.074 A 
ATOM     53  C   UNL     1      18.781  -7.583 -10.637  1.00  0.00     0.029 A 
ATOM     54  N   UNL     1      16.635  -7.017 -10.779  1.00  0.00    -0.354 N 
ATOM     55  N   UNL     1      14.288  -5.824 -12.054  1.00  0.00    -0.248 NA
ATOM     56  C   UNL     1      13.338  -4.560 -13.773  1.00  0.00     0.031 C 
ATOM     57  C   UNL     1      18.573  -6.947 -11.864  1.00  0.00     0.029 A 
ATOM     58  C   UNL     1      17.235  -6.600 -11.955  1.00  0.00     0.049 A 
ATOM     59  H   UNL     1      15.683  -6.899 -10.558  1.00  0.00     0.167 HD
ATOM     60  C   UNL     1      15.251  -5.576 -13.025  1.00  0.00     0.074 A 
ATOM     61  C   UNL     1      14.601  -4.829 -14.081  1.00  0.00     0.031 C 
ATOM     62  C   UNL     1      16.562  -5.920 -13.030  1.00  0.00     0.034 A 
BRANCH  49  63
ATOM     63  C   UNL     1      18.455  -8.783  -7.912  1.00  0.00     0.023 A 
ATOM     64  C   UNL     1      18.624 -10.182  -7.917  1.00  0.00     0.012 A 
ATOM     65  C   UNL     1      19.438  -7.966  -7.321  1.00  0.00     0.148 A 
ATOM     66  C   UNL     1      19.751 -10.761  -7.337  1.00  0.00     0.002 A 
ATOM     67  C   UNL     1      20.576  -8.548  -6.775  1.00  0.00     0.091 A 
ATOM     68  F   UNL     1      19.248  -6.639  -7.319  1.00  0.00    -0.205 F 
ATOM     69  C   UNL     1      20.732  -9.945  -6.778  1.00  0.00     0.022 A 
BRANCH  67  70
ATOM     70  S   UNL     1      21.934  -7.588  -6.096  1.00  0.00     0.127 S 
ATOM     71  O   UNL     1      21.890  -7.970  -4.685  1.00  0.00    -0.237 OA
ATOM     72  O   UNL     1      23.082  -8.115  -6.835  1.00  0.00    -0.237 OA
ATOM     73  O   UNL     1      21.619  -6.192  -6.368  1.00  0.00    -0.744 OA
ENDBRANCH  67  70
ENDBRANCH  49  63
BRANCH  50  74
ATOM     74  C   UNL     1      10.669  -4.585 -12.528  1.00  0.00     0.023 A 
ATOM     75  C   UNL     1      10.147  -5.123 -13.719  1.00  0.00     0.012 A 
ATOM     76  C   UNL     1      10.056  -3.451 -11.960  1.00  0.00     0.148 A 
ATOM     77  C   UNL     1       9.049  -4.532 -14.346  1.00  0.00     0.002 A 
ATOM     78  C   UNL     1       8.928  -2.901 -12.560  1.00  0.00     0.091 A 
ATOM     79  F   UNL     1      10.577  -2.937 -10.837  1.00  0.00    -0.205 F 
ATOM     80  C   UNL     1       8.431  -3.431 -13.760  1.00  0.00     0.022 A 
BRANCH  78  81
ATOM     81  S   UNL     1       7.998  -1.578 -11.777  1.00  0.00     0.127 S 
ATOM     82  O   UNL     1       8.524  -0.397 -12.455  1.00  0.00    -0.237 OA
ATOM     83  O   UNL     1       6.617  -1.921 -12.119  1.00  0.00    -0.237 OA
ATOM     84  O   UNL     1       8.301  -1.695 -10.356  1.00  0.00    -0.744 OA
ENDBRANCH  78  81
ENDBRANCH  50  74
BRANCH  62  85
ATOM     85  C   UNL     1      17.394  -5.523 -14.219  1.00  0.00     0.023 A 
ATOM     86  C   UNL     1      17.813  -4.185 -14.354  1.00  0.00     0.012 A 
ATOM     87  C   UNL     1      17.858  -6.491 -15.131  1.00  0.00     0.148 A 
ATOM     88  C   UNL     1      18.670  -3.813 -15.389  1.00  0.00     0.002 A 
ATOM     89  C   UNL     1      18.744  -6.121 -16.136  1.00  0.00     0.091 A 
ATOM     90  F   UNL     1      17.430  -7.755 -14.997  1.00  0.00    -0.205 F 
ATOM     91  C   UNL     1      19.146  -4.782 -16.270  1.00  0.00     0.022 A 
BRANCH  89  92
ATOM     92  S   UNL     1      19.479  -7.324 -17.250  1.00  0.00     0.127 S 
ATOM     93  O   UNL     1      18.680  -7.138 -18.460  1.00  0.00    -0.237 OA
ATOM     94  O   UNL     1      20.861  -6.856 -17.355  1.00  0.00    -0.237 OA
ATOM     95  O   UNL     1      19.332  -8.614 -16.590  1.00  0.00    -0.744 OA
ENDBRANCH  89  92
ENDBRANCH  62  85
ENDBRANCH  36  37
ENDBRANCH  28  31
ENDBRANCH  26  27
ENDBRANCH  25  26
ENDBRANCH   1  25
TORSDOF 18
