REMARK SMILES C[C@@H](C(=O)NCCCNC(=O)c1ccc(-c2c3nc(c(-c4cccc(S(=O)(=O)[O-])c4F)c4ccc([nH]4)c(-c4cccc(S(=O)(=O)[O-])c4F)c4nc(c(-c5cccc(S(=O)(=O)[O-])c5F)c5ccc2[nH]5)C=C4)C=C3)cc1)c1ccc(Cc2ccco2)cc1F
REMARK SMILES IDX 7 1 6 2 5 3 3 4 4 5 2 7 1 8 75 9 76 10 86 11 77 12 85 13
REMARK SMILES IDX 87 14 78 15 79 16 80 17 81 18 84 19 82 20 83 21 8 22 9 23
REMARK SMILES IDX 10 24 11 26 12 27 13 28 74 29 14 30 73 31 15 32 16 33 17 34
REMARK SMILES IDX 67 35 18 36 72 37 66 38 68 39 19 40 71 41 65 42 64 43 20 45
REMARK SMILES IDX 52 46 32 47 51 48 33 49 36 50 50 51 69 52 34 53 35 54 49 56
REMARK SMILES IDX 70 57 37 58 21 59 22 60 30 61 23 62 25 63 31 64 24 65 26 66
REMARK SMILES IDX 27 67 28 68 29 69 53 70 54 71 62 72 55 73 57 74 63 75 56 76
REMARK SMILES IDX 58 77 59 78 60 79 61 80 38 81 39 82 47 83 40 84 42 85 48 86
REMARK SMILES IDX 41 87 43 88 44 89 45 90 46 91
REMARK H PARENT 5 6 9 25 68 44 36 55
REMARK Flexibility Score: inf
ROOT
ATOM      1  C   UNL     1       4.227   0.494   1.191  1.00  0.00     0.042 C 
ENDROOT
BRANCH   1   2
ATOM      2  C   UNL     1       3.347  -0.453   2.003  1.00  0.00     0.117 C 
BRANCH   2   3
ATOM      3  N   UNL     1       2.296   0.259   2.704  1.00  0.00    -0.356 N 
ATOM      4  C   UNL     1       0.967   0.378   2.429  1.00  0.00     0.227 C 
ATOM      5  O   UNL     1       0.318   1.109   3.182  1.00  0.00    -0.274 OA
ATOM      6  H   UNL     1       2.592   0.734   3.514  1.00  0.00     0.163 HD
BRANCH   4   7
ATOM      7  C   UNL     1       0.338  -0.397   1.258  1.00  0.00     0.108 C 
ATOM      8  C   UNL     1       0.776   0.143  -0.106  1.00  0.00     0.023 C 
BRANCH   7   9
ATOM      9  C   UNL     1      -1.183  -0.404   1.341  1.00  0.00    -0.000 A 
ATOM     10  C   UNL     1      -1.924   0.775   1.164  1.00  0.00     0.008 A 
ATOM     11  C   UNL     1      -1.881  -1.583   1.608  1.00  0.00     0.127 A 
ATOM     12  C   UNL     1      -3.317   0.763   1.248  1.00  0.00     0.005 A 
ATOM     13  C   UNL     1      -3.273  -1.601   1.708  1.00  0.00     0.043 A 
ATOM     14  F   UNL     1      -1.214  -2.737   1.766  1.00  0.00    -0.207 F 
ATOM     15  C   UNL     1      -4.009  -0.421   1.535  1.00  0.00    -0.038 A 
BRANCH  15  16
ATOM     16  C   UNL     1      -5.517  -0.419   1.650  1.00  0.00     0.111 C 
BRANCH  16  17
ATOM     17  C   UNL     1      -6.035   0.275   2.865  1.00  0.00     0.108 A 
ATOM     18  C   UNL     1      -5.891   1.551   3.376  1.00  0.00     0.046 A 
ATOM     19  O   UNL     1      -6.873  -0.447   3.667  1.00  0.00    -0.469 OA
ATOM     20  C   UNL     1      -6.671   1.606   4.555  1.00  0.00     0.042 A 
ATOM     21  C   UNL     1      -7.248   0.366   4.687  1.00  0.00     0.195 A 
ENDBRANCH  16  17
ENDBRANCH  15  16
ENDBRANCH   7   9
ENDBRANCH   4   7
ENDBRANCH   2   3
ENDBRANCH   1   2
BRANCH   1  22
ATOM     22  C   UNL     1       4.969   1.532   2.028  1.00  0.00     0.118 C 
BRANCH  22  23
ATOM     23  N   UNL     1       5.965   0.939   2.910  1.00  0.00    -0.352 N 
ATOM     24  C   UNL     1       7.315   1.187   2.986  1.00  0.00     0.251 C 
ATOM     25  H   UNL     1       5.624   0.265   3.541  1.00  0.00     0.163 HD
ATOM     26  O   UNL     1       8.033   0.470   3.678  1.00  0.00    -0.269 OA
BRANCH  24  27
ATOM     27  C   UNL     1       7.902   2.305   2.218  1.00  0.00     0.039 A 
ATOM     28  C   UNL     1       9.063   2.086   1.470  1.00  0.00     0.014 A 
ATOM     29  C   UNL     1       7.301   3.566   2.231  1.00  0.00     0.014 A 
ATOM     30  C   UNL     1       9.582   3.115   0.678  1.00  0.00     0.010 A 
ATOM     31  C   UNL     1       7.776   4.564   1.389  1.00  0.00     0.010 A 
ATOM     32  C   UNL     1       8.922   4.351   0.606  1.00  0.00    -0.014 A 
BRANCH  32  33
ATOM     33  C   UNL     1       9.393   5.452  -0.272  1.00  0.00     0.031 A 
ATOM     34  C   UNL     1       9.802   6.763   0.340  1.00  0.00     0.074 A 
ATOM     35  C   UNL     1       9.307   5.328  -1.610  1.00  0.00     0.049 A 
ATOM     36  N   UNL     1      10.048   7.907  -0.242  1.00  0.00    -0.248 NA
ATOM     37  C   UNL     1       9.908   6.799   1.808  1.00  0.00     0.031 C 
ATOM     38  C   UNL     1       8.859   4.130  -2.321  1.00  0.00     0.029 A 
ATOM     39  N   UNL     1       9.543   6.241  -2.609  1.00  0.00    -0.354 N 
ATOM     40  C   UNL     1      10.280   8.811   0.788  1.00  0.00     0.074 A 
ATOM     41  C   UNL     1      10.123   8.087   2.030  1.00  0.00     0.031 C 
ATOM     42  C   UNL     1       8.827   4.388  -3.638  1.00  0.00     0.029 A 
ATOM     43  C   UNL     1       9.215   5.778  -3.862  1.00  0.00     0.049 A 
ATOM     44  H   UNL     1       9.910   7.139  -2.444  1.00  0.00     0.167 HD
ATOM     45  C   UNL     1      10.613  10.121   0.707  1.00  0.00     0.034 A 
ATOM     46  C   UNL     1       9.200   6.407  -5.054  1.00  0.00     0.034 A 
ATOM     47  C   UNL     1      10.821  10.820  -0.532  1.00  0.00     0.049 A 
ATOM     48  C   UNL     1       9.633   7.846  -5.129  1.00  0.00     0.074 A 
ATOM     49  C   UNL     1      11.256  12.118  -0.725  1.00  0.00     0.029 A 
ATOM     50  N   UNL     1      10.607  10.277  -1.790  1.00  0.00    -0.354 N 
ATOM     51  N   UNL     1       9.990   8.649  -4.156  1.00  0.00    -0.248 NA
ATOM     52  C   UNL     1       9.696   8.458  -6.465  1.00  0.00     0.031 C 
ATOM     53  C   UNL     1      11.291  12.366  -2.101  1.00  0.00     0.029 A 
ATOM     54  C   UNL     1      10.899  11.214  -2.765  1.00  0.00     0.049 A 
ATOM     55  H   UNL     1      10.294   9.360  -1.964  1.00  0.00     0.167 HD
ATOM     56  C   UNL     1      10.357   9.845  -4.761  1.00  0.00     0.074 A 
ATOM     57  C   UNL     1      10.186   9.660  -6.188  1.00  0.00     0.031 C 
ATOM     58  C   UNL     1      10.787  10.994  -4.185  1.00  0.00     0.034 A 
BRANCH  45  59
ATOM     59  C   UNL     1      10.820  10.866   1.999  1.00  0.00     0.023 A 
ATOM     60  C   UNL     1      11.946  10.577   2.798  1.00  0.00     0.012 A 
ATOM     61  C   UNL     1       9.920  11.866   2.414  1.00  0.00     0.148 A 
ATOM     62  C   UNL     1      12.146  11.235   4.010  1.00  0.00     0.002 A 
ATOM     63  C   UNL     1      10.152  12.551   3.602  1.00  0.00     0.091 A 
ATOM     64  F   UNL     1       8.840  12.114   1.658  1.00  0.00    -0.205 F 
ATOM     65  C   UNL     1      11.255  12.227   4.408  1.00  0.00     0.022 A 
BRANCH  63  66
ATOM     66  S   UNL     1       9.100  13.901   4.149  1.00  0.00     0.127 S 
ATOM     67  O   UNL     1       8.272  13.242   5.157  1.00  0.00    -0.237 OA
ATOM     68  O   UNL     1      10.070  14.856   4.688  1.00  0.00    -0.237 OA
ATOM     69  O   UNL     1       8.402  14.363   2.957  1.00  0.00    -0.744 OA
ENDBRANCH  63  66
ENDBRANCH  45  59
BRANCH  46  70
ATOM     70  C   UNL     1       8.816   5.647  -6.277  1.00  0.00     0.023 A 
ATOM     71  C   UNL     1       9.813   5.277  -7.199  1.00  0.00     0.012 A 
ATOM     72  C   UNL     1       7.489   5.225  -6.491  1.00  0.00     0.148 A 
ATOM     73  C   UNL     1       9.494   4.514  -8.323  1.00  0.00     0.002 A 
ATOM     74  C   UNL     1       7.187   4.421  -7.584  1.00  0.00     0.091 A 
ATOM     75  F   UNL     1       6.556   5.594  -5.603  1.00  0.00    -0.205 F 
ATOM     76  C   UNL     1       8.185   4.076  -8.509  1.00  0.00     0.022 A 
BRANCH  74  77
ATOM     77  S   UNL     1       5.562   3.695  -7.832  1.00  0.00     0.127 S 
ATOM     78  O   UNL     1       5.111   4.377  -9.042  1.00  0.00    -0.237 OA
ATOM     79  O   UNL     1       5.891   2.280  -8.008  1.00  0.00    -0.237 OA
ATOM     80  O   UNL     1       4.807   3.991  -6.623  1.00  0.00    -0.744 OA
ENDBRANCH  74  77
ENDBRANCH  46  70
BRANCH  58  81
ATOM     81  C   UNL     1      11.160  12.142  -5.085  1.00  0.00     0.023 A 
ATOM     82  C   UNL     1      10.151  12.912  -5.694  1.00  0.00     0.012 A 
ATOM     83  C   UNL     1      12.508  12.527  -5.226  1.00  0.00     0.148 A 
ATOM     84  C   UNL     1      10.480  14.043  -6.442  1.00  0.00     0.002 A 
ATOM     85  C   UNL     1      12.825  13.680  -5.934  1.00  0.00     0.091 A 
ATOM     86  F   UNL     1      13.453  11.767  -4.652  1.00  0.00    -0.205 F 
ATOM     87  C   UNL     1      11.813  14.434  -6.550  1.00  0.00     0.022 A 
BRANCH  85  88
ATOM     88  S   UNL     1      14.502  14.315  -6.043  1.00  0.00     0.127 S 
ATOM     89  O   UNL     1      14.825  14.065  -7.447  1.00  0.00    -0.237 OA
ATOM     90  O   UNL     1      14.322  15.726  -5.699  1.00  0.00    -0.237 OA
ATOM     91  O   UNL     1      15.285  13.553  -5.080  1.00  0.00    -0.744 OA
ENDBRANCH  85  88
ENDBRANCH  58  81
ENDBRANCH  32  33
ENDBRANCH  24  27
ENDBRANCH  22  23
ENDBRANCH   1  22
TORSDOF 16
