REMARK SMILES CC1(C)CC[NH+](CC[C@H]2CCC[C@]2([NH3+])C(=O)NCCCNC(=O)c2ccc(-c3c4nc(c(-c5cccc(S(=O)(=O)[O-])c5F)c5ccc([nH]5)c(-c5cccc(S(=O)(=O)[O-])c5F)c5nc(c(-c6cccc(S(=O)(=O)[O-])c6F)c6ccc3[nH]6)C=C5)C=C4)cc2)CC1
REMARK SMILES IDX 19 1 18 2 17 3 15 4 16 5 13 7 9 8 10 9 11 10 12 11 8 12 7 13
REMARK SMILES IDX 6 14 1 15 2 16 3 17 4 18 88 19 5 20 87 21 14 23 20 27 21 28
REMARK SMILES IDX 22 29 23 31 24 32 25 33 86 34 26 35 85 36 27 37 28 38 29 39
REMARK SMILES IDX 79 40 30 41 84 42 78 43 80 44 31 45 83 46 77 47 76 48 32 50
REMARK SMILES IDX 64 51 44 52 63 53 45 54 48 55 62 56 81 57 46 58 47 59 61 61
REMARK SMILES IDX 82 62 49 63 33 64 34 65 42 66 35 67 37 68 43 69 36 70 38 71
REMARK SMILES IDX 39 72 40 73 41 74 65 75 66 76 74 77 67 78 69 79 75 80 68 81
REMARK SMILES IDX 70 82 71 83 72 84 73 85 50 86 51 87 59 88 52 89 54 90 60 91
REMARK SMILES IDX 53 92 55 93 56 94 57 95 58 96
REMARK H PARENT 17 6 6 22 14 24 14 25 14 26 21 30 80 49 48 60
REMARK Flexibility Score: inf
ROOT
ATOM      1  C   UNL     1       1.844   2.352  -4.234  1.00  0.00     0.042 C 
ENDROOT
BRANCH   1   2
ATOM      2  C   UNL     1       1.374   0.914  -4.027  1.00  0.00     0.118 C 
BRANCH   2   3
ATOM      3  N   UNL     1       1.764   0.347  -2.744  1.00  0.00    -0.351 N 
ATOM      4  C   UNL     1       0.976  -0.254  -1.795  1.00  0.00     0.281 C 
ATOM      5  O   UNL     1       1.540  -0.855  -0.877  1.00  0.00    -0.268 OA
ATOM      6  H   UNL     1       2.723   0.401  -2.529  1.00  0.00     0.163 HD
BRANCH   4   7
ATOM      7  C   UNL     1      -0.596  -0.133  -1.881  1.00  0.00     0.177 C 
ATOM      8  C   UNL     1      -0.966   1.382  -1.740  1.00  0.00     0.066 C 
ATOM      9  C   UNL     1      -0.732   1.542  -0.227  1.00  0.00     0.011 C 
ATOM     10  C   UNL     1      -1.207   0.276   0.456  1.00  0.00     0.008 C 
ATOM     11  C   UNL     1      -1.276  -0.768  -0.649  1.00  0.00     0.079 C 
BRANCH   8  12
ATOM     12  C   UNL     1      -2.232   1.883  -2.522  1.00  0.00     0.072 C 
BRANCH  12  13
ATOM     13  C   UNL     1      -3.592   2.300  -1.919  1.00  0.00     0.262 C 
BRANCH  13  14
ATOM     14  N   UNL     1      -3.850   3.577  -1.248  1.00  0.00    -0.335 N 
ATOM     15  C   UNL     1      -2.220   6.968  -0.400  1.00  0.00     0.011 C 
ATOM     16  C   UNL     1      -1.916   5.874  -1.446  1.00  0.00    -0.025 C 
ATOM     17  C   UNL     1      -0.637   6.267  -2.218  1.00  0.00     0.011 C 
ATOM     18  C   UNL     1      -1.664   4.562  -0.697  1.00  0.00     0.068 C 
ATOM     19  C   UNL     1      -3.053   5.660  -2.483  1.00  0.00     0.068 C 
ATOM     20  C   UNL     1      -2.963   3.937  -0.168  1.00  0.00     0.262 C 
ATOM     21  C   UNL     1      -4.213   4.758  -2.033  1.00  0.00     0.262 C 
ATOM     22  H   UNL     1      -4.738   3.275  -0.847  1.00  0.00     0.348 HD
ENDBRANCH  13  14
ENDBRANCH  12  13
ENDBRANCH   8  12
BRANCH   7  23
ATOM     23  N   UNL     1      -1.023  -0.876  -3.080  1.00  0.00    -0.345 N 
ATOM     24  H   UNL     1      -2.037  -0.821  -3.171  1.00  0.00     0.345 HD
ATOM     25  H   UNL     1      -0.742  -1.853  -2.993  1.00  0.00     0.345 HD
ATOM     26  H   UNL     1      -0.585  -0.469  -3.907  1.00  0.00     0.345 HD
ENDBRANCH   7  23
ENDBRANCH   4   7
ENDBRANCH   2   3
ENDBRANCH   1   2
BRANCH   1  27
ATOM     27  C   UNL     1       3.352   2.558  -4.184  1.00  0.00     0.118 C 
BRANCH  27  28
ATOM     28  N   UNL     1       4.073   1.710  -5.120  1.00  0.00    -0.352 N 
ATOM     29  C   UNL     1       4.960   2.032  -6.117  1.00  0.00     0.251 C 
ATOM     30  H   UNL     1       3.896   0.746  -5.023  1.00  0.00     0.163 HD
ATOM     31  O   UNL     1       5.324   1.156  -6.897  1.00  0.00    -0.269 OA
BRANCH  29  32
ATOM     32  C   UNL     1       5.468   3.414  -6.271  1.00  0.00     0.039 A 
ATOM     33  C   UNL     1       5.622   3.928  -7.563  1.00  0.00     0.014 A 
ATOM     34  C   UNL     1       5.830   4.189  -5.168  1.00  0.00     0.014 A 
ATOM     35  C   UNL     1       6.083   5.235  -7.743  1.00  0.00     0.010 A 
ATOM     36  C   UNL     1       6.216   5.517  -5.345  1.00  0.00     0.010 A 
ATOM     37  C   UNL     1       6.354   6.053  -6.634  1.00  0.00    -0.014 A 
BRANCH  37  38
ATOM     38  C   UNL     1       6.769   7.470  -6.805  1.00  0.00     0.031 A 
ATOM     39  C   UNL     1       8.113   7.938  -6.312  1.00  0.00     0.074 A 
ATOM     40  C   UNL     1       5.901   8.358  -7.331  1.00  0.00     0.049 A 
ATOM     41  N   UNL     1       8.620   9.143  -6.321  1.00  0.00    -0.248 NA
ATOM     42  C   UNL     1       8.992   6.923  -5.708  1.00  0.00     0.031 C 
ATOM     43  C   UNL     1       4.543   8.047  -7.781  1.00  0.00     0.029 A 
ATOM     44  N   UNL     1       6.021   9.708  -7.550  1.00  0.00    -0.354 N 
ATOM     45  C   UNL     1       9.857   9.042  -5.694  1.00  0.00     0.074 A 
ATOM     46  C   UNL     1      10.010   7.662  -5.289  1.00  0.00     0.031 C 
ATOM     47  C   UNL     1       3.958   9.170  -8.225  1.00  0.00     0.029 A 
ATOM     48  C   UNL     1       4.882  10.287  -8.059  1.00  0.00     0.049 A 
ATOM     49  H   UNL     1       6.844  10.213  -7.361  1.00  0.00     0.167 HD
ATOM     50  C   UNL     1      10.792  10.002  -5.497  1.00  0.00     0.034 A 
ATOM     51  C   UNL     1       4.606  11.574  -8.347  1.00  0.00     0.034 A 
ATOM     52  C   UNL     1      10.652  11.366  -5.933  1.00  0.00     0.049 A 
ATOM     53  C   UNL     1       5.671  12.617  -8.141  1.00  0.00     0.074 A 
ATOM     54  C   UNL     1      11.578  12.392  -5.856  1.00  0.00     0.029 A 
ATOM     55  N   UNL     1       9.512  11.900  -6.514  1.00  0.00    -0.354 N 
ATOM     56  N   UNL     1       6.893  12.470  -7.690  1.00  0.00    -0.248 NA
ATOM     57  C   UNL     1       5.332  13.997  -8.518  1.00  0.00     0.031 C 
ATOM     58  C   UNL     1      10.986  13.554  -6.361  1.00  0.00     0.029 A 
ATOM     59  C   UNL     1       9.704  13.243  -6.787  1.00  0.00     0.049 A 
ATOM     60  H   UNL     1       8.687  11.397  -6.704  1.00  0.00     0.167 HD
ATOM     61  C   UNL     1       7.480  13.729  -7.763  1.00  0.00     0.074 A 
ATOM     62  C   UNL     1       6.485  14.621  -8.322  1.00  0.00     0.031 C 
ATOM     63  C   UNL     1       8.725  14.113  -7.389  1.00  0.00     0.034 A 
BRANCH  50  64
ATOM     64  C   UNL     1      12.075   9.601  -4.814  1.00  0.00     0.023 A 
ATOM     65  C   UNL     1      12.997   8.775  -5.489  1.00  0.00     0.012 A 
ATOM     66  C   UNL     1      12.396  10.087  -3.531  1.00  0.00     0.148 A 
ATOM     67  C   UNL     1      14.198   8.406  -4.884  1.00  0.00     0.002 A 
ATOM     68  C   UNL     1      13.616   9.755  -2.954  1.00  0.00     0.091 A 
ATOM     69  F   UNL     1      11.500  10.856  -2.896  1.00  0.00    -0.205 F 
ATOM     70  C   UNL     1      14.512   8.904  -3.623  1.00  0.00     0.022 A 
BRANCH  68  71
ATOM     71  S   UNL     1      14.151  10.410  -1.369  1.00  0.00     0.127 S 
ATOM     72  O   UNL     1      14.091   9.219  -0.522  1.00  0.00    -0.237 OA
ATOM     73  O   UNL     1      15.505  10.876  -1.671  1.00  0.00    -0.237 OA
ATOM     74  O   UNL     1      13.206  11.465  -1.030  1.00  0.00    -0.744 OA
ENDBRANCH  68  71
ENDBRANCH  50  64
BRANCH  51  75
ATOM     75  C   UNL     1       3.277  11.942  -8.916  1.00  0.00     0.023 A 
ATOM     76  C   UNL     1       3.191  12.367 -10.256  1.00  0.00     0.012 A 
ATOM     77  C   UNL     1       2.101  11.851  -8.147  1.00  0.00     0.148 A 
ATOM     78  C   UNL     1       1.963  12.729 -10.810  1.00  0.00     0.002 A 
ATOM     79  C   UNL     1       0.873  12.158  -8.722  1.00  0.00     0.091 A 
ATOM     80  F   UNL     1       2.205  11.453  -6.871  1.00  0.00    -0.205 F 
ATOM     81  C   UNL     1       0.804  12.615 -10.047  1.00  0.00     0.022 A 
BRANCH  79  82
ATOM     82  S   UNL     1      -0.684  11.918  -7.860  1.00  0.00     0.127 S 
ATOM     83  O   UNL     1      -1.129  13.292  -7.656  1.00  0.00    -0.237 OA
ATOM     84  O   UNL     1      -1.456  11.155  -8.839  1.00  0.00    -0.237 OA
ATOM     85  O   UNL     1      -0.353  11.175  -6.648  1.00  0.00    -0.744 OA
ENDBRANCH  79  82
ENDBRANCH  51  75
BRANCH  63  86
ATOM     86  C   UNL     1       9.109  15.554  -7.607  1.00  0.00     0.023 A 
ATOM     87  C   UNL     1       8.544  16.563  -6.803  1.00  0.00     0.012 A 
ATOM     88  C   UNL     1      10.085  15.898  -8.563  1.00  0.00     0.148 A 
ATOM     89  C   UNL     1       8.918  17.896  -6.971  1.00  0.00     0.002 A 
ATOM     90  C   UNL     1      10.491  17.221  -8.690  1.00  0.00     0.091 A 
ATOM     91  F   UNL     1      10.599  14.926  -9.331  1.00  0.00    -0.205 F 
ATOM     92  C   UNL     1       9.899  18.223  -7.905  1.00  0.00     0.022 A 
BRANCH  90  93
ATOM     93  S   UNL     1      11.816  17.722  -9.794  1.00  0.00     0.127 S 
ATOM     94  O   UNL     1      11.083  18.448 -10.829  1.00  0.00    -0.237 OA
ATOM     95  O   UNL     1      12.640  18.564  -8.926  1.00  0.00    -0.237 OA
ATOM     96  O   UNL     1      12.462  16.492 -10.233  1.00  0.00    -0.744 OA
ENDBRANCH  90  93
ENDBRANCH  63  86
ENDBRANCH  37  38
ENDBRANCH  29  32
ENDBRANCH  27  28
ENDBRANCH   1  27
TORSDOF 17
