REMARK SMILES O=C(NCCCNC(=O)[C@H](c1c[nH]c2ccc(Cl)cc12)[NH+]1CCN(c2cccc(Cl)c2)CC1)c1ccc(-c2c3nc(c(-c4cccc(S(=O)(=O)[O-])c4F)c4ccc([nH]4)c(-c4cccc(S(=O)(=O)[O-])c4F)c4nc(c(-c5cccc(S(=O)(=O)[O-])c5F)c5ccc2[nH]5)C=C4)C=C3)cc1
REMARK SMILES IDX 4 1 3 2 1 3 2 4 34 6 35 7 96 8 36 9 95 10 37 11 38 12 39 13
REMARK SMILES IDX 89 14 40 15 94 16 88 17 90 18 41 19 93 20 87 21 86 22 42 24
REMARK SMILES IDX 74 25 54 26 73 27 55 28 58 29 72 30 91 31 56 32 57 33 71 35
REMARK SMILES IDX 92 36 59 37 43 38 44 39 52 40 45 41 47 42 53 43 46 44 48 45
REMARK SMILES IDX 49 46 50 47 51 48 75 49 76 50 84 51 77 52 79 53 85 54 78 55
REMARK SMILES IDX 80 56 81 57 82 58 83 59 60 60 61 61 69 62 62 63 64 64 70 65
REMARK SMILES IDX 63 66 65 67 66 68 67 69 68 70 5 71 6 72 7 73 8 74 9 76 10 77
REMARK SMILES IDX 21 78 22 79 33 80 23 82 32 83 24 84 25 85 26 86 31 87 27 88
REMARK SMILES IDX 29 89 28 90 30 91 11 92 12 93 20 94 13 95 14 96 19 97 15 99
REMARK SMILES IDX 17 100 16 101 18 102
REMARK H PARENT 3 5 90 23 58 34 7 75 21 81 13 98
REMARK Flexibility Score: inf
ROOT
ATOM      1  C   UNL     1      10.002  -2.893   7.595  1.00  0.00     0.118 C 
ENDROOT
BRANCH   1   2
ATOM      2  N   UNL     1       9.806  -1.836   8.581  1.00  0.00    -0.352 N 
ATOM      3  O   UNL     1       9.509  -0.720  10.478  1.00  0.00    -0.269 OA
ATOM      4  C   UNL     1       9.880  -1.772   9.953  1.00  0.00     0.251 C 
ATOM      5  H   UNL     1       9.567  -0.973   8.171  1.00  0.00     0.163 HD
BRANCH   4   6
ATOM      6  C   UNL     1      10.344  -2.889  10.822  1.00  0.00     0.039 A 
ATOM      7  C   UNL     1      11.239  -3.869  10.405  1.00  0.00     0.014 A 
ATOM      8  C   UNL     1       9.930  -2.903  12.165  1.00  0.00     0.014 A 
ATOM      9  C   UNL     1      11.580  -4.931  11.243  1.00  0.00     0.010 A 
ATOM     10  C   UNL     1      10.373  -3.901  13.047  1.00  0.00     0.010 A 
ATOM     11  C   UNL     1      11.172  -4.952  12.584  1.00  0.00    -0.014 A 
BRANCH  11  12
ATOM     12  C   UNL     1      11.692  -6.018  13.487  1.00  0.00     0.031 A 
ATOM     13  C   UNL     1      10.780  -7.002  14.168  1.00  0.00     0.074 A 
ATOM     14  C   UNL     1      13.023  -6.108  13.679  1.00  0.00     0.049 A 
ATOM     15  N   UNL     1      11.077  -8.095  14.825  1.00  0.00    -0.248 NA
ATOM     16  C   UNL     1       9.341  -6.739  14.088  1.00  0.00     0.031 C 
ATOM     17  C   UNL     1      14.018  -5.189  13.119  1.00  0.00     0.029 A 
ATOM     18  N   UNL     1      13.768  -7.000  14.406  1.00  0.00    -0.354 N 
ATOM     19  C   UNL     1       9.860  -8.659  15.198  1.00  0.00     0.074 A 
ATOM     20  C   UNL     1       8.820  -7.792  14.698  1.00  0.00     0.031 C 
ATOM     21  C   UNL     1      15.240  -5.566  13.519  1.00  0.00     0.029 A 
ATOM     22  C   UNL     1      15.113  -6.715  14.407  1.00  0.00     0.049 A 
ATOM     23  H   UNL     1      13.379  -7.770  14.881  1.00  0.00     0.167 HD
ATOM     24  C   UNL     1       9.623  -9.783  15.915  1.00  0.00     0.034 A 
ATOM     25  C   UNL     1      16.130  -7.291  15.075  1.00  0.00     0.034 A 
ATOM     26  C   UNL     1      10.655 -10.566  16.532  1.00  0.00     0.049 A 
ATOM     27  C   UNL     1      15.845  -8.488  15.933  1.00  0.00     0.074 A 
ATOM     28  C   UNL     1      10.529 -11.703  17.309  1.00  0.00     0.029 A 
ATOM     29  N   UNL     1      12.005 -10.250  16.496  1.00  0.00    -0.354 N 
ATOM     30  N   UNL     1      14.704  -9.102  16.133  1.00  0.00    -0.248 NA
ATOM     31  C   UNL     1      16.985  -9.090  16.635  1.00  0.00     0.031 C 
ATOM     32  C   UNL     1      11.800 -12.046  17.783  1.00  0.00     0.029 A 
ATOM     33  C   UNL     1      12.722 -11.149  17.264  1.00  0.00     0.049 A 
ATOM     34  H   UNL     1      12.396  -9.497  15.996  1.00  0.00     0.167 HD
ATOM     35  C   UNL     1      14.990 -10.181  16.959  1.00  0.00     0.074 A 
ATOM     36  C   UNL     1      16.417 -10.142  17.213  1.00  0.00     0.031 C 
ATOM     37  C   UNL     1      14.148 -11.114  17.467  1.00  0.00     0.034 A 
BRANCH  24  38
ATOM     38  C   UNL     1       8.186 -10.203  16.088  1.00  0.00     0.023 A 
ATOM     39  C   UNL     1       7.497 -10.778  15.000  1.00  0.00     0.012 A 
ATOM     40  C   UNL     1       7.520 -10.043  17.319  1.00  0.00     0.148 A 
ATOM     41  C   UNL     1       6.162 -11.163  15.125  1.00  0.00     0.002 A 
ATOM     42  C   UNL     1       6.197 -10.456  17.445  1.00  0.00     0.091 A 
ATOM     43  F   UNL     1       8.180  -9.466  18.333  1.00  0.00    -0.205 F 
ATOM     44  C   UNL     1       5.515 -11.008  16.348  1.00  0.00     0.022 A 
BRANCH  42  45
ATOM     45  S   UNL     1       5.292 -10.338  18.992  1.00  0.00     0.127 S 
ATOM     46  O   UNL     1       4.391  -9.220  18.722  1.00  0.00    -0.237 OA
ATOM     47  O   UNL     1       4.637 -11.644  19.069  1.00  0.00    -0.237 OA
ATOM     48  O   UNL     1       6.294 -10.102  20.024  1.00  0.00    -0.744 OA
ENDBRANCH  42  45
ENDBRANCH  24  38
BRANCH  25  49
ATOM     49  C   UNL     1      17.502  -6.732  14.923  1.00  0.00     0.023 A 
ATOM     50  C   UNL     1      18.474  -7.447  14.201  1.00  0.00     0.012 A 
ATOM     51  C   UNL     1      17.811  -5.444  15.407  1.00  0.00     0.148 A 
ATOM     52  C   UNL     1      19.734  -6.892  13.970  1.00  0.00     0.002 A 
ATOM     53  C   UNL     1      19.044  -4.873  15.121  1.00  0.00     0.091 A 
ATOM     54  F   UNL     1      16.873  -4.786  16.105  1.00  0.00    -0.205 F 
ATOM     55  C   UNL     1      20.013  -5.601  14.414  1.00  0.00     0.022 A 
BRANCH  53  56
ATOM     56  S   UNL     1      19.429  -3.164  15.518  1.00  0.00     0.127 S 
ATOM     57  O   UNL     1      20.410  -3.318  16.587  1.00  0.00    -0.237 OA
ATOM     58  O   UNL     1      19.967  -2.672  14.250  1.00  0.00    -0.237 OA
ATOM     59  O   UNL     1      18.161  -2.555  15.906  1.00  0.00    -0.744 OA
ENDBRANCH  53  56
ENDBRANCH  25  49
BRANCH  37  60
ATOM     60  C   UNL     1      14.742 -12.199  18.323  1.00  0.00     0.023 A 
ATOM     61  C   UNL     1      15.145 -11.914  19.641  1.00  0.00     0.012 A 
ATOM     62  C   UNL     1      14.795 -13.524  17.848  1.00  0.00     0.148 A 
ATOM     63  C   UNL     1      15.612 -12.932  20.470  1.00  0.00     0.002 A 
ATOM     64  C   UNL     1      15.214 -14.540  18.696  1.00  0.00     0.091 A 
ATOM     65  F   UNL     1      14.427 -13.765  16.581  1.00  0.00    -0.205 F 
ATOM     66  C   UNL     1      15.632 -14.245  20.003  1.00  0.00     0.022 A 
BRANCH  64  67
ATOM     67  S   UNL     1      15.167 -16.268  18.207  1.00  0.00     0.127 S 
ATOM     68  O   UNL     1      16.591 -16.562  18.025  1.00  0.00    -0.237 OA
ATOM     69  O   UNL     1      14.563 -16.905  19.383  1.00  0.00    -0.237 OA
ATOM     70  O   UNL     1      14.358 -16.326  17.007  1.00  0.00    -0.744 OA
ENDBRANCH  64  67
ENDBRANCH  37  60
ENDBRANCH  11  12
ENDBRANCH   4   6
ENDBRANCH   1   2
BRANCH   1  71
ATOM     71  C   UNL     1       8.737  -3.685   7.302  1.00  0.00     0.042 C 
BRANCH  71  72
ATOM     72  C   UNL     1       7.705  -2.913   6.500  1.00  0.00     0.118 C 
BRANCH  72  73
ATOM     73  N   UNL     1       8.023  -2.685   5.107  1.00  0.00    -0.351 N 
ATOM     74  C   UNL     1       7.210  -2.932   4.023  1.00  0.00     0.283 C 
ATOM     75  H   UNL     1       8.914  -2.315   4.914  1.00  0.00     0.163 HD
ATOM     76  O   UNL     1       7.328  -2.135   3.086  1.00  0.00    -0.268 OA
BRANCH  74  77
ATOM     77  C   UNL     1       6.317  -4.222   3.956  1.00  0.00     0.307 C 
BRANCH  77  78
ATOM     78  N   UNL     1       5.038  -4.211   4.675  1.00  0.00    -0.318 N 
ATOM     79  C   UNL     1       4.643  -5.434   5.354  1.00  0.00     0.284 C 
ATOM     80  C   UNL     1       4.423  -3.024   5.224  1.00  0.00     0.284 C 
ATOM     81  H   UNL     1       4.594  -4.139   3.759  1.00  0.00     0.349 HD
ATOM     82  C   UNL     1       5.029  -5.399   6.832  1.00  0.00     0.178 C 
ATOM     83  C   UNL     1       4.300  -2.938   6.772  1.00  0.00     0.178 C 
ATOM     84  N   UNL     1       4.550  -4.189   7.526  1.00  0.00    -0.360 N 
BRANCH  84  85
ATOM     85  C   UNL     1       4.808  -4.061   8.896  1.00  0.00     0.038 A 
ATOM     86  C   UNL     1       4.141  -3.119   9.696  1.00  0.00     0.026 A 
ATOM     87  C   UNL     1       5.768  -4.853   9.537  1.00  0.00     0.046 A 
ATOM     88  C   UNL     1       4.444  -2.951  11.056  1.00  0.00     0.004 A 
ATOM     89  C   UNL     1       6.085  -4.676  10.881  1.00  0.00     0.043 A 
ATOM     90  C   UNL     1       5.434  -3.725  11.650  1.00  0.00     0.020 A 
ATOM     91  Cl  UNL     1       7.313  -5.661  11.547  1.00  0.00    -0.084 Cl
ENDBRANCH  84  85
ENDBRANCH  77  78
BRANCH  77  92
ATOM     92  C   UNL     1       5.949  -4.526   2.506  1.00  0.00     0.044 A 
ATOM     93  C   UNL     1       5.084  -3.782   1.716  1.00  0.00     0.094 A 
ATOM     94  C   UNL     1       6.398  -5.618   1.686  1.00  0.00     0.011 A 
ATOM     95  N   UNL     1       5.013  -4.350   0.480  1.00  0.00    -0.361 N 
ATOM     96  C   UNL     1       5.801  -5.474   0.429  1.00  0.00     0.046 A 
ATOM     97  C   UNL     1       7.258  -6.719   1.889  1.00  0.00     0.031 A 
ATOM     98  H   UNL     1       4.476  -4.004  -0.269  1.00  0.00     0.166 HD
ATOM     99  C   UNL     1       6.021  -6.358  -0.633  1.00  0.00     0.028 A 
ATOM    100  C   UNL     1       7.483  -7.612   0.834  1.00  0.00     0.041 A 
ATOM    101  C   UNL     1       6.879  -7.436  -0.408  1.00  0.00     0.022 A 
ATOM    102  Cl  UNL     1       8.531  -8.959   1.075  1.00  0.00    -0.084 Cl
ENDBRANCH  77  92
ENDBRANCH  74  77
ENDBRANCH  72  73
ENDBRANCH  71  72
ENDBRANCH   1  71
TORSDOF 16
