REMARK SMILES O=C(COc1ccc(N2C[C@@H](C(=O)NCCCNC(=O)c3ccc(-c4c5nc(c(-c6cccc(S(=O)(=O)[O-])c6F)c6ccc([nH]6)c(-c6cccc(S(=O)(=O)[O-])c6F)c6nc(c(-c7cccc(S(=O)(=O)[O-])c7F)c7ccc4[nH]7)C=C6)C=C5)cc3)CC2=O)cc1)Nc1ccc(Cl)cc1Cl
REMARK SMILES IDX 15 1 14 2 12 3 13 4 11 6 9 7 10 8 85 9 84 10 86 11 8 12 5 13
REMARK SMILES IDX 6 14 88 15 7 16 87 17 4 18 3 19 2 20 1 21 89 22 90 24 91 25
REMARK SMILES IDX 96 26 92 27 95 28 97 29 93 30 94 31 16 32 17 33 18 34 19 35
REMARK SMILES IDX 20 37 21 38 22 39 83 40 23 41 82 42 24 43 25 44 26 45 76 46
REMARK SMILES IDX 27 47 81 48 75 49 77 50 28 51 80 52 74 53 73 54 29 56 61 57
REMARK SMILES IDX 41 58 60 59 42 60 45 61 59 62 78 63 43 64 44 65 58 67 79 68
REMARK SMILES IDX 46 69 30 70 31 71 39 72 32 73 34 74 40 75 33 76 35 77 36 78
REMARK SMILES IDX 37 79 38 80 62 81 63 82 71 83 64 84 66 85 72 86 65 87 67 88
REMARK SMILES IDX 68 89 69 90 70 91 47 92 48 93 56 94 49 95 51 96 57 97 50 98
REMARK SMILES IDX 52 99 53 100 54 101 55 102
REMARK H PARENT 14 5 89 23 18 36 77 55 45 66
REMARK Flexibility Score: inf
ROOT
ATOM      1  C   UNL     1      -1.794  -5.616   4.365  1.00  0.00     0.117 C 
ENDROOT
BRANCH   1   2
ATOM      2  N   UNL     1      -1.476  -6.335   5.590  1.00  0.00    -0.356 N 
ATOM      3  C   UNL     1      -0.314  -6.836   6.078  1.00  0.00     0.225 C 
ATOM      4  O   UNL     1      -0.351  -7.372   7.189  1.00  0.00    -0.275 OA
ATOM      5  H   UNL     1      -2.253  -6.487   6.176  1.00  0.00     0.163 HD
BRANCH   3   6
ATOM      6  C   UNL     1       1.008  -6.723   5.348  1.00  0.00     0.107 C 
ATOM      7  N   UNL     1       1.863  -5.132   3.841  1.00  0.00    -0.312 N 
ATOM      8  C   UNL     1       1.479  -5.285   5.218  1.00  0.00     0.139 C 
ATOM      9  C   UNL     1       1.621  -6.273   3.078  1.00  0.00     0.227 C 
ATOM     10  C   UNL     1       1.018  -7.331   3.955  1.00  0.00     0.116 C 
ATOM     11  O   UNL     1       1.863  -6.445   1.891  1.00  0.00    -0.274 OA
BRANCH   7  12
ATOM     12  C   UNL     1       2.318  -3.907   3.309  1.00  0.00     0.044 A 
ATOM     13  C   UNL     1       3.280  -1.537   2.134  1.00  0.00     0.120 A 
ATOM     14  C   UNL     1       3.683  -1.897   3.420  1.00  0.00     0.048 A 
ATOM     15  C   UNL     1       2.385  -2.351   1.450  1.00  0.00     0.048 A 
ATOM     16  C   UNL     1       3.175  -3.060   4.022  1.00  0.00     0.030 A 
ATOM     17  C   UNL     1       1.920  -3.530   2.027  1.00  0.00     0.030 A 
BRANCH  13  18
ATOM     18  O   UNL     1       3.907  -0.479   1.529  1.00  0.00    -0.484 OA
BRANCH  18  19
ATOM     19  C   UNL     1       3.033   0.589   1.170  1.00  0.00     0.329 C 
BRANCH  19  20
ATOM     20  C   UNL     1       2.134   0.364  -0.052  1.00  0.00     0.262 C 
ATOM     21  O   UNL     1       0.948   0.676  -0.019  1.00  0.00    -0.271 OA
ATOM     22  N   UNL     1       2.789  -0.291  -1.089  1.00  0.00    -0.322 N 
ATOM     23  H   UNL     1       3.764  -0.404  -1.017  1.00  0.00     0.170 HD
BRANCH  22  24
ATOM     24  C   UNL     1       2.148  -0.808  -2.243  1.00  0.00     0.060 A 
ATOM     25  C   UNL     1       2.565  -2.088  -2.646  1.00  0.00     0.029 A 
ATOM     26  C   UNL     1       1.127  -0.172  -2.972  1.00  0.00     0.066 A 
ATOM     27  C   UNL     1       1.914  -2.759  -3.685  1.00  0.00     0.023 A 
ATOM     28  C   UNL     1       0.471  -0.851  -4.007  1.00  0.00     0.043 A 
ATOM     29  Cl  UNL     1       0.749   1.510  -2.805  1.00  0.00    -0.082 Cl
ATOM     30  C   UNL     1       0.858  -2.143  -4.348  1.00  0.00     0.042 A 
ATOM     31  Cl  UNL     1       0.050  -2.966  -5.623  1.00  0.00    -0.084 Cl
ENDBRANCH  22  24
ENDBRANCH  19  20
ENDBRANCH  18  19
ENDBRANCH  13  18
ENDBRANCH   7  12
ENDBRANCH   3   6
ENDBRANCH   1   2
BRANCH   1  32
ATOM     32  C   UNL     1      -2.691  -6.421   3.433  1.00  0.00     0.042 C 
BRANCH  32  33
ATOM     33  C   UNL     1      -4.065  -6.739   4.010  1.00  0.00     0.118 C 
BRANCH  33  34
ATOM     34  N   UNL     1      -4.884  -5.550   4.215  1.00  0.00    -0.352 N 
ATOM     35  C   UNL     1      -6.104  -5.227   3.666  1.00  0.00     0.251 C 
ATOM     36  H   UNL     1      -4.511  -4.883   4.835  1.00  0.00     0.163 HD
ATOM     37  O   UNL     1      -6.573  -4.105   3.829  1.00  0.00    -0.269 OA
BRANCH  35  38
ATOM     38  C   UNL     1      -6.835  -6.232   2.866  1.00  0.00     0.039 A 
ATOM     39  C   UNL     1      -7.373  -5.867   1.629  1.00  0.00     0.014 A 
ATOM     40  C   UNL     1      -6.962  -7.542   3.331  1.00  0.00     0.014 A 
ATOM     41  C   UNL     1      -7.971  -6.839   0.821  1.00  0.00     0.010 A 
ATOM     42  C   UNL     1      -7.475  -8.522   2.491  1.00  0.00     0.010 A 
ATOM     43  C   UNL     1      -7.990  -8.182   1.229  1.00  0.00    -0.014 A 
BRANCH  43  44
ATOM     44  C   UNL     1      -8.549  -9.267   0.381  1.00  0.00     0.031 A 
ATOM     45  C   UNL     1      -9.697 -10.090   0.902  1.00  0.00     0.074 A 
ATOM     46  C   UNL     1      -7.947  -9.600  -0.778  1.00  0.00     0.049 A 
ATOM     47  N   UNL     1     -10.203 -11.197   0.427  1.00  0.00    -0.248 NA
ATOM     48  C   UNL     1     -10.332  -9.625   2.147  1.00  0.00     0.031 C 
ATOM     49  C   UNL     1      -6.795  -8.913  -1.365  1.00  0.00     0.029 A 
ATOM     50  N   UNL     1      -8.194 -10.634  -1.648  1.00  0.00    -0.354 N 
ATOM     51  C   UNL     1     -11.174 -11.590   1.340  1.00  0.00     0.074 A 
ATOM     52  C   UNL     1     -11.168 -10.618   2.411  1.00  0.00     0.031 C 
ATOM     53  C   UNL     1      -6.428  -9.550  -2.489  1.00  0.00     0.029 A 
ATOM     54  C   UNL     1      -7.286 -10.715  -2.679  1.00  0.00     0.049 A 
ATOM     55  H   UNL     1      -8.950 -11.257  -1.545  1.00  0.00     0.167 HD
ATOM     56  C   UNL     1     -12.010 -12.653   1.283  1.00  0.00     0.034 A 
ATOM     57  C   UNL     1      -7.141 -11.640  -3.649  1.00  0.00     0.034 A 
ATOM     58  C   UNL     1     -12.043 -13.588   0.193  1.00  0.00     0.049 A 
ATOM     59  C   UNL     1      -8.100 -12.800  -3.705  1.00  0.00     0.074 A 
ATOM     60  C   UNL     1     -12.907 -14.650  -0.001  1.00  0.00     0.029 A 
ATOM     61  N   UNL     1     -11.170 -13.577  -0.884  1.00  0.00    -0.354 N 
ATOM     62  N   UNL     1      -9.092 -13.088  -2.898  1.00  0.00    -0.248 NA
ATOM     63  C   UNL     1      -7.942 -13.745  -4.821  1.00  0.00     0.031 C 
ATOM     64  C   UNL     1     -12.536 -15.302  -1.181  1.00  0.00     0.029 A 
ATOM     65  C   UNL     1     -11.471 -14.617  -1.744  1.00  0.00     0.049 A 
ATOM     66  H   UNL     1     -10.444 -12.925  -1.016  1.00  0.00     0.167 HD
ATOM     67  C   UNL     1      -9.707 -14.213  -3.437  1.00  0.00     0.074 A 
ATOM     68  C   UNL     1      -8.977 -14.554  -4.640  1.00  0.00     0.031 C 
ATOM     69  C   UNL     1     -10.780 -14.900  -2.975  1.00  0.00     0.034 A 
BRANCH  56  70
ATOM     70  C   UNL     1     -12.984 -12.842   2.417  1.00  0.00     0.023 A 
ATOM     71  C   UNL     1     -14.055 -11.940   2.579  1.00  0.00     0.012 A 
ATOM     72  C   UNL     1     -12.870 -13.942   3.289  1.00  0.00     0.148 A 
ATOM     73  C   UNL     1     -14.972 -12.105   3.616  1.00  0.00     0.002 A 
ATOM     74  C   UNL     1     -13.817 -14.129   4.288  1.00  0.00     0.091 A 
ATOM     75  F   UNL     1     -11.834 -14.779   3.132  1.00  0.00    -0.205 F 
ATOM     76  C   UNL     1     -14.860 -13.204   4.463  1.00  0.00     0.022 A 
BRANCH  74  77
ATOM     77  S   UNL     1     -13.810 -15.559   5.375  1.00  0.00     0.127 S 
ATOM     78  O   UNL     1     -13.437 -14.956   6.654  1.00  0.00    -0.237 OA
ATOM     79  O   UNL     1     -15.199 -16.011   5.296  1.00  0.00    -0.237 OA
ATOM     80  O   UNL     1     -12.837 -16.486   4.814  1.00  0.00    -0.744 OA
ENDBRANCH  74  77
ENDBRANCH  56  70
BRANCH  57  81
ATOM     81  C   UNL     1      -6.073 -11.482  -4.678  1.00  0.00     0.023 A 
ATOM     82  C   UNL     1      -6.433 -11.171  -6.004  1.00  0.00     0.012 A 
ATOM     83  C   UNL     1      -4.711 -11.618  -4.351  1.00  0.00     0.148 A 
ATOM     84  C   UNL     1      -5.458 -11.033  -6.993  1.00  0.00     0.002 A 
ATOM     85  C   UNL     1      -3.741 -11.426  -5.328  1.00  0.00     0.091 A 
ATOM     86  F   UNL     1      -4.390 -11.921  -3.085  1.00  0.00    -0.205 F 
ATOM     87  C   UNL     1      -4.113 -11.151  -6.654  1.00  0.00     0.022 A 
BRANCH  85  88
ATOM     88  S   UNL     1      -1.983 -11.438  -4.961  1.00  0.00     0.127 S 
ATOM     89  O   UNL     1      -1.541 -12.645  -5.655  1.00  0.00    -0.237 OA
ATOM     90  O   UNL     1      -1.541 -10.181  -5.568  1.00  0.00    -0.237 OA
ATOM     91  O   UNL     1      -1.883 -11.473  -3.509  1.00  0.00    -0.744 OA
ENDBRANCH  85  88
ENDBRANCH  57  81
BRANCH  69  92
ATOM     92  C   UNL     1     -11.300 -16.047  -3.800  1.00  0.00     0.023 A 
ATOM     93  C   UNL     1     -10.605 -17.270  -3.840  1.00  0.00     0.012 A 
ATOM     94  C   UNL     1     -12.554 -15.939  -4.437  1.00  0.00     0.148 A 
ATOM     95  C   UNL     1     -11.142 -18.365  -4.516  1.00  0.00     0.002 A 
ATOM     96  C   UNL     1     -13.106 -17.049  -5.062  1.00  0.00     0.091 A 
ATOM     97  F   UNL     1     -13.189 -14.759  -4.400  1.00  0.00    -0.205 F 
ATOM     98  C   UNL     1     -12.397 -18.259  -5.112  1.00  0.00     0.022 A 
BRANCH  96  99
ATOM     99  S   UNL     1     -14.761 -17.037  -5.762  1.00  0.00     0.127 S 
ATOM    100  O   UNL     1     -14.480 -17.165  -7.191  1.00  0.00    -0.237 OA
ATOM    101  O   UNL     1     -15.362 -18.222  -5.149  1.00  0.00    -0.237 OA
ATOM    102  O   UNL     1     -15.363 -15.774  -5.359  1.00  0.00    -0.744 OA
ENDBRANCH  96  99
ENDBRANCH  69  92
ENDBRANCH  43  44
ENDBRANCH  35  38
ENDBRANCH  33  34
ENDBRANCH  32  33
ENDBRANCH   1  32
TORSDOF 18
