REMARK SMILES CC1(C(=O)N[C@H](C(=O)NCCCNC(=O)c2ccc(-c3c4nc(c(-c5cccc(S(=O)(=O)[O-])c5F)c5ccc([nH]5)c(-c5cccc(S(=O)(=O)[O-])c5F)c5nc(c(-c6cccc(S(=O)(=O)[O-])c6F)c6ccc3[nH]6)C=C5)C=C4)cc2)C2CC2)CCCC1
REMARK SMILES IDX 11 1 10 2 9 3 7 4 8 5 6 7 5 8 3 9 4 10 2 12 1 13 82 14 85 15
REMARK SMILES IDX 83 16 84 17 79 18 80 19 81 20 12 21 13 22 14 23 15 25 16 26
REMARK SMILES IDX 17 27 78 28 18 29 77 30 19 31 20 32 21 33 71 34 22 35 76 36
REMARK SMILES IDX 70 37 72 38 23 39 75 40 69 41 68 42 24 44 56 45 36 46 55 47
REMARK SMILES IDX 37 48 40 49 54 50 73 51 38 52 39 53 53 55 74 56 41 57 25 58
REMARK SMILES IDX 26 59 34 60 27 61 29 62 35 63 28 64 30 65 31 66 32 67 33 68
REMARK SMILES IDX 57 69 58 70 66 71 59 72 61 73 67 74 60 75 62 76 63 77 64 78
REMARK SMILES IDX 65 79 42 80 43 81 51 82 44 83 46 84 52 85 45 86 47 87 48 88
REMARK SMILES IDX 49 89 50 90
REMARK H PARENT 9 6 5 11 13 24 72 43 40 54
REMARK Flexibility Score: inf
ROOT
ATOM      1  C   UNL     1       6.459  -1.156   2.125  1.00  0.00     0.042 C 
ENDROOT
BRANCH   1   2
ATOM      2  C   UNL     1       5.306  -2.008   2.638  1.00  0.00     0.117 C 
BRANCH   2   3
ATOM      3  N   UNL     1       4.082  -1.247   2.782  1.00  0.00    -0.354 N 
ATOM      4  C   UNL     1       2.933  -1.293   2.050  1.00  0.00     0.242 C 
ATOM      5  O   UNL     1       1.950  -0.697   2.504  1.00  0.00    -0.273 OA
ATOM      6  H   UNL     1       4.079  -0.598   3.522  1.00  0.00     0.163 HD
BRANCH   4   7
ATOM      7  C   UNL     1       2.799  -2.214   0.808  1.00  0.00     0.174 C 
BRANCH   7   8
ATOM      8  N   UNL     1       3.912  -2.087  -0.125  1.00  0.00    -0.344 N 
ATOM      9  C   UNL     1       4.162  -1.225  -1.143  1.00  0.00     0.226 C 
ATOM     10  O   UNL     1       5.232  -1.397  -1.733  1.00  0.00    -0.274 OA
ATOM     11  H   UNL     1       4.620  -2.758   0.009  1.00  0.00     0.164 HD
BRANCH   9  12
ATOM     12  C   UNL     1       3.164  -0.149  -1.593  1.00  0.00     0.046 C 
ATOM     13  C   UNL     1       1.970  -0.805  -2.303  1.00  0.00     0.022 C 
ATOM     14  C   UNL     1       3.861   0.840  -2.557  1.00  0.00     0.016 C 
ATOM     15  C   UNL     1       2.739   0.803  -0.469  1.00  0.00     0.016 C 
ATOM     16  C   UNL     1       3.001   2.095  -2.530  1.00  0.00     0.001 C 
ATOM     17  C   UNL     1       2.405   2.142  -1.130  1.00  0.00     0.001 C 
ENDBRANCH   9  12
ENDBRANCH   7   8
BRANCH   7  18
ATOM     18  C   UNL     1       2.619  -3.658   1.256  1.00  0.00     0.021 C 
ATOM     19  C   UNL     1       1.799  -4.606   0.412  1.00  0.00     0.006 C 
ATOM     20  C   UNL     1       3.267  -4.856   0.586  1.00  0.00     0.006 C 
ENDBRANCH   7  18
ENDBRANCH   4   7
ENDBRANCH   2   3
ENDBRANCH   1   2
BRANCH   1  21
ATOM     21  C   UNL     1       6.833  -0.004   3.052  1.00  0.00     0.118 C 
BRANCH  21  22
ATOM     22  N   UNL     1       7.182  -0.456   4.394  1.00  0.00    -0.352 N 
ATOM     23  C   UNL     1       8.314  -0.233   5.131  1.00  0.00     0.251 C 
ATOM     24  H   UNL     1       6.497  -1.006   4.839  1.00  0.00     0.163 HD
ATOM     25  O   UNL     1       8.489  -0.877   6.169  1.00  0.00    -0.269 OA
BRANCH  23  26
ATOM     26  C   UNL     1       9.316   0.761   4.699  1.00  0.00     0.039 A 
ATOM     27  C   UNL     1      10.673   0.479   4.884  1.00  0.00     0.014 A 
ATOM     28  C   UNL     1       8.925   1.990   4.160  1.00  0.00     0.014 A 
ATOM     29  C   UNL     1      11.635   1.416   4.502  1.00  0.00     0.010 A 
ATOM     30  C   UNL     1       9.886   2.885   3.701  1.00  0.00     0.010 A 
ATOM     31  C   UNL     1      11.249   2.621   3.893  1.00  0.00    -0.014 A 
BRANCH  31  32
ATOM     32  C   UNL     1      12.252   3.640   3.495  1.00  0.00     0.031 A 
ATOM     33  C   UNL     1      12.239   4.999   4.146  1.00  0.00     0.074 A 
ATOM     34  C   UNL     1      13.124   3.371   2.504  1.00  0.00     0.049 A 
ATOM     35  N   UNL     1      12.990   6.040   3.898  1.00  0.00    -0.248 NA
ATOM     36  C   UNL     1      11.228   5.229   5.193  1.00  0.00     0.031 C 
ATOM     37  C   UNL     1      13.186   2.119   1.746  1.00  0.00     0.029 A 
ATOM     38  N   UNL     1      14.111   4.144   1.947  1.00  0.00    -0.354 N 
ATOM     39  C   UNL     1      12.519   7.054   4.726  1.00  0.00     0.074 A 
ATOM     40  C   UNL     1      11.392   6.517   5.453  1.00  0.00     0.031 C 
ATOM     41  C   UNL     1      14.164   2.207   0.830  1.00  0.00     0.029 A 
ATOM     42  C   UNL     1      14.780   3.527   0.916  1.00  0.00     0.049 A 
ATOM     43  H   UNL     1      14.321   5.055   2.257  1.00  0.00     0.167 HD
ATOM     44  C   UNL     1      13.003   8.308   4.893  1.00  0.00     0.034 A 
ATOM     45  C   UNL     1      15.778   3.978   0.130  1.00  0.00     0.034 A 
ATOM     46  C   UNL     1      14.158   8.819   4.207  1.00  0.00     0.049 A 
ATOM     47  C   UNL     1      16.331   5.356   0.375  1.00  0.00     0.074 A 
ATOM     48  C   UNL     1      14.776  10.047   4.357  1.00  0.00     0.029 A 
ATOM     49  N   UNL     1      14.873   8.126   3.242  1.00  0.00    -0.354 N 
ATOM     50  N   UNL     1      15.965   6.248   1.263  1.00  0.00    -0.248 NA
ATOM     51  C   UNL     1      17.466   5.774  -0.461  1.00  0.00     0.031 C 
ATOM     52  C   UNL     1      15.857  10.102   3.472  1.00  0.00     0.029 A 
ATOM     53  C   UNL     1      15.928   8.898   2.791  1.00  0.00     0.049 A 
ATOM     54  H   UNL     1      14.660   7.218   2.924  1.00  0.00     0.167 HD
ATOM     55  C   UNL     1      16.852   7.309   1.127  1.00  0.00     0.074 A 
ATOM     56  C   UNL     1      17.784   6.942   0.080  1.00  0.00     0.031 C 
ATOM     57  C   UNL     1      16.887   8.487   1.798  1.00  0.00     0.034 A 
BRANCH  44  58
ATOM     58  C   UNL     1      12.320   9.194   5.903  1.00  0.00     0.023 A 
ATOM     59  C   UNL     1      12.454   8.909   7.278  1.00  0.00     0.012 A 
ATOM     60  C   UNL     1      11.597  10.334   5.502  1.00  0.00     0.148 A 
ATOM     61  C   UNL     1      11.848   9.721   8.236  1.00  0.00     0.002 A 
ATOM     62  C   UNL     1      11.035  11.165   6.465  1.00  0.00     0.091 A 
ATOM     63  F   UNL     1      11.463  10.578   4.191  1.00  0.00    -0.205 F 
ATOM     64  C   UNL     1      11.149  10.854   7.830  1.00  0.00     0.022 A 
BRANCH  62  65
ATOM     65  S   UNL     1      10.184  12.693   6.051  1.00  0.00     0.127 S 
ATOM     66  O   UNL     1       8.799  12.357   6.379  1.00  0.00    -0.237 OA
ATOM     67  O   UNL     1      10.811  13.650   6.963  1.00  0.00    -0.237 OA
ATOM     68  O   UNL     1      10.450  12.933   4.641  1.00  0.00    -0.744 OA
ENDBRANCH  62  65
ENDBRANCH  44  58
BRANCH  45  69
ATOM     69  C   UNL     1      16.375   3.088  -0.906  1.00  0.00     0.023 A 
ATOM     70  C   UNL     1      17.683   2.599  -0.723  1.00  0.00     0.012 A 
ATOM     71  C   UNL     1      15.658   2.713  -2.058  1.00  0.00     0.148 A 
ATOM     72  C   UNL     1      18.282   1.787  -1.686  1.00  0.00     0.002 A 
ATOM     73  C   UNL     1      16.241   1.860  -2.989  1.00  0.00     0.091 A 
ATOM     74  F   UNL     1      14.418   3.196  -2.220  1.00  0.00    -0.205 F 
ATOM     75  C   UNL     1      17.559   1.411  -2.814  1.00  0.00     0.022 A 
BRANCH  73  76
ATOM     76  S   UNL     1      15.340   1.224  -4.407  1.00  0.00     0.127 S 
ATOM     77  O   UNL     1      15.963   1.955  -5.508  1.00  0.00    -0.237 OA
ATOM     78  O   UNL     1      15.663  -0.203  -4.354  1.00  0.00    -0.237 OA
ATOM     79  O   UNL     1      13.941   1.531  -4.152  1.00  0.00    -0.744 OA
ENDBRANCH  73  76
ENDBRANCH  45  69
BRANCH  57  80
ATOM     80  C   UNL     1      18.003   9.445   1.473  1.00  0.00     0.023 A 
ATOM     81  C   UNL     1      17.997  10.148   0.252  1.00  0.00     0.012 A 
ATOM     82  C   UNL     1      19.018   9.702   2.415  1.00  0.00     0.148 A 
ATOM     83  C   UNL     1      19.005  11.066  -0.041  1.00  0.00     0.002 A 
ATOM     84  C   UNL     1      19.990  10.655   2.138  1.00  0.00     0.091 A 
ATOM     85  F   UNL     1      19.017   9.008   3.563  1.00  0.00    -0.205 F 
ATOM     86  C   UNL     1      19.993  11.328   0.906  1.00  0.00     0.022 A 
BRANCH  84  87
ATOM     87  S   UNL     1      21.238  11.129   3.340  1.00  0.00     0.127 S 
ATOM     88  O   UNL     1      22.432  10.478   2.802  1.00  0.00    -0.237 OA
ATOM     89  O   UNL     1      21.238  12.588   3.232  1.00  0.00    -0.237 OA
ATOM     90  O   UNL     1      20.771  10.620   4.623  1.00  0.00    -0.744 OA
ENDBRANCH  84  87
ENDBRANCH  57  80
ENDBRANCH  31  32
ENDBRANCH  23  26
ENDBRANCH  21  22
ENDBRANCH   1  21
TORSDOF 16
