REMARK SMILES Cc1cc(C(=O)N[C@@H](C)C(=O)NCCCNC(=O)c2ccc(-c3c4nc(c(-c5cccc(S(=O)(=O)[O-])c5F)c5ccc([nH]5)c(-c5cccc(S(=O)(=O)[O-])c5F)c5nc(c(-c6cccc(S(=O)(=O)[O-])c6F)c6ccc3[nH]6)C=C5)C=C4)cc2)cc(C)c1OC(F)F
REMARK SMILES IDX 13 1 12 2 10 3 11 4 8 6 9 7 7 8 5 9 6 10 4 12 1 13 2 14 3 15
REMARK SMILES IDX 85 16 83 17 82 18 84 19 86 20 87 21 88 22 89 23 14 24 15 25
REMARK SMILES IDX 16 26 17 27 18 29 19 30 20 31 81 32 21 33 80 34 22 35 23 36
REMARK SMILES IDX 24 37 74 38 25 39 79 40 73 41 75 42 26 43 78 44 72 45 71 46
REMARK SMILES IDX 27 48 59 49 39 50 58 51 40 52 43 53 57 54 76 55 41 56 42 57
REMARK SMILES IDX 56 59 77 60 44 61 28 62 29 63 37 64 30 65 32 66 38 67 31 68
REMARK SMILES IDX 33 69 34 70 35 71 36 72 60 73 61 74 69 75 62 76 64 77 70 78
REMARK SMILES IDX 63 79 65 80 66 81 67 82 68 83 45 84 46 85 54 86 47 87 49 88
REMARK SMILES IDX 55 89 48 90 50 91 51 92 52 93 53 94
REMARK H PARENT 12 5 7 11 16 28 75 47 43 58
REMARK Flexibility Score: inf
ROOT
ATOM      1  C   UNL     1      -6.759  -0.560  -0.348  1.00  0.00     0.117 C 
ENDROOT
BRANCH   1   2
ATOM      2  N   UNL     1      -5.851  -1.464  -1.033  1.00  0.00    -0.354 N 
ATOM      3  C   UNL     1      -4.602  -1.896  -0.692  1.00  0.00     0.242 C 
ATOM      4  O   UNL     1      -4.074  -2.748  -1.415  1.00  0.00    -0.273 OA
ATOM      5  H   UNL     1      -6.193  -1.824  -1.883  1.00  0.00     0.163 HD
BRANCH   3   6
ATOM      6  C   UNL     1      -3.857  -1.343   0.539  1.00  0.00     0.168 C 
ATOM      7  C   UNL     1      -4.544  -1.643   1.864  1.00  0.00     0.041 C 
BRANCH   6   8
ATOM      8  N   UNL     1      -3.557   0.070   0.311  1.00  0.00    -0.341 N 
ATOM      9  C   UNL     1      -2.431   0.722  -0.137  1.00  0.00     0.251 C 
ATOM     10  O   UNL     1      -2.534   1.926  -0.371  1.00  0.00    -0.269 OA
ATOM     11  H   UNL     1      -4.308   0.673   0.519  1.00  0.00     0.164 HD
BRANCH   9  12
ATOM     12  C   UNL     1      -1.088   0.086  -0.246  1.00  0.00     0.040 A 
ATOM     13  C   UNL     1       2.410   1.431   0.213  1.00  0.00     0.048 C 
ATOM     14  C   UNL     1       1.359   0.372   0.029  1.00  0.00    -0.008 A 
ATOM     15  C   UNL     1       0.038   0.892  -0.034  1.00  0.00     0.021 A 
ATOM     16  C   UNL     1       1.523  -1.022  -0.025  1.00  0.00     0.131 A 
ATOM     17  C   UNL     1       0.395  -1.828  -0.320  1.00  0.00    -0.008 A 
ATOM     18  C   UNL     1      -0.871  -1.252  -0.518  1.00  0.00     0.021 A 
ATOM     19  C   UNL     1       0.447  -3.337  -0.336  1.00  0.00     0.048 C 
BRANCH  16  20
ATOM     20  O   UNL     1       2.626  -1.773   0.247  1.00  0.00    -0.434 OA
BRANCH  20  21
ATOM     21  C   UNL     1       3.950  -1.323   0.067  1.00  0.00     0.542 C 
ATOM     22  F   UNL     1       4.077  -0.624  -1.083  1.00  0.00    -0.167 F 
ATOM     23  F   UNL     1       4.318  -0.552   1.116  1.00  0.00    -0.167 F 
ENDBRANCH  20  21
ENDBRANCH  16  20
ENDBRANCH   9  12
ENDBRANCH   6   8
ENDBRANCH   3   6
ENDBRANCH   1   2
BRANCH   1  24
ATOM     24  C   UNL     1      -7.258   0.578  -1.223  1.00  0.00     0.042 C 
BRANCH  24  25
ATOM     25  C   UNL     1      -8.073   0.141  -2.432  1.00  0.00     0.118 C 
BRANCH  25  26
ATOM     26  N   UNL     1      -9.278  -0.598  -2.071  1.00  0.00    -0.352 N 
ATOM     27  C   UNL     1     -10.604  -0.241  -2.151  1.00  0.00     0.251 C 
ATOM     28  H   UNL     1      -9.115  -1.500  -1.710  1.00  0.00     0.163 HD
ATOM     29  O   UNL     1     -11.452  -0.946  -1.617  1.00  0.00    -0.269 OA
BRANCH  27  30
ATOM     30  C   UNL     1     -11.005   0.999  -2.853  1.00  0.00     0.039 A 
ATOM     31  C   UNL     1     -11.963   1.831  -2.265  1.00  0.00     0.014 A 
ATOM     32  C   UNL     1     -10.442   1.345  -4.083  1.00  0.00     0.014 A 
ATOM     33  C   UNL     1     -12.280   3.054  -2.863  1.00  0.00     0.010 A 
ATOM     34  C   UNL     1     -10.693   2.600  -4.630  1.00  0.00     0.010 A 
ATOM     35  C   UNL     1     -11.606   3.473  -4.022  1.00  0.00    -0.014 A 
BRANCH  35  36
ATOM     36  C   UNL     1     -11.797   4.836  -4.584  1.00  0.00     0.031 A 
ATOM     37  C   UNL     1     -12.314   5.019  -5.986  1.00  0.00     0.074 A 
ATOM     38  C   UNL     1     -11.392   5.907  -3.869  1.00  0.00     0.049 A 
ATOM     39  N   UNL     1     -12.446   6.122  -6.676  1.00  0.00    -0.248 NA
ATOM     40  C   UNL     1     -12.711   3.804  -6.717  1.00  0.00     0.031 C 
ATOM     41  C   UNL     1     -10.799   5.856  -2.530  1.00  0.00     0.029 A 
ATOM     42  N   UNL     1     -11.380   7.244  -4.183  1.00  0.00    -0.354 N 
ATOM     43  C   UNL     1     -12.899   5.734  -7.931  1.00  0.00     0.074 A 
ATOM     44  C   UNL     1     -13.003   4.291  -7.916  1.00  0.00     0.031 C 
ATOM     45  C   UNL     1     -10.474   7.099  -2.143  1.00  0.00     0.029 A 
ATOM     46  C   UNL     1     -10.795   8.032  -3.217  1.00  0.00     0.049 A 
ATOM     47  H   UNL     1     -11.754   7.605  -5.019  1.00  0.00     0.167 HD
ATOM     48  C   UNL     1     -13.217   6.511  -8.994  1.00  0.00     0.034 A 
ATOM     49  C   UNL     1     -10.520   9.351  -3.207  1.00  0.00     0.034 A 
ATOM     50  C   UNL     1     -13.153   7.947  -8.992  1.00  0.00     0.049 A 
ATOM     51  C   UNL     1     -10.912  10.189  -4.394  1.00  0.00     0.074 A 
ATOM     52  C   UNL     1     -13.556   8.824  -9.984  1.00  0.00     0.029 A 
ATOM     53  N   UNL     1     -12.638   8.718  -7.963  1.00  0.00    -0.354 N 
ATOM     54  N   UNL     1     -11.506   9.822  -5.503  1.00  0.00    -0.248 NA
ATOM     55  C   UNL     1     -10.624  11.629  -4.317  1.00  0.00     0.031 C 
ATOM     56  C   UNL     1     -13.251  10.124  -9.569  1.00  0.00     0.029 A 
ATOM     57  C   UNL     1     -12.692  10.059  -8.304  1.00  0.00     0.049 A 
ATOM     58  H   UNL     1     -12.285   8.364  -7.114  1.00  0.00     0.167 HD
ATOM     59  C   UNL     1     -11.691  10.986  -6.240  1.00  0.00     0.074 A 
ATOM     60  C   UNL     1     -11.174  12.075  -5.437  1.00  0.00     0.031 C 
ATOM     61  C   UNL     1     -12.222  11.139  -7.477  1.00  0.00     0.034 A 
BRANCH  48  62
ATOM     62  C   UNL     1     -13.712   5.835 -10.246  1.00  0.00     0.023 A 
ATOM     63  C   UNL     1     -15.007   5.279 -10.274  1.00  0.00     0.012 A 
ATOM     64  C   UNL     1     -12.938   5.846 -11.423  1.00  0.00     0.148 A 
ATOM     65  C   UNL     1     -15.516   4.726 -11.448  1.00  0.00     0.002 A 
ATOM     66  C   UNL     1     -13.469   5.335 -12.600  1.00  0.00     0.091 A 
ATOM     67  F   UNL     1     -11.702   6.365 -11.369  1.00  0.00    -0.205 F 
ATOM     68  C   UNL     1     -14.753   4.766 -12.612  1.00  0.00     0.022 A 
BRANCH  66  69
ATOM     69  S   UNL     1     -12.604   5.412 -14.172  1.00  0.00     0.127 S 
ATOM     70  O   UNL     1     -12.363   3.995 -14.446  1.00  0.00    -0.237 OA
ATOM     71  O   UNL     1     -13.601   6.039 -15.039  1.00  0.00    -0.237 OA
ATOM     72  O   UNL     1     -11.408   6.209 -13.938  1.00  0.00    -0.744 OA
ENDBRANCH  66  69
ENDBRANCH  48  62
BRANCH  49  73
ATOM     73  C   UNL     1      -9.860   9.976  -2.024  1.00  0.00     0.023 A 
ATOM     74  C   UNL     1     -10.578  10.889  -1.228  1.00  0.00     0.012 A 
ATOM     75  C   UNL     1      -8.526   9.676  -1.689  1.00  0.00     0.148 A 
ATOM     76  C   UNL     1      -9.966  11.528  -0.149  1.00  0.00     0.002 A 
ATOM     77  C   UNL     1      -7.941  10.270  -0.577  1.00  0.00     0.091 A 
ATOM     78  F   UNL     1      -7.853   8.816  -2.466  1.00  0.00    -0.205 F 
ATOM     79  C   UNL     1      -8.652  11.213   0.182  1.00  0.00     0.022 A 
BRANCH  77  80
ATOM     80  S   UNL     1      -6.302   9.818   0.001  1.00  0.00     0.127 S 
ATOM     81  O   UNL     1      -5.518  10.990  -0.377  1.00  0.00    -0.237 OA
ATOM     82  O   UNL     1      -6.521   9.659   1.439  1.00  0.00    -0.237 OA
ATOM     83  O   UNL     1      -5.974   8.580  -0.694  1.00  0.00    -0.744 OA
ENDBRANCH  77  80
ENDBRANCH  49  73
BRANCH  61  84
ATOM     84  C   UNL     1     -12.309  12.536  -8.033  1.00  0.00     0.023 A 
ATOM     85  C   UNL     1     -11.136  13.205  -8.437  1.00  0.00     0.012 A 
ATOM     86  C   UNL     1     -13.559  13.159  -8.218  1.00  0.00     0.148 A 
ATOM     87  C   UNL     1     -11.203  14.487  -8.982  1.00  0.00     0.002 A 
ATOM     88  C   UNL     1     -13.622  14.414  -8.811  1.00  0.00     0.091 A 
ATOM     89  F   UNL     1     -14.662  12.512  -7.814  1.00  0.00    -0.205 F 
ATOM     90  C   UNL     1     -12.445  15.085  -9.180  1.00  0.00     0.022 A 
BRANCH  88  91
ATOM     91  S   UNL     1     -15.180  15.222  -9.195  1.00  0.00     0.127 S 
ATOM     92  O   UNL     1     -15.189  16.323  -8.234  1.00  0.00    -0.237 OA
ATOM     93  O   UNL     1     -14.982  15.629 -10.587  1.00  0.00    -0.237 OA
ATOM     94  O   UNL     1     -16.215  14.216  -9.000  1.00  0.00    -0.744 OA
ENDBRANCH  88  91
ENDBRANCH  61  84
ENDBRANCH  35  36
ENDBRANCH  27  30
ENDBRANCH  25  26
ENDBRANCH  24  25
ENDBRANCH   1  24
TORSDOF 17
