REMARK SMILES Cc1ccccc1NC(=O)CSc1nc(C(=O)NCCCNC(=O)c2ccc(-c3c4nc(c(-c5cccc(S(=O)(=O)[O-])c5F)c5ccc([nH]5)c(-c5cccc(S(=O)(=O)[O-])c5F)c5nc(c(-c6cccc(S(=O)(=O)[O-])c6F)c6ccc3[nH]6)C=C5)C=C4)cc2)c2ccccc2n1
REMARK SMILES IDX 19 1 18 2 16 3 17 4 15 6 13 7 14 8 94 9 93 10 88 11 92 12
REMARK SMILES IDX 89 13 91 14 90 15 12 16 11 17 9 18 8 19 10 21 7 22 1 23 2 24
REMARK SMILES IDX 3 25 4 26 6 27 5 28 20 29 21 30 22 31 23 32 24 34 25 35
REMARK SMILES IDX 26 36 87 37 27 38 86 39 28 40 29 41 30 42 80 43 31 44 85 45
REMARK SMILES IDX 79 46 81 47 32 48 84 49 78 50 77 51 33 53 65 54 45 55 64 56
REMARK SMILES IDX 46 57 49 58 63 59 82 60 47 61 48 62 62 64 83 65 50 66 34 67
REMARK SMILES IDX 35 68 43 69 36 70 38 71 44 72 37 73 39 74 40 75 41 76 42 77
REMARK SMILES IDX 66 78 67 79 75 80 68 81 70 82 76 83 69 84 71 85 72 86 73 87
REMARK SMILES IDX 74 88 51 89 52 90 60 91 53 92 55 93 61 94 54 95 56 96 57 97
REMARK SMILES IDX 58 98 59 99
REMARK H PARENT 18 5 8 20 22 33 81 52 49 63
REMARK Flexibility Score: inf
ROOT
ATOM      1  C   UNL     1      -0.568   7.472  -6.567  1.00  0.00     0.118 C 
ENDROOT
BRANCH   1   2
ATOM      2  N   UNL     1      -0.834   7.706  -5.162  1.00  0.00    -0.351 N 
ATOM      3  C   UNL     1      -0.593   7.001  -4.004  1.00  0.00     0.270 C 
ATOM      4  O   UNL     1      -0.635   7.640  -2.949  1.00  0.00    -0.267 OA
ATOM      5  H   UNL     1      -1.291   8.562  -4.998  1.00  0.00     0.163 HD
BRANCH   3   6
ATOM      6  C   UNL     1      -0.479   5.503  -3.932  1.00  0.00     0.140 A 
ATOM      7  C   UNL     1      -1.436   3.715  -2.886  1.00  0.00     0.189 A 
ATOM      8  N   UNL     1      -1.252   5.024  -2.929  1.00  0.00    -0.217 NA
ATOM      9  N   UNL     1      -1.031   2.860  -3.829  1.00  0.00    -0.222 NA
ATOM     10  C   UNL     1      -0.247   3.342  -4.795  1.00  0.00     0.076 A 
ATOM     11  C   UNL     1       0.195   4.667  -4.827  1.00  0.00     0.032 A 
ATOM     12  C   UNL     1       0.133   2.490  -5.824  1.00  0.00     0.029 A 
ATOM     13  C   UNL     1       1.235   5.008  -5.727  1.00  0.00     0.013 A 
ATOM     14  C   UNL     1       0.995   2.900  -6.841  1.00  0.00     0.002 A 
ATOM     15  C   UNL     1       1.589   4.150  -6.765  1.00  0.00     0.001 A 
BRANCH   7  16
ATOM     16  S   UNL     1      -2.332   3.062  -1.518  1.00  0.00    -0.076 SA
BRANCH  16  17
ATOM     17  C   UNL     1      -1.424   3.858  -0.154  1.00  0.00     0.178 C 
BRANCH  17  18
ATOM     18  C   UNL     1       0.059   3.543  -0.121  1.00  0.00     0.234 C 
ATOM     19  N   UNL     1       0.602   2.308   0.071  1.00  0.00    -0.325 N 
ATOM     20  H   UNL     1       1.586   2.336   0.106  1.00  0.00     0.169 HD
ATOM     21  O   UNL     1       0.883   4.462  -0.242  1.00  0.00    -0.274 OA
BRANCH  19  22
ATOM     22  C   UNL     1       0.100   1.003   0.232  1.00  0.00     0.044 A 
ATOM     23  C   UNL     1       2.466  -0.001  -0.126  1.00  0.00     0.046 C 
ATOM     24  C   UNL     1       0.972  -0.096   0.054  1.00  0.00    -0.027 A 
ATOM     25  C   UNL     1       0.438  -1.402   0.027  1.00  0.00     0.005 A 
ATOM     26  C   UNL     1      -0.921  -1.630   0.217  1.00  0.00     0.000 A 
ATOM     27  C   UNL     1      -1.238   0.737   0.534  1.00  0.00     0.026 A 
ATOM     28  C   UNL     1      -1.754  -0.561   0.500  1.00  0.00     0.002 A 
ENDBRANCH  19  22
ENDBRANCH  17  18
ENDBRANCH  16  17
ENDBRANCH   7  16
ENDBRANCH   3   6
ENDBRANCH   1   2
BRANCH   1  29
ATOM     29  C   UNL     1      -1.753   7.039  -7.403  1.00  0.00     0.042 C 
BRANCH  29  30
ATOM     30  C   UNL     1      -1.996   8.034  -8.528  1.00  0.00     0.118 C 
BRANCH  30  31
ATOM     31  N   UNL     1      -0.980   8.015  -9.586  1.00  0.00    -0.352 N 
ATOM     32  C   UNL     1      -0.909   8.776 -10.746  1.00  0.00     0.251 C 
ATOM     33  H   UNL     1      -0.245   7.373  -9.456  1.00  0.00     0.163 HD
ATOM     34  O   UNL     1       0.021   8.595 -11.530  1.00  0.00    -0.269 OA
BRANCH  32  35
ATOM     35  C   UNL     1      -1.876   9.883 -10.940  1.00  0.00     0.039 A 
ATOM     36  C   UNL     1      -1.353  11.170 -11.113  1.00  0.00     0.014 A 
ATOM     37  C   UNL     1      -3.195   9.704 -10.545  1.00  0.00     0.014 A 
ATOM     38  C   UNL     1      -2.022  12.248 -10.547  1.00  0.00     0.010 A 
ATOM     39  C   UNL     1      -3.800  10.740  -9.874  1.00  0.00     0.010 A 
ATOM     40  C   UNL     1      -3.158  11.982  -9.796  1.00  0.00    -0.014 A 
BRANCH  40  41
ATOM     41  C   UNL     1      -3.741  12.892  -8.828  1.00  0.00     0.031 A 
ATOM     42  C   UNL     1      -4.942  13.658  -9.205  1.00  0.00     0.074 A 
ATOM     43  C   UNL     1      -3.350  12.777  -7.535  1.00  0.00     0.049 A 
ATOM     44  N   UNL     1      -5.462  14.579  -8.473  1.00  0.00    -0.248 NA
ATOM     45  C   UNL     1      -5.652  13.453 -10.468  1.00  0.00     0.031 C 
ATOM     46  C   UNL     1      -4.099  13.184  -6.351  1.00  0.00     0.029 A 
ATOM     47  N   UNL     1      -2.098  12.411  -7.019  1.00  0.00    -0.354 N 
ATOM     48  C   UNL     1      -6.731  14.790  -8.959  1.00  0.00     0.074 A 
ATOM     49  C   UNL     1      -6.733  14.216 -10.278  1.00  0.00     0.031 C 
ATOM     50  C   UNL     1      -3.248  13.320  -5.322  1.00  0.00     0.029 A 
ATOM     51  C   UNL     1      -1.912  13.221  -5.880  1.00  0.00     0.049 A 
ATOM     52  H   UNL     1      -1.480  11.732  -7.375  1.00  0.00     0.167 HD
ATOM     53  C   UNL     1      -7.682  15.252  -8.104  1.00  0.00     0.034 A 
ATOM     54  C   UNL     1      -0.964  14.205  -5.798  1.00  0.00     0.034 A 
ATOM     55  C   UNL     1      -7.072  15.765  -6.868  1.00  0.00     0.049 A 
ATOM     56  C   UNL     1      -1.546  15.594  -5.549  1.00  0.00     0.074 A 
ATOM     57  C   UNL     1      -7.033  15.319  -5.560  1.00  0.00     0.029 A 
ATOM     58  N   UNL     1      -6.122  16.782  -6.960  1.00  0.00    -0.354 N 
ATOM     59  N   UNL     1      -2.822  15.870  -5.536  1.00  0.00    -0.248 NA
ATOM     60  C   UNL     1      -0.733  16.787  -5.323  1.00  0.00     0.031 C 
ATOM     61  C   UNL     1      -5.949  15.981  -4.908  1.00  0.00     0.029 A 
ATOM     62  C   UNL     1      -5.369  16.871  -5.799  1.00  0.00     0.049 A 
ATOM     63  H   UNL     1      -6.002  17.362  -7.747  1.00  0.00     0.167 HD
ATOM     64  C   UNL     1      -3.013  17.227  -5.485  1.00  0.00     0.074 A 
ATOM     65  C   UNL     1      -1.675  17.744  -5.245  1.00  0.00     0.031 C 
ATOM     66  C   UNL     1      -4.238  17.802  -5.725  1.00  0.00     0.034 A 
BRANCH  53  67
ATOM     67  C   UNL     1      -9.180  15.081  -8.293  1.00  0.00     0.023 A 
ATOM     68  C   UNL     1     -10.027  15.724  -7.364  1.00  0.00     0.012 A 
ATOM     69  C   UNL     1      -9.826  14.248  -9.245  1.00  0.00     0.148 A 
ATOM     70  C   UNL     1     -11.419  15.563  -7.380  1.00  0.00     0.002 A 
ATOM     71  C   UNL     1     -11.220  14.154  -9.314  1.00  0.00     0.091 A 
ATOM     72  F   UNL     1      -9.109  13.440 -10.031  1.00  0.00    -0.205 F 
ATOM     73  C   UNL     1     -12.021  14.798  -8.370  1.00  0.00     0.022 A 
BRANCH  71  74
ATOM     74  S   UNL     1     -12.060  13.233 -10.619  1.00  0.00     0.127 S 
ATOM     75  O   UNL     1     -12.566  12.066  -9.898  1.00  0.00    -0.237 OA
ATOM     76  O   UNL     1     -13.093  14.174 -11.055  1.00  0.00    -0.237 OA
ATOM     77  O   UNL     1     -11.047  12.951 -11.630  1.00  0.00    -0.744 OA
ENDBRANCH  71  74
ENDBRANCH  53  67
BRANCH  54  78
ATOM     78  C   UNL     1       0.267  13.908  -6.591  1.00  0.00     0.023 A 
ATOM     79  C   UNL     1       1.009  12.766  -6.203  1.00  0.00     0.012 A 
ATOM     80  C   UNL     1       0.455  14.431  -7.883  1.00  0.00     0.148 A 
ATOM     81  C   UNL     1       1.776  12.061  -7.131  1.00  0.00     0.002 A 
ATOM     82  C   UNL     1       1.235  13.727  -8.801  1.00  0.00     0.091 A 
ATOM     83  F   UNL     1      -0.184  15.559  -8.219  1.00  0.00    -0.205 F 
ATOM     84  C   UNL     1       1.851  12.517  -8.442  1.00  0.00     0.022 A 
BRANCH  82  85
ATOM     85  S   UNL     1       1.388  14.261 -10.513  1.00  0.00     0.127 S 
ATOM     86  O   UNL     1       2.629  15.027 -10.472  1.00  0.00    -0.237 OA
ATOM     87  O   UNL     1       1.473  12.991 -11.233  1.00  0.00    -0.237 OA
ATOM     88  O   UNL     1       0.171  15.014 -10.777  1.00  0.00    -0.744 OA
ENDBRANCH  82  85
ENDBRANCH  54  78
BRANCH  66  89
ATOM     89  C   UNL     1      -4.485  19.293  -5.950  1.00  0.00     0.023 A 
ATOM     90  C   UNL     1      -3.451  20.198  -6.263  1.00  0.00     0.012 A 
ATOM     91  C   UNL     1      -5.804  19.824  -5.983  1.00  0.00     0.148 A 
ATOM     92  C   UNL     1      -3.689  21.556  -6.512  1.00  0.00     0.002 A 
ATOM     93  C   UNL     1      -6.047  21.148  -6.352  1.00  0.00     0.091 A 
ATOM     94  F   UNL     1      -6.846  19.055  -5.634  1.00  0.00    -0.205 F 
ATOM     95  C   UNL     1      -4.990  22.029  -6.578  1.00  0.00     0.022 A 
BRANCH  93  96
ATOM     96  S   UNL     1      -7.715  21.724  -6.708  1.00  0.00     0.127 S 
ATOM     97  O   UNL     1      -8.122  22.295  -5.427  1.00  0.00    -0.237 OA
ATOM     98  O   UNL     1      -7.490  22.708  -7.769  1.00  0.00    -0.237 OA
ATOM     99  O   UNL     1      -8.438  20.537  -7.146  1.00  0.00    -0.744 OA
ENDBRANCH  93  96
ENDBRANCH  66  89
ENDBRANCH  40  41
ENDBRANCH  32  35
ENDBRANCH  30  31
ENDBRANCH  29  30
ENDBRANCH   1  29
TORSDOF 17
