REMARK SMILES Cc1ncccc1C(=O)Nc1cnccc1C(=O)NCCCNC(=O)c1ccc(-c2c3nc(c(-c4cccc(S(=O)(=O)[O-])c4F)c4ccc([nH]4)c(-c4cccc(S(=O)(=O)[O-])c4F)c4nc(c(-c5cccc(S(=O)(=O)[O-])c5F)c5ccc2[nH]5)C=C4)C=C3)cc1
REMARK SMILES IDX 21 1 20 2 19 3 17 4 18 5 16 7 11 8 12 9 13 10 15 11 14 12
REMARK SMILES IDX 10 13 8 14 9 15 7 17 1 18 2 19 3 20 4 21 6 22 5 23 22 24
REMARK SMILES IDX 23 25 24 26 25 28 26 29 27 30 88 31 28 32 87 33 29 34 30 35
REMARK SMILES IDX 31 36 81 37 32 38 86 39 80 40 82 41 33 42 85 43 79 44 78 45
REMARK SMILES IDX 34 47 66 48 46 49 65 50 47 51 50 52 64 53 83 54 48 55 49 56
REMARK SMILES IDX 63 58 84 59 51 60 35 61 36 62 44 63 37 64 39 65 45 66 38 67
REMARK SMILES IDX 40 68 41 69 42 70 43 71 67 72 68 73 76 74 69 75 71 76 77 77
REMARK SMILES IDX 70 78 72 79 73 80 74 81 75 82 52 83 53 84 61 85 54 86 56 87
REMARK SMILES IDX 62 88 55 89 57 90 58 91 59 92 60 93
REMARK H PARENT 19 6 10 16 23 27 82 46 50 57
REMARK Flexibility Score: inf
ROOT
ATOM      1  C   UNL     1       1.469  -4.204   2.608  1.00  0.00     0.042 C 
ENDROOT
BRANCH   1   2
ATOM      2  C   UNL     1       1.555  -3.084   1.595  1.00  0.00     0.118 C 
BRANCH   2   3
ATOM      3  N   UNL     1       1.352  -1.754   2.135  1.00  0.00    -0.352 N 
ATOM      4  C   UNL     1       1.975  -0.571   1.823  1.00  0.00     0.253 C 
ATOM      5  O   UNL     1       1.598   0.456   2.388  1.00  0.00    -0.269 OA
ATOM      6  H   UNL     1       0.660  -1.689   2.833  1.00  0.00     0.163 HD
BRANCH   4   7
ATOM      7  C   UNL     1       3.159  -0.499   0.927  1.00  0.00     0.066 A 
ATOM      8  C   UNL     1       3.373  -1.182  -0.274  1.00  0.00     0.072 A 
ATOM      9  C   UNL     1       4.680  -1.150  -0.778  1.00  0.00     0.137 A 
ATOM     10  N   UNL     1       5.692  -0.401  -0.289  1.00  0.00    -0.263 NA
ATOM     11  C   UNL     1       4.193   0.313   1.435  1.00  0.00     0.036 A 
ATOM     12  C   UNL     1       5.415   0.344   0.792  1.00  0.00     0.112 A 
BRANCH   8  13
ATOM     13  N   UNL     1       2.455  -1.885  -1.080  1.00  0.00    -0.320 N 
ATOM     14  C   UNL     1       1.107  -1.786  -1.312  1.00  0.00     0.257 C 
ATOM     15  O   UNL     1       0.575  -2.691  -1.958  1.00  0.00    -0.269 OA
ATOM     16  H   UNL     1       2.877  -2.612  -1.593  1.00  0.00     0.170 HD
BRANCH  14  17
ATOM     17  C   UNL     1       0.259  -0.660  -0.883  1.00  0.00     0.061 A 
ATOM     18  C   UNL     1       1.792   1.193  -1.754  1.00  0.00     0.067 C 
ATOM     19  C   UNL     1       0.548   0.690  -1.089  1.00  0.00     0.050 A 
ATOM     20  N   UNL     1      -0.321   1.674  -0.723  1.00  0.00    -0.261 NA
ATOM     21  C   UNL     1      -1.508   1.312  -0.189  1.00  0.00     0.111 A 
ATOM     22  C   UNL     1      -1.007  -0.997  -0.377  1.00  0.00     0.017 A 
ATOM     23  C   UNL     1      -1.903   0.000  -0.016  1.00  0.00     0.021 A 
ENDBRANCH  14  17
ENDBRANCH   8  13
ENDBRANCH   4   7
ENDBRANCH   2   3
ENDBRANCH   1   2
BRANCH   1  24
ATOM     24  C   UNL     1       0.087  -4.451   3.189  1.00  0.00     0.118 C 
BRANCH  24  25
ATOM     25  N   UNL     1      -0.951  -4.747   2.205  1.00  0.00    -0.352 N 
ATOM     26  C   UNL     1      -1.764  -5.851   2.037  1.00  0.00     0.251 C 
ATOM     27  H   UNL     1      -1.098  -4.032   1.545  1.00  0.00     0.163 HD
ATOM     28  O   UNL     1      -2.542  -5.885   1.097  1.00  0.00    -0.269 OA
BRANCH  26  29
ATOM     29  C   UNL     1      -1.668  -7.005   2.963  1.00  0.00     0.039 A 
ATOM     30  C   UNL     1      -1.753  -8.302   2.448  1.00  0.00     0.014 A 
ATOM     31  C   UNL     1      -1.467  -6.818   4.327  1.00  0.00     0.014 A 
ATOM     32  C   UNL     1      -1.537  -9.397   3.290  1.00  0.00     0.010 A 
ATOM     33  C   UNL     1      -1.101  -7.892   5.126  1.00  0.00     0.010 A 
ATOM     34  C   UNL     1      -1.155  -9.199   4.627  1.00  0.00    -0.014 A 
BRANCH  34  35
ATOM     35  C   UNL     1      -0.831 -10.337   5.527  1.00  0.00     0.031 A 
ATOM     36  C   UNL     1      -1.586 -10.521   6.819  1.00  0.00     0.074 A 
ATOM     37  C   UNL     1       0.202 -11.152   5.228  1.00  0.00     0.049 A 
ATOM     38  N   UNL     1      -1.429 -11.432   7.745  1.00  0.00    -0.248 NA
ATOM     39  C   UNL     1      -2.623  -9.523   7.142  1.00  0.00     0.031 C 
ATOM     40  C   UNL     1       1.090 -11.008   4.071  1.00  0.00     0.029 A 
ATOM     41  N   UNL     1       0.689 -12.258   5.878  1.00  0.00    -0.354 N 
ATOM     42  C   UNL     1      -2.306 -11.089   8.768  1.00  0.00     0.074 A 
ATOM     43  C   UNL     1      -2.945  -9.853   8.383  1.00  0.00     0.031 C 
ATOM     44  C   UNL     1       1.987 -12.007   4.074  1.00  0.00     0.029 A 
ATOM     45  C   UNL     1       1.754 -12.851   5.241  1.00  0.00     0.049 A 
ATOM     46  H   UNL     1       0.311 -12.595   6.722  1.00  0.00     0.167 HD
ATOM     47  C   UNL     1      -2.597 -11.766   9.903  1.00  0.00     0.034 A 
ATOM     48  C   UNL     1       2.449 -13.963   5.551  1.00  0.00     0.034 A 
ATOM     49  C   UNL     1      -2.016 -13.035  10.242  1.00  0.00     0.049 A 
ATOM     50  C   UNL     1       2.033 -14.760   6.758  1.00  0.00     0.074 A 
ATOM     51  C   UNL     1      -2.309 -13.861  11.312  1.00  0.00     0.029 A 
ATOM     52  N   UNL     1      -1.028 -13.668   9.503  1.00  0.00    -0.354 N 
ATOM     53  N   UNL     1       1.082 -14.508   7.625  1.00  0.00    -0.248 NA
ATOM     54  C   UNL     1       2.752 -16.019   7.003  1.00  0.00     0.031 C 
ATOM     55  C   UNL     1      -1.490 -14.992  11.223  1.00  0.00     0.029 A 
ATOM     56  C   UNL     1      -0.703 -14.878  10.088  1.00  0.00     0.049 A 
ATOM     57  H   UNL     1      -0.619 -13.309   8.683  1.00  0.00     0.167 HD
ATOM     58  C   UNL     1       1.058 -15.594   8.492  1.00  0.00     0.074 A 
ATOM     59  C   UNL     1       2.079 -16.514   8.033  1.00  0.00     0.031 C 
ATOM     60  C   UNL     1       0.275 -15.806   9.578  1.00  0.00     0.034 A 
BRANCH  47  61
ATOM     61  C   UNL     1      -3.646 -11.181  10.814  1.00  0.00     0.023 A 
ATOM     62  C   UNL     1      -4.993 -11.152  10.394  1.00  0.00     0.012 A 
ATOM     63  C   UNL     1      -3.313 -10.683  12.088  1.00  0.00     0.148 A 
ATOM     64  C   UNL     1      -5.982 -10.595  11.203  1.00  0.00     0.002 A 
ATOM     65  C   UNL     1      -4.313 -10.174  12.911  1.00  0.00     0.091 A 
ATOM     66  F   UNL     1      -2.027 -10.694  12.465  1.00  0.00    -0.205 F 
ATOM     67  C   UNL     1      -5.644 -10.115  12.464  1.00  0.00     0.022 A 
BRANCH  65  68
ATOM     68  S   UNL     1      -3.993  -9.606  14.585  1.00  0.00     0.127 S 
ATOM     69  O   UNL     1      -4.103  -8.156  14.431  1.00  0.00    -0.237 OA
ATOM     70  O   UNL     1      -5.087 -10.224  15.335  1.00  0.00    -0.237 OA
ATOM     71  O   UNL     1      -2.668 -10.103  14.928  1.00  0.00    -0.744 OA
ENDBRANCH  65  68
ENDBRANCH  47  61
BRANCH  48  72
ATOM     72  C   UNL     1       3.521 -14.450   4.636  1.00  0.00     0.023 A 
ATOM     73  C   UNL     1       3.288 -15.603   3.859  1.00  0.00     0.012 A 
ATOM     74  C   UNL     1       4.740 -13.762   4.492  1.00  0.00     0.148 A 
ATOM     75  C   UNL     1       4.262 -16.080   2.981  1.00  0.00     0.002 A 
ATOM     76  C   UNL     1       5.685 -14.212   3.575  1.00  0.00     0.091 A 
ATOM     77  F   UNL     1       4.947 -12.672   5.244  1.00  0.00    -0.205 F 
ATOM     78  C   UNL     1       5.455 -15.380   2.831  1.00  0.00     0.022 A 
BRANCH  76  79
ATOM     79  S   UNL     1       7.192 -13.301   3.219  1.00  0.00     0.127 S 
ATOM     80  O   UNL     1       8.208 -14.148   3.837  1.00  0.00    -0.237 OA
ATOM     81  O   UNL     1       7.203 -13.292   1.755  1.00  0.00    -0.237 OA
ATOM     82  O   UNL     1       7.007 -11.988   3.823  1.00  0.00    -0.744 OA
ENDBRANCH  76  79
ENDBRANCH  48  72
BRANCH  60  83
ATOM     83  C   UNL     1       0.455 -17.099  10.325  1.00  0.00     0.023 A 
ATOM     84  C   UNL     1       1.599 -17.294  11.123  1.00  0.00     0.012 A 
ATOM     85  C   UNL     1      -0.546 -18.089  10.294  1.00  0.00     0.148 A 
ATOM     86  C   UNL     1       1.760 -18.472  11.852  1.00  0.00     0.002 A 
ATOM     87  C   UNL     1      -0.402 -19.238  11.061  1.00  0.00     0.091 A 
ATOM     88  F   UNL     1      -1.618 -17.893   9.511  1.00  0.00    -0.205 F 
ATOM     89  C   UNL     1       0.755 -19.437  11.831  1.00  0.00     0.022 A 
BRANCH  87  90
ATOM     90  S   UNL     1      -1.694 -20.481  11.168  1.00  0.00     0.127 S 
ATOM     91  O   UNL     1      -1.173 -21.529  10.291  1.00  0.00    -0.237 OA
ATOM     92  O   UNL     1      -1.688 -20.819  12.592  1.00  0.00    -0.237 OA
ATOM     93  O   UNL     1      -2.913 -19.826  10.712  1.00  0.00    -0.744 OA
ENDBRANCH  87  90
ENDBRANCH  60  83
ENDBRANCH  34  35
ENDBRANCH  26  29
ENDBRANCH  24  25
ENDBRANCH   1  24
TORSDOF 15
