REMARK SMILES Nc1cc(C(=O)NCCCNC(=O)c2ccc(-c3c4nc(c(-c5cccc(S(=O)(=O)[O-])c5F)c5ccc([nH]5)c(-c5cccc(S(=O)(=O)[O-])c5F)c5nc(c(-c6cccc(S(=O)(=O)[O-])c6F)c6ccc3[nH]6)C=C5)C=C4)cc2)nc2ccccc12
REMARK SMILES IDX 10 1 9 2 8 3 7 4 5 5 6 6 4 8 2 9 3 10 83 11 78 12 82 13
REMARK SMILES IDX 77 14 79 15 81 16 80 17 1 18 11 21 12 22 13 24 14 25 15 26
REMARK SMILES IDX 76 27 16 28 75 29 17 30 18 31 19 32 69 33 20 34 74 35 68 36
REMARK SMILES IDX 70 37 21 38 73 39 67 40 66 41 22 43 54 44 34 45 53 46 35 47
REMARK SMILES IDX 38 48 52 49 71 50 36 51 37 52 51 54 72 55 39 56 23 57 24 58
REMARK SMILES IDX 32 59 25 60 27 61 33 62 26 63 28 64 29 65 30 66 31 67 55 68
REMARK SMILES IDX 56 69 64 70 57 71 59 72 65 73 58 74 60 75 61 76 62 77 63 78
REMARK SMILES IDX 40 79 41 80 49 81 42 82 44 83 50 84 43 85 45 86 46 87 47 88
REMARK SMILES IDX 48 89
REMARK H PARENT 7 7 1 19 1 20 11 23 70 42 38 53
REMARK Flexibility Score: inf
ROOT
ATOM      1  C   UNL     1       2.922   5.683   1.829  1.00  0.00     0.118 C 
ENDROOT
BRANCH   1   2
ATOM      2  C   UNL     1       2.630   4.215   1.531  1.00  0.00     0.042 C 
BRANCH   2   3
ATOM      3  C   UNL     1       2.723   3.328   2.771  1.00  0.00     0.118 C 
BRANCH   3   4
ATOM      4  N   UNL     1       1.570   3.506   3.631  1.00  0.00    -0.351 N 
ATOM      5  C   UNL     1       0.363   2.854   3.748  1.00  0.00     0.269 C 
ATOM      6  O   UNL     1      -0.380   3.274   4.641  1.00  0.00    -0.268 OA
ATOM      7  H   UNL     1       1.671   4.252   4.266  1.00  0.00     0.163 HD
BRANCH   5   8
ATOM      8  C   UNL     1      -0.073   1.685   2.900  1.00  0.00     0.130 A 
ATOM      9  C   UNL     1      -0.017   0.238   0.978  1.00  0.00     0.043 A 
ATOM     10  C   UNL     1       0.469   1.349   1.673  1.00  0.00     0.060 A 
ATOM     11  C   UNL     1      -1.060  -0.527   1.551  1.00  0.00     0.023 A 
ATOM     12  C   UNL     1      -1.583  -0.082   2.782  1.00  0.00     0.073 A 
ATOM     13  C   UNL     1      -1.614  -1.688   0.960  1.00  0.00     0.012 A 
ATOM     14  N   UNL     1      -1.100   0.979   3.439  1.00  0.00    -0.242 NA
ATOM     15  C   UNL     1      -2.647  -0.767   3.352  1.00  0.00     0.029 A 
ATOM     16  C   UNL     1      -2.679  -2.365   1.555  1.00  0.00     0.001 A 
ATOM     17  C   UNL     1      -3.204  -1.897   2.750  1.00  0.00     0.002 A 
BRANCH   9  18
ATOM     18  N   UNL     1       0.629  -0.134  -0.202  1.00  0.00    -0.398 N 
ATOM     19  H   UNL     1       1.350   0.427  -0.567  1.00  0.00     0.156 HD
ATOM     20  H   UNL     1       0.363  -0.959  -0.670  1.00  0.00     0.156 HD
ENDBRANCH   9  18
ENDBRANCH   5   8
ENDBRANCH   3   4
ENDBRANCH   2   3
ENDBRANCH   1   2
BRANCH   1  21
ATOM     21  N   UNL     1       4.342   5.921   2.054  1.00  0.00    -0.352 N 
ATOM     22  C   UNL     1       5.233   6.665   1.313  1.00  0.00     0.251 C 
ATOM     23  H   UNL     1       4.720   5.486   2.852  1.00  0.00     0.163 HD
ATOM     24  O   UNL     1       6.434   6.565   1.528  1.00  0.00    -0.269 OA
BRANCH  22  25
ATOM     25  C   UNL     1       4.731   7.558   0.247  1.00  0.00     0.039 A 
ATOM     26  C   UNL     1       3.637   8.394   0.482  1.00  0.00     0.014 A 
ATOM     27  C   UNL     1       5.356   7.553  -1.003  1.00  0.00     0.014 A 
ATOM     28  C   UNL     1       3.068   9.099  -0.572  1.00  0.00     0.010 A 
ATOM     29  C   UNL     1       4.829   8.324  -2.043  1.00  0.00     0.010 A 
ATOM     30  C   UNL     1       3.654   9.067  -1.848  1.00  0.00    -0.014 A 
BRANCH  30  31
ATOM     31  C   UNL     1       3.028   9.823  -2.961  1.00  0.00     0.031 A 
ATOM     32  C   UNL     1       2.448   9.107  -4.149  1.00  0.00     0.074 A 
ATOM     33  C   UNL     1       2.949  11.165  -2.879  1.00  0.00     0.049 A 
ATOM     34  N   UNL     1       1.885   9.610  -5.217  1.00  0.00    -0.248 NA
ATOM     35  C   UNL     1       2.504   7.635  -4.139  1.00  0.00     0.031 C 
ATOM     36  C   UNL     1       3.479  11.972  -1.778  1.00  0.00     0.029 A 
ATOM     37  N   UNL     1       2.387  12.084  -3.727  1.00  0.00    -0.354 N 
ATOM     38  C   UNL     1       1.550   8.527  -6.019  1.00  0.00     0.074 A 
ATOM     39  C   UNL     1       1.978   7.335  -5.320  1.00  0.00     0.031 C 
ATOM     40  C   UNL     1       3.188  13.261  -2.000  1.00  0.00     0.029 A 
ATOM     41  C   UNL     1       2.499  13.379  -3.281  1.00  0.00     0.049 A 
ATOM     42  H   UNL     1       1.946  11.840  -4.573  1.00  0.00     0.167 HD
ATOM     43  C   UNL     1       0.923   8.524  -7.219  1.00  0.00     0.034 A 
ATOM     44  C   UNL     1       2.106  14.538  -3.843  1.00  0.00     0.034 A 
ATOM     45  C   UNL     1       0.465   9.707  -7.896  1.00  0.00     0.049 A 
ATOM     46  C   UNL     1       1.403  14.510  -5.166  1.00  0.00     0.074 A 
ATOM     47  C   UNL     1      -0.169   9.805  -9.123  1.00  0.00     0.029 A 
ATOM     48  N   UNL     1       0.574  10.996  -7.398  1.00  0.00    -0.354 N 
ATOM     49  N   UNL     1       1.083  13.473  -5.901  1.00  0.00    -0.248 NA
ATOM     50  C   UNL     1       0.990  15.802  -5.730  1.00  0.00     0.031 C 
ATOM     51  C   UNL     1      -0.452  11.154  -9.362  1.00  0.00     0.029 A 
ATOM     52  C   UNL     1       0.001  11.894  -8.282  1.00  0.00     0.049 A 
ATOM     53  H   UNL     1       0.997  11.237  -6.543  1.00  0.00     0.167 HD
ATOM     54  C   UNL     1       0.420  13.983  -7.010  1.00  0.00     0.074 A 
ATOM     55  C   UNL     1       0.368  15.422  -6.840  1.00  0.00     0.031 C 
ATOM     56  C   UNL     1      -0.082  13.318  -8.078  1.00  0.00     0.034 A 
BRANCH  43  57
ATOM     57  C   UNL     1       0.640   7.192  -7.857  1.00  0.00     0.023 A 
ATOM     58  C   UNL     1      -0.453   6.431  -7.396  1.00  0.00     0.012 A 
ATOM     59  C   UNL     1       1.399   6.725  -8.947  1.00  0.00     0.148 A 
ATOM     60  C   UNL     1      -0.778   5.218  -8.001  1.00  0.00     0.002 A 
ATOM     61  C   UNL     1       1.052   5.528  -9.563  1.00  0.00     0.091 A 
ATOM     62  F   UNL     1       2.446   7.456  -9.356  1.00  0.00    -0.205 F 
ATOM     63  C   UNL     1      -0.033   4.772  -9.089  1.00  0.00     0.022 A 
BRANCH  61  64
ATOM     64  S   UNL     1       1.917   4.887 -11.002  1.00  0.00     0.127 S 
ATOM     65  O   UNL     1       2.605   3.727 -10.437  1.00  0.00    -0.237 OA
ATOM     66  O   UNL     1       0.814   4.561 -11.906  1.00  0.00    -0.237 OA
ATOM     67  O   UNL     1       2.784   5.963 -11.461  1.00  0.00    -0.744 OA
ENDBRANCH  61  64
ENDBRANCH  43  57
BRANCH  44  68
ATOM     68  C   UNL     1       2.338  15.804  -3.099  1.00  0.00     0.023 A 
ATOM     69  C   UNL     1       1.265  16.412  -2.423  1.00  0.00     0.012 A 
ATOM     70  C   UNL     1       3.638  16.325  -2.949  1.00  0.00     0.148 A 
ATOM     71  C   UNL     1       1.484  17.517  -1.600  1.00  0.00     0.002 A 
ATOM     72  C   UNL     1       3.856  17.395  -2.091  1.00  0.00     0.091 A 
ATOM     73  F   UNL     1       4.640  15.721  -3.603  1.00  0.00    -0.205 F 
ATOM     74  C   UNL     1       2.779  17.999  -1.423  1.00  0.00     0.022 A 
BRANCH  72  75
ATOM     75  S   UNL     1       5.500  18.002  -1.696  1.00  0.00     0.127 S 
ATOM     76  O   UNL     1       5.426  19.386  -2.157  1.00  0.00    -0.237 OA
ATOM     77  O   UNL     1       5.534  17.837  -0.243  1.00  0.00    -0.237 OA
ATOM     78  O   UNL     1       6.426  17.150  -2.428  1.00  0.00    -0.744 OA
ENDBRANCH  72  75
ENDBRANCH  44  68
BRANCH  56  79
ATOM     79  C   UNL     1      -0.751  14.128  -9.152  1.00  0.00     0.023 A 
ATOM     80  C   UNL     1       0.039  14.804 -10.100  1.00  0.00     0.012 A 
ATOM     81  C   UNL     1      -2.154  14.135  -9.279  1.00  0.00     0.148 A 
ATOM     82  C   UNL     1      -0.559  15.489 -11.157  1.00  0.00     0.002 A 
ATOM     83  C   UNL     1      -2.741  14.793 -10.352  1.00  0.00     0.091 A 
ATOM     84  F   UNL     1      -2.882  13.496  -8.352  1.00  0.00    -0.205 F 
ATOM     85  C   UNL     1      -1.946  15.474 -11.289  1.00  0.00     0.022 A 
BRANCH  83  86
ATOM     86  S   UNL     1      -4.514  14.769 -10.643  1.00  0.00     0.127 S 
ATOM     87  O   UNL     1      -4.889  16.141 -10.304  1.00  0.00    -0.237 OA
ATOM     88  O   UNL     1      -4.590  14.450 -12.069  1.00  0.00    -0.237 OA
ATOM     89  O   UNL     1      -5.051  13.739  -9.764  1.00  0.00    -0.744 OA
ENDBRANCH  83  86
ENDBRANCH  56  79
ENDBRANCH  30  31
ENDBRANCH  22  25
ENDBRANCH   1  21
TORSDOF 14
