REMARK SMILES O=C(CC1CC1)NCc1ccc(C(=O)NCCCNC(=O)c2ccc(-c3c4nc(c(-c5cccc(S(=O)(=O)[O-])c5F)c5ccc([nH]5)c(-c5cccc(S(=O)(=O)[O-])c5F)c5nc(c(-c6cccc(S(=O)(=O)[O-])c6F)c6ccc3[nH]6)C=C5)C=C4)cc2)o1
REMARK SMILES IDX 16 1 15 2 13 3 14 4 12 6 9 7 10 8 85 9 11 10 8 11 7 12 1 13
REMARK SMILES IDX 2 14 3 16 4 17 5 18 6 19 17 20 18 21 19 22 20 23 21 25 22 26
REMARK SMILES IDX 23 27 84 28 24 29 83 30 25 31 26 32 27 33 77 34 28 35 82 36
REMARK SMILES IDX 76 37 78 38 29 39 81 40 75 41 74 42 30 44 62 45 42 46 61 47
REMARK SMILES IDX 43 48 46 49 60 50 79 51 44 52 45 53 59 55 80 56 47 57 31 58
REMARK SMILES IDX 32 59 40 60 33 61 35 62 41 63 34 64 36 65 37 66 38 67 39 68
REMARK SMILES IDX 63 69 64 70 72 71 65 72 67 73 73 74 66 75 68 76 69 77 70 78
REMARK SMILES IDX 71 79 48 80 49 81 57 82 50 83 52 84 58 85 51 86 53 87 54 88
REMARK SMILES IDX 55 89 56 90
REMARK H PARENT 15 5 7 15 19 24 78 43 46 54
REMARK Flexibility Score: inf
ROOT
ATOM      1  C   UNL     1       3.625   8.140  -0.371  1.00  0.00     0.118 C 
ENDROOT
BRANCH   1   2
ATOM      2  N   UNL     1       4.181   7.133   0.512  1.00  0.00    -0.349 N 
ATOM      3  C   UNL     1       4.065   5.761   0.499  1.00  0.00     0.286 C 
ATOM      4  O   UNL     1       4.817   5.153   1.265  1.00  0.00    -0.266 OA
ATOM      5  H   UNL     1       4.734   7.491   1.244  1.00  0.00     0.163 HD
BRANCH   3   6
ATOM      6  C   UNL     1       3.125   5.086  -0.378  1.00  0.00     0.191 A 
ATOM      7  C   UNL     1       2.320   3.276  -1.377  1.00  0.00     0.124 A 
ATOM      8  C   UNL     1       1.492   4.315  -1.733  1.00  0.00     0.048 A 
ATOM      9  O   UNL     1       3.324   3.737  -0.578  1.00  0.00    -0.454 OA
ATOM     10  C   UNL     1       1.990   5.464  -1.076  1.00  0.00     0.056 A 
BRANCH   7  11
ATOM     11  C   UNL     1       2.304   1.833  -1.718  1.00  0.00     0.191 C 
BRANCH  11  12
ATOM     12  N   UNL     1       2.853   1.046  -0.642  1.00  0.00    -0.349 N 
ATOM     13  O   UNL     1       1.014  -0.300  -0.384  1.00  0.00    -0.275 OA
ATOM     14  C   UNL     1       2.173  -0.014  -0.097  1.00  0.00     0.220 C 
ATOM     15  H   UNL     1       3.743   1.275  -0.288  1.00  0.00     0.163 HD
BRANCH  14  16
ATOM     16  C   UNL     1       3.012  -0.885   0.820  1.00  0.00     0.103 C 
BRANCH  16  17
ATOM     17  C   UNL     1       3.958  -1.770   0.050  1.00  0.00    -0.002 C 
ATOM     18  C   UNL     1       3.806  -3.272   0.081  1.00  0.00     0.004 C 
ATOM     19  C   UNL     1       3.490  -2.520  -1.177  1.00  0.00     0.004 C 
ENDBRANCH  16  17
ENDBRANCH  14  16
ENDBRANCH  11  12
ENDBRANCH   7  11
ENDBRANCH   3   6
ENDBRANCH   1   2
BRANCH   1  20
ATOM     20  C   UNL     1       2.440   8.875   0.252  1.00  0.00     0.042 C 
BRANCH  20  21
ATOM     21  C   UNL     1       2.839   9.928   1.288  1.00  0.00     0.118 C 
BRANCH  21  22
ATOM     22  N   UNL     1       3.591  11.027   0.693  1.00  0.00    -0.352 N 
ATOM     23  C   UNL     1       3.337  12.375   0.660  1.00  0.00     0.251 C 
ATOM     24  H   UNL     1       4.421  10.756   0.239  1.00  0.00     0.163 HD
ATOM     25  O   UNL     1       4.006  13.082  -0.091  1.00  0.00    -0.269 OA
BRANCH  23  26
ATOM     26  C   UNL     1       2.283  12.987   1.501  1.00  0.00     0.039 A 
ATOM     27  C   UNL     1       1.538  14.047   0.972  1.00  0.00     0.014 A 
ATOM     28  C   UNL     1       2.070  12.582   2.821  1.00  0.00     0.014 A 
ATOM     29  C   UNL     1       0.551  14.664   1.746  1.00  0.00     0.010 A 
ATOM     30  C   UNL     1       1.039  13.152   3.568  1.00  0.00     0.010 A 
ATOM     31  C   UNL     1       0.274  14.204   3.044  1.00  0.00    -0.014 A 
BRANCH  31  32
ATOM     32  C   UNL     1      -0.825  14.798   3.848  1.00  0.00     0.031 A 
ATOM     33  C   UNL     1      -0.536  15.514   5.140  1.00  0.00     0.074 A 
ATOM     34  C   UNL     1      -2.101  14.618   3.453  1.00  0.00     0.049 A 
ATOM     35  N   UNL     1      -1.373  16.069   5.980  1.00  0.00    -0.248 NA
ATOM     36  C   UNL     1       0.873  15.595   5.559  1.00  0.00     0.031 C 
ATOM     37  C   UNL     1      -2.519  13.864   2.270  1.00  0.00     0.029 A 
ATOM     38  N   UNL     1      -3.282  15.032   4.017  1.00  0.00    -0.354 N 
ATOM     39  C   UNL     1      -0.601  16.529   7.041  1.00  0.00     0.074 A 
ATOM     40  C   UNL     1       0.769  16.163   6.753  1.00  0.00     0.031 C 
ATOM     41  C   UNL     1      -3.858  13.870   2.195  1.00  0.00     0.029 A 
ATOM     42  C   UNL     1      -4.397  14.607   3.333  1.00  0.00     0.049 A 
ATOM     43  H   UNL     1      -3.327  15.581   4.833  1.00  0.00     0.167 HD
ATOM     44  C   UNL     1      -0.992  17.218   8.140  1.00  0.00     0.034 A 
ATOM     45  C   UNL     1      -5.707  14.787   3.593  1.00  0.00     0.034 A 
ATOM     46  C   UNL     1      -2.348  17.621   8.400  1.00  0.00     0.049 A 
ATOM     47  C   UNL     1      -6.111  15.611   4.784  1.00  0.00     0.074 A 
ATOM     48  C   UNL     1      -2.829  18.414   9.428  1.00  0.00     0.029 A 
ATOM     49  N   UNL     1      -3.444  17.257   7.633  1.00  0.00    -0.354 N 
ATOM     50  N   UNL     1      -5.350  16.195   5.678  1.00  0.00    -0.248 NA
ATOM     51  C   UNL     1      -7.550  15.838   4.979  1.00  0.00     0.031 C 
ATOM     52  C   UNL     1      -4.219  18.510   9.293  1.00  0.00     0.029 A 
ATOM     53  C   UNL     1      -4.601  17.796   8.169  1.00  0.00     0.049 A 
ATOM     54  H   UNL     1      -3.405  16.696   6.824  1.00  0.00     0.167 HD
ATOM     55  C   UNL     1      -6.214  16.879   6.526  1.00  0.00     0.074 A 
ATOM     56  C   UNL     1      -7.554  16.660   6.019  1.00  0.00     0.031 C 
ATOM     57  C   UNL     1      -5.925  17.608   7.632  1.00  0.00     0.034 A 
BRANCH  44  58
ATOM     58  C   UNL     1       0.075  17.630   9.123  1.00  0.00     0.023 A 
ATOM     59  C   UNL     1       0.991  18.643   8.769  1.00  0.00     0.012 A 
ATOM     60  C   UNL     1       0.144  17.058  10.408  1.00  0.00     0.148 A 
ATOM     61  C   UNL     1       1.980  19.053   9.662  1.00  0.00     0.002 A 
ATOM     62  C   UNL     1       1.106  17.502  11.309  1.00  0.00     0.091 A 
ATOM     63  F   UNL     1      -0.719  16.081  10.722  1.00  0.00    -0.205 F 
ATOM     64  C   UNL     1       2.031  18.490  10.934  1.00  0.00     0.022 A 
BRANCH  62  65
ATOM     65  S   UNL     1       1.203  16.895  12.997  1.00  0.00     0.127 S 
ATOM     66  O   UNL     1       2.384  16.035  12.934  1.00  0.00    -0.237 OA
ATOM     67  O   UNL     1       1.389  18.129  13.761  1.00  0.00    -0.237 OA
ATOM     68  O   UNL     1      -0.059  16.213  13.249  1.00  0.00    -0.744 OA
ENDBRANCH  62  65
ENDBRANCH  44  58
BRANCH  45  69
ATOM     69  C   UNL     1      -6.726  14.236   2.656  1.00  0.00     0.023 A 
ATOM     70  C   UNL     1      -7.451  15.116   1.830  1.00  0.00     0.012 A 
ATOM     71  C   UNL     1      -6.940  12.849   2.539  1.00  0.00     0.148 A 
ATOM     72  C   UNL     1      -8.391  14.626   0.922  1.00  0.00     0.002 A 
ATOM     73  C   UNL     1      -7.836  12.365   1.593  1.00  0.00     0.091 A 
ATOM     74  F   UNL     1      -6.246  12.029   3.342  1.00  0.00    -0.205 F 
ATOM     75  C   UNL     1      -8.575  13.252   0.795  1.00  0.00     0.022 A 
BRANCH  73  76
ATOM     76  S   UNL     1      -8.033  10.610   1.262  1.00  0.00     0.127 S 
ATOM     77  O   UNL     1      -9.365  10.351   1.801  1.00  0.00    -0.237 OA
ATOM     78  O   UNL     1      -7.938  10.566  -0.197  1.00  0.00    -0.237 OA
ATOM     79  O   UNL     1      -6.930   9.954   1.953  1.00  0.00    -0.744 OA
ENDBRANCH  73  76
ENDBRANCH  45  69
BRANCH  57  80
ATOM     80  C   UNL     1      -7.078  18.241   8.367  1.00  0.00     0.023 A 
ATOM     81  C   UNL     1      -7.955  17.433   9.118  1.00  0.00     0.012 A 
ATOM     82  C   UNL     1      -7.258  19.638   8.365  1.00  0.00     0.148 A 
ATOM     83  C   UNL     1      -9.013  18.002   9.826  1.00  0.00     0.002 A 
ATOM     84  C   UNL     1      -8.286  20.202   9.112  1.00  0.00     0.091 A 
ATOM     85  F   UNL     1      -6.427  20.390   7.628  1.00  0.00    -0.205 F 
ATOM     86  C   UNL     1      -9.172  19.385   9.832  1.00  0.00     0.022 A 
BRANCH  84  87
ATOM     87  S   UNL     1      -8.505  21.980   9.251  1.00  0.00     0.127 S 
ATOM     88  O   UNL     1      -9.648  22.210   8.370  1.00  0.00    -0.237 OA
ATOM     89  O   UNL     1      -8.790  22.150  10.677  1.00  0.00    -0.237 OA
ATOM     90  O   UNL     1      -7.246  22.571   8.816  1.00  0.00    -0.744 OA
ENDBRANCH  84  87
ENDBRANCH  57  80
ENDBRANCH  31  32
ENDBRANCH  23  26
ENDBRANCH  21  22
ENDBRANCH  20  21
ENDBRANCH   1  20
TORSDOF 17
