REMARK SMILES O=C(NCCCNC(=O)c1cc(F)c(F)cc1NS(=O)(=O)c1ccc2c(c1)CCC2)c1ccc(-c2c3nc(c(-c4cccc(S(=O)(=O)[O-])c4F)c4ccc([nH]4)c(-c4cccc(S(=O)(=O)[O-])c4F)c4nc(c(-c5cccc(S(=O)(=O)[O-])c5F)c5ccc2[nH]5)C=C4)C=C3)cc1
REMARK SMILES IDX 5 1 4 2 3 3 1 4 2 5 31 7 32 8 93 9 33 10 92 11 34 12 35 13
REMARK SMILES IDX 36 14 86 15 37 16 91 17 85 18 87 19 38 20 90 21 84 22 83 23
REMARK SMILES IDX 39 25 71 26 51 27 70 28 52 29 55 30 69 31 88 32 53 33 54 34
REMARK SMILES IDX 68 36 89 37 56 38 40 39 41 40 49 41 42 42 44 43 50 44 43 45
REMARK SMILES IDX 45 46 46 47 47 48 48 49 72 50 73 51 81 52 74 53 76 54 82 55
REMARK SMILES IDX 75 56 77 57 78 58 79 59 80 60 57 61 58 62 66 63 59 64 61 65
REMARK SMILES IDX 67 66 60 67 62 68 63 69 64 70 65 71 6 72 7 73 8 74 9 76
REMARK SMILES IDX 10 77 11 78 17 79 12 80 16 81 13 82 14 83 15 84 18 85 19 87
REMARK SMILES IDX 20 88 21 89 22 90 23 91 27 92 24 93 26 94 25 95 28 96 30 97
REMARK SMILES IDX 29 98
REMARK H PARENT 3 6 87 24 55 35 7 75 18 86
REMARK Flexibility Score: inf
ROOT
ATOM      1  C   UNL     1       4.881  -2.461   0.799  1.00  0.00     0.042 C 
ENDROOT
BRANCH   1   2
ATOM      2  C   UNL     1       4.521  -1.431  -0.261  1.00  0.00     0.118 C 
BRANCH   2   3
ATOM      3  N   UNL     1       3.086  -1.188  -0.342  1.00  0.00    -0.352 N 
ATOM      4  O   UNL     1       1.129  -0.145   0.012  1.00  0.00    -0.269 OA
ATOM      5  C   UNL     1       2.354  -0.066  -0.035  1.00  0.00     0.251 C 
ATOM      6  H   UNL     1       2.556  -1.951  -0.668  1.00  0.00     0.163 HD
BRANCH   5   7
ATOM      7  C   UNL     1       3.033   1.215   0.261  1.00  0.00     0.039 A 
ATOM      8  C   UNL     1       4.146   1.621  -0.477  1.00  0.00     0.014 A 
ATOM      9  C   UNL     1       2.539   2.033   1.281  1.00  0.00     0.014 A 
ATOM     10  C   UNL     1       4.870   2.738  -0.080  1.00  0.00     0.010 A 
ATOM     11  C   UNL     1       3.206   3.219   1.606  1.00  0.00     0.010 A 
ATOM     12  C   UNL     1       4.402   3.560   0.957  1.00  0.00    -0.014 A 
BRANCH  12  13
ATOM     13  C   UNL     1       5.148   4.801   1.292  1.00  0.00     0.031 A 
ATOM     14  C   UNL     1       5.753   5.008   2.653  1.00  0.00     0.074 A 
ATOM     15  C   UNL     1       5.283   5.747   0.342  1.00  0.00     0.049 A 
ATOM     16  N   UNL     1       6.463   6.016   3.090  1.00  0.00    -0.248 NA
ATOM     17  C   UNL     1       5.527   3.957   3.657  1.00  0.00     0.031 C 
ATOM     18  C   UNL     1       4.707   5.677  -1.003  1.00  0.00     0.029 A 
ATOM     19  N   UNL     1       5.947   6.947   0.355  1.00  0.00    -0.354 N 
ATOM     20  C   UNL     1       6.731   5.747   4.427  1.00  0.00     0.074 A 
ATOM     21  C   UNL     1       6.098   4.481   4.733  1.00  0.00     0.031 C 
ATOM     22  C   UNL     1       5.071   6.763  -1.697  1.00  0.00     0.029 A 
ATOM     23  C   UNL     1       5.854   7.636  -0.831  1.00  0.00     0.049 A 
ATOM     24  H   UNL     1       6.442   7.282   1.137  1.00  0.00     0.167 HD
ATOM     25  C   UNL     1       7.449   6.478   5.314  1.00  0.00     0.034 A 
ATOM     26  C   UNL     1       6.330   8.845  -1.183  1.00  0.00     0.034 A 
ATOM     27  C   UNL     1       8.101   7.722   4.993  1.00  0.00     0.049 A 
ATOM     28  C   UNL     1       7.133   9.628  -0.185  1.00  0.00     0.074 A 
ATOM     29  C   UNL     1       8.909   8.503   5.801  1.00  0.00     0.029 A 
ATOM     30  N   UNL     1       8.008   8.375   3.773  1.00  0.00    -0.354 N 
ATOM     31  N   UNL     1       7.482   9.295   1.034  1.00  0.00    -0.248 NA
ATOM     32  C   UNL     1       7.629  10.940  -0.620  1.00  0.00     0.031 C 
ATOM     33  C   UNL     1       9.278   9.644   5.079  1.00  0.00     0.029 A 
ATOM     34  C   UNL     1       8.730   9.558   3.810  1.00  0.00     0.049 A 
ATOM     35  H   UNL     1       7.503   8.047   2.994  1.00  0.00     0.167 HD
ATOM     36  C   UNL     1       8.265  10.342   1.503  1.00  0.00     0.074 A 
ATOM     37  C   UNL     1       8.355  11.309   0.427  1.00  0.00     0.031 C 
ATOM     38  C   UNL     1       8.847  10.492   2.719  1.00  0.00     0.034 A 
BRANCH  25  39
ATOM     39  C   UNL     1       7.588   5.940   6.716  1.00  0.00     0.023 A 
ATOM     40  C   UNL     1       8.394   4.809   6.957  1.00  0.00     0.012 A 
ATOM     41  C   UNL     1       6.957   6.580   7.803  1.00  0.00     0.148 A 
ATOM     42  C   UNL     1       8.537   4.298   8.248  1.00  0.00     0.002 A 
ATOM     43  C   UNL     1       7.141   6.092   9.092  1.00  0.00     0.091 A 
ATOM     44  F   UNL     1       6.178   7.642   7.556  1.00  0.00    -0.205 F 
ATOM     45  C   UNL     1       7.919   4.944   9.315  1.00  0.00     0.022 A 
BRANCH  43  46
ATOM     46  S   UNL     1       6.449   6.903  10.538  1.00  0.00     0.127 S 
ATOM     47  O   UNL     1       5.343   6.010  10.876  1.00  0.00    -0.237 OA
ATOM     48  O   UNL     1       7.569   6.868  11.479  1.00  0.00    -0.237 OA
ATOM     49  O   UNL     1       6.069   8.239  10.101  1.00  0.00    -0.744 OA
ENDBRANCH  43  46
ENDBRANCH  25  39
BRANCH  26  50
ATOM     50  C   UNL     1       6.098   9.352  -2.563  1.00  0.00     0.023 A 
ATOM     51  C   UNL     1       7.178   9.434  -3.461  1.00  0.00     0.012 A 
ATOM     52  C   UNL     1       4.804   9.689  -3.009  1.00  0.00     0.148 A 
ATOM     53  C   UNL     1       6.979   9.861  -4.774  1.00  0.00     0.002 A 
ATOM     54  C   UNL     1       4.604  10.057  -4.333  1.00  0.00     0.091 A 
ATOM     55  F   UNL     1       3.792   9.610  -2.134  1.00  0.00    -0.205 F 
ATOM     56  C   UNL     1       5.692  10.160  -5.213  1.00  0.00     0.022 A 
BRANCH  54  57
ATOM     57  S   UNL     1       2.967  10.323  -5.023  1.00  0.00     0.127 S 
ATOM     58  O   UNL     1       2.988  11.758  -5.296  1.00  0.00    -0.237 OA
ATOM     59  O   UNL     1       2.999   9.468  -6.210  1.00  0.00    -0.237 OA
ATOM     60  O   UNL     1       2.030   9.891  -3.995  1.00  0.00    -0.744 OA
ENDBRANCH  54  57
ENDBRANCH  26  50
BRANCH  38  61
ATOM     61  C   UNL     1       9.666  11.736   2.945  1.00  0.00     0.023 A 
ATOM     62  C   UNL     1       9.026  12.983   3.088  1.00  0.00     0.012 A 
ATOM     63  C   UNL     1      11.066  11.658   3.076  1.00  0.00     0.148 A 
ATOM     64  C   UNL     1       9.771  14.139   3.324  1.00  0.00     0.002 A 
ATOM     65  C   UNL     1      11.797  12.804   3.362  1.00  0.00     0.091 A 
ATOM     66  F   UNL     1      11.658  10.465   2.915  1.00  0.00    -0.205 F 
ATOM     67  C   UNL     1      11.153  14.047   3.472  1.00  0.00     0.022 A 
BRANCH  65  68
ATOM     68  S   UNL     1      13.567  12.765   3.666  1.00  0.00     0.127 S 
ATOM     69  O   UNL     1      14.093  13.377   2.447  1.00  0.00    -0.237 OA
ATOM     70  O   UNL     1      13.694  13.591   4.867  1.00  0.00    -0.237 OA
ATOM     71  O   UNL     1      13.909  11.362   3.860  1.00  0.00    -0.744 OA
ENDBRANCH  65  68
ENDBRANCH  38  61
ENDBRANCH  12  13
ENDBRANCH   5   7
ENDBRANCH   2   3
ENDBRANCH   1   2
BRANCH   1  72
ATOM     72  C   UNL     1       4.346  -3.853   0.499  1.00  0.00     0.118 C 
BRANCH  72  73
ATOM     73  N   UNL     1       4.981  -4.443  -0.677  1.00  0.00    -0.352 N 
ATOM     74  C   UNL     1       5.907  -5.455  -0.737  1.00  0.00     0.253 C 
ATOM     75  H   UNL     1       4.707  -4.064  -1.543  1.00  0.00     0.163 HD
ATOM     76  O   UNL     1       6.561  -5.661  -1.751  1.00  0.00    -0.269 OA
BRANCH  74  77
ATOM     77  C   UNL     1       6.150  -6.266   0.467  1.00  0.00     0.067 A 
ATOM     78  C   UNL     1       5.043  -6.901   1.058  1.00  0.00     0.058 A 
ATOM     79  C   UNL     1       7.424  -6.300   1.062  1.00  0.00     0.065 A 
ATOM     80  C   UNL     1       5.176  -7.466   2.315  1.00  0.00     0.159 A 
ATOM     81  C   UNL     1       7.495  -6.811   2.361  1.00  0.00     0.070 A 
ATOM     82  F   UNL     1       4.107  -8.002   2.917  1.00  0.00    -0.204 F 
ATOM     83  C   UNL     1       6.391  -7.401   2.972  1.00  0.00     0.160 A 
ATOM     84  F   UNL     1       6.511  -7.870   4.221  1.00  0.00    -0.204 F 
BRANCH  79  85
ATOM     85  N   UNL     1       8.576  -5.653   0.460  1.00  0.00    -0.279 N 
ATOM     86  H   UNL     1       8.550  -4.689   0.260  1.00  0.00     0.180 HD
BRANCH  85  87
ATOM     87  S   UNL     1       9.984  -6.569   0.097  1.00  0.00     0.261 S 
ATOM     88  O   UNL     1       9.582  -7.630  -0.808  1.00  0.00    -0.201 OA
ATOM     89  O   UNL     1      11.014  -5.629  -0.275  1.00  0.00    -0.201 OA
BRANCH  87  90
ATOM     90  C   UNL     1      10.475  -7.319   1.630  1.00  0.00     0.088 A 
ATOM     91  C   UNL     1      10.229  -8.694   1.818  1.00  0.00     0.022 A 
ATOM     92  C   UNL     1      10.943  -6.506   2.672  1.00  0.00     0.026 A 
ATOM     93  C   UNL     1      10.334  -9.253   3.090  1.00  0.00     0.005 A 
ATOM     94  C   UNL     1      11.035  -7.080   3.931  1.00  0.00    -0.043 A 
ATOM     95  C   UNL     1      10.706  -8.427   4.138  1.00  0.00    -0.045 A 
ATOM     96  C   UNL     1      11.312  -6.396   5.235  1.00  0.00     0.036 C 
ATOM     97  C   UNL     1      10.694  -8.755   5.599  1.00  0.00     0.036 C 
ATOM     98  C   UNL     1      11.519  -7.596   6.173  1.00  0.00     0.010 C 
ENDBRANCH  87  90
ENDBRANCH  85  87
ENDBRANCH  79  85
ENDBRANCH  74  77
ENDBRANCH  72  73
ENDBRANCH   1  72
TORSDOF 16
