REMARK SMILES CC(C)(C)N(CC(=O)NCCCNC(=O)c1ccc(-c2c3nc(c(-c4cccc(S(=O)(=O)[O-])c4F)c4ccc([nH]4)c(-c4cccc(S(=O)(=O)[O-])c4F)c4nc(c(-c5cccc(S(=O)(=O)[O-])c5F)c5ccc2[nH]5)C=C4)C=C3)cc1)C(=O)c1ccc(N)cc1
REMARK SMILES IDX 10 1 9 2 7 3 8 4 6 6 5 7 2 8 1 9 3 10 4 11 79 12 80 13 81 14
REMARK SMILES IDX 82 15 87 16 83 17 86 18 84 19 85 20 11 23 12 24 13 25 14 26
REMARK SMILES IDX 15 28 16 29 17 30 78 31 18 32 77 33 19 34 20 35 21 36 71 37
REMARK SMILES IDX 22 38 76 39 70 40 72 41 23 42 75 43 69 44 68 45 24 47 56 48
REMARK SMILES IDX 36 49 55 50 37 51 40 52 54 53 73 54 38 55 39 56 53 58 74 59
REMARK SMILES IDX 41 60 25 61 26 62 34 63 27 64 29 65 35 66 28 67 30 68 31 69
REMARK SMILES IDX 32 70 33 71 57 72 58 73 66 74 59 75 61 76 67 77 60 78 62 79
REMARK SMILES IDX 63 80 64 81 65 82 42 83 43 84 51 85 44 86 46 87 52 88 45 89
REMARK SMILES IDX 47 90 48 91 49 92 50 93
REMARK H PARENT 9 5 85 21 85 22 13 27 72 46 40 57
REMARK Flexibility Score: inf
ROOT
ATOM      1  C   UNL     1       3.991   0.190   1.428  1.00  0.00     0.117 C 
ENDROOT
BRANCH   1   2
ATOM      2  N   UNL     1       4.213  -1.217   1.675  1.00  0.00    -0.354 N 
ATOM      3  C   UNL     1       3.351  -2.269   1.600  1.00  0.00     0.239 C 
ATOM      4  O   UNL     1       3.865  -3.393   1.539  1.00  0.00    -0.273 OA
ATOM      5  H   UNL     1       5.133  -1.452   1.938  1.00  0.00     0.163 HD
BRANCH   3   6
ATOM      6  C   UNL     1       1.824  -2.113   1.432  1.00  0.00     0.220 C 
BRANCH   6   7
ATOM      7  N   UNL     1       1.087  -1.039   2.131  1.00  0.00    -0.325 N 
BRANCH   7   8
ATOM      8  C   UNL     1       0.258  -0.036   1.340  1.00  0.00     0.035 C 
ATOM      9  C   UNL     1       0.529  -0.024  -0.191  1.00  0.00     0.034 C 
ATOM     10  C   UNL     1       0.497   1.414   1.827  1.00  0.00     0.034 C 
ATOM     11  C   UNL     1      -1.250  -0.368   1.471  1.00  0.00     0.034 C 
ENDBRANCH   7   8
BRANCH   7  12
ATOM     12  C   UNL     1       0.808  -1.160   3.520  1.00  0.00     0.254 C 
ATOM     13  O   UNL     1       0.080  -0.385   4.138  1.00  0.00    -0.269 OA
BRANCH  12  14
ATOM     14  C   UNL     1       1.302  -2.306   4.325  1.00  0.00     0.040 A 
ATOM     15  C   UNL     1       0.354  -3.107   4.976  1.00  0.00     0.016 A 
ATOM     16  C   UNL     1       2.655  -2.518   4.580  1.00  0.00     0.016 A 
ATOM     17  C   UNL     1       0.764  -4.150   5.814  1.00  0.00     0.026 A 
ATOM     18  C   UNL     1       3.059  -3.586   5.390  1.00  0.00     0.026 A 
ATOM     19  C   UNL     1       2.120  -4.418   6.005  1.00  0.00     0.031 A 
BRANCH  19  20
ATOM     20  N   UNL     1       2.527  -5.438   6.844  1.00  0.00    -0.399 N 
ATOM     21  H   UNL     1       1.858  -6.019   7.274  1.00  0.00     0.156 HD
ATOM     22  H   UNL     1       3.486  -5.583   7.013  1.00  0.00     0.156 HD
ENDBRANCH  19  20
ENDBRANCH  12  14
ENDBRANCH   7  12
ENDBRANCH   6   7
ENDBRANCH   3   6
ENDBRANCH   1   2
BRANCH   1  23
ATOM     23  C   UNL     1       3.911   1.043   2.685  1.00  0.00     0.042 C 
BRANCH  23  24
ATOM     24  C   UNL     1       5.220   1.171   3.452  1.00  0.00     0.118 C 
BRANCH  24  25
ATOM     25  N   UNL     1       6.271   1.800   2.662  1.00  0.00    -0.352 N 
ATOM     26  C   UNL     1       6.872   3.031   2.751  1.00  0.00     0.251 C 
ATOM     27  H   UNL     1       6.614   1.237   1.931  1.00  0.00     0.163 HD
ATOM     28  O   UNL     1       7.576   3.401   1.812  1.00  0.00    -0.269 OA
BRANCH  26  29
ATOM     29  C   UNL     1       6.703   3.913   3.932  1.00  0.00     0.039 A 
ATOM     30  C   UNL     1       6.760   5.300   3.744  1.00  0.00     0.014 A 
ATOM     31  C   UNL     1       6.581   3.406   5.226  1.00  0.00     0.014 A 
ATOM     32  C   UNL     1       6.660   6.165   4.840  1.00  0.00     0.010 A 
ATOM     33  C   UNL     1       6.380   4.267   6.304  1.00  0.00     0.010 A 
ATOM     34  C   UNL     1       6.447   5.656   6.130  1.00  0.00    -0.014 A 
BRANCH  34  35
ATOM     35  C   UNL     1       6.328   6.554   7.311  1.00  0.00     0.031 A 
ATOM     36  C   UNL     1       7.318   6.457   8.444  1.00  0.00     0.074 A 
ATOM     37  C   UNL     1       5.288   7.407   7.401  1.00  0.00     0.049 A 
ATOM     38  N   UNL     1       7.349   7.117   9.574  1.00  0.00    -0.248 NA
ATOM     39  C   UNL     1       8.399   5.465   8.306  1.00  0.00     0.031 C 
ATOM     40  C   UNL     1       4.216   7.541   6.412  1.00  0.00     0.029 A 
ATOM     41  N   UNL     1       4.948   8.306   8.381  1.00  0.00    -0.354 N 
ATOM     42  C   UNL     1       8.418   6.593  10.294  1.00  0.00     0.074 A 
ATOM     43  C   UNL     1       8.987   5.533   9.492  1.00  0.00     0.031 C 
ATOM     44  C   UNL     1       3.347   8.476   6.829  1.00  0.00     0.029 A 
ATOM     45  C   UNL     1       3.782   8.989   8.124  1.00  0.00     0.049 A 
ATOM     46  H   UNL     1       5.489   8.449   9.191  1.00  0.00     0.167 HD
ATOM     47  C   UNL     1       8.907   6.980  11.497  1.00  0.00     0.034 A 
ATOM     48  C   UNL     1       3.137   9.924   8.848  1.00  0.00     0.034 A 
ATOM     49  C   UNL     1       8.377   8.074  12.264  1.00  0.00     0.049 A 
ATOM     50  C   UNL     1       3.736  10.382  10.151  1.00  0.00     0.074 A 
ATOM     51  C   UNL     1       8.854   8.605  13.449  1.00  0.00     0.029 A 
ATOM     52  N   UNL     1       7.253   8.809  11.921  1.00  0.00    -0.354 N 
ATOM     53  N   UNL     1       4.836   9.980  10.739  1.00  0.00    -0.248 NA
ATOM     54  C   UNL     1       3.026  11.450  10.870  1.00  0.00     0.031 C 
ATOM     55  C   UNL     1       8.009   9.654  13.830  1.00  0.00     0.029 A 
ATOM     56  C   UNL     1       7.019   9.788  12.870  1.00  0.00     0.049 A 
ATOM     57  H   UNL     1       6.701   8.656  11.120  1.00  0.00     0.167 HD
ATOM     58  C   UNL     1       4.974  10.772  11.874  1.00  0.00     0.074 A 
ATOM     59  C   UNL     1       3.852  11.689  11.880  1.00  0.00     0.031 C 
ATOM     60  C   UNL     1       5.934  10.735  12.831  1.00  0.00     0.034 A 
BRANCH  47  61
ATOM     61  C   UNL     1      10.119   6.255  12.027  1.00  0.00     0.023 A 
ATOM     62  C   UNL     1      11.370   6.451  11.405  1.00  0.00     0.012 A 
ATOM     63  C   UNL     1      10.037   5.426  13.162  1.00  0.00     0.148 A 
ATOM     64  C   UNL     1      12.510   5.803  11.877  1.00  0.00     0.002 A 
ATOM     65  C   UNL     1      11.187   4.819  13.656  1.00  0.00     0.091 A 
ATOM     66  F   UNL     1       8.838   5.234  13.730  1.00  0.00    -0.205 F 
ATOM     67  C   UNL     1      12.420   4.996  13.008  1.00  0.00     0.022 A 
BRANCH  65  68
ATOM     68  S   UNL     1      11.191   3.825  15.153  1.00  0.00     0.127 S 
ATOM     69  O   UNL     1      11.343   2.475  14.611  1.00  0.00    -0.237 OA
ATOM     70  O   UNL     1      12.369   4.333  15.858  1.00  0.00    -0.237 OA
ATOM     71  O   UNL     1       9.925   4.096  15.817  1.00  0.00    -0.744 OA
ENDBRANCH  65  68
ENDBRANCH  47  61
BRANCH  48  72
ATOM     72  C   UNL     1       1.900  10.558   8.309  1.00  0.00     0.023 A 
ATOM     73  C   UNL     1       1.950  11.896   7.870  1.00  0.00     0.012 A 
ATOM     74  C   UNL     1       0.694   9.841   8.191  1.00  0.00     0.148 A 
ATOM     75  C   UNL     1       0.814  12.519   7.353  1.00  0.00     0.002 A 
ATOM     76  C   UNL     1      -0.421  10.452   7.625  1.00  0.00     0.091 A 
ATOM     77  F   UNL     1       0.663   8.573   8.624  1.00  0.00    -0.205 F 
ATOM     78  C   UNL     1      -0.367  11.794   7.220  1.00  0.00     0.022 A 
BRANCH  76  79
ATOM     79  S   UNL     1      -1.944   9.558   7.295  1.00  0.00     0.127 S 
ATOM     80  O   UNL     1      -2.847  10.130   8.293  1.00  0.00    -0.237 OA
ATOM     81  O   UNL     1      -2.230   9.949   5.913  1.00  0.00    -0.237 OA
ATOM     82  O   UNL     1      -1.619   8.152   7.465  1.00  0.00    -0.744 OA
ENDBRANCH  76  79
ENDBRANCH  48  72
BRANCH  60  83
ATOM     83  C   UNL     1       5.847  11.740  13.948  1.00  0.00     0.023 A 
ATOM     84  C   UNL     1       4.867  11.593  14.949  1.00  0.00     0.012 A 
ATOM     85  C   UNL     1       6.789  12.783  14.049  1.00  0.00     0.148 A 
ATOM     86  C   UNL     1       4.805  12.488  16.017  1.00  0.00     0.002 A 
ATOM     87  C   UNL     1       6.751  13.642  15.141  1.00  0.00     0.091 A 
ATOM     88  F   UNL     1       7.702  12.918  13.076  1.00  0.00    -0.205 F 
ATOM     89  C   UNL     1       5.753  13.503  16.119  1.00  0.00     0.022 A 
BRANCH  87  90
ATOM     90  S   UNL     1       7.991  14.916  15.403  1.00  0.00     0.127 S 
ATOM     91  O   UNL     1       7.250  16.128  15.059  1.00  0.00    -0.237 OA
ATOM     92  O   UNL     1       8.292  14.770  16.828  1.00  0.00    -0.237 OA
ATOM     93  O   UNL     1       9.098  14.584  14.517  1.00  0.00    -0.744 OA
ENDBRANCH  87  90
ENDBRANCH  60  83
ENDBRANCH  34  35
ENDBRANCH  26  29
ENDBRANCH  24  25
ENDBRANCH  23  24
ENDBRANCH   1  23
TORSDOF 18
