REMARK SMILES O=C(COc1ccccc1[C@@H]1[NH2+]CCc2cc(O)c(O)cc21)NCCCNC(=O)c1ccc(-c2c3nc(c(-c4cccc(S(=O)(=O)[O-])c4F)c4ccc([nH]4)c(-c4cccc(S(=O)(=O)[O-])c4F)c4nc(c(-c5cccc(S(=O)(=O)[O-])c5F)c5ccc2[nH]5)C=C4)C=C3)cc1
REMARK SMILES IDX 24 1 23 2 1 3 2 4 3 6 4 7 5 8 6 9 10 10 7 11 9 12 8 13 11 14
REMARK SMILES IDX 12 15 22 16 13 17 15 20 21 21 14 22 16 23 19 24 17 25 20 26
REMARK SMILES IDX 18 28 25 30 26 31 27 32 28 33 29 35 30 36 31 37 92 38 32 39
REMARK SMILES IDX 91 40 33 41 34 42 35 43 85 44 36 45 90 46 84 47 86 48 37 49
REMARK SMILES IDX 89 50 83 51 82 52 38 54 70 55 50 56 69 57 51 58 54 59 68 60
REMARK SMILES IDX 87 61 52 62 53 63 67 65 88 66 55 67 39 68 40 69 48 70 41 71
REMARK SMILES IDX 43 72 49 73 42 74 44 75 45 76 46 77 47 78 71 79 72 80 80 81
REMARK SMILES IDX 73 82 75 83 81 84 74 85 76 86 77 87 78 88 79 89 56 90 57 91
REMARK SMILES IDX 65 92 58 93 60 94 66 95 59 96 61 97 62 98 63 99 64 100
REMARK H PARENT 23 5 12 18 12 19 20 27 18 29 27 34 86 53 54 64
REMARK Flexibility Score: inf
ROOT
ATOM      1  C   UNL     1       2.380   2.343  -0.611  1.00  0.00     0.117 C 
ENDROOT
BRANCH   1   2
ATOM      2  N   UNL     1       3.272   1.212  -0.447  1.00  0.00    -0.353 N 
ATOM      3  O   UNL     1       2.629   0.693   1.692  1.00  0.00    -0.271 OA
ATOM      4  C   UNL     1       3.196   0.375   0.650  1.00  0.00     0.257 C 
ATOM      5  H   UNL     1       3.951   1.035  -1.137  1.00  0.00     0.163 HD
BRANCH   4   6
ATOM      6  C   UNL     1       3.857  -0.998   0.450  1.00  0.00     0.329 C 
BRANCH   6   7
ATOM      7  O   UNL     1       4.180  -1.440  -0.853  1.00  0.00    -0.483 OA
BRANCH   7   8
ATOM      8  C   UNL     1       3.329  -1.889  -1.824  1.00  0.00     0.129 A 
ATOM      9  C   UNL     1       4.066  -2.656  -2.752  1.00  0.00     0.047 A 
ATOM     10  C   UNL     1       1.970  -1.608  -2.101  1.00  0.00     0.056 A 
ATOM     11  C   UNL     1       3.545  -3.033  -3.985  1.00  0.00     0.004 A 
ATOM     12  C   UNL     1       1.505  -1.908  -3.407  1.00  0.00     0.014 A 
ATOM     13  C   UNL     1       2.279  -2.604  -4.337  1.00  0.00     0.001 A 
BRANCH  10  14
ATOM     14  C   UNL     1       0.986  -0.964  -1.132  1.00  0.00     0.249 C 
ATOM     15  N   UNL     1       1.068  -1.538   0.217  1.00  0.00    -0.336 N 
ATOM     16  C   UNL     1      -0.507  -0.881  -1.469  1.00  0.00     0.021 A 
ATOM     17  C   UNL     1       0.495  -2.884   0.325  1.00  0.00     0.266 C 
ATOM     18  H   UNL     1       0.567  -0.923   0.859  1.00  0.00     0.347 HD
ATOM     19  H   UNL     1       2.058  -1.617   0.446  1.00  0.00     0.347 HD
ATOM     20  C   UNL     1      -1.300  -2.012  -1.165  1.00  0.00    -0.029 A 
ATOM     21  C   UNL     1      -1.120   0.331  -1.828  1.00  0.00     0.060 A 
ATOM     22  C   UNL     1      -0.570  -3.251  -0.722  1.00  0.00     0.097 C 
ATOM     23  C   UNL     1      -2.692  -1.923  -1.178  1.00  0.00     0.054 A 
ATOM     24  C   UNL     1      -2.508   0.412  -1.804  1.00  0.00     0.157 A 
ATOM     25  C   UNL     1      -3.279  -0.701  -1.466  1.00  0.00     0.157 A 
BRANCH  24  26
ATOM     26  O   UNL     1      -3.168   1.586  -2.047  1.00  0.00    -0.504 OA
ATOM     27  H   UNL     1      -4.104   1.611  -2.024  1.00  0.00     0.293 HD
ENDBRANCH  24  26
BRANCH  25  28
ATOM     28  O   UNL     1      -4.635  -0.576  -1.356  1.00  0.00    -0.504 OA
ATOM     29  H   UNL     1      -5.157  -1.320  -1.129  1.00  0.00     0.293 HD
ENDBRANCH  25  28
ENDBRANCH  10  14
ENDBRANCH   7   8
ENDBRANCH   6   7
ENDBRANCH   4   6
ENDBRANCH   1   2
BRANCH   1  30
ATOM     30  C   UNL     1       2.619   3.507   0.326  1.00  0.00     0.042 C 
BRANCH  30  31
ATOM     31  C   UNL     1       4.056   3.973   0.345  1.00  0.00     0.118 C 
BRANCH  31  32
ATOM     32  N   UNL     1       4.542   4.365  -0.970  1.00  0.00    -0.352 N 
ATOM     33  C   UNL     1       5.215   5.501  -1.345  1.00  0.00     0.251 C 
ATOM     34  H   UNL     1       4.362   3.723  -1.695  1.00  0.00     0.163 HD
ATOM     35  O   UNL     1       5.420   5.724  -2.531  1.00  0.00    -0.269 OA
BRANCH  33  36
ATOM     36  C   UNL     1       5.665   6.455  -0.309  1.00  0.00     0.039 A 
ATOM     37  C   UNL     1       5.545   7.823  -0.556  1.00  0.00     0.014 A 
ATOM     38  C   UNL     1       6.191   6.004   0.905  1.00  0.00     0.014 A 
ATOM     39  C   UNL     1       5.922   8.734   0.432  1.00  0.00     0.010 A 
ATOM     40  C   UNL     1       6.448   6.905   1.928  1.00  0.00     0.010 A 
ATOM     41  C   UNL     1       6.357   8.281   1.690  1.00  0.00    -0.014 A 
BRANCH  41  42
ATOM     42  C   UNL     1       6.769   9.239   2.744  1.00  0.00     0.031 A 
ATOM     43  C   UNL     1       8.182   9.221   3.267  1.00  0.00     0.074 A 
ATOM     44  C   UNL     1       5.865  10.096   3.257  1.00  0.00     0.049 A 
ATOM     45  N   UNL     1       8.739   9.998   4.159  1.00  0.00    -0.248 NA
ATOM     46  C   UNL     1       9.081   8.177   2.746  1.00  0.00     0.031 C 
ATOM     47  C   UNL     1       4.445  10.144   2.901  1.00  0.00     0.029 A 
ATOM     48  N   UNL     1       6.005  11.085   4.196  1.00  0.00    -0.354 N 
ATOM     49  C   UNL     1      10.033   9.519   4.326  1.00  0.00     0.074 A 
ATOM     50  C   UNL     1      10.165   8.351   3.486  1.00  0.00     0.031 C 
ATOM     51  C   UNL     1       3.852  11.130   3.592  1.00  0.00     0.029 A 
ATOM     52  C   UNL     1       4.840  11.766   4.458  1.00  0.00     0.049 A 
ATOM     53  H   UNL     1       6.860  11.289   4.641  1.00  0.00     0.167 HD
ATOM     54  C   UNL     1      11.037  10.025   5.079  1.00  0.00     0.034 A 
ATOM     55  C   UNL     1       4.599  12.793   5.296  1.00  0.00     0.034 A 
ATOM     56  C   UNL     1      10.912  11.210   5.882  1.00  0.00     0.049 A 
ATOM     57  C   UNL     1       5.746  13.376   6.076  1.00  0.00     0.074 A 
ATOM     58  C   UNL     1      11.886  11.856   6.622  1.00  0.00     0.029 A 
ATOM     59  N   UNL     1       9.737  11.925   6.056  1.00  0.00    -0.354 N 
ATOM     60  N   UNL     1       7.004  13.005   6.099  1.00  0.00    -0.248 NA
ATOM     61  C   UNL     1       5.451  14.550   6.909  1.00  0.00     0.031 C 
ATOM     62  C   UNL     1      11.292  12.945   7.267  1.00  0.00     0.029 A 
ATOM     63  C   UNL     1       9.959  13.004   6.893  1.00  0.00     0.049 A 
ATOM     64  H   UNL     1       8.872  11.698   5.644  1.00  0.00     0.167 HD
ATOM     65  C   UNL     1       7.658  13.927   6.908  1.00  0.00     0.074 A 
ATOM     66  C   UNL     1       6.659  14.884   7.339  1.00  0.00     0.031 C 
ATOM     67  C   UNL     1       8.965  13.975   7.270  1.00  0.00     0.034 A 
BRANCH  54  68
ATOM     68  C   UNL     1      12.370   9.323   5.030  1.00  0.00     0.023 A 
ATOM     69  C   UNL     1      13.141   9.365   3.849  1.00  0.00     0.012 A 
ATOM     70  C   UNL     1      12.881   8.661   6.163  1.00  0.00     0.148 A 
ATOM     71  C   UNL     1      14.377   8.724   3.782  1.00  0.00     0.002 A 
ATOM     72  C   UNL     1      14.138   8.070   6.105  1.00  0.00     0.091 A 
ATOM     73  F   UNL     1      12.127   8.612   7.270  1.00  0.00    -0.205 F 
ATOM     74  C   UNL     1      14.880   8.087   4.913  1.00  0.00     0.022 A 
BRANCH  72  75
ATOM     75  S   UNL     1      14.913   7.298   7.530  1.00  0.00     0.127 S 
ATOM     76  O   UNL     1      14.901   5.888   7.145  1.00  0.00    -0.237 OA
ATOM     77  O   UNL     1      16.238   7.919   7.531  1.00  0.00    -0.237 OA
ATOM     78  O   UNL     1      14.081   7.639   8.675  1.00  0.00    -0.744 OA
ENDBRANCH  72  75
ENDBRANCH  54  68
BRANCH  55  79
ATOM     79  C   UNL     1       3.236  13.387   5.377  1.00  0.00     0.023 A 
ATOM     80  C   UNL     1       3.008  14.681   4.869  1.00  0.00     0.012 A 
ATOM     81  C   UNL     1       2.162  12.673   5.941  1.00  0.00     0.148 A 
ATOM     82  C   UNL     1       1.746  15.270   4.958  1.00  0.00     0.002 A 
ATOM     83  C   UNL     1       0.894  13.242   5.975  1.00  0.00     0.091 A 
ATOM     84  F   UNL     1       2.400  11.445   6.423  1.00  0.00    -0.205 F 
ATOM     85  C   UNL     1       0.688  14.548   5.503  1.00  0.00     0.022 A 
BRANCH  83  86
ATOM     86  S   UNL     1      -0.553  12.339   6.538  1.00  0.00     0.127 S 
ATOM     87  O   UNL     1      -0.875  13.037   7.780  1.00  0.00    -0.237 OA
ATOM     88  O   UNL     1      -1.494  12.566   5.440  1.00  0.00    -0.237 OA
ATOM     89  O   UNL     1      -0.122  10.956   6.683  1.00  0.00    -0.744 OA
ENDBRANCH  83  86
ENDBRANCH  55  79
BRANCH  67  90
ATOM     90  C   UNL     1       9.406  15.133   8.126  1.00  0.00     0.023 A 
ATOM     91  C   UNL     1       8.989  15.227   9.468  1.00  0.00     0.012 A 
ATOM     92  C   UNL     1      10.278  16.110   7.604  1.00  0.00     0.148 A 
ATOM     93  C   UNL     1       9.389  16.302  10.261  1.00  0.00     0.002 A 
ATOM     94  C   UNL     1      10.719  17.146   8.416  1.00  0.00     0.091 A 
ATOM     95  F   UNL     1      10.651  16.016   6.319  1.00  0.00    -0.205 F 
ATOM     96  C   UNL     1      10.262  17.254   9.739  1.00  0.00     0.022 A 
BRANCH  94  97
ATOM     97  S   UNL     1      11.924  18.354   7.856  1.00  0.00     0.127 S 
ATOM     98  O   UNL     1      11.084  19.528   7.626  1.00  0.00    -0.237 OA
ATOM     99  O   UNL     1      12.818  18.460   9.009  1.00  0.00    -0.237 OA
ATOM    100  O   UNL     1      12.541  17.780   6.668  1.00  0.00    -0.744 OA
ENDBRANCH  94  97
ENDBRANCH  67  90
ENDBRANCH  41  42
ENDBRANCH  33  36
ENDBRANCH  31  32
ENDBRANCH  30  31
ENDBRANCH   1  30
TORSDOF 18
