REMARK SMILES O=C(CCCNC(=O)N1CC[C@@H](C(=O)NCCCNC(=O)c2ccc(-c3c4nc(c(-c5cccc(S(=O)(=O)[O-])c5F)c5ccc([nH]5)c(-c5cccc(S(=O)(=O)[O-])c5F)c5nc(c(-c6cccc(S(=O)(=O)[O-])c6F)c6ccc3[nH]6)C=C5)C=C4)cc2)C1)NC1CC1
REMARK SMILES IDX 13 1 14 2 15 3 12 5 9 6 10 7 85 8 11 9 7 10 6 11 8 13 5 14
REMARK SMILES IDX 4 15 3 16 2 17 1 18 86 19 87 21 88 22 89 23 16 24 17 25
REMARK SMILES IDX 18 26 19 27 20 28 21 30 22 31 23 32 84 33 24 34 83 35 25 36
REMARK SMILES IDX 26 37 27 38 77 39 28 40 82 41 76 42 78 43 29 44 81 45 75 46
REMARK SMILES IDX 74 47 30 49 62 50 42 51 61 52 43 53 46 54 60 55 79 56 44 57
REMARK SMILES IDX 45 58 59 60 80 61 47 62 31 63 32 64 40 65 33 66 35 67 41 68
REMARK SMILES IDX 34 69 36 70 37 71 38 72 39 73 63 74 64 75 72 76 65 77 67 78
REMARK SMILES IDX 73 79 66 80 68 81 69 82 70 83 71 84 48 85 49 86 57 87 50 88
REMARK SMILES IDX 52 89 58 90 51 91 53 92 54 93 55 94 56 95
REMARK H PARENT 15 4 6 12 86 20 19 29 78 48 46 59
REMARK Flexibility Score: inf
ROOT
ATOM      1  C   UNL     1      10.479   1.281  -3.448  1.00  0.00     0.224 C 
ATOM      2  O   UNL     1      11.023   1.897  -4.376  1.00  0.00    -0.275 OA
ATOM      3  N   UNL     1      11.117   1.342  -2.258  1.00  0.00    -0.356 N 
ATOM      4  H   UNL     1      11.902   1.935  -2.268  1.00  0.00     0.163 HD
ENDROOT
BRANCH   1   5
ATOM      5  C   UNL     1       9.117   0.651  -3.704  1.00  0.00     0.100 C 
ATOM      6  N   UNL     1       7.579   0.242  -1.953  1.00  0.00    -0.324 N 
ATOM      7  C   UNL     1       7.536   1.666  -2.239  1.00  0.00     0.122 C 
ATOM      8  C   UNL     1       8.558  -0.429  -2.794  1.00  0.00     0.134 C 
ATOM      9  C   UNL     1       8.036   1.743  -3.665  1.00  0.00     0.037 C 
BRANCH   6  10
ATOM     10  C   UNL     1       7.071  -0.348  -0.839  1.00  0.00     0.317 C 
ATOM     11  N   UNL     1       5.795  -0.039  -0.489  1.00  0.00    -0.338 N 
ATOM     12  H   UNL     1       5.569  -0.089   0.468  1.00  0.00     0.165 HD
ATOM     13  O   UNL     1       7.691  -1.164  -0.164  1.00  0.00    -0.249 OA
BRANCH  11  14
ATOM     14  C   UNL     1       4.734   0.358  -1.399  1.00  0.00     0.118 C 
BRANCH  14  15
ATOM     15  C   UNL     1       3.698  -0.747  -1.607  1.00  0.00     0.031 C 
BRANCH  15  16
ATOM     16  C   UNL     1       2.968  -1.211  -0.348  1.00  0.00     0.102 C 
BRANCH  16  17
ATOM     17  C   UNL     1       2.030  -0.155   0.200  1.00  0.00     0.220 C 
ATOM     18  O   UNL     1       0.823  -0.189  -0.020  1.00  0.00    -0.275 OA
ATOM     19  N   UNL     1       2.667   0.832   0.924  1.00  0.00    -0.353 N 
ATOM     20  H   UNL     1       3.639   0.752   1.057  1.00  0.00     0.163 HD
BRANCH  19  21
ATOM     21  C   UNL     1       2.006   1.962   1.495  1.00  0.00     0.082 C 
ATOM     22  C   UNL     1       2.308   3.340   0.961  1.00  0.00     0.027 C 
ATOM     23  C   UNL     1       0.944   2.748   0.780  1.00  0.00     0.027 C 
ENDBRANCH  19  21
ENDBRANCH  16  17
ENDBRANCH  15  16
ENDBRANCH  14  15
ENDBRANCH  11  14
ENDBRANCH   6  10
ENDBRANCH   1   5
BRANCH   3  24
ATOM     24  C   UNL     1      10.886   0.714  -0.969  1.00  0.00     0.117 C 
BRANCH  24  25
ATOM     25  C   UNL     1      11.577  -0.642  -0.863  1.00  0.00     0.042 C 
BRANCH  25  26
ATOM     26  C   UNL     1      13.095  -0.543  -0.761  1.00  0.00     0.118 C 
BRANCH  26  27
ATOM     27  N   UNL     1      13.525   0.062   0.492  1.00  0.00    -0.352 N 
ATOM     28  C   UNL     1      14.253  -0.475   1.524  1.00  0.00     0.251 C 
ATOM     29  H   UNL     1      13.253   1.000   0.618  1.00  0.00     0.163 HD
ATOM     30  O   UNL     1      14.316   0.128   2.594  1.00  0.00    -0.269 OA
BRANCH  28  31
ATOM     31  C   UNL     1      14.952  -1.768   1.360  1.00  0.00     0.039 A 
ATOM     32  C   UNL     1      14.934  -2.686   2.414  1.00  0.00     0.014 A 
ATOM     33  C   UNL     1      15.652  -2.065   0.187  1.00  0.00     0.014 A 
ATOM     34  C   UNL     1      15.567  -3.923   2.268  1.00  0.00     0.010 A 
ATOM     35  C   UNL     1      16.215  -3.327   0.014  1.00  0.00     0.010 A 
ATOM     36  C   UNL     1      16.183  -4.268   1.054  1.00  0.00    -0.014 A 
BRANCH  36  37
ATOM     37  C   UNL     1      16.790  -5.608   0.846  1.00  0.00     0.031 A 
ATOM     38  C   UNL     1      18.264  -5.740   0.571  1.00  0.00     0.074 A 
ATOM     39  C   UNL     1      15.995  -6.698   0.819  1.00  0.00     0.049 A 
ATOM     40  N   UNL     1      18.956  -6.812   0.281  1.00  0.00    -0.248 NA
ATOM     41  C   UNL     1      19.064  -4.503   0.602  1.00  0.00     0.031 C 
ATOM     42  C   UNL     1      14.541  -6.690   1.000  1.00  0.00     0.029 A 
ATOM     43  N   UNL     1      16.293  -8.020   0.598  1.00  0.00    -0.354 N 
ATOM     44  C   UNL     1      20.260  -6.379   0.071  1.00  0.00     0.074 A 
ATOM     45  C   UNL     1      20.259  -4.941   0.230  1.00  0.00     0.031 C 
ATOM     46  C   UNL     1      14.075  -7.943   0.878  1.00  0.00     0.029 A 
ATOM     47  C   UNL     1      15.187  -8.838   0.578  1.00  0.00     0.049 A 
ATOM     48  H   UNL     1      17.211  -8.350   0.466  1.00  0.00     0.167 HD
ATOM     49  C   UNL     1      21.365  -7.114  -0.198  1.00  0.00     0.034 A 
ATOM     50  C   UNL     1      15.079 -10.159   0.330  1.00  0.00     0.034 A 
ATOM     51  C   UNL     1      21.369  -8.547  -0.317  1.00  0.00     0.049 A 
ATOM     52  C   UNL     1      16.329 -10.951   0.051  1.00  0.00     0.074 A 
ATOM     53  C   UNL     1      22.448  -9.389  -0.521  1.00  0.00     0.029 A 
ATOM     54  N   UNL     1      20.243  -9.351  -0.243  1.00  0.00    -0.354 N 
ATOM     55  N   UNL     1      17.573 -10.542   0.004  1.00  0.00    -0.248 NA
ATOM     56  C   UNL     1      16.164 -12.395  -0.174  1.00  0.00     0.031 C 
ATOM     57  C   UNL     1      21.971 -10.702  -0.589  1.00  0.00     0.029 A 
ATOM     58  C   UNL     1      20.599 -10.679  -0.403  1.00  0.00     0.049 A 
ATOM     59  H   UNL     1      19.325  -9.026  -0.099  1.00  0.00     0.167 HD
ATOM     60  C   UNL     1      18.340 -11.679  -0.219  1.00  0.00     0.074 A 
ATOM     61  C   UNL     1      17.423 -12.799  -0.270  1.00  0.00     0.031 C 
ATOM     62  C   UNL     1      19.681 -11.787  -0.388  1.00  0.00     0.034 A 
BRANCH  49  63
ATOM     63  C   UNL     1      22.683  -6.393  -0.315  1.00  0.00     0.023 A 
ATOM     64  C   UNL     1      23.293  -5.882   0.849  1.00  0.00     0.012 A 
ATOM     65  C   UNL     1      23.360  -6.302  -1.547  1.00  0.00     0.148 A 
ATOM     66  C   UNL     1      24.544  -5.271   0.787  1.00  0.00     0.002 A 
ATOM     67  C   UNL     1      24.626  -5.729  -1.594  1.00  0.00     0.091 A 
ATOM     68  F   UNL     1      22.757  -6.781  -2.644  1.00  0.00    -0.205 F 
ATOM     69  C   UNL     1      25.214  -5.205  -0.431  1.00  0.00     0.022 A 
BRANCH  67  70
ATOM     70  S   UNL     1      25.610  -5.661  -3.096  1.00  0.00     0.127 S 
ATOM     71  O   UNL     1      25.675  -4.220  -3.341  1.00  0.00    -0.237 OA
ATOM     72  O   UNL     1      26.871  -6.263  -2.662  1.00  0.00    -0.237 OA
ATOM     73  O   UNL     1      24.878  -6.426  -4.095  1.00  0.00    -0.744 OA
ENDBRANCH  67  70
ENDBRANCH  49  63
BRANCH  50  74
ATOM     74  C   UNL     1      13.748 -10.829   0.374  1.00  0.00     0.023 A 
ATOM     75  C   UNL     1      13.475 -11.760   1.395  1.00  0.00     0.012 A 
ATOM     76  C   UNL     1      12.757 -10.559  -0.589  1.00  0.00     0.148 A 
ATOM     77  C   UNL     1      12.258 -12.443   1.430  1.00  0.00     0.002 A 
ATOM     78  C   UNL     1      11.525 -11.200  -0.515  1.00  0.00     0.091 A 
ATOM     79  F   UNL     1      13.038  -9.682  -1.564  1.00  0.00    -0.205 F 
ATOM     80  C   UNL     1      11.281 -12.157   0.481  1.00  0.00     0.022 A 
BRANCH  78  81
ATOM     81  S   UNL     1      10.169 -10.792  -1.620  1.00  0.00     0.127 S 
ATOM     82  O   UNL     1      10.179 -11.927  -2.539  1.00  0.00    -0.237 OA
ATOM     83  O   UNL     1       9.029 -10.751  -0.704  1.00  0.00    -0.237 OA
ATOM     84  O   UNL     1      10.516  -9.500  -2.198  1.00  0.00    -0.744 OA
ENDBRANCH  78  81
ENDBRANCH  50  74
BRANCH  62  85
ATOM     85  C   UNL     1      20.248 -13.165  -0.604  1.00  0.00     0.023 A 
ATOM     86  C   UNL     1      20.042 -13.822  -1.833  1.00  0.00     0.012 A 
ATOM     87  C   UNL     1      21.048 -13.775   0.383  1.00  0.00     0.148 A 
ATOM     88  C   UNL     1      20.596 -15.081  -2.064  1.00  0.00     0.002 A 
ATOM     89  C   UNL     1      21.637 -15.007   0.126  1.00  0.00     0.091 A 
ATOM     90  F   UNL     1      21.218 -13.140   1.551  1.00  0.00    -0.205 F 
ATOM     91  C   UNL     1      21.402 -15.667  -1.091  1.00  0.00     0.022 A 
BRANCH  89  92
ATOM     92  S   UNL     1      22.767 -15.796   1.278  1.00  0.00     0.127 S 
ATOM     93  O   UNL     1      21.970 -16.927   1.749  1.00  0.00    -0.237 OA
ATOM     94  O   UNL     1      23.889 -16.158   0.412  1.00  0.00    -0.237 OA
ATOM     95  O   UNL     1      23.080 -14.792   2.286  1.00  0.00    -0.744 OA
ENDBRANCH  89  92
ENDBRANCH  62  85
ENDBRANCH  36  37
ENDBRANCH  28  31
ENDBRANCH  26  27
ENDBRANCH  25  26
ENDBRANCH  24  25
ENDBRANCH   3  24
TORSDOF 19
