REMARK SMILES N#C/C(=C\c1ccc(-c2ccc(C(=O)NCCCNC(=O)c3ccc(-c4c5nc(c(-c6cccc(S(=O)(=O)[O-])c6F)c6ccc([nH]6)c(-c6cccc(S(=O)(=O)[O-])c6F)c6nc(c(-c7cccc(S(=O)(=O)[O-])c7F)c7ccc4[nH]7)C=C6)C=C5)cc3)cc2)o1)[C@@H]1N=c2cc(Br)cnc2=N1
REMARK SMILES IDX 17 1 16 2 15 3 13 4 14 5 12 7 9 8 10 9 86 10 11 11 85 12
REMARK SMILES IDX 8 13 5 14 6 15 87 16 7 17 4 18 3 19 2 20 1 21 88 22 89 23
REMARK SMILES IDX 97 24 90 25 96 26 91 27 95 28 92 29 94 30 93 31 18 32 19 33
REMARK SMILES IDX 20 34 21 36 22 37 23 38 84 39 24 40 83 41 25 42 26 43 27 44
REMARK SMILES IDX 77 45 28 46 82 47 76 48 78 49 29 50 81 51 75 52 74 53 30 55
REMARK SMILES IDX 62 56 42 57 61 58 43 59 46 60 60 61 79 62 44 63 45 64 59 66
REMARK SMILES IDX 80 67 47 68 31 69 32 70 40 71 33 72 35 73 41 74 34 75 36 76
REMARK SMILES IDX 37 77 38 78 39 79 63 80 64 81 72 82 65 83 67 84 73 85 66 86
REMARK SMILES IDX 68 87 69 88 70 89 71 90 48 91 49 92 57 93 50 94 52 95 58 96
REMARK SMILES IDX 51 97 53 98 54 99 55 100 56 101
REMARK H PARENT 15 6 19 35 78 54 46 65
REMARK Flexibility Score: inf
ROOT
ATOM      1  C   UNL     1      17.070  -1.784   3.227  1.00  0.00     0.042 C 
ENDROOT
BRANCH   1   2
ATOM      2  C   UNL     1      16.791  -0.433   2.569  1.00  0.00     0.118 C 
BRANCH   2   3
ATOM      3  N   UNL     1      16.789  -0.550   1.121  1.00  0.00    -0.352 N 
ATOM      4  C   UNL     1      15.779  -0.630   0.197  1.00  0.00     0.251 C 
ATOM      5  O   UNL     1      16.100  -0.670  -0.992  1.00  0.00    -0.269 OA
ATOM      6  H   UNL     1      17.691  -0.578   0.725  1.00  0.00     0.163 HD
BRANCH   4   7
ATOM      7  C   UNL     1      14.335  -0.587   0.559  1.00  0.00     0.039 A 
ATOM      8  C   UNL     1      11.614  -0.214   1.166  1.00  0.00     0.017 A 
ATOM      9  C   UNL     1      12.085   0.070  -0.116  1.00  0.00     0.013 A 
ATOM     10  C   UNL     1      12.483  -0.766   2.110  1.00  0.00     0.013 A 
ATOM     11  C   UNL     1      13.442  -0.104  -0.412  1.00  0.00     0.014 A 
ATOM     12  C   UNL     1      13.822  -0.990   1.792  1.00  0.00     0.014 A 
BRANCH   8  13
ATOM     13  C   UNL     1      10.255   0.077   1.560  1.00  0.00     0.134 A 
ATOM     14  C   UNL     1       8.079  -0.323   1.539  1.00  0.00     0.128 A 
ATOM     15  C   UNL     1       8.329   0.646   2.506  1.00  0.00     0.051 A 
ATOM     16  O   UNL     1       9.283  -0.656   0.962  1.00  0.00    -0.457 OA
ATOM     17  C   UNL     1       9.715   0.908   2.511  1.00  0.00     0.051 A 
BRANCH  14  18
ATOM     18  C   UNL     1       6.868  -0.979   1.191  1.00  0.00     0.066 C 
ATOM     19  C   UNL     1       5.681  -0.359   1.038  1.00  0.00     0.080 C 
BRANCH  19  20
ATOM     20  C   UNL     1       5.557   1.065   1.086  1.00  0.00     0.099 C 
ATOM     21  N   UNL     1       5.447   2.218   1.114  1.00  0.00    -0.193 NA
ENDBRANCH  19  20
BRANCH  19  22
ATOM     22  C   UNL     1       4.395  -1.112   0.789  1.00  0.00     0.265 C 
ATOM     23  N   UNL     1       3.729  -1.348   2.105  1.00  0.00    -0.249 NA
ATOM     24  N   UNL     1       4.615  -2.403   0.082  1.00  0.00    -0.232 NA
ATOM     25  C   UNL     1       3.614  -2.627   2.130  1.00  0.00     0.106 A 
ATOM     26  C   UNL     1       4.124  -3.269   0.900  1.00  0.00     0.175 A 
ATOM     27  C   UNL     1       3.072  -3.494   3.173  1.00  0.00     0.049 A 
ATOM     28  N   UNL     1       4.090  -4.607   0.652  1.00  0.00    -0.234 NA
ATOM     29  C   UNL     1       3.065  -4.811   2.926  1.00  0.00     0.038 A 
ATOM     30  C   UNL     1       3.595  -5.317   1.618  1.00  0.00     0.129 A 
ATOM     31  Br  UNL     1       2.407  -6.059   4.136  1.00  0.00    -0.049 Br
ENDBRANCH  19  22
ENDBRANCH  14  18
ENDBRANCH   8  13
ENDBRANCH   4   7
ENDBRANCH   2   3
ENDBRANCH   1   2
BRANCH   1  32
ATOM     32  C   UNL     1      18.537  -2.195   3.132  1.00  0.00     0.118 C 
BRANCH  32  33
ATOM     33  N   UNL     1      19.401  -1.292   3.886  1.00  0.00    -0.352 N 
ATOM     34  C   UNL     1      20.183  -1.534   4.986  1.00  0.00     0.251 C 
ATOM     35  H   UNL     1      19.425  -0.365   3.554  1.00  0.00     0.163 HD
ATOM     36  O   UNL     1      20.628  -0.590   5.635  1.00  0.00    -0.269 OA
BRANCH  34  37
ATOM     37  C   UNL     1      20.485  -2.921   5.392  1.00  0.00     0.039 A 
ATOM     38  C   UNL     1      20.441  -3.256   6.747  1.00  0.00     0.014 A 
ATOM     39  C   UNL     1      20.824  -3.884   4.438  1.00  0.00     0.014 A 
ATOM     40  C   UNL     1      20.658  -4.578   7.138  1.00  0.00     0.010 A 
ATOM     41  C   UNL     1      20.966  -5.213   4.821  1.00  0.00     0.010 A 
ATOM     42  C   UNL     1      20.873  -5.575   6.173  1.00  0.00    -0.014 A 
BRANCH  42  43
ATOM     43  C   UNL     1      20.939  -7.010   6.547  1.00  0.00     0.031 A 
ATOM     44  C   UNL     1      22.183  -7.810   6.284  1.00  0.00     0.074 A 
ATOM     45  C   UNL     1      19.832  -7.613   7.024  1.00  0.00     0.049 A 
ATOM     46  N   UNL     1      22.385  -9.091   6.448  1.00  0.00    -0.248 NA
ATOM     47  C   UNL     1      23.344  -7.082   5.749  1.00  0.00     0.031 C 
ATOM     48  C   UNL     1      18.547  -6.951   7.264  1.00  0.00     0.029 A 
ATOM     49  N   UNL     1      19.596  -8.924   7.357  1.00  0.00    -0.354 N 
ATOM     50  C   UNL     1      23.680  -9.331   6.005  1.00  0.00     0.074 A 
ATOM     51  C   UNL     1      24.209  -8.066   5.544  1.00  0.00     0.031 C 
ATOM     52  C   UNL     1      17.660  -7.857   7.701  1.00  0.00     0.029 A 
ATOM     53  C   UNL     1      18.293  -9.171   7.721  1.00  0.00     0.049 A 
ATOM     54  H   UNL     1      20.292  -9.619   7.337  1.00  0.00     0.167 HD
ATOM     55  C   UNL     1      24.369 -10.497   5.998  1.00  0.00     0.034 A 
ATOM     56  C   UNL     1      17.665 -10.329   8.007  1.00  0.00     0.034 A 
ATOM     57  C   UNL     1      23.838 -11.748   6.470  1.00  0.00     0.049 A 
ATOM     58  C   UNL     1      18.450 -11.611   7.971  1.00  0.00     0.074 A 
ATOM     59  C   UNL     1      24.485 -12.967   6.580  1.00  0.00     0.029 A 
ATOM     60  N   UNL     1      22.530 -11.952   6.879  1.00  0.00    -0.354 N 
ATOM     61  N   UNL     1      19.720 -11.793   7.702  1.00  0.00    -0.248 NA
ATOM     62  C   UNL     1      17.722 -12.846   8.299  1.00  0.00     0.031 C 
ATOM     63  C   UNL     1      23.552 -13.919   7.003  1.00  0.00     0.029 A 
ATOM     64  C   UNL     1      22.338 -13.283   7.207  1.00  0.00     0.049 A 
ATOM     65  H   UNL     1      21.838 -11.253   6.928  1.00  0.00     0.167 HD
ATOM     66  C   UNL     1      19.949 -13.156   7.851  1.00  0.00     0.074 A 
ATOM     67  C   UNL     1      18.693 -13.748   8.264  1.00  0.00     0.031 C 
ATOM     68  C   UNL     1      21.092 -13.856   7.650  1.00  0.00     0.034 A 
BRANCH  55  69
ATOM     69  C   UNL     1      25.783 -10.476   5.478  1.00  0.00     0.023 A 
ATOM     70  C   UNL     1      26.794  -9.826   6.215  1.00  0.00     0.012 A 
ATOM     71  C   UNL     1      26.122 -11.155   4.291  1.00  0.00     0.148 A 
ATOM     72  C   UNL     1      28.113  -9.821   5.761  1.00  0.00     0.002 A 
ATOM     73  C   UNL     1      27.446 -11.188   3.871  1.00  0.00     0.091 A 
ATOM     74  F   UNL     1      25.145 -11.754   3.596  1.00  0.00    -0.205 F 
ATOM     75  C   UNL     1      28.440 -10.510   4.596  1.00  0.00     0.022 A 
BRANCH  73  76
ATOM     76  S   UNL     1      27.985 -12.115   2.431  1.00  0.00     0.127 S 
ATOM     77  O   UNL     1      28.396 -11.041   1.527  1.00  0.00    -0.237 OA
ATOM     78  O   UNL     1      29.087 -12.909   2.974  1.00  0.00    -0.237 OA
ATOM     79  O   UNL     1      26.832 -12.889   1.993  1.00  0.00    -0.744 OA
ENDBRANCH  73  76
ENDBRANCH  55  69
BRANCH  56  80
ATOM     80  C   UNL     1      16.218 -10.325   8.363  1.00  0.00     0.023 A 
ATOM     81  C   UNL     1      15.823 -10.661   9.672  1.00  0.00     0.012 A 
ATOM     82  C   UNL     1      15.234  -9.976   7.417  1.00  0.00     0.148 A 
ATOM     83  C   UNL     1      14.473 -10.685  10.023  1.00  0.00     0.002 A 
ATOM     84  C   UNL     1      13.896  -9.942   7.790  1.00  0.00     0.091 A 
ATOM     85  F   UNL     1      15.629  -9.665   6.175  1.00  0.00    -0.205 F 
ATOM     86  C   UNL     1      13.511 -10.317   9.086  1.00  0.00     0.022 A 
BRANCH  84  87
ATOM     87  S   UNL     1      12.601  -9.357   6.691  1.00  0.00     0.127 S 
ATOM     88  O   UNL     1      11.822 -10.573   6.471  1.00  0.00    -0.237 OA
ATOM     89  O   UNL     1      11.942  -8.344   7.517  1.00  0.00    -0.237 OA
ATOM     90  O   UNL     1      13.284  -8.826   5.520  1.00  0.00    -0.744 OA
ENDBRANCH  84  87
ENDBRANCH  56  80
BRANCH  68  91
ATOM     91  C   UNL     1      21.056 -15.344   7.888  1.00  0.00     0.023 A 
ATOM     92  C   UNL     1      20.371 -16.183   6.987  1.00  0.00     0.012 A 
ATOM     93  C   UNL     1      21.776 -15.916   8.955  1.00  0.00     0.148 A 
ATOM     94  C   UNL     1      20.382 -17.566   7.159  1.00  0.00     0.002 A 
ATOM     95  C   UNL     1      21.827 -17.298   9.090  1.00  0.00     0.091 A 
ATOM     96  F   UNL     1      22.411 -15.099   9.808  1.00  0.00    -0.205 F 
ATOM     97  C   UNL     1      21.120 -18.124   8.200  1.00  0.00     0.022 A 
BRANCH  95  98
ATOM     98  S   UNL     1      22.823 -18.115  10.342  1.00  0.00     0.127 S 
ATOM     99  O   UNL     1      21.799 -18.769  11.156  1.00  0.00    -0.237 OA
ATOM    100  O   UNL     1      23.638 -19.026   9.538  1.00  0.00    -0.237 OA
ATOM    101  O   UNL     1      23.569 -17.063  11.018  1.00  0.00    -0.744 OA
ENDBRANCH  95  98
ENDBRANCH  68  91
ENDBRANCH  42  43
ENDBRANCH  34  37
ENDBRANCH  32  33
ENDBRANCH   1  32
TORSDOF 17
