REMARK SMILES O=C(NCCCNC(=O)c1ccnc(-n2cnnn2)c1)c1ccc(-c2c3nc(c(-c4cccc(S(=O)(=O)[O-])c4F)c4ccc([nH]4)c(-c4cccc(S(=O)(=O)[O-])c4F)c4nc(c(-c5cccc(S(=O)(=O)[O-])c5F)c5ccc2[nH]5)C=C4)C=C3)cc1
REMARK SMILES IDX 4 1 3 2 1 3 2 4 21 6 22 7 83 8 23 9 82 10 24 11 25 12 26 13
REMARK SMILES IDX 76 14 27 15 81 16 75 17 77 18 28 19 80 20 74 21 73 22 29 24
REMARK SMILES IDX 61 25 41 26 60 27 42 28 45 29 59 30 78 31 43 32 44 33 58 35
REMARK SMILES IDX 79 36 46 37 30 38 31 39 39 40 32 41 34 42 40 43 33 44 35 45
REMARK SMILES IDX 36 46 37 47 38 48 62 49 63 50 71 51 64 52 66 53 72 54 65 55
REMARK SMILES IDX 67 56 68 57 69 58 70 59 47 60 48 61 56 62 49 63 51 64 57 65
REMARK SMILES IDX 50 66 52 67 53 68 54 69 55 70 5 71 6 72 7 73 8 74 9 76 10 77
REMARK SMILES IDX 11 78 20 79 12 80 14 81 13 82 15 83 16 84 19 85 17 86 18 87
REMARK H PARENT 3 5 77 23 45 34 7 75
REMARK Flexibility Score: inf
ROOT
ATOM      1  C   UNL     1       4.747  -1.139   0.189  1.00  0.00     0.118 C 
ENDROOT
BRANCH   1   2
ATOM      2  N   UNL     1       3.344  -1.062  -0.161  1.00  0.00    -0.352 N 
ATOM      3  O   UNL     1       1.317  -0.322  -0.602  1.00  0.00    -0.269 OA
ATOM      4  C   UNL     1       2.352  -0.144   0.045  1.00  0.00     0.251 C 
ATOM      5  H   UNL     1       3.034  -1.851  -0.661  1.00  0.00     0.163 HD
BRANCH   4   6
ATOM      6  C   UNL     1       2.405   0.960   1.040  1.00  0.00     0.039 A 
ATOM      7  C   UNL     1       3.562   1.472   1.630  1.00  0.00     0.014 A 
ATOM      8  C   UNL     1       1.159   1.498   1.416  1.00  0.00     0.014 A 
ATOM      9  C   UNL     1       3.471   2.424   2.644  1.00  0.00     0.010 A 
ATOM     10  C   UNL     1       1.063   2.455   2.418  1.00  0.00     0.010 A 
ATOM     11  C   UNL     1       2.220   2.896   3.052  1.00  0.00    -0.014 A 
BRANCH  11  12
ATOM     12  C   UNL     1       2.169   4.048   3.953  1.00  0.00     0.031 A 
ATOM     13  C   UNL     1       2.675   5.296   3.313  1.00  0.00     0.074 A 
ATOM     14  C   UNL     1       1.571   4.036   5.163  1.00  0.00     0.049 A 
ATOM     15  N   UNL     1       3.715   5.992   3.642  1.00  0.00    -0.248 NA
ATOM     16  C   UNL     1       2.053   5.719   2.047  1.00  0.00     0.031 C 
ATOM     17  C   UNL     1       0.804   2.934   5.748  1.00  0.00     0.029 A 
ATOM     18  N   UNL     1       1.394   5.048   6.069  1.00  0.00    -0.354 N 
ATOM     19  C   UNL     1       3.701   7.093   2.784  1.00  0.00     0.074 A 
ATOM     20  C   UNL     1       2.832   6.742   1.696  1.00  0.00     0.031 C 
ATOM     21  C   UNL     1       0.049   3.406   6.764  1.00  0.00     0.029 A 
ATOM     22  C   UNL     1       0.358   4.810   6.976  1.00  0.00     0.049 A 
ATOM     23  H   UNL     1       1.943   5.864   6.080  1.00  0.00     0.167 HD
ATOM     24  C   UNL     1       4.131   8.313   3.210  1.00  0.00     0.034 A 
ATOM     25  C   UNL     1      -0.261   5.714   7.780  1.00  0.00     0.034 A 
ATOM     26  C   UNL     1       4.972   8.184   4.376  1.00  0.00     0.049 A 
ATOM     27  C   UNL     1       0.630   6.885   7.902  1.00  0.00     0.074 A 
ATOM     28  C   UNL     1       6.129   7.503   4.696  1.00  0.00     0.029 A 
ATOM     29  N   UNL     1       4.410   8.560   5.569  1.00  0.00    -0.354 N 
ATOM     30  N   UNL     1       1.764   6.867   8.539  1.00  0.00    -0.248 NA
ATOM     31  C   UNL     1       0.442   7.991   6.979  1.00  0.00     0.031 C 
ATOM     32  C   UNL     1       5.973   7.127   6.063  1.00  0.00     0.029 A 
ATOM     33  C   UNL     1       4.766   7.655   6.524  1.00  0.00     0.049 A 
ATOM     34  H   UNL     1       3.844   9.353   5.713  1.00  0.00     0.167 HD
ATOM     35  C   UNL     1       2.601   7.638   7.749  1.00  0.00     0.074 A 
ATOM     36  C   UNL     1       1.705   8.412   6.891  1.00  0.00     0.031 C 
ATOM     37  C   UNL     1       3.931   7.343   7.660  1.00  0.00     0.034 A 
BRANCH  24  38
ATOM     38  C   UNL     1       3.422   9.629   2.902  1.00  0.00     0.023 A 
ATOM     39  C   UNL     1       3.992  10.801   3.457  1.00  0.00     0.012 A 
ATOM     40  C   UNL     1       2.102   9.750   2.404  1.00  0.00     0.148 A 
ATOM     41  C   UNL     1       3.254  11.979   3.619  1.00  0.00     0.002 A 
ATOM     42  C   UNL     1       1.397  10.945   2.499  1.00  0.00     0.091 A 
ATOM     43  F   UNL     1       1.454   8.687   1.930  1.00  0.00    -0.205 F 
ATOM     44  C   UNL     1       1.952  12.050   3.144  1.00  0.00     0.022 A 
BRANCH  42  45
ATOM     45  S   UNL     1      -0.279  11.108   1.863  1.00  0.00     0.127 S 
ATOM     46  O   UNL     1      -1.046  11.233   3.099  1.00  0.00    -0.237 OA
ATOM     47  O   UNL     1      -0.172  12.332   1.069  1.00  0.00    -0.237 OA
ATOM     48  O   UNL     1      -0.527   9.905   1.079  1.00  0.00    -0.744 OA
ENDBRANCH  42  45
ENDBRANCH  24  38
BRANCH  25  49
ATOM     49  C   UNL     1      -1.660   5.776   8.279  1.00  0.00     0.023 A 
ATOM     50  C   UNL     1      -1.982   6.627   9.360  1.00  0.00     0.012 A 
ATOM     51  C   UNL     1      -2.724   5.242   7.522  1.00  0.00     0.148 A 
ATOM     52  C   UNL     1      -3.310   6.966   9.647  1.00  0.00     0.002 A 
ATOM     53  C   UNL     1      -4.043   5.574   7.817  1.00  0.00     0.091 A 
ATOM     54  F   UNL     1      -2.440   4.487   6.453  1.00  0.00    -0.205 F 
ATOM     55  C   UNL     1      -4.341   6.447   8.870  1.00  0.00     0.022 A 
BRANCH  53  56
ATOM     56  S   UNL     1      -5.422   4.958   6.841  1.00  0.00     0.127 S 
ATOM     57  O   UNL     1      -6.338   4.481   7.878  1.00  0.00    -0.237 OA
ATOM     58  O   UNL     1      -5.862   6.163   6.143  1.00  0.00    -0.237 OA
ATOM     59  O   UNL     1      -4.873   3.903   5.998  1.00  0.00    -0.744 OA
ENDBRANCH  53  56
ENDBRANCH  25  49
BRANCH  37  60
ATOM     60  C   UNL     1       4.527   6.438   8.703  1.00  0.00     0.023 A 
ATOM     61  C   UNL     1       4.117   5.102   8.893  1.00  0.00     0.012 A 
ATOM     62  C   UNL     1       5.633   6.920   9.421  1.00  0.00     0.148 A 
ATOM     63  C   UNL     1       4.782   4.276   9.804  1.00  0.00     0.002 A 
ATOM     64  C   UNL     1       6.323   6.082  10.285  1.00  0.00     0.091 A 
ATOM     65  F   UNL     1       6.006   8.195   9.231  1.00  0.00    -0.205 F 
ATOM     66  C   UNL     1       5.895   4.762  10.489  1.00  0.00     0.022 A 
BRANCH  64  67
ATOM     67  S   UNL     1       7.831   6.622  11.091  1.00  0.00     0.127 S 
ATOM     68  O   UNL     1       7.370   6.896  12.449  1.00  0.00    -0.237 OA
ATOM     69  O   UNL     1       8.695   5.447  10.961  1.00  0.00    -0.237 OA
ATOM     70  O   UNL     1       8.293   7.781  10.336  1.00  0.00    -0.744 OA
ENDBRANCH  64  67
ENDBRANCH  37  60
ENDBRANCH  11  12
ENDBRANCH   4   6
ENDBRANCH   1   2
BRANCH   1  71
ATOM     71  C   UNL     1       5.047  -1.617   1.609  1.00  0.00     0.042 C 
BRANCH  71  72
ATOM     72  C   UNL     1       4.474  -2.990   1.954  1.00  0.00     0.118 C 
BRANCH  72  73
ATOM     73  N   UNL     1       5.046  -4.051   1.137  1.00  0.00    -0.352 N 
ATOM     74  C   UNL     1       5.916  -5.045   1.475  1.00  0.00     0.251 C 
ATOM     75  H   UNL     1       4.760  -4.051   0.195  1.00  0.00     0.163 HD
ATOM     76  O   UNL     1       6.450  -5.731   0.596  1.00  0.00    -0.269 OA
BRANCH  74  77
ATOM     77  C   UNL     1       6.250  -5.325   2.882  1.00  0.00     0.045 A 
ATOM     78  C   UNL     1       5.251  -5.560   3.823  1.00  0.00     0.034 A 
ATOM     79  C   UNL     1       7.595  -5.475   3.225  1.00  0.00     0.063 A 
ATOM     80  C   UNL     1       5.645  -5.927   5.093  1.00  0.00     0.114 A 
ATOM     81  C   UNL     1       7.898  -5.864   4.524  1.00  0.00     0.157 A 
ATOM     82  N   UNL     1       6.934  -6.104   5.452  1.00  0.00    -0.237 NA
BRANCH  81  83
ATOM     83  N   UNL     1       9.253  -6.044   4.901  1.00  0.00    -0.182 N 
ATOM     84  C   UNL     1      10.388  -5.555   4.306  1.00  0.00     0.254 A 
ATOM     85  N   UNL     1       9.630  -6.790   5.965  1.00  0.00    -0.039 NA
ATOM     86  N   UNL     1      11.444  -6.034   4.922  1.00  0.00    -0.117 NA
ATOM     87  N   UNL     1      10.956  -6.808   5.944  1.00  0.00    -0.024 NA
ENDBRANCH  81  83
ENDBRANCH  74  77
ENDBRANCH  72  73
ENDBRANCH  71  72
ENDBRANCH   1  71
TORSDOF 14
