REMARK SMILES CC(=O)N[C@@H](C)C(=O)N1CCC[C@H]1C(=O)NCCCNC(=O)c1ccc(-c2c3nc(c(-c4cccc(S(=O)(=O)[O-])c4F)c4ccc([nH]4)c(-c4cccc(S(=O)(=O)[O-])c4F)c4nc(c(-c5cccc(S(=O)(=O)[O-])c5F)c5ccc2[nH]5)C=C4)C=C3)cc1
REMARK SMILES IDX 18 1 17 2 16 3 14 4 15 5 13 7 9 8 10 9 11 10 12 11 7 12 8 13
REMARK SMILES IDX 5 14 6 15 4 16 1 17 2 18 3 19 19 21 20 22 21 23 22 25 23 26
REMARK SMILES IDX 24 27 85 28 25 29 84 30 26 31 27 32 28 33 78 34 29 35 83 36
REMARK SMILES IDX 77 37 79 38 30 39 82 40 76 41 75 42 31 44 63 45 43 46 62 47
REMARK SMILES IDX 44 48 47 49 61 50 80 51 45 52 46 53 60 55 81 56 48 57 32 58
REMARK SMILES IDX 33 59 41 60 34 61 36 62 42 63 35 64 37 65 38 66 39 67 40 68
REMARK SMILES IDX 64 69 65 70 73 71 66 72 68 73 74 74 67 75 69 76 70 77 71 78
REMARK SMILES IDX 72 79 49 80 50 81 58 82 51 83 53 84 59 85 52 86 54 87 55 88
REMARK SMILES IDX 56 89 57 90
REMARK H PARENT 16 6 4 20 20 24 79 43 47 54
REMARK Flexibility Score: inf
ROOT
ATOM      1  C   UNL     1      -2.021   9.182  -2.877  1.00  0.00     0.042 C 
ENDROOT
BRANCH   1   2
ATOM      2  C   UNL     1      -0.858   9.059  -1.891  1.00  0.00     0.117 C 
BRANCH   2   3
ATOM      3  N   UNL     1      -1.106   8.018  -0.909  1.00  0.00    -0.354 N 
ATOM      4  C   UNL     1      -0.735   6.701  -0.877  1.00  0.00     0.242 C 
ATOM      5  O   UNL     1      -1.259   6.012   0.002  1.00  0.00    -0.273 OA
ATOM      6  H   UNL     1      -1.634   8.310  -0.131  1.00  0.00     0.163 HD
BRANCH   4   7
ATOM      7  C   UNL     1       0.369   6.153  -1.825  1.00  0.00     0.174 C 
ATOM      8  N   UNL     1       0.456   4.677  -1.801  1.00  0.00    -0.329 N 
ATOM      9  C   UNL     1      -0.120   4.145  -3.018  1.00  0.00     0.120 C 
ATOM     10  C   UNL     1       0.331   5.150  -4.050  1.00  0.00     0.024 C 
ATOM     11  C   UNL     1       0.146   6.465  -3.315  1.00  0.00     0.037 C 
BRANCH   8  12
ATOM     12  C   UNL     1       1.139   4.040  -0.788  1.00  0.00     0.245 C 
ATOM     13  O   UNL     1       1.553   4.697   0.180  1.00  0.00    -0.272 OA
BRANCH  12  14
ATOM     14  C   UNL     1       1.723   2.608  -0.977  1.00  0.00     0.168 C 
ATOM     15  C   UNL     1       3.056   2.788  -1.710  1.00  0.00     0.041 C 
BRANCH  14  16
ATOM     16  N   UNL     1       0.966   1.546  -1.640  1.00  0.00    -0.345 N 
ATOM     17  C   UNL     1       0.951  -0.059   0.233  1.00  0.00     0.114 C 
ATOM     18  C   UNL     1       0.609   0.319  -1.176  1.00  0.00     0.217 C 
ATOM     19  O   UNL     1       0.049  -0.466  -1.940  1.00  0.00    -0.275 OA
ATOM     20  H   UNL     1       0.671   1.750  -2.557  1.00  0.00     0.164 HD
ENDBRANCH  14  16
ENDBRANCH  12  14
ENDBRANCH   8  12
ENDBRANCH   4   7
ENDBRANCH   2   3
ENDBRANCH   1   2
BRANCH   1  21
ATOM     21  C   UNL     1      -3.280   9.784  -2.266  1.00  0.00     0.118 C 
BRANCH  21  22
ATOM     22  N   UNL     1      -3.136  11.209  -2.003  1.00  0.00    -0.352 N 
ATOM     23  C   UNL     1      -3.877  12.259  -2.488  1.00  0.00     0.251 C 
ATOM     24  H   UNL     1      -2.405  11.454  -1.391  1.00  0.00     0.163 HD
ATOM     25  O   UNL     1      -3.481  13.411  -2.322  1.00  0.00    -0.269 OA
BRANCH  23  26
ATOM     26  C   UNL     1      -5.136  12.003  -3.222  1.00  0.00     0.039 A 
ATOM     27  C   UNL     1      -5.394  12.712  -4.399  1.00  0.00     0.014 A 
ATOM     28  C   UNL     1      -6.059  11.065  -2.752  1.00  0.00     0.014 A 
ATOM     29  C   UNL     1      -6.545  12.430  -5.140  1.00  0.00     0.010 A 
ATOM     30  C   UNL     1      -7.163  10.732  -3.530  1.00  0.00     0.010 A 
ATOM     31  C   UNL     1      -7.420  11.411  -4.731  1.00  0.00    -0.014 A 
BRANCH  31  32
ATOM     32  C   UNL     1      -8.602  11.020  -5.542  1.00  0.00     0.031 A 
ATOM     33  C   UNL     1      -9.986  11.142  -4.965  1.00  0.00     0.074 A 
ATOM     34  C   UNL     1      -8.421  10.441  -6.746  1.00  0.00     0.049 A 
ATOM     35  N   UNL     1     -11.125  10.735  -5.459  1.00  0.00    -0.248 NA
ATOM     36  C   UNL     1     -10.100  11.779  -3.642  1.00  0.00     0.031 C 
ATOM     37  C   UNL     1      -7.125  10.199  -7.383  1.00  0.00     0.029 A 
ATOM     38  N   UNL     1      -9.328   9.911  -7.631  1.00  0.00    -0.354 N 
ATOM     39  C   UNL     1     -12.083  11.020  -4.493  1.00  0.00     0.074 A 
ATOM     40  C   UNL     1     -11.387  11.613  -3.372  1.00  0.00     0.031 C 
ATOM     41  C   UNL     1      -7.319   9.562  -8.548  1.00  0.00     0.029 A 
ATOM     42  C   UNL     1      -8.746   9.314  -8.725  1.00  0.00     0.049 A 
ATOM     43  H   UNL     1     -10.303   9.954  -7.495  1.00  0.00     0.167 HD
ATOM     44  C   UNL     1     -13.422  10.826  -4.542  1.00  0.00     0.034 A 
ATOM     45  C   UNL     1      -9.295   8.625  -9.745  1.00  0.00     0.034 A 
ATOM     46  C   UNL     1     -14.113  10.276  -5.676  1.00  0.00     0.049 A 
ATOM     47  C   UNL     1     -10.789   8.459  -9.796  1.00  0.00     0.074 A 
ATOM     48  C   UNL     1     -15.476  10.127  -5.863  1.00  0.00     0.029 A 
ATOM     49  N   UNL     1     -13.497   9.775  -6.812  1.00  0.00    -0.354 N 
ATOM     50  N   UNL     1     -11.693   8.872  -8.941  1.00  0.00    -0.248 NA
ATOM     51  C   UNL     1     -11.344   7.764 -10.967  1.00  0.00     0.031 C 
ATOM     52  C   UNL     1     -15.682   9.509  -7.100  1.00  0.00     0.029 A 
ATOM     53  C   UNL     1     -14.450   9.307  -7.700  1.00  0.00     0.049 A 
ATOM     54  H   UNL     1     -12.524   9.755  -6.965  1.00  0.00     0.167 HD
ATOM     55  C   UNL     1     -12.923   8.527  -9.490  1.00  0.00     0.074 A 
ATOM     56  C   UNL     1     -12.649   7.880 -10.757  1.00  0.00     0.031 C 
ATOM     57  C   UNL     1     -14.166   8.720  -8.985  1.00  0.00     0.034 A 
BRANCH  44  58
ATOM     58  C   UNL     1     -14.237  11.250  -3.347  1.00  0.00     0.023 A 
ATOM     59  C   UNL     1     -14.402  12.621  -3.064  1.00  0.00     0.012 A 
ATOM     60  C   UNL     1     -14.887  10.296  -2.539  1.00  0.00     0.148 A 
ATOM     61  C   UNL     1     -15.167  13.036  -1.974  1.00  0.00     0.002 A 
ATOM     62  C   UNL     1     -15.687  10.718  -1.484  1.00  0.00     0.091 A 
ATOM     63  F   UNL     1     -14.703   8.996  -2.810  1.00  0.00    -0.205 F 
ATOM     64  C   UNL     1     -15.817  12.085  -1.192  1.00  0.00     0.022 A 
BRANCH  62  65
ATOM     65  S   UNL     1     -16.633   9.577  -0.469  1.00  0.00     0.127 S 
ATOM     66  O   UNL     1     -15.905   9.635   0.797  1.00  0.00    -0.237 OA
ATOM     67  O   UNL     1     -17.952  10.210  -0.443  1.00  0.00    -0.237 OA
ATOM     68  O   UNL     1     -16.589   8.295  -1.158  1.00  0.00    -0.744 OA
ENDBRANCH  62  65
ENDBRANCH  44  58
BRANCH  45  69
ATOM     69  C   UNL     1      -8.425   8.089 -10.831  1.00  0.00     0.023 A 
ATOM     70  C   UNL     1      -8.478   8.675 -12.111  1.00  0.00     0.012 A 
ATOM     71  C   UNL     1      -7.523   7.034 -10.595  1.00  0.00     0.148 A 
ATOM     72  C   UNL     1      -7.671   8.198 -13.145  1.00  0.00     0.002 A 
ATOM     73  C   UNL     1      -6.680   6.603 -11.613  1.00  0.00     0.091 A 
ATOM     74  F   UNL     1      -7.493   6.486  -9.373  1.00  0.00    -0.205 F 
ATOM     75  C   UNL     1      -6.766   7.171 -12.894  1.00  0.00     0.022 A 
BRANCH  73  76
ATOM     76  S   UNL     1      -5.389   5.383 -11.345  1.00  0.00     0.127 S 
ATOM     77  O   UNL     1      -5.889   4.243 -12.108  1.00  0.00    -0.237 OA
ATOM     78  O   UNL     1      -4.221   6.049 -11.924  1.00  0.00    -0.237 OA
ATOM     79  O   UNL     1      -5.316   5.197  -9.902  1.00  0.00    -0.744 OA
ENDBRANCH  73  76
ENDBRANCH  45  69
BRANCH  57  80
ATOM     80  C   UNL     1     -15.341   8.283  -9.819  1.00  0.00     0.023 A 
ATOM     81  C   UNL     1     -15.637   6.913  -9.961  1.00  0.00     0.012 A 
ATOM     82  C   UNL     1     -16.206   9.241 -10.385  1.00  0.00     0.148 A 
ATOM     83  C   UNL     1     -16.763   6.503 -10.676  1.00  0.00     0.002 A 
ATOM     84  C   UNL     1     -17.353   8.827 -11.052  1.00  0.00     0.091 A 
ATOM     85  F   UNL     1     -15.896  10.539 -10.254  1.00  0.00    -0.205 F 
ATOM     86  C   UNL     1     -17.626   7.458 -11.209  1.00  0.00     0.022 A 
BRANCH  84  87
ATOM     87  S   UNL     1     -18.573   9.985 -11.681  1.00  0.00     0.127 S 
ATOM     88  O   UNL     1     -18.387   9.858 -13.126  1.00  0.00    -0.237 OA
ATOM     89  O   UNL     1     -19.825   9.422 -11.175  1.00  0.00    -0.237 OA
ATOM     90  O   UNL     1     -18.223  11.283 -11.120  1.00  0.00    -0.744 OA
ENDBRANCH  84  87
ENDBRANCH  57  80
ENDBRANCH  31  32
ENDBRANCH  23  26
ENDBRANCH  21  22
ENDBRANCH   1  21
TORSDOF 16
