REMARK SMILES CC(C)CSc1cc2c(cc1Cl)C=C(C(=O)NCCCNC(=O)c1ccc(-c3c4nc(c(-c5cccc(S(=O)(=O)[O-])c5F)c5ccc([nH]5)c(-c5cccc(S(=O)(=O)[O-])c5F)c5nc(c(-c6cccc(S(=O)(=O)[O-])c6F)c6ccc3[nH]6)C=C5)C=C4)cc1)[C@H](C(F)(F)F)O2
REMARK SMILES IDX 19 1 18 2 17 3 15 4 16 5 14 7 6 8 7 9 11 10 8 11 10 12 12 13
REMARK SMILES IDX 9 14 92 15 13 16 87 17 5 18 4 19 2 20 1 21 3 22 88 23 89 24
REMARK SMILES IDX 90 25 91 26 20 27 21 28 22 29 23 31 24 32 25 33 86 34 26 35
REMARK SMILES IDX 85 36 27 37 28 38 29 39 79 40 30 41 84 42 78 43 80 44 31 45
REMARK SMILES IDX 83 46 77 47 76 48 32 50 64 51 44 52 63 53 45 54 48 55 62 56
REMARK SMILES IDX 81 57 46 58 47 59 61 61 82 62 49 63 33 64 34 65 42 66 35 67
REMARK SMILES IDX 37 68 43 69 36 70 38 71 39 72 40 73 41 74 65 75 66 76 74 77
REMARK SMILES IDX 67 78 69 79 75 80 68 81 70 82 71 83 72 84 73 85 50 86 51 87
REMARK SMILES IDX 59 88 52 89 54 90 60 91 53 92 55 93 56 94 57 95 58 96
REMARK H PARENT 17 6 21 30 80 49 48 60
REMARK Flexibility Score: inf
ROOT
ATOM      1  C   UNL     1       1.115   3.972   8.977  1.00  0.00     0.042 C 
ENDROOT
BRANCH   1   2
ATOM      2  C   UNL     1       2.070   3.116   8.158  1.00  0.00     0.118 C 
BRANCH   2   3
ATOM      3  N   UNL     1       1.665   1.720   8.152  1.00  0.00    -0.352 N 
ATOM      4  C   UNL     1       1.064   0.861   7.300  1.00  0.00     0.251 C 
ATOM      5  O   UNL     1       0.953  -0.295   7.723  1.00  0.00    -0.270 OA
ATOM      6  H   UNL     1       1.893   1.279   9.002  1.00  0.00     0.163 HD
BRANCH   4   7
ATOM      7  C   UNL     1       0.553   1.199   5.940  1.00  0.00     0.067 C 
ATOM      8  C   UNL     1      -1.379   0.860   1.284  1.00  0.00     0.030 A 
ATOM      9  C   UNL     1      -0.782   1.884   2.033  1.00  0.00     0.063 A 
ATOM     10  C   UNL     1      -1.540  -0.401   1.885  1.00  0.00     0.055 A 
ATOM     11  C   UNL     1      -0.305   1.640   3.317  1.00  0.00     0.129 A 
ATOM     12  C   UNL     1      -1.031  -0.645   3.169  1.00  0.00     0.033 A 
ATOM     13  Cl  UNL     1      -2.380  -1.709   1.129  1.00  0.00    -0.083 Cl
ATOM     14  C   UNL     1      -0.403   0.374   3.884  1.00  0.00     0.019 A 
ATOM     15  O   UNL     1       0.306   2.682   3.950  1.00  0.00    -0.475 OA
ATOM     16  C   UNL     1       0.172   0.140   5.200  1.00  0.00     0.025 C 
ATOM     17  C   UNL     1       0.372   2.594   5.401  1.00  0.00     0.314 C 
BRANCH   8  18
ATOM     18  S   UNL     1      -1.861   1.323  -0.375  1.00  0.00    -0.124 SA
BRANCH  18  19
ATOM     19  C   UNL     1      -0.969   0.123  -1.430  1.00  0.00     0.078 C 
BRANCH  19  20
ATOM     20  C   UNL     1       0.566   0.228  -1.519  1.00  0.00    -0.007 C 
ATOM     21  C   UNL     1       1.308  -0.101  -0.224  1.00  0.00     0.008 C 
ATOM     22  C   UNL     1       1.048  -0.739  -2.609  1.00  0.00     0.008 C 
ENDBRANCH  19  20
ENDBRANCH  18  19
ENDBRANCH   8  18
BRANCH  17  23
ATOM     23  C   UNL     1      -0.809   3.355   6.034  1.00  0.00     0.429 C 
ATOM     24  F   UNL     1      -1.338   2.707   7.096  1.00  0.00    -0.167 F 
ATOM     25  F   UNL     1      -0.398   4.571   6.474  1.00  0.00    -0.167 F 
ATOM     26  F   UNL     1      -1.818   3.569   5.160  1.00  0.00    -0.167 F 
ENDBRANCH  17  23
ENDBRANCH   4   7
ENDBRANCH   2   3
ENDBRANCH   1   2
BRANCH   1  27
ATOM     27  C   UNL     1       1.347   3.838  10.476  1.00  0.00     0.118 C 
BRANCH  27  28
ATOM     28  N   UNL     1       2.600   4.458  10.894  1.00  0.00    -0.352 N 
ATOM     29  C   UNL     1       2.835   5.625  11.583  1.00  0.00     0.251 C 
ATOM     30  H   UNL     1       3.410   3.959  10.641  1.00  0.00     0.163 HD
ATOM     31  O   UNL     1       3.971   6.086  11.606  1.00  0.00    -0.269 OA
BRANCH  29  32
ATOM     32  C   UNL     1       1.727   6.328  12.268  1.00  0.00     0.039 A 
ATOM     33  C   UNL     1       0.724   5.610  12.917  1.00  0.00     0.014 A 
ATOM     34  C   UNL     1       1.695   7.726  12.277  1.00  0.00     0.014 A 
ATOM     35  C   UNL     1      -0.408   6.267  13.379  1.00  0.00     0.010 A 
ATOM     36  C   UNL     1       0.612   8.393  12.859  1.00  0.00     0.010 A 
ATOM     37  C   UNL     1      -0.476   7.668  13.367  1.00  0.00    -0.014 A 
BRANCH  37  38
ATOM     38  C   UNL     1      -1.681   8.337  13.923  1.00  0.00     0.031 A 
ATOM     39  C   UNL     1      -2.543   9.228  13.069  1.00  0.00     0.074 A 
ATOM     40  C   UNL     1      -2.023   8.102  15.206  1.00  0.00     0.049 A 
ATOM     41  N   UNL     1      -3.646   9.851  13.394  1.00  0.00    -0.248 NA
ATOM     42  C   UNL     1      -2.115   9.459  11.680  1.00  0.00     0.031 C 
ATOM     43  C   UNL     1      -1.259   7.272  16.141  1.00  0.00     0.029 A 
ATOM     44  N   UNL     1      -3.105   8.516  15.941  1.00  0.00    -0.354 N 
ATOM     45  C   UNL     1      -4.014  10.586  12.274  1.00  0.00     0.074 A 
ATOM     46  C   UNL     1      -3.019  10.332  11.256  1.00  0.00     0.031 C 
ATOM     47  C   UNL     1      -1.922   7.190  17.302  1.00  0.00     0.029 A 
ATOM     48  C   UNL     1      -3.121   8.016  17.221  1.00  0.00     0.049 A 
ATOM     49  H   UNL     1      -3.802   9.114  15.586  1.00  0.00     0.167 HD
ATOM     50  C   UNL     1      -5.090  11.390  12.106  1.00  0.00     0.034 A 
ATOM     51  C   UNL     1      -3.991   8.206  18.231  1.00  0.00     0.034 A 
ATOM     52  C   UNL     1      -6.108  11.598  13.100  1.00  0.00     0.049 A 
ATOM     53  C   UNL     1      -5.181   9.090  18.017  1.00  0.00     0.074 A 
ATOM     54  C   UNL     1      -7.273  12.336  12.989  1.00  0.00     0.029 A 
ATOM     55  N   UNL     1      -6.081  11.078  14.384  1.00  0.00    -0.354 N 
ATOM     56  N   UNL     1      -5.553   9.707  16.923  1.00  0.00    -0.248 NA
ATOM     57  C   UNL     1      -6.074   9.299  19.163  1.00  0.00     0.031 C 
ATOM     58  C   UNL     1      -7.937  12.287  14.217  1.00  0.00     0.029 A 
ATOM     59  C   UNL     1      -7.200  11.495  15.083  1.00  0.00     0.049 A 
ATOM     60  H   UNL     1      -5.372  10.499  14.745  1.00  0.00     0.167 HD
ATOM     61  C   UNL     1      -6.731  10.368  17.241  1.00  0.00     0.074 A 
ATOM     62  C   UNL     1      -7.018  10.066  18.629  1.00  0.00     0.031 C 
ATOM     63  C   UNL     1      -7.495  11.161  16.453  1.00  0.00     0.034 A 
BRANCH  50  64
ATOM     64  C   UNL     1      -5.249  12.095  10.787  1.00  0.00     0.023 A 
ATOM     65  C   UNL     1      -5.708  11.382   9.662  1.00  0.00     0.012 A 
ATOM     66  C   UNL     1      -5.033  13.484  10.688  1.00  0.00     0.148 A 
ATOM     67  C   UNL     1      -5.935  12.039   8.453  1.00  0.00     0.002 A 
ATOM     68  C   UNL     1      -5.292  14.137   9.489  1.00  0.00     0.091 A 
ATOM     69  F   UNL     1      -4.583  14.138  11.768  1.00  0.00    -0.205 F 
ATOM     70  C   UNL     1      -5.738  13.415   8.370  1.00  0.00     0.022 A 
BRANCH  68  71
ATOM     71  S   UNL     1      -5.121  15.914   9.293  1.00  0.00     0.127 S 
ATOM     72  O   UNL     1      -3.998  16.000   8.361  1.00  0.00    -0.237 OA
ATOM     73  O   UNL     1      -6.416  16.286   8.723  1.00  0.00    -0.237 OA
ATOM     74  O   UNL     1      -4.863  16.445  10.624  1.00  0.00    -0.744 OA
ENDBRANCH  68  71
ENDBRANCH  50  64
BRANCH  51  75
ATOM     75  C   UNL     1      -3.763   7.487  19.512  1.00  0.00     0.023 A 
ATOM     76  C   UNL     1      -4.527   6.341  19.802  1.00  0.00     0.012 A 
ATOM     77  C   UNL     1      -2.706   7.852  20.369  1.00  0.00     0.148 A 
ATOM     78  C   UNL     1      -4.235   5.563  20.922  1.00  0.00     0.002 A 
ATOM     79  C   UNL     1      -2.395   7.050  21.459  1.00  0.00     0.091 A 
ATOM     80  F   UNL     1      -1.990   8.942  20.059  1.00  0.00    -0.205 F 
ATOM     81  C   UNL     1      -3.163   5.909  21.742  1.00  0.00     0.022 A 
BRANCH  79  82
ATOM     82  S   UNL     1      -0.967   7.347  22.506  1.00  0.00     0.127 S 
ATOM     83  O   UNL     1      -1.589   7.521  23.817  1.00  0.00    -0.237 OA
ATOM     84  O   UNL     1      -0.215   6.103  22.341  1.00  0.00    -0.237 OA
ATOM     85  O   UNL     1      -0.315   8.532  21.966  1.00  0.00    -0.744 OA
ENDBRANCH  79  82
ENDBRANCH  51  75
BRANCH  63  86
ATOM     86  C   UNL     1      -8.737  11.765  17.045  1.00  0.00     0.023 A 
ATOM     87  C   UNL     1      -8.629  12.903  17.866  1.00  0.00     0.012 A 
ATOM     88  C   UNL     1     -10.009  11.293  16.668  1.00  0.00     0.148 A 
ATOM     89  C   UNL     1      -9.775  13.565  18.305  1.00  0.00     0.002 A 
ATOM     90  C   UNL     1     -11.145  11.978  17.080  1.00  0.00     0.091 A 
ATOM     91  F   UNL     1     -10.079  10.204  15.889  1.00  0.00    -0.205 F 
ATOM     92  C   UNL     1     -11.029  13.112  17.901  1.00  0.00     0.022 A 
BRANCH  90  93
ATOM     93  S   UNL     1     -12.799  11.518  16.553  1.00  0.00     0.127 S 
ATOM     94  O   UNL     1     -13.418  11.134  17.820  1.00  0.00    -0.237 OA
ATOM     95  O   UNL     1     -13.299  12.768  15.982  1.00  0.00    -0.237 OA
ATOM     96  O   UNL     1     -12.633  10.433  15.595  1.00  0.00    -0.744 OA
ENDBRANCH  90  93
ENDBRANCH  63  86
ENDBRANCH  37  38
ENDBRANCH  29  32
ENDBRANCH  27  28
ENDBRANCH   1  27
TORSDOF 17
