REMARK SMILES CC[C@H]([NH2+]C1c2ccccc2-c2ccccc21)C(=O)NCCCNC(=O)c1ccc(-c2c3nc(c(-c4cccc(S(=O)(=O)[O-])c4F)c4ccc([nH]4)c(-c4cccc(S(=O)(=O)[O-])c4F)c4nc(c(-c5cccc(S(=O)(=O)[O-])c5F)c5ccc2[nH]5)C=C4)C=C3)cc1
REMARK SMILES IDX 22 1 21 2 20 3 18 4 19 5 3 7 2 8 1 9 4 10 5 13 6 14 17 15
REMARK SMILES IDX 7 16 11 17 12 18 16 19 8 20 10 21 13 22 15 23 9 24 14 25
REMARK SMILES IDX 23 26 24 27 25 28 26 30 27 31 28 32 89 33 29 34 88 35 30 36
REMARK SMILES IDX 31 37 32 38 82 39 33 40 87 41 81 42 83 43 34 44 86 45 80 46
REMARK SMILES IDX 79 47 35 49 67 50 47 51 66 52 48 53 51 54 65 55 84 56 49 57
REMARK SMILES IDX 50 58 64 60 85 61 52 62 36 63 37 64 45 65 38 66 40 67 46 68
REMARK SMILES IDX 39 69 41 70 42 71 43 72 44 73 68 74 69 75 77 76 70 77 72 78
REMARK SMILES IDX 78 79 71 80 73 81 74 82 75 83 76 84 53 85 54 86 62 87 55 88
REMARK SMILES IDX 57 89 63 90 56 91 58 92 59 93 60 94 61 95
REMARK H PARENT 20 6 4 11 4 12 24 29 83 48 51 59
REMARK Flexibility Score: inf
ROOT
ATOM      1  C   UNL     1      -3.187   1.703  -2.708  1.00  0.00     0.042 C 
ENDROOT
BRANCH   1   2
ATOM      2  C   UNL     1      -2.252   0.576  -3.169  1.00  0.00     0.118 C 
BRANCH   2   3
ATOM      3  N   UNL     1      -1.067   1.016  -3.902  1.00  0.00    -0.351 N 
ATOM      4  C   UNL     1       0.274   0.885  -3.728  1.00  0.00     0.278 C 
ATOM      5  O   UNL     1       0.954   1.248  -4.703  1.00  0.00    -0.268 OA
ATOM      6  H   UNL     1      -1.293   1.526  -4.712  1.00  0.00     0.163 HD
BRANCH   4   7
ATOM      7  C   UNL     1       1.017   0.309  -2.494  1.00  0.00     0.273 C 
BRANCH   7   8
ATOM      8  C   UNL     1       1.050  -1.232  -2.441  1.00  0.00     0.072 C 
ATOM      9  C   UNL     1      -0.272  -1.975  -2.496  1.00  0.00     0.011 C 
ENDBRANCH   7   8
BRANCH   7  10
ATOM     10  N   UNL     1       0.869   0.951  -1.160  1.00  0.00    -0.326 N 
ATOM     11  H   UNL     1       1.780   1.333  -0.905  1.00  0.00     0.347 HD
ATOM     12  H   UNL     1       0.516   0.207  -0.558  1.00  0.00     0.347 HD
BRANCH  10  13
ATOM     13  C   UNL     1      -0.097   2.015  -1.020  1.00  0.00     0.246 C 
ATOM     14  C   UNL     1      -0.654   2.225   0.381  1.00  0.00     0.022 A 
ATOM     15  C   UNL     1       0.218   3.436  -1.464  1.00  0.00     0.022 A 
ATOM     16  C   UNL     1      -1.088   1.276   1.295  1.00  0.00     0.011 A 
ATOM     17  C   UNL     1      -0.913   3.601   0.574  1.00  0.00    -0.008 A 
ATOM     18  C   UNL     1      -0.393   4.340  -0.559  1.00  0.00    -0.008 A 
ATOM     19  C   UNL     1       0.804   3.908  -2.629  1.00  0.00     0.011 A 
ATOM     20  C   UNL     1      -1.795   1.718   2.416  1.00  0.00     0.001 A 
ATOM     21  C   UNL     1      -1.615   4.037   1.686  1.00  0.00     0.009 A 
ATOM     22  C   UNL     1      -0.471   5.695  -0.844  1.00  0.00     0.009 A 
ATOM     23  C   UNL     1       0.722   5.274  -2.918  1.00  0.00     0.001 A 
ATOM     24  C   UNL     1      -2.063   3.084   2.605  1.00  0.00     0.001 A 
ATOM     25  C   UNL     1       0.076   6.157  -2.042  1.00  0.00     0.001 A 
ENDBRANCH  10  13
ENDBRANCH   7  10
ENDBRANCH   4   7
ENDBRANCH   2   3
ENDBRANCH   1   2
BRANCH   1  26
ATOM     26  C   UNL     1      -3.595   2.688  -3.788  1.00  0.00     0.118 C 
BRANCH  26  27
ATOM     27  N   UNL     1      -4.596   2.122  -4.673  1.00  0.00    -0.352 N 
ATOM     28  C   UNL     1      -5.966   2.194  -4.614  1.00  0.00     0.251 C 
ATOM     29  H   UNL     1      -4.237   1.608  -5.432  1.00  0.00     0.163 HD
ATOM     30  O   UNL     1      -6.624   1.389  -5.270  1.00  0.00    -0.269 OA
BRANCH  28  31
ATOM     31  C   UNL     1      -6.661   3.207  -3.778  1.00  0.00     0.039 A 
ATOM     32  C   UNL     1      -7.887   2.867  -3.196  1.00  0.00     0.014 A 
ATOM     33  C   UNL     1      -6.172   4.506  -3.624  1.00  0.00     0.014 A 
ATOM     34  C   UNL     1      -8.596   3.813  -2.448  1.00  0.00     0.010 A 
ATOM     35  C   UNL     1      -6.824   5.413  -2.788  1.00  0.00     0.010 A 
ATOM     36  C   UNL     1      -8.062   5.092  -2.218  1.00  0.00    -0.014 A 
BRANCH  36  37
ATOM     37  C   UNL     1      -8.803   6.100  -1.410  1.00  0.00     0.031 A 
ATOM     38  C   UNL     1      -9.221   7.418  -2.015  1.00  0.00     0.074 A 
ATOM     39  C   UNL     1      -9.061   5.851  -0.110  1.00  0.00     0.049 A 
ATOM     40  N   UNL     1      -9.882   8.406  -1.466  1.00  0.00    -0.248 NA
ATOM     41  C   UNL     1      -8.819   7.678  -3.408  1.00  0.00     0.031 C 
ATOM     42  C   UNL     1      -8.621   4.664   0.625  1.00  0.00     0.029 A 
ATOM     43  N   UNL     1      -9.741   6.588   0.827  1.00  0.00    -0.354 N 
ATOM     44  C   UNL     1      -9.944   9.409  -2.428  1.00  0.00     0.074 A 
ATOM     45  C   UNL     1      -9.213   8.931  -3.580  1.00  0.00     0.031 C 
ATOM     46  C   UNL     1      -9.060   4.743   1.892  1.00  0.00     0.029 A 
ATOM     47  C   UNL     1      -9.791   5.993   2.066  1.00  0.00     0.049 A 
ATOM     48  H   UNL     1     -10.154   7.460   0.631  1.00  0.00     0.167 HD
ATOM     49  C   UNL     1     -10.584  10.602  -2.377  1.00  0.00     0.034 A 
ATOM     50  C   UNL     1     -10.367   6.403   3.213  1.00  0.00     0.034 A 
ATOM     51  C   UNL     1     -11.357  11.053  -1.252  1.00  0.00     0.049 A 
ATOM     52  C   UNL     1     -11.141   7.693   3.220  1.00  0.00     0.074 A 
ATOM     53  C   UNL     1     -12.119  12.202  -1.133  1.00  0.00     0.029 A 
ATOM     54  N   UNL     1     -11.469  10.375  -0.048  1.00  0.00    -0.354 N 
ATOM     55  N   UNL     1     -11.329   8.548   2.243  1.00  0.00    -0.248 NA
ATOM     56  C   UNL     1     -11.820   8.054   4.473  1.00  0.00     0.031 C 
ATOM     57  C   UNL     1     -12.679  12.226   0.149  1.00  0.00     0.029 A 
ATOM     58  C   UNL     1     -12.283  11.082   0.822  1.00  0.00     0.049 A 
ATOM     59  H   UNL     1     -11.033   9.517   0.159  1.00  0.00     0.167 HD
ATOM     60  C   UNL     1     -12.164   9.534   2.755  1.00  0.00     0.074 A 
ATOM     61  C   UNL     1     -12.475   9.150   4.117  1.00  0.00     0.031 C 
ATOM     62  C   UNL     1     -12.615  10.667   2.161  1.00  0.00     0.034 A 
BRANCH  49  63
ATOM     63  C   UNL     1     -10.534  11.476  -3.607  1.00  0.00     0.023 A 
ATOM     64  C   UNL     1     -11.246  11.087  -4.761  1.00  0.00     0.012 A 
ATOM     65  C   UNL     1      -9.836  12.700  -3.609  1.00  0.00     0.148 A 
ATOM     66  C   UNL     1     -11.232  11.879  -5.909  1.00  0.00     0.002 A 
ATOM     67  C   UNL     1      -9.864  13.506  -4.742  1.00  0.00     0.091 A 
ATOM     68  F   UNL     1      -9.150  13.047  -2.511  1.00  0.00    -0.205 F 
ATOM     69  C   UNL     1     -10.550  13.092  -5.896  1.00  0.00     0.022 A 
BRANCH  67  70
ATOM     70  S   UNL     1      -9.084  15.124  -4.804  1.00  0.00     0.127 S 
ATOM     71  O   UNL     1      -7.961  14.876  -5.707  1.00  0.00    -0.237 OA
ATOM     72  O   UNL     1     -10.147  15.957  -5.368  1.00  0.00    -0.237 OA
ATOM     73  O   UNL     1      -8.723  15.448  -3.431  1.00  0.00    -0.744 OA
ENDBRANCH  67  70
ENDBRANCH  49  63
BRANCH  50  74
ATOM     74  C   UNL     1     -10.301   5.539   4.426  1.00  0.00     0.023 A 
ATOM     75  C   UNL     1     -11.465   4.888   4.880  1.00  0.00     0.012 A 
ATOM     76  C   UNL     1      -9.086   5.323   5.105  1.00  0.00     0.148 A 
ATOM     77  C   UNL     1     -11.427   4.064   6.004  1.00  0.00     0.002 A 
ATOM     78  C   UNL     1      -9.043   4.453   6.189  1.00  0.00     0.091 A 
ATOM     79  F   UNL     1      -7.991   5.961   4.668  1.00  0.00    -0.205 F 
ATOM     80  C   UNL     1     -10.216   3.837   6.651  1.00  0.00     0.022 A 
BRANCH  78  81
ATOM     81  S   UNL     1      -7.501   3.993   6.987  1.00  0.00     0.127 S 
ATOM     82  O   UNL     1      -7.583   4.727   8.245  1.00  0.00    -0.237 OA
ATOM     83  O   UNL     1      -7.642   2.541   7.108  1.00  0.00    -0.237 OA
ATOM     84  O   UNL     1      -6.447   4.414   6.071  1.00  0.00    -0.744 OA
ENDBRANCH  78  81
ENDBRANCH  50  74
BRANCH  62  85
ATOM     85  C   UNL     1     -13.502  11.570   2.978  1.00  0.00     0.023 A 
ATOM     86  C   UNL     1     -12.948  12.314   4.040  1.00  0.00     0.012 A 
ATOM     87  C   UNL     1     -14.867  11.719   2.668  1.00  0.00     0.148 A 
ATOM     88  C   UNL     1     -13.749  13.159   4.807  1.00  0.00     0.002 A 
ATOM     89  C   UNL     1     -15.649  12.600   3.407  1.00  0.00     0.091 A 
ATOM     90  F   UNL     1     -15.382  10.989   1.668  1.00  0.00    -0.205 F 
ATOM     91  C   UNL     1     -15.095  13.310   4.485  1.00  0.00     0.022 A 
BRANCH  89  92
ATOM     92  S   UNL     1     -17.368  12.925   3.001  1.00  0.00     0.127 S 
ATOM     93  O   UNL     1     -18.068  12.154   4.028  1.00  0.00    -0.237 OA
ATOM     94  O   UNL     1     -17.459  14.377   3.161  1.00  0.00    -0.237 OA
ATOM     95  O   UNL     1     -17.548  12.459   1.633  1.00  0.00    -0.744 OA
ENDBRANCH  89  92
ENDBRANCH  62  85
ENDBRANCH  36  37
ENDBRANCH  28  31
ENDBRANCH  26  27
ENDBRANCH   1  26
TORSDOF 16
