REMARK SMILES Cc1c(C(=O)NCCCNC(=O)c2ccc(-c3c4nc(c(-c5cccc(S(=O)(=O)[O-])c5F)c5ccc([nH]5)c(-c5cccc(S(=O)(=O)[O-])c5F)c5nc(c(-c6cccc(S(=O)(=O)[O-])c6F)c6ccc3[nH]6)C=C5)C=C4)cc2)cccc1-n1c(C)cc(/C=C2/C(=O)NC(=S)N=C2O)c1C
REMARK SMILES IDX 8 1 7 2 6 3 4 4 5 5 3 7 1 8 2 9 79 10 76 11 78 12 77 13
REMARK SMILES IDX 80 14 81 15 95 16 82 17 83 18 84 19 96 20 85 21 86 22 87 23
REMARK SMILES IDX 93 24 88 25 89 26 92 27 90 28 91 30 94 31 9 33 10 34 11 35
REMARK SMILES IDX 12 37 13 38 14 39 75 40 15 41 74 42 16 43 17 44 18 45 68 46
REMARK SMILES IDX 19 47 73 48 67 49 69 50 20 51 72 52 66 53 65 54 21 56 53 57
REMARK SMILES IDX 33 58 52 59 34 60 37 61 51 62 70 63 35 64 36 65 50 67 71 68
REMARK SMILES IDX 38 69 22 70 23 71 31 72 24 73 26 74 32 75 25 76 27 77 28 78
REMARK SMILES IDX 29 79 30 80 54 81 55 82 63 83 56 84 58 85 64 86 57 87 59 88
REMARK SMILES IDX 60 89 61 90 62 91 39 92 40 93 48 94 41 95 43 96 49 97 42 98
REMARK SMILES IDX 44 99 45 100 46 101 47 102
REMARK H PARENT 6 6 89 29 94 32 10 36 69 55 37 66
REMARK Flexibility Score: inf
ROOT
ATOM      1  C   UNL     1       4.075  -1.529   0.469  1.00  0.00     0.042 C 
ENDROOT
BRANCH   1   2
ATOM      2  C   UNL     1       3.240  -2.114  -0.670  1.00  0.00     0.118 C 
BRANCH   2   3
ATOM      3  N   UNL     1       2.027  -2.723  -0.139  1.00  0.00    -0.352 N 
ATOM      4  C   UNL     1       0.747  -2.309   0.121  1.00  0.00     0.251 C 
ATOM      5  O   UNL     1       0.011  -3.154   0.644  1.00  0.00    -0.269 OA
ATOM      6  H   UNL     1       2.161  -3.670   0.090  1.00  0.00     0.163 HD
BRANCH   4   7
ATOM      7  C   UNL     1       0.123  -0.983  -0.220  1.00  0.00     0.044 A 
ATOM      8  C   UNL     1       2.046   0.572   0.409  1.00  0.00     0.047 C 
ATOM      9  C   UNL     1       0.675   0.309  -0.110  1.00  0.00    -0.014 A 
ATOM     10  C   UNL     1      -0.133   1.430  -0.426  1.00  0.00     0.049 A 
ATOM     11  C   UNL     1      -1.255  -1.077  -0.530  1.00  0.00     0.014 A 
ATOM     12  C   UNL     1      -1.488   1.312  -0.730  1.00  0.00     0.027 A 
ATOM     13  C   UNL     1      -2.054   0.048  -0.765  1.00  0.00     0.003 A 
BRANCH  10  14
ATOM     14  N   UNL     1       0.396   2.738  -0.294  1.00  0.00    -0.318 N 
ATOM     15  C   UNL     1       1.219   3.358  -1.220  1.00  0.00     0.020 A 
ATOM     16  C   UNL     1       0.467   3.436   0.912  1.00  0.00     0.027 A 
ATOM     17  C   UNL     1       1.630   2.740  -2.512  1.00  0.00     0.065 C 
ATOM     18  C   UNL     1       1.591   4.573  -0.682  1.00  0.00     0.031 A 
ATOM     19  C   UNL     1       1.105   4.639   0.653  1.00  0.00    -0.003 A 
ATOM     20  C   UNL     1      -0.000   2.803   2.188  1.00  0.00     0.065 C 
BRANCH  19  21
ATOM     21  C   UNL     1       1.467   5.692   1.550  1.00  0.00     0.029 C 
ATOM     22  C   UNL     1       0.857   6.220   2.626  1.00  0.00     0.102 C 
ATOM     23  C   UNL     1       1.638   7.234   3.381  1.00  0.00     0.262 C 
ATOM     24  C   UNL     1      -0.436   5.912   3.236  1.00  0.00     0.226 C 
ATOM     25  O   UNL     1       2.615   7.829   2.939  1.00  0.00    -0.269 OA
ATOM     26  N   UNL     1       1.182   7.451   4.653  1.00  0.00    -0.297 N 
ATOM     27  N   UNL     1      -0.819   6.215   4.422  1.00  0.00    -0.184 NA
ATOM     28  C   UNL     1       0.041   6.931   5.212  1.00  0.00     0.203 C 
ATOM     29  H   UNL     1       1.726   8.039   5.224  1.00  0.00     0.172 HD
ATOM     30  S   UNL     1      -0.261   7.277   6.824  1.00  0.00    -0.038 S 
BRANCH  24  31
ATOM     31  O   UNL     1      -1.339   5.316   2.455  1.00  0.00    -0.493 OA
ATOM     32  H   UNL     1      -1.113   5.073   1.579  1.00  0.00     0.295 HD
ENDBRANCH  24  31
ENDBRANCH  19  21
ENDBRANCH  10  14
ENDBRANCH   4   7
ENDBRANCH   2   3
ENDBRANCH   1   2
BRANCH   1  33
ATOM     33  C   UNL     1       5.393  -2.192   0.775  1.00  0.00     0.118 C 
BRANCH  33  34
ATOM     34  N   UNL     1       6.539  -1.372   0.383  1.00  0.00    -0.352 N 
ATOM     35  C   UNL     1       7.881  -1.533   0.717  1.00  0.00     0.251 C 
ATOM     36  H   UNL     1       6.334  -0.603  -0.196  1.00  0.00     0.163 HD
ATOM     37  O   UNL     1       8.707  -0.730   0.355  1.00  0.00    -0.269 OA
BRANCH  35  38
ATOM     38  C   UNL     1       8.250  -2.791   1.414  1.00  0.00     0.039 A 
ATOM     39  C   UNL     1       9.052  -3.689   0.704  1.00  0.00     0.014 A 
ATOM     40  C   UNL     1       7.466  -3.216   2.477  1.00  0.00     0.014 A 
ATOM     41  C   UNL     1       8.838  -5.054   0.865  1.00  0.00     0.010 A 
ATOM     42  C   UNL     1       7.133  -4.550   2.512  1.00  0.00     0.010 A 
ATOM     43  C   UNL     1       7.784  -5.466   1.668  1.00  0.00    -0.014 A 
BRANCH  43  44
ATOM     44  C   UNL     1       7.276  -6.825   1.775  1.00  0.00     0.031 A 
ATOM     45  C   UNL     1       7.493  -7.533   3.056  1.00  0.00     0.074 A 
ATOM     46  C   UNL     1       6.432  -7.333   0.847  1.00  0.00     0.049 A 
ATOM     47  N   UNL     1       7.094  -8.732   3.288  1.00  0.00    -0.248 NA
ATOM     48  C   UNL     1       8.222  -6.942   4.177  1.00  0.00     0.031 C 
ATOM     49  C   UNL     1       5.465  -8.412   1.044  1.00  0.00     0.029 A 
ATOM     50  N   UNL     1       6.438  -7.144  -0.540  1.00  0.00    -0.354 N 
ATOM     51  C   UNL     1       7.272  -8.982   4.627  1.00  0.00     0.074 A 
ATOM     52  C   UNL     1       8.056  -7.877   5.115  1.00  0.00     0.031 C 
ATOM     53  C   UNL     1       5.198  -8.981  -0.139  1.00  0.00     0.029 A 
ATOM     54  C   UNL     1       6.117  -8.402  -1.098  1.00  0.00     0.049 A 
ATOM     55  H   UNL     1       6.625  -6.308  -1.025  1.00  0.00     0.167 HD
ATOM     56  C   UNL     1       6.637 -10.059   5.161  1.00  0.00     0.034 A 
ATOM     57  C   UNL     1       6.953  -9.114  -1.911  1.00  0.00     0.034 A 
ATOM     58  C   UNL     1       6.153 -10.951   4.097  1.00  0.00     0.049 A 
ATOM     59  C   UNL     1       7.296 -10.507  -1.391  1.00  0.00     0.074 A 
ATOM     60  C   UNL     1       4.933 -11.260   3.524  1.00  0.00     0.029 A 
ATOM     61  N   UNL     1       7.110 -11.529   3.284  1.00  0.00    -0.354 N 
ATOM     62  N   UNL     1       6.804 -11.049  -0.310  1.00  0.00    -0.248 NA
ATOM     63  C   UNL     1       8.316 -11.357  -2.012  1.00  0.00     0.031 C 
ATOM     64  C   UNL     1       5.186 -12.012   2.332  1.00  0.00     0.029 A 
ATOM     65  C   UNL     1       6.554 -12.181   2.204  1.00  0.00     0.049 A 
ATOM     66  H   UNL     1       8.078 -11.479   3.456  1.00  0.00     0.167 HD
ATOM     67  C   UNL     1       7.552 -12.153   0.023  1.00  0.00     0.074 A 
ATOM     68  C   UNL     1       8.444 -12.342  -1.107  1.00  0.00     0.031 C 
ATOM     69  C   UNL     1       7.461 -12.782   1.236  1.00  0.00     0.034 A 
BRANCH  56  70
ATOM     70  C   UNL     1       6.357 -10.313   6.629  1.00  0.00     0.023 A 
ATOM     71  C   UNL     1       5.615 -11.475   6.938  1.00  0.00     0.012 A 
ATOM     72  C   UNL     1       6.658  -9.464   7.721  1.00  0.00     0.148 A 
ATOM     73  C   UNL     1       5.169 -11.763   8.232  1.00  0.00     0.002 A 
ATOM     74  C   UNL     1       6.244  -9.767   9.021  1.00  0.00     0.091 A 
ATOM     75  F   UNL     1       7.292  -8.309   7.524  1.00  0.00    -0.205 F 
ATOM     76  C   UNL     1       5.486 -10.910   9.277  1.00  0.00     0.022 A 
BRANCH  74  77
ATOM     77  S   UNL     1       6.616  -8.702  10.429  1.00  0.00     0.127 S 
ATOM     78  O   UNL     1       5.288  -8.203  10.789  1.00  0.00    -0.237 OA
ATOM     79  O   UNL     1       7.194  -9.640  11.390  1.00  0.00    -0.237 OA
ATOM     80  O   UNL     1       7.542  -7.684   9.947  1.00  0.00    -0.744 OA
ENDBRANCH  74  77
ENDBRANCH  56  70
BRANCH  57  81
ATOM     81  C   UNL     1       7.878  -8.250  -2.698  1.00  0.00     0.023 A 
ATOM     82  C   UNL     1       7.298  -7.391  -3.660  1.00  0.00     0.012 A 
ATOM     83  C   UNL     1       9.181  -7.985  -2.242  1.00  0.00     0.148 A 
ATOM     84  C   UNL     1       7.948  -6.223  -4.057  1.00  0.00     0.002 A 
ATOM     85  C   UNL     1       9.823  -6.817  -2.644  1.00  0.00     0.091 A 
ATOM     86  F   UNL     1       9.732  -8.821  -1.353  1.00  0.00    -0.205 F 
ATOM     87  C   UNL     1       9.194  -5.919  -3.521  1.00  0.00     0.022 A 
BRANCH  85  88
ATOM     88  S   UNL     1      11.401  -6.320  -1.942  1.00  0.00     0.127 S 
ATOM     89  O   UNL     1      12.327  -6.722  -2.996  1.00  0.00    -0.237 OA
ATOM     90  O   UNL     1      11.223  -4.876  -1.787  1.00  0.00    -0.237 OA
ATOM     91  O   UNL     1      11.496  -7.045  -0.684  1.00  0.00    -0.744 OA
ENDBRANCH  85  88
ENDBRANCH  57  81
BRANCH  69  92
ATOM     92  C   UNL     1       8.276 -14.006   1.620  1.00  0.00     0.023 A 
ATOM     93  C   UNL     1       8.481 -15.048   0.695  1.00  0.00     0.012 A 
ATOM     94  C   UNL     1       8.736 -14.230   2.946  1.00  0.00     0.148 A 
ATOM     95  C   UNL     1       9.144 -16.230   1.052  1.00  0.00     0.002 A 
ATOM     96  C   UNL     1       9.305 -15.443   3.320  1.00  0.00     0.091 A 
ATOM     97  F   UNL     1       8.672 -13.245   3.847  1.00  0.00    -0.205 F 
ATOM     98  C   UNL     1       9.536 -16.437   2.368  1.00  0.00     0.022 A 
BRANCH  96  99
ATOM     99  S   UNL     1       9.668 -15.853   5.036  1.00  0.00     0.127 S 
ATOM    100  O   UNL     1       8.934 -17.109   5.201  1.00  0.00    -0.237 OA
ATOM    101  O   UNL     1      11.122 -15.997   5.007  1.00  0.00    -0.237 OA
ATOM    102  O   UNL     1       9.159 -14.746   5.832  1.00  0.00    -0.744 OA
ENDBRANCH  96  99
ENDBRANCH  69  92
ENDBRANCH  43  44
ENDBRANCH  35  38
ENDBRANCH  33  34
ENDBRANCH   1  33
TORSDOF 16
