REMARK SMILES Cc1cnn(C2(C(=O)NCCCNC(=O)c3ccc(-c4c5nc(c(-c6cccc(S(=O)(=O)[O-])c6F)c6ccc([nH]6)c(-c6cccc(S(=O)(=O)[O-])c6F)c6nc(c(-c7cccc(S(=O)(=O)[O-])c7F)c7ccc4[nH]7)C=C6)C=C5)cc3)CCN(C(=O)c3cscn3)CC2)c1
REMARK SMILES IDX 12 1 11 2 10 3 9 4 7 5 8 6 6 8 79 9 90 10 80 11 89 12 81 13
REMARK SMILES IDX 82 14 83 15 5 16 1 17 2 18 3 19 91 20 4 21 84 22 85 23 88 24
REMARK SMILES IDX 86 25 87 26 13 27 14 28 15 30 16 31 17 32 78 33 18 34 77 35
REMARK SMILES IDX 19 36 20 37 21 38 71 39 22 40 76 41 70 42 72 43 23 44 75 45
REMARK SMILES IDX 69 46 68 47 24 49 56 50 36 51 55 52 37 53 40 54 54 55 73 56
REMARK SMILES IDX 38 57 39 58 53 60 74 61 41 62 25 63 26 64 34 65 27 66 29 67
REMARK SMILES IDX 35 68 28 69 30 70 31 71 32 72 33 73 57 74 58 75 66 76 59 77
REMARK SMILES IDX 61 78 67 79 60 80 62 81 63 82 64 83 65 84 42 85 43 86 51 87
REMARK SMILES IDX 44 88 46 89 52 90 45 91 47 92 48 93 49 94 50 95
REMARK H PARENT 9 7 13 29 72 48 40 59
REMARK Flexibility Score: inf
ROOT
ATOM      1  C   UNL     1      -2.100  -6.220  -7.116  1.00  0.00     0.118 C 
ENDROOT
BRANCH   1   2
ATOM      2  C   UNL     1      -2.164  -4.775  -6.648  1.00  0.00     0.042 C 
BRANCH   2   3
ATOM      3  C   UNL     1      -2.654  -4.623  -5.207  1.00  0.00     0.117 C 
BRANCH   3   4
ATOM      4  N   UNL     1      -1.712  -5.118  -4.206  1.00  0.00    -0.354 N 
ATOM      5  C   UNL     1      -1.028  -4.521  -3.167  1.00  0.00     0.248 C 
ATOM      6  O   UNL     1      -0.422  -5.325  -2.461  1.00  0.00    -0.272 OA
ATOM      7  H   UNL     1      -1.526  -6.081  -4.291  1.00  0.00     0.163 HD
BRANCH   5   8
ATOM      8  C   UNL     1      -1.086  -2.973  -2.935  1.00  0.00     0.144 C 
ATOM      9  C   UNL     1      -0.528  -2.317  -4.225  1.00  0.00     0.062 C 
ATOM     10  C   UNL     1      -2.559  -2.646  -2.584  1.00  0.00     0.062 C 
ATOM     11  C   UNL     1      -1.139  -0.978  -4.599  1.00  0.00     0.123 C 
ATOM     12  C   UNL     1      -3.051  -1.289  -3.054  1.00  0.00     0.123 C 
ATOM     13  N   UNL     1      -2.579  -0.936  -4.388  1.00  0.00    -0.337 N 
ATOM     14  C   UNL     1      -3.380  -0.426  -5.421  1.00  0.00     0.273 C 
ATOM     15  O   UNL     1      -2.918  -0.126  -6.520  1.00  0.00    -0.267 OA
BRANCH   8  16
ATOM     16  N   UNL     1      -0.256  -2.461  -1.792  1.00  0.00    -0.257 N 
ATOM     17  C   UNL     1       1.288   0.083   0.354  1.00  0.00     0.048 C 
ATOM     18  C   UNL     1       0.771  -1.105  -0.359  1.00  0.00    -0.013 A 
ATOM     19  C   UNL     1       1.033  -2.462  -0.103  1.00  0.00     0.138 A 
ATOM     20  C   UNL     1      -0.089  -1.139  -1.433  1.00  0.00     0.113 A 
ATOM     21  N   UNL     1       0.367  -3.271  -0.924  1.00  0.00    -0.180 NA
ENDBRANCH   8  16
BRANCH  14  22
ATOM     22  C   UNL     1      -4.810  -0.245  -5.154  1.00  0.00     0.139 A 
ATOM     23  C   UNL     1      -5.331   0.667  -4.250  1.00  0.00     0.100 A 
ATOM     24  N   UNL     1      -5.769  -0.968  -5.860  1.00  0.00    -0.240 NA
ATOM     25  S   UNL     1      -7.044   0.596  -4.257  1.00  0.00    -0.130 S 
ATOM     26  C   UNL     1      -6.971  -0.601  -5.481  1.00  0.00     0.176 A 
ENDBRANCH  14  22
ENDBRANCH   5   8
ENDBRANCH   3   4
ENDBRANCH   2   3
ENDBRANCH   1   2
BRANCH   1  27
ATOM     27  N   UNL     1      -3.421  -6.827  -7.252  1.00  0.00    -0.352 N 
ATOM     28  C   UNL     1      -3.728  -8.104  -7.684  1.00  0.00     0.251 C 
ATOM     29  H   UNL     1      -4.186  -6.259  -7.006  1.00  0.00     0.163 HD
ATOM     30  O   UNL     1      -4.859  -8.380  -8.043  1.00  0.00    -0.269 OA
BRANCH  28  31
ATOM     31  C   UNL     1      -2.654  -9.116  -7.731  1.00  0.00     0.039 A 
ATOM     32  C   UNL     1      -2.521  -9.937  -8.854  1.00  0.00     0.014 A 
ATOM     33  C   UNL     1      -1.757  -9.212  -6.667  1.00  0.00     0.014 A 
ATOM     34  C   UNL     1      -1.423 -10.787  -8.942  1.00  0.00     0.010 A 
ATOM     35  C   UNL     1      -0.616  -9.973  -6.802  1.00  0.00     0.010 A 
ATOM     36  C   UNL     1      -0.452 -10.779  -7.927  1.00  0.00    -0.014 A 
BRANCH  36  37
ATOM     37  C   UNL     1       0.816 -11.480  -8.134  1.00  0.00     0.031 A 
ATOM     38  C   UNL     1       1.544 -11.075  -9.370  1.00  0.00     0.074 A 
ATOM     39  C   UNL     1       1.409 -12.254  -7.200  1.00  0.00     0.049 A 
ATOM     40  N   UNL     1       1.788 -11.793 -10.417  1.00  0.00    -0.248 NA
ATOM     41  C   UNL     1       1.917  -9.660  -9.522  1.00  0.00     0.031 C 
ATOM     42  C   UNL     1       0.964 -12.464  -5.817  1.00  0.00     0.029 A 
ATOM     43  N   UNL     1       2.615 -12.894  -7.234  1.00  0.00    -0.354 N 
ATOM     44  C   UNL     1       2.563 -10.987 -11.253  1.00  0.00     0.074 A 
ATOM     45  C   UNL     1       2.415  -9.647 -10.759  1.00  0.00     0.031 C 
ATOM     46  C   UNL     1       1.992 -12.944  -5.085  1.00  0.00     0.029 A 
ATOM     47  C   UNL     1       3.099 -13.237  -5.975  1.00  0.00     0.049 A 
ATOM     48  H   UNL     1       3.096 -13.094  -8.069  1.00  0.00     0.167 HD
ATOM     49  C   UNL     1       3.480 -11.536 -12.099  1.00  0.00     0.034 A 
ATOM     50  C   UNL     1       4.333 -13.699  -5.667  1.00  0.00     0.034 A 
ATOM     51  C   UNL     1       3.284 -12.962 -12.202  1.00  0.00     0.049 A 
ATOM     52  C   UNL     1       4.913 -14.266  -6.901  1.00  0.00     0.074 A 
ATOM     53  C   UNL     1       2.325 -13.811 -12.706  1.00  0.00     0.029 A 
ATOM     54  N   UNL     1       4.081 -13.696 -11.363  1.00  0.00    -0.354 N 
ATOM     55  N   UNL     1       4.459 -15.342  -7.481  1.00  0.00    -0.248 NA
ATOM     56  C   UNL     1       5.836 -13.469  -7.696  1.00  0.00     0.031 C 
ATOM     57  C   UNL     1       2.414 -14.998 -11.921  1.00  0.00     0.029 A 
ATOM     58  C   UNL     1       3.445 -14.845 -10.992  1.00  0.00     0.049 A 
ATOM     59  H   UNL     1       4.983 -13.432 -11.069  1.00  0.00     0.167 HD
ATOM     60  C   UNL     1       4.655 -15.101  -8.829  1.00  0.00     0.074 A 
ATOM     61  C   UNL     1       5.670 -14.058  -8.883  1.00  0.00     0.031 C 
ATOM     62  C   UNL     1       3.743 -15.530  -9.749  1.00  0.00     0.034 A 
BRANCH  49  63
ATOM     63  C   UNL     1       4.833 -10.938 -12.473  1.00  0.00     0.023 A 
ATOM     64  C   UNL     1       5.647 -11.711 -13.341  1.00  0.00     0.012 A 
ATOM     65  C   UNL     1       5.469  -9.862 -11.814  1.00  0.00     0.148 A 
ATOM     66  C   UNL     1       7.024 -11.492 -13.465  1.00  0.00     0.002 A 
ATOM     67  C   UNL     1       6.827  -9.605 -11.992  1.00  0.00     0.091 A 
ATOM     68  F   UNL     1       4.808  -9.138 -10.912  1.00  0.00    -0.205 F 
ATOM     69  C   UNL     1       7.617 -10.439 -12.786  1.00  0.00     0.022 A 
BRANCH  67  70
ATOM     70  S   UNL     1       7.645  -8.229 -11.170  1.00  0.00     0.127 S 
ATOM     71  O   UNL     1       8.464  -8.924 -10.181  1.00  0.00    -0.237 OA
ATOM     72  O   UNL     1       8.388  -7.623 -12.275  1.00  0.00    -0.237 OA
ATOM     73  O   UNL     1       6.576  -7.392 -10.640  1.00  0.00    -0.744 OA
ENDBRANCH  67  70
ENDBRANCH  49  63
BRANCH  50  74
ATOM     74  C   UNL     1       5.116 -13.599  -4.416  1.00  0.00     0.023 A 
ATOM     75  C   UNL     1       6.138 -14.533  -4.156  1.00  0.00     0.012 A 
ATOM     76  C   UNL     1       5.050 -12.440  -3.612  1.00  0.00     0.148 A 
ATOM     77  C   UNL     1       7.092 -14.301  -3.159  1.00  0.00     0.002 A 
ATOM     78  C   UNL     1       5.998 -12.216  -2.618  1.00  0.00     0.091 A 
ATOM     79  F   UNL     1       4.114 -11.520  -3.885  1.00  0.00    -0.205 F 
ATOM     80  C   UNL     1       7.029 -13.138  -2.398  1.00  0.00     0.022 A 
BRANCH  78  81
ATOM     81  S   UNL     1       6.003 -10.725  -1.613  1.00  0.00     0.127 S 
ATOM     82  O   UNL     1       6.161 -11.270  -0.264  1.00  0.00    -0.237 OA
ATOM     83  O   UNL     1       7.174 -10.020  -2.129  1.00  0.00    -0.237 OA
ATOM     84  O   UNL     1       4.718 -10.083  -1.855  1.00  0.00    -0.744 OA
ENDBRANCH  78  81
ENDBRANCH  50  74
BRANCH  62  85
ATOM     85  C   UNL     1       2.818 -16.647  -9.353  1.00  0.00     0.023 A 
ATOM     86  C   UNL     1       1.861 -16.520  -8.327  1.00  0.00     0.012 A 
ATOM     87  C   UNL     1       2.828 -17.814 -10.136  1.00  0.00     0.148 A 
ATOM     88  C   UNL     1       0.948 -17.547  -8.074  1.00  0.00     0.002 A 
ATOM     89  C   UNL     1       1.884 -18.807  -9.919  1.00  0.00     0.091 A 
ATOM     90  F   UNL     1       3.753 -17.922 -11.102  1.00  0.00    -0.205 F 
ATOM     91  C   UNL     1       0.948 -18.683  -8.880  1.00  0.00     0.022 A 
BRANCH  89  92
ATOM     92  S   UNL     1       1.753 -20.220 -11.016  1.00  0.00     0.127 S 
ATOM     93  O   UNL     1       2.392 -21.275 -10.234  1.00  0.00    -0.237 OA
ATOM     94  O   UNL     1       0.304 -20.365 -11.173  1.00  0.00    -0.237 OA
ATOM     95  O   UNL     1       2.444 -19.836 -12.241  1.00  0.00    -0.744 OA
ENDBRANCH  89  92
ENDBRANCH  62  85
ENDBRANCH  36  37
ENDBRANCH  28  31
ENDBRANCH   1  27
TORSDOF 15
