REMARK SMILES CC(C)C[C@H](NC(=O)[C@@H](NC(=O)[C@H](C)NC(=O)CNC(=O)OCc1ccccc1)C(C)C)C(=O)NCCCNC(=O)c1ccc(-c2c3nc(c(-c4cccc(S(=O)(=O)[O-])c4F)c4ccc([nH]4)c(-c4cccc(S(=O)(=O)[O-])c4F)c4nc(c(-c5cccc(S(=O)(=O)[O-])c5F)c5ccc2[nH]5)C=C4)C=C3)cc1
REMARK SMILES IDX 6 1 7 2 8 3 5 5 4 6 2 7 1 8 3 9 33 10 34 11 35 12 36 14
REMARK SMILES IDX 37 15 38 16 39 17 40 18 41 20 42 21 43 22 104 23 44 24
REMARK SMILES IDX 103 25 45 26 46 27 47 28 97 29 48 30 102 31 96 32 98 33
REMARK SMILES IDX 49 34 101 35 95 36 94 37 50 39 82 40 62 41 81 42 63 43 66 44
REMARK SMILES IDX 80 45 99 46 64 47 65 48 79 50 100 51 67 52 51 53 52 54 60 55
REMARK SMILES IDX 53 56 55 57 61 58 54 59 56 60 57 61 58 62 59 63 83 64 84 65
REMARK SMILES IDX 92 66 85 67 87 68 93 69 86 70 88 71 89 72 90 73 91 74 68 75
REMARK SMILES IDX 69 76 77 77 70 78 72 79 78 80 71 81 73 82 74 83 75 84 76 85
REMARK SMILES IDX 9 86 10 87 11 88 12 90 13 91 14 92 15 93 16 94 17 96 18 97
REMARK SMILES IDX 19 98 20 99 21 101 22 102 23 103 24 104 25 105 29 106 26 107
REMARK SMILES IDX 28 108 27 109 30 110 31 111 32 112
REMARK H PARENT 6 4 35 13 39 19 98 38 66 49 10 89 15 95 19 100
REMARK Flexibility Score: inf
ROOT
ATOM      1  N   UNL     1      -3.713   3.105   2.510  1.00  0.00    -0.343 N 
ATOM      2  C   UNL     1      -2.807   2.253   3.047  1.00  0.00     0.243 C 
ATOM      3  O   UNL     1      -2.946   2.020   4.254  1.00  0.00    -0.273 OA
ATOM      4  H   UNL     1      -4.392   3.422   3.149  1.00  0.00     0.164 HD
ENDROOT
BRANCH   1   5
ATOM      5  C   UNL     1      -3.871   3.639   1.166  1.00  0.00     0.171 C 
BRANCH   5   6
ATOM      6  C   UNL     1      -5.116   3.050   0.481  1.00  0.00     0.038 C 
BRANCH   6   7
ATOM      7  C   UNL     1      -5.188   3.283  -1.041  1.00  0.00    -0.015 C 
ATOM      8  C   UNL     1      -4.277   2.317  -1.794  1.00  0.00     0.007 C 
ATOM      9  C   UNL     1      -6.623   3.101  -1.540  1.00  0.00     0.007 C 
ENDBRANCH   6   7
ENDBRANCH   5   6
BRANCH   5  10
ATOM     10  C   UNL     1      -3.778   5.175   1.235  1.00  0.00     0.242 C 
ATOM     11  O   UNL     1      -2.690   5.739   1.383  1.00  0.00    -0.273 OA
ATOM     12  N   UNL     1      -4.882   5.966   1.211  1.00  0.00    -0.354 N 
ATOM     13  H   UNL     1      -4.912   6.678   0.531  1.00  0.00     0.163 HD
BRANCH  12  14
ATOM     14  C   UNL     1      -6.023   5.853   2.102  1.00  0.00     0.117 C 
BRANCH  14  15
ATOM     15  C   UNL     1      -5.794   6.622   3.402  1.00  0.00     0.042 C 
BRANCH  15  16
ATOM     16  C   UNL     1      -5.404   8.086   3.211  1.00  0.00     0.118 C 
BRANCH  16  17
ATOM     17  N   UNL     1      -6.372   8.816   2.405  1.00  0.00    -0.352 N 
ATOM     18  C   UNL     1      -7.300   9.758   2.772  1.00  0.00     0.251 C 
ATOM     19  H   UNL     1      -6.359   8.601   1.445  1.00  0.00     0.163 HD
ATOM     20  O   UNL     1      -8.187  10.062   1.978  1.00  0.00    -0.269 OA
BRANCH  18  21
ATOM     21  C   UNL     1      -7.242  10.398   4.104  1.00  0.00     0.039 A 
ATOM     22  C   UNL     1      -8.438  10.675   4.773  1.00  0.00     0.014 A 
ATOM     23  C   UNL     1      -6.024  10.781   4.670  1.00  0.00     0.014 A 
ATOM     24  C   UNL     1      -8.406  11.306   6.018  1.00  0.00     0.010 A 
ATOM     25  C   UNL     1      -5.988  11.320   5.952  1.00  0.00     0.010 A 
ATOM     26  C   UNL     1      -7.179  11.622   6.625  1.00  0.00    -0.014 A 
BRANCH  26  27
ATOM     27  C   UNL     1      -7.128  12.319   7.935  1.00  0.00     0.031 A 
ATOM     28  C   UNL     1      -6.514  13.692   8.036  1.00  0.00     0.074 A 
ATOM     29  C   UNL     1      -7.576  11.696   9.042  1.00  0.00     0.049 A 
ATOM     30  N   UNL     1      -6.370  14.456   9.088  1.00  0.00    -0.248 NA
ATOM     31  C   UNL     1      -5.958  14.271   6.800  1.00  0.00     0.031 C 
ATOM     32  C   UNL     1      -8.106  10.332   9.091  1.00  0.00     0.029 A 
ATOM     33  N   UNL     1      -7.642  12.124  10.344  1.00  0.00    -0.354 N 
ATOM     34  C   UNL     1      -5.678  15.580   8.650  1.00  0.00     0.074 A 
ATOM     35  C   UNL     1      -5.389  15.380   7.248  1.00  0.00     0.031 C 
ATOM     36  C   UNL     1      -8.456  10.041  10.355  1.00  0.00     0.029 A 
ATOM     37  C   UNL     1      -8.162  11.189  11.207  1.00  0.00     0.049 A 
ATOM     38  H   UNL     1      -7.346  13.018  10.633  1.00  0.00     0.167 HD
ATOM     39  C   UNL     1      -5.345  16.697   9.340  1.00  0.00     0.034 A 
ATOM     40  C   UNL     1      -8.387  11.255  12.534  1.00  0.00     0.034 A 
ATOM     41  C   UNL     1      -5.689  16.918  10.717  1.00  0.00     0.049 A 
ATOM     42  C   UNL     1      -8.091  12.541  13.259  1.00  0.00     0.074 A 
ATOM     43  C   UNL     1      -5.479  18.047  11.489  1.00  0.00     0.029 A 
ATOM     44  N   UNL     1      -6.324  15.991  11.530  1.00  0.00    -0.354 N 
ATOM     45  N   UNL     1      -7.586  13.656  12.789  1.00  0.00    -0.248 NA
ATOM     46  C   UNL     1      -8.444  12.596  14.684  1.00  0.00     0.031 C 
ATOM     47  C   UNL     1      -5.980  17.799  12.771  1.00  0.00     0.029 A 
ATOM     48  C   UNL     1      -6.520  16.523  12.792  1.00  0.00     0.049 A 
ATOM     49  H   UNL     1      -6.595  15.087  11.251  1.00  0.00     0.167 HD
ATOM     50  C   UNL     1      -7.602  14.558  13.847  1.00  0.00     0.074 A 
ATOM     51  C   UNL     1      -8.185  13.863  14.976  1.00  0.00     0.031 C 
ATOM     52  C   UNL     1      -7.162  15.840  13.885  1.00  0.00     0.034 A 
BRANCH  39  53
ATOM     53  C   UNL     1      -4.630  17.793   8.594  1.00  0.00     0.023 A 
ATOM     54  C   UNL     1      -5.333  18.544   7.625  1.00  0.00     0.012 A 
ATOM     55  C   UNL     1      -3.289  18.114   8.874  1.00  0.00     0.148 A 
ATOM     56  C   UNL     1      -4.700  19.568   6.922  1.00  0.00     0.002 A 
ATOM     57  C   UNL     1      -2.679  19.169   8.201  1.00  0.00     0.091 A 
ATOM     58  F   UNL     1      -2.630  17.378   9.779  1.00  0.00    -0.205 F 
ATOM     59  C   UNL     1      -3.376  19.887   7.218  1.00  0.00     0.022 A 
BRANCH  57  60
ATOM     60  S   UNL     1      -1.005  19.710   8.567  1.00  0.00     0.127 S 
ATOM     61  O   UNL     1      -0.280  19.247   7.384  1.00  0.00    -0.237 OA
ATOM     62  O   UNL     1      -1.163  21.162   8.655  1.00  0.00    -0.237 OA
ATOM     63  O   UNL     1      -0.639  19.064   9.819  1.00  0.00    -0.744 OA
ENDBRANCH  57  60
ENDBRANCH  39  53
BRANCH  40  64
ATOM     64  C   UNL     1      -9.019  10.104  13.240  1.00  0.00     0.023 A 
ATOM     65  C   UNL     1     -10.350  10.219  13.689  1.00  0.00     0.012 A 
ATOM     66  C   UNL     1      -8.329   8.894  13.440  1.00  0.00     0.148 A 
ATOM     67  C   UNL     1     -10.969   9.162  14.357  1.00  0.00     0.002 A 
ATOM     68  C   UNL     1      -8.970   7.826  14.058  1.00  0.00     0.091 A 
ATOM     69  F   UNL     1      -7.061   8.807  13.014  1.00  0.00    -0.205 F 
ATOM     70  C   UNL     1     -10.284   7.964  14.533  1.00  0.00     0.022 A 
BRANCH  68  71
ATOM     71  S   UNL     1      -8.211   6.205  14.208  1.00  0.00     0.127 S 
ATOM     72  O   UNL     1      -7.902   6.150  15.634  1.00  0.00    -0.237 OA
ATOM     73  O   UNL     1      -9.295   5.321  13.777  1.00  0.00    -0.237 OA
ATOM     74  O   UNL     1      -7.065   6.227  13.309  1.00  0.00    -0.744 OA
ENDBRANCH  68  71
ENDBRANCH  40  64
BRANCH  52  75
ATOM     75  C   UNL     1      -7.338  16.599  15.173  1.00  0.00     0.023 A 
ATOM     76  C   UNL     1      -6.530  16.291  16.286  1.00  0.00     0.012 A 
ATOM     77  C   UNL     1      -8.258  17.662  15.258  1.00  0.00     0.148 A 
ATOM     78  C   UNL     1      -6.663  17.006  17.476  1.00  0.00     0.002 A 
ATOM     79  C   UNL     1      -8.350  18.401  16.431  1.00  0.00     0.091 A 
ATOM     80  F   UNL     1      -9.033  17.927  14.196  1.00  0.00    -0.205 F 
ATOM     81  C   UNL     1      -7.563  18.067  17.545  1.00  0.00     0.022 A 
BRANCH  79  82
ATOM     82  S   UNL     1      -9.413  19.843  16.566  1.00  0.00     0.127 S 
ATOM     83  O   UNL     1     -10.560  19.302  17.292  1.00  0.00    -0.237 OA
ATOM     84  O   UNL     1      -8.587  20.773  17.337  1.00  0.00    -0.237 OA
ATOM     85  O   UNL     1      -9.675  20.269  15.197  1.00  0.00    -0.744 OA
ENDBRANCH  79  82
ENDBRANCH  52  75
ENDBRANCH  26  27
ENDBRANCH  18  21
ENDBRANCH  16  17
ENDBRANCH  15  16
ENDBRANCH  14  15
ENDBRANCH  12  14
ENDBRANCH   5  10
ENDBRANCH   1   5
BRANCH   2  86
ATOM     86  C   UNL     1      -1.593   1.642   2.282  1.00  0.00     0.174 C 
BRANCH  86  87
ATOM     87  N   UNL     1      -1.837   1.306   0.861  1.00  0.00    -0.342 N 
ATOM     88  C   UNL     1      -1.234   1.466  -0.343  1.00  0.00     0.242 C 
ATOM     89  H   UNL     1      -2.690   0.824   0.760  1.00  0.00     0.164 HD
ATOM     90  O   UNL     1      -1.552   0.585  -1.161  1.00  0.00    -0.273 OA
BRANCH  88  91
ATOM     91  C   UNL     1      -0.484   2.734  -0.871  1.00  0.00     0.168 C 
ATOM     92  C   UNL     1       0.427   2.311  -2.033  1.00  0.00     0.041 C 
BRANCH  91  93
ATOM     93  N   UNL     1       0.290   3.601  -0.003  1.00  0.00    -0.343 N 
ATOM     94  C   UNL     1       0.276   4.965   0.106  1.00  0.00     0.240 C 
ATOM     95  H   UNL     1       0.919   3.139   0.597  1.00  0.00     0.164 HD
ATOM     96  O   UNL     1       1.161   5.494   0.782  1.00  0.00    -0.273 OA
BRANCH  94  97
ATOM     97  C   UNL     1      -0.722   5.795  -0.698  1.00  0.00     0.219 C 
BRANCH  97  98
ATOM     98  N   UNL     1      -0.248   5.877  -2.066  1.00  0.00    -0.312 N 
ATOM     99  C   UNL     1      -0.941   5.476  -3.159  1.00  0.00     0.407 C 
ATOM    100  H   UNL     1       0.650   6.255  -2.212  1.00  0.00     0.167 HD
ATOM    101  O   UNL     1      -0.374   5.283  -4.234  1.00  0.00    -0.225 OA
BRANCH  99 102
ATOM    102  O   UNL     1      -2.260   5.286  -2.917  1.00  0.00    -0.445 OA
BRANCH 102 103
ATOM    103  C   UNL     1      -3.040   4.827  -4.026  1.00  0.00     0.270 C 
BRANCH 103 104
ATOM    104  C   UNL     1      -3.307   5.924  -5.021  1.00  0.00    -0.011 A 
ATOM    105  C   UNL     1      -4.189   6.969  -4.719  1.00  0.00     0.007 A 
ATOM    106  C   UNL     1      -2.631   5.932  -6.248  1.00  0.00     0.007 A 
ATOM    107  C   UNL     1      -4.388   8.005  -5.633  1.00  0.00     0.000 A 
ATOM    108  C   UNL     1      -2.825   6.971  -7.156  1.00  0.00     0.000 A 
ATOM    109  C   UNL     1      -3.704   8.007  -6.848  1.00  0.00     0.000 A 
ENDBRANCH 103 104
ENDBRANCH 102 103
ENDBRANCH  99 102
ENDBRANCH  97  98
ENDBRANCH  94  97
ENDBRANCH  91  93
ENDBRANCH  88  91
ENDBRANCH  86  87
BRANCH  86 110
ATOM    110  C   UNL     1      -0.228   2.253   2.647  1.00  0.00     0.015 C 
ATOM    111  C   UNL     1      -0.031   2.552   4.138  1.00  0.00     0.010 C 
ATOM    112  C   UNL     1       0.922   1.327   2.211  1.00  0.00     0.010 C 
ENDBRANCH  86 110
ENDBRANCH   2  86
TORSDOF 26
