REMARK SMILES COc1ccc([C@@H](CC(=O)NCCCNC(=O)c2ccc(-c3c4nc(c(-c5cccc(S(=O)(=O)[O-])c5F)c5ccc([nH]5)c(-c5cccc(S(=O)(=O)[O-])c5F)c5nc(c(-c6cccc(S(=O)(=O)[O-])c6F)c6ccc3[nH]6)C=C5)C=C4)cc2)NC(=O)c2ccc(Cl)c([N+](=O)[O-])c2)cc1
REMARK SMILES IDX 12 1 11 2 9 3 10 4 8 6 7 7 6 8 3 9 4 10 95 11 5 12 94 13
REMARK SMILES IDX 2 14 1 15 81 16 82 17 83 19 84 20 85 21 93 22 86 23 89 24
REMARK SMILES IDX 87 25 88 26 90 27 91 28 92 29 13 30 14 31 15 32 16 33 17 35
REMARK SMILES IDX 18 36 19 37 80 38 20 39 79 40 21 41 22 42 23 43 73 44 24 45
REMARK SMILES IDX 78 46 72 47 74 48 25 49 77 50 71 51 70 52 26 54 58 55 38 56
REMARK SMILES IDX 57 57 39 58 42 59 56 60 75 61 40 62 41 63 55 65 76 66 43 67
REMARK SMILES IDX 27 68 28 69 36 70 29 71 31 72 37 73 30 74 32 75 33 76 34 77
REMARK SMILES IDX 35 78 59 79 60 80 68 81 61 82 63 83 69 84 62 85 64 86 65 87
REMARK SMILES IDX 66 88 67 89 44 90 45 91 53 92 46 93 48 94 54 95 47 96 49 97
REMARK SMILES IDX 50 98 51 99 52 100
REMARK H PARENT 11 5 81 18 15 34 74 53 42 64
REMARK Flexibility Score: inf
ROOT
ATOM      1  C   UNL     1       0.261   3.132  -5.054  1.00  0.00     0.117 C 
ENDROOT
BRANCH   1   2
ATOM      2  N   UNL     1      -0.004   4.556  -5.201  1.00  0.00    -0.356 N 
ATOM      3  C   UNL     1       0.694   5.626  -4.726  1.00  0.00     0.222 C 
ATOM      4  O   UNL     1       0.131   6.723  -4.722  1.00  0.00    -0.275 OA
ATOM      5  H   UNL     1      -0.808   4.780  -5.722  1.00  0.00     0.163 HD
BRANCH   3   6
ATOM      6  C   UNL     1       2.138   5.499  -4.289  1.00  0.00     0.129 C 
BRANCH   6   7
ATOM      7  C   UNL     1       2.392   5.667  -2.778  1.00  0.00     0.122 C 
BRANCH   7   8
ATOM      8  C   UNL     1       2.066   4.420  -1.971  1.00  0.00    -0.025 A 
ATOM      9  C   UNL     1       1.358   1.959  -0.819  1.00  0.00     0.118 A 
ATOM     10  C   UNL     1       0.618   3.102  -0.524  1.00  0.00     0.047 A 
ATOM     11  C   UNL     1       2.498   2.042  -1.611  1.00  0.00     0.047 A 
ATOM     12  C   UNL     1       0.979   4.334  -1.087  1.00  0.00     0.010 A 
ATOM     13  C   UNL     1       2.856   3.268  -2.171  1.00  0.00     0.010 A 
BRANCH   9  14
ATOM     14  O   UNL     1       0.841   0.731  -0.512  1.00  0.00    -0.497 OA
ATOM     15  C   UNL     1       1.411   0.212   0.686  1.00  0.00     0.278 C 
ENDBRANCH   9  14
ENDBRANCH   7   8
BRANCH   7  16
ATOM     16  N   UNL     1       1.799   6.895  -2.247  1.00  0.00    -0.345 N 
ATOM     17  C   UNL     1       2.356   7.865  -1.455  1.00  0.00     0.252 C 
ATOM     18  H   UNL     1       0.858   7.046  -2.495  1.00  0.00     0.164 HD
ATOM     19  O   UNL     1       1.679   8.746  -0.941  1.00  0.00    -0.269 OA
BRANCH  17  20
ATOM     20  C   UNL     1       3.815   7.868  -1.241  1.00  0.00     0.046 A 
ATOM     21  C   UNL     1       4.323   7.812   0.058  1.00  0.00     0.016 A 
ATOM     22  C   UNL     1       4.676   7.937  -2.337  1.00  0.00     0.101 A 
ATOM     23  C   UNL     1       5.707   7.749   0.260  1.00  0.00     0.028 A 
ATOM     24  C   UNL     1       6.056   7.847  -2.121  1.00  0.00     0.288 A 
ATOM     25  C   UNL     1       6.585   7.743  -0.832  1.00  0.00     0.118 A 
ATOM     26  Cl  UNL     1       8.266   7.546  -0.497  1.00  0.00    -0.077 Cl
BRANCH  24  27
ATOM     27  N   UNL     1       6.904   7.797  -3.296  1.00  0.00     0.064 N 
ATOM     28  O   UNL     1       7.848   8.593  -3.367  1.00  0.00    -0.258 OA
ATOM     29  O   UNL     1       6.578   6.991  -4.180  1.00  0.00    -0.258 OA
ENDBRANCH  24  27
ENDBRANCH  17  20
ENDBRANCH   7  16
ENDBRANCH   6   7
ENDBRANCH   3   6
ENDBRANCH   1   2
BRANCH   1  30
ATOM     30  C   UNL     1      -0.432   2.587  -3.811  1.00  0.00     0.042 C 
BRANCH  30  31
ATOM     31  C   UNL     1      -1.921   2.314  -3.971  1.00  0.00     0.118 C 
BRANCH  31  32
ATOM     32  N   UNL     1      -2.176   0.948  -4.389  1.00  0.00    -0.352 N 
ATOM     33  C   UNL     1      -2.483  -0.186  -3.676  1.00  0.00     0.251 C 
ATOM     34  H   UNL     1      -2.118   0.808  -5.362  1.00  0.00     0.163 HD
ATOM     35  O   UNL     1      -2.386  -1.264  -4.267  1.00  0.00    -0.269 OA
BRANCH  33  36
ATOM     36  C   UNL     1      -2.930  -0.180  -2.253  1.00  0.00     0.039 A 
ATOM     37  C   UNL     1      -2.675  -1.327  -1.485  1.00  0.00     0.014 A 
ATOM     38  C   UNL     1      -3.699   0.838  -1.686  1.00  0.00     0.014 A 
ATOM     39  C   UNL     1      -3.174  -1.445  -0.180  1.00  0.00     0.010 A 
ATOM     40  C   UNL     1      -4.122   0.758  -0.352  1.00  0.00     0.010 A 
ATOM     41  C   UNL     1      -3.896  -0.398   0.409  1.00  0.00    -0.014 A 
BRANCH  41  42
ATOM     42  C   UNL     1      -4.448  -0.516   1.792  1.00  0.00     0.031 A 
ATOM     43  C   UNL     1      -5.937  -0.449   2.039  1.00  0.00     0.074 A 
ATOM     44  C   UNL     1      -3.614  -0.636   2.846  1.00  0.00     0.049 A 
ATOM     45  N   UNL     1      -6.590  -0.493   3.174  1.00  0.00    -0.248 NA
ATOM     46  C   UNL     1      -6.806  -0.290   0.862  1.00  0.00     0.031 C 
ATOM     47  C   UNL     1      -2.153  -0.652   2.769  1.00  0.00     0.029 A 
ATOM     48  N   UNL     1      -3.876  -0.746   4.191  1.00  0.00    -0.354 N 
ATOM     49  C   UNL     1      -7.933  -0.324   2.853  1.00  0.00     0.074 A 
ATOM     50  C   UNL     1      -8.001  -0.150   1.419  1.00  0.00     0.031 C 
ATOM     51  C   UNL     1      -1.648  -0.770   4.008  1.00  0.00     0.029 A 
ATOM     52  C   UNL     1      -2.745  -0.810   4.972  1.00  0.00     0.049 A 
ATOM     53  H   UNL     1      -4.788  -0.776   4.561  1.00  0.00     0.167 HD
ATOM     54  C   UNL     1      -9.018  -0.343   3.667  1.00  0.00     0.034 A 
ATOM     55  C   UNL     1      -2.600  -0.886   6.311  1.00  0.00     0.034 A 
ATOM     56  C   UNL     1      -8.968  -0.582   5.085  1.00  0.00     0.049 A 
ATOM     57  C   UNL     1      -3.822  -0.956   7.187  1.00  0.00     0.074 A 
ATOM     58  C   UNL     1     -10.023  -0.713   5.972  1.00  0.00     0.029 A 
ATOM     59  N   UNL     1      -7.806  -0.730   5.824  1.00  0.00    -0.354 N 
ATOM     60  N   UNL     1      -5.087  -0.950   6.843  1.00  0.00    -0.248 NA
ATOM     61  C   UNL     1      -3.598  -1.078   8.636  1.00  0.00     0.031 C 
ATOM     62  C   UNL     1      -9.498  -0.927   7.251  1.00  0.00     0.029 A 
ATOM     63  C   UNL     1      -8.116  -0.944   7.157  1.00  0.00     0.049 A 
ATOM     64  H   UNL     1      -6.894  -0.689   5.456  1.00  0.00     0.167 HD
ATOM     65  C   UNL     1      -5.805  -1.102   8.024  1.00  0.00     0.074 A 
ATOM     66  C   UNL     1      -4.835  -1.220   9.092  1.00  0.00     0.031 C 
ATOM     67  C   UNL     1      -7.148  -1.123   8.208  1.00  0.00     0.034 A 
BRANCH  54  68
ATOM     68  C   UNL     1     -10.374  -0.163   3.033  1.00  0.00     0.023 A 
ATOM     69  C   UNL     1     -10.928  -1.214   2.274  1.00  0.00     0.012 A 
ATOM     70  C   UNL     1     -11.130   1.007   3.246  1.00  0.00     0.148 A 
ATOM     71  C   UNL     1     -12.197  -1.092   1.709  1.00  0.00     0.002 A 
ATOM     72  C   UNL     1     -12.412   1.105   2.714  1.00  0.00     0.091 A 
ATOM     73  F   UNL     1     -10.582   2.005   3.955  1.00  0.00    -0.205 F 
ATOM     74  C   UNL     1     -12.942   0.062   1.938  1.00  0.00     0.022 A 
BRANCH  72  75
ATOM     75  S   UNL     1     -13.480   2.518   3.018  1.00  0.00     0.127 S 
ATOM     76  O   UNL     1     -13.431   3.207   1.730  1.00  0.00    -0.237 OA
ATOM     77  O   UNL     1     -14.761   1.879   3.320  1.00  0.00    -0.237 OA
ATOM     78  O   UNL     1     -12.884   3.235   4.137  1.00  0.00    -0.744 OA
ENDBRANCH  72  75
ENDBRANCH  54  68
BRANCH  55  79
ATOM     79  C   UNL     1      -1.235  -0.974   6.903  1.00  0.00     0.023 A 
ATOM     80  C   UNL     1      -0.811  -2.187   7.481  1.00  0.00     0.012 A 
ATOM     81  C   UNL     1      -0.346   0.117   6.867  1.00  0.00     0.148 A 
ATOM     82  C   UNL     1       0.463  -2.302   8.038  1.00  0.00     0.002 A 
ATOM     83  C   UNL     1       0.942  -0.023   7.370  1.00  0.00     0.091 A 
ATOM     84  F   UNL     1      -0.773   1.268   6.329  1.00  0.00    -0.205 F 
ATOM     85  C   UNL     1       1.343  -1.225   7.972  1.00  0.00     0.022 A 
BRANCH  83  86
ATOM     86  S   UNL     1       2.184   1.263   7.191  1.00  0.00     0.127 S 
ATOM     87  O   UNL     1       2.268   1.792   8.549  1.00  0.00    -0.237 OA
ATOM     88  O   UNL     1       3.353   0.498   6.753  1.00  0.00    -0.237 OA
ATOM     89  O   UNL     1       1.659   2.173   6.182  1.00  0.00    -0.744 OA
ENDBRANCH  83  86
ENDBRANCH  55  79
BRANCH  67  90
ATOM     90  C   UNL     1      -7.664  -1.310   9.611  1.00  0.00     0.023 A 
ATOM     91  C   UNL     1      -7.577  -0.247  10.533  1.00  0.00     0.012 A 
ATOM     92  C   UNL     1      -8.301  -2.507   9.995  1.00  0.00     0.148 A 
ATOM     93  C   UNL     1      -8.090  -0.383  11.823  1.00  0.00     0.002 A 
ATOM     94  C   UNL     1      -8.849  -2.619  11.269  1.00  0.00     0.091 A 
ATOM     95  F   UNL     1      -8.356  -3.515   9.113  1.00  0.00    -0.205 F 
ATOM     96  C   UNL     1      -8.735  -1.562  12.187  1.00  0.00     0.022 A 
BRANCH  94  97
ATOM     97  S   UNL     1      -9.775  -4.068  11.791  1.00  0.00     0.127 S 
ATOM     98  O   UNL     1      -8.810  -4.743  12.656  1.00  0.00    -0.237 OA
ATOM     99  O   UNL     1     -10.914  -3.475  12.494  1.00  0.00    -0.237 OA
ATOM    100  O   UNL     1     -10.127  -4.777  10.568  1.00  0.00    -0.744 OA
ENDBRANCH  94  97
ENDBRANCH  67  90
ENDBRANCH  41  42
ENDBRANCH  33  36
ENDBRANCH  31  32
ENDBRANCH  30  31
ENDBRANCH   1  30
TORSDOF 19
