REMARK SMILES Cc1cc(S(=O)(=O)Nc2ccc(F)c(F)c2)sc1C(=O)NCCCNC(=O)c1ccc(-c2c3nc(c(-c4cccc(S(=O)(=O)[O-])c4F)c4ccc([nH]4)c(-c4cccc(S(=O)(=O)[O-])c4F)c4nc(c(-c5cccc(S(=O)(=O)[O-])c5F)c5ccc2[nH]5)C=C4)C=C3)cc1
REMARK SMILES IDX 23 1 22 2 21 3 19 4 20 5 18 7 1 8 2 9 3 10 4 11 17 12 5 13
REMARK SMILES IDX 6 14 7 15 8 16 9 18 10 19 16 20 11 21 14 22 12 23 15 24
REMARK SMILES IDX 13 25 24 26 25 27 26 28 27 30 28 31 29 32 90 33 30 34 89 35
REMARK SMILES IDX 31 36 32 37 33 38 83 39 34 40 88 41 82 42 84 43 35 44 87 45
REMARK SMILES IDX 81 46 80 47 36 49 68 50 48 51 67 52 49 53 52 54 66 55 85 56
REMARK SMILES IDX 50 57 51 58 65 60 86 61 53 62 37 63 38 64 46 65 39 66 41 67
REMARK SMILES IDX 47 68 40 69 42 70 43 71 44 72 45 73 69 74 70 75 78 76 71 77
REMARK SMILES IDX 73 78 79 79 72 80 74 81 75 82 76 83 77 84 54 85 55 86 63 87
REMARK SMILES IDX 56 88 58 89 64 90 57 91 59 92 60 93 61 94 62 95
REMARK H PARENT 21 6 8 17 25 29 84 48 52 59
REMARK Flexibility Score: inf
ROOT
ATOM      1  C   UNL     1       3.957  -2.494   0.568  1.00  0.00     0.042 C 
ENDROOT
BRANCH   1   2
ATOM      2  C   UNL     1       3.002  -2.384  -0.621  1.00  0.00     0.118 C 
BRANCH   2   3
ATOM      3  N   UNL     1       1.651  -2.720  -0.233  1.00  0.00    -0.351 N 
ATOM      4  C   UNL     1       0.504  -1.988  -0.089  1.00  0.00     0.261 C 
ATOM      5  O   UNL     1      -0.490  -2.679   0.170  1.00  0.00    -0.268 OA
ATOM      6  H   UNL     1       1.531  -3.676  -0.029  1.00  0.00     0.163 HD
BRANCH   4   7
ATOM      7  C   UNL     1       0.408  -0.535  -0.238  1.00  0.00     0.096 A 
ATOM      8  C   UNL     1       2.584   0.630   0.611  1.00  0.00     0.046 C 
ATOM      9  C   UNL     1       1.185   0.573   0.100  1.00  0.00    -0.026 A 
ATOM     10  C   UNL     1       0.405   1.789   0.018  1.00  0.00     0.038 A 
ATOM     11  C   UNL     1      -0.889   1.591  -0.410  1.00  0.00     0.141 A 
ATOM     12  S   UNL     1      -1.084  -0.006  -0.948  1.00  0.00    -0.116 S 
BRANCH  11  13
ATOM     13  S   UNL     1      -2.283   2.681  -0.566  1.00  0.00     0.271 S 
ATOM     14  O   UNL     1      -1.823   3.949  -0.038  1.00  0.00    -0.200 OA
ATOM     15  O   UNL     1      -2.730   2.584  -1.943  1.00  0.00    -0.200 OA
BRANCH  13  16
ATOM     16  N   UNL     1      -3.577   2.209   0.438  1.00  0.00    -0.279 N 
ATOM     17  H   UNL     1      -3.990   2.845   1.066  1.00  0.00     0.180 HD
BRANCH  16  18
ATOM     18  C   UNL     1      -4.044   0.864   0.339  1.00  0.00     0.052 A 
ATOM     19  C   UNL     1      -3.653  -0.036   1.338  1.00  0.00     0.030 A 
ATOM     20  C   UNL     1      -4.826   0.432  -0.732  1.00  0.00     0.069 A 
ATOM     21  C   UNL     1      -4.032  -1.378   1.261  1.00  0.00     0.044 A 
ATOM     22  C   UNL     1      -5.208  -0.907  -0.793  1.00  0.00     0.160 A 
ATOM     23  C   UNL     1      -4.812  -1.806   0.193  1.00  0.00     0.158 A 
ATOM     24  F   UNL     1      -5.964  -1.326  -1.817  1.00  0.00    -0.204 F 
ATOM     25  F   UNL     1      -5.186  -3.091   0.123  1.00  0.00    -0.204 F 
ENDBRANCH  16  18
ENDBRANCH  13  16
ENDBRANCH  11  13
ENDBRANCH   4   7
ENDBRANCH   2   3
ENDBRANCH   1   2
BRANCH   1  26
ATOM     26  C   UNL     1       4.403  -3.918   0.888  1.00  0.00     0.118 C 
BRANCH  26  27
ATOM     27  N   UNL     1       5.392  -4.407  -0.058  1.00  0.00    -0.352 N 
ATOM     28  C   UNL     1       6.730  -4.675   0.109  1.00  0.00     0.251 C 
ATOM     29  H   UNL     1       5.048  -4.573  -0.966  1.00  0.00     0.163 HD
ATOM     30  O   UNL     1       7.425  -4.846  -0.891  1.00  0.00    -0.269 OA
BRANCH  28  31
ATOM     31  C   UNL     1       7.349  -4.760   1.455  1.00  0.00     0.039 A 
ATOM     32  C   UNL     1       8.658  -4.293   1.622  1.00  0.00     0.014 A 
ATOM     33  C   UNL     1       6.695  -5.365   2.532  1.00  0.00     0.014 A 
ATOM     34  C   UNL     1       9.291  -4.395   2.866  1.00  0.00     0.010 A 
ATOM     35  C   UNL     1       7.299  -5.402   3.790  1.00  0.00     0.010 A 
ATOM     36  C   UNL     1       8.610  -4.936   3.967  1.00  0.00    -0.014 A 
BRANCH  36  37
ATOM     37  C   UNL     1       9.254  -5.041   5.304  1.00  0.00     0.031 A 
ATOM     38  C   UNL     1       9.504  -6.393   5.922  1.00  0.00     0.074 A 
ATOM     39  C   UNL     1       9.538  -3.924   6.002  1.00  0.00     0.049 A 
ATOM     40  N   UNL     1       9.982  -6.685   7.104  1.00  0.00    -0.248 NA
ATOM     41  C   UNL     1       9.142  -7.571   5.116  1.00  0.00     0.031 C 
ATOM     42  C   UNL     1       9.274  -2.556   5.550  1.00  0.00     0.029 A 
ATOM     43  N   UNL     1      10.082  -3.761   7.251  1.00  0.00    -0.354 N 
ATOM     44  C   UNL     1       9.938  -8.071   7.202  1.00  0.00     0.074 A 
ATOM     45  C   UNL     1       9.362  -8.562   5.969  1.00  0.00     0.031 C 
ATOM     46  C   UNL     1       9.654  -1.696   6.508  1.00  0.00     0.029 A 
ATOM     47  C   UNL     1      10.169  -2.447   7.649  1.00  0.00     0.049 A 
ATOM     48  H   UNL     1      10.382  -4.514   7.811  1.00  0.00     0.167 HD
ATOM     49  C   UNL     1      10.367  -8.867   8.210  1.00  0.00     0.034 A 
ATOM     50  C   UNL     1      10.613  -1.907   8.801  1.00  0.00     0.034 A 
ATOM     51  C   UNL     1      11.003  -8.383   9.406  1.00  0.00     0.049 A 
ATOM     52  C   UNL     1      11.158  -2.811   9.873  1.00  0.00     0.074 A 
ATOM     53  C   UNL     1      11.556  -9.114  10.444  1.00  0.00     0.029 A 
ATOM     54  N   UNL     1      11.180  -7.045   9.720  1.00  0.00    -0.354 N 
ATOM     55  N   UNL     1      11.248  -4.119   9.880  1.00  0.00    -0.248 NA
ATOM     56  C   UNL     1      11.697  -2.166  11.080  1.00  0.00     0.031 C 
ATOM     57  C   UNL     1      12.068  -8.215  11.386  1.00  0.00     0.029 A 
ATOM     58  C   UNL     1      11.836  -6.926  10.933  1.00  0.00     0.049 A 
ATOM     59  H   UNL     1      10.882  -6.290   9.163  1.00  0.00     0.167 HD
ATOM     60  C   UNL     1      11.880  -4.452  11.072  1.00  0.00     0.074 A 
ATOM     61  C   UNL     1      12.171  -3.207  11.753  1.00  0.00     0.031 C 
ATOM     62  C   UNL     1      12.175  -5.679  11.568  1.00  0.00     0.034 A 
BRANCH  49  63
ATOM     63  C   UNL     1      10.232 -10.357   8.029  1.00  0.00     0.023 A 
ATOM     64  C   UNL     1      11.101 -11.023   7.141  1.00  0.00     0.012 A 
ATOM     65  C   UNL     1       9.292 -11.103   8.766  1.00  0.00     0.148 A 
ATOM     66  C   UNL     1      11.016 -12.403   6.963  1.00  0.00     0.002 A 
ATOM     67  C   UNL     1       9.239 -12.485   8.612  1.00  0.00     0.091 A 
ATOM     68  F   UNL     1       8.457 -10.451   9.588  1.00  0.00    -0.205 F 
ATOM     69  C   UNL     1      10.093 -13.134   7.705  1.00  0.00     0.022 A 
BRANCH  67  70
ATOM     70  S   UNL     1       8.129 -13.519   9.575  1.00  0.00     0.127 S 
ATOM     71  O   UNL     1       7.084 -13.820   8.598  1.00  0.00    -0.237 OA
ATOM     72  O   UNL     1       8.984 -14.656   9.922  1.00  0.00    -0.237 OA
ATOM     73  O   UNL     1       7.717 -12.707  10.711  1.00  0.00    -0.744 OA
ENDBRANCH  67  70
ENDBRANCH  49  63
BRANCH  50  74
ATOM     74  C   UNL     1      10.644  -0.425   8.956  1.00  0.00     0.023 A 
ATOM     75  C   UNL     1      11.884   0.243   8.917  1.00  0.00     0.012 A 
ATOM     76  C   UNL     1       9.462   0.328   9.087  1.00  0.00     0.148 A 
ATOM     77  C   UNL     1      11.947   1.632   9.027  1.00  0.00     0.002 A 
ATOM     78  C   UNL     1       9.529   1.717   9.144  1.00  0.00     0.091 A 
ATOM     79  F   UNL     1       8.293  -0.325   9.141  1.00  0.00    -0.205 F 
ATOM     80  C   UNL     1      10.771   2.370   9.128  1.00  0.00     0.022 A 
BRANCH  78  81
ATOM     81  S   UNL     1       8.054   2.743   9.133  1.00  0.00     0.127 S 
ATOM     82  O   UNL     1       7.952   3.138  10.535  1.00  0.00    -0.237 OA
ATOM     83  O   UNL     1       8.433   3.819   8.216  1.00  0.00    -0.237 OA
ATOM     84  O   UNL     1       6.990   1.883   8.631  1.00  0.00    -0.744 OA
ENDBRANCH  78  81
ENDBRANCH  50  74
BRANCH  62  85
ATOM     85  C   UNL     1      12.865  -5.745  12.904  1.00  0.00     0.023 A 
ATOM     86  C   UNL     1      12.125  -5.503  14.078  1.00  0.00     0.012 A 
ATOM     87  C   UNL     1      14.218  -6.123  13.002  1.00  0.00     0.148 A 
ATOM     88  C   UNL     1      12.728  -5.615  15.330  1.00  0.00     0.002 A 
ATOM     89  C   UNL     1      14.802  -6.271  14.256  1.00  0.00     0.091 A 
ATOM     90  F   UNL     1      14.912  -6.325  11.873  1.00  0.00    -0.205 F 
ATOM     91  C   UNL     1      14.061  -6.010  15.420  1.00  0.00     0.022 A 
BRANCH  89  92
ATOM     92  S   UNL     1      16.487  -6.859  14.457  1.00  0.00     0.127 S 
ATOM     93  O   UNL     1      17.212  -5.614  14.703  1.00  0.00    -0.237 OA
ATOM     94  O   UNL     1      16.378  -7.740  15.621  1.00  0.00    -0.237 OA
ATOM     95  O   UNL     1      16.815  -7.547  13.215  1.00  0.00    -0.744 OA
ENDBRANCH  89  92
ENDBRANCH  62  85
ENDBRANCH  36  37
ENDBRANCH  28  31
ENDBRANCH  26  27
ENDBRANCH   1  26
TORSDOF 16
