REMARK SMILES CC(C)(C)c1csc(C[NH2+][C@H]2CCC[C@@H](C(=O)NCCCNC(=O)c3ccc(-c4c5nc(c(-c6cccc(S(=O)(=O)[O-])c6F)c6ccc([nH]6)c(-c6cccc(S(=O)(=O)[O-])c6F)c6nc(c(-c7cccc(S(=O)(=O)[O-])c7F)c7ccc4[nH]7)C=C6)C=C5)cc3)C2)n1
REMARK SMILES IDX 19 1 18 2 16 3 17 4 15 6 11 7 12 8 88 9 13 10 14 11 10 12
REMARK SMILES IDX 9 15 8 16 5 17 6 18 89 19 7 20 2 21 1 22 3 23 4 24 20 25
REMARK SMILES IDX 21 26 22 27 23 28 24 30 25 31 26 32 87 33 27 34 86 35 28 36
REMARK SMILES IDX 29 37 30 38 80 39 31 40 85 41 79 42 81 43 32 44 84 45 78 46
REMARK SMILES IDX 77 47 33 49 65 50 45 51 64 52 46 53 49 54 63 55 82 56 47 57
REMARK SMILES IDX 48 58 62 60 83 61 50 62 34 63 35 64 43 65 36 66 38 67 44 68
REMARK SMILES IDX 37 69 39 70 40 71 41 72 42 73 66 74 67 75 75 76 68 77 70 78
REMARK SMILES IDX 76 79 69 80 71 81 72 82 73 83 74 84 51 85 52 86 60 87 53 88
REMARK SMILES IDX 55 89 61 90 54 91 56 92 57 93 58 94 59 95
REMARK H PARENT 18 5 10 13 10 14 22 29 81 48 49 59
REMARK Flexibility Score: inf
ROOT
ATOM      1  C   UNL     1      -1.535   9.206  -1.021  1.00  0.00     0.117 C 
ENDROOT
BRANCH   1   2
ATOM      2  N   UNL     1      -1.414   8.654  -2.353  1.00  0.00    -0.356 N 
ATOM      3  C   UNL     1      -0.556   7.682  -2.757  1.00  0.00     0.223 C 
ATOM      4  O   UNL     1      -0.987   6.874  -3.582  1.00  0.00    -0.275 OA
ATOM      5  H   UNL     1      -2.016   9.023  -3.039  1.00  0.00     0.163 HD
BRANCH   3   6
ATOM      6  C   UNL     1       0.848   7.578  -2.153  1.00  0.00     0.084 C 
ATOM      7  C   UNL     1       2.159   6.316  -3.984  1.00  0.00     0.183 C 
ATOM      8  C   UNL     1       3.263   7.381  -3.946  1.00  0.00     0.065 C 
ATOM      9  C   UNL     1       1.515   6.268  -2.584  1.00  0.00     0.078 C 
ATOM     10  C   UNL     1       2.798   8.767  -3.502  1.00  0.00     0.007 C 
ATOM     11  C   UNL     1       1.752   8.810  -2.374  1.00  0.00     0.014 C 
BRANCH   7  12
ATOM     12  N   UNL     1       1.188   6.342  -5.097  1.00  0.00    -0.338 N 
ATOM     13  H   UNL     1       1.487   5.650  -5.785  1.00  0.00     0.346 HD
ATOM     14  H   UNL     1       0.282   6.151  -4.670  1.00  0.00     0.346 HD
BRANCH  12  15
ATOM     15  C   UNL     1       1.026   7.623  -5.795  1.00  0.00     0.329 C 
BRANCH  15  16
ATOM     16  C   UNL     1      -0.103   7.679  -6.793  1.00  0.00     0.147 A 
ATOM     17  C   UNL     1      -1.974   8.424  -7.755  1.00  0.00     0.057 A 
ATOM     18  C   UNL     1      -1.427   7.718  -8.812  1.00  0.00     0.091 A 
ATOM     19  N   UNL     1      -1.205   8.378  -6.601  1.00  0.00    -0.240 NA
ATOM     20  S   UNL     1       0.052   6.979  -8.351  1.00  0.00    -0.121 S 
BRANCH  17  21
ATOM     21  C   UNL     1      -3.257   9.243  -7.721  1.00  0.00     0.005 C 
ATOM     22  C   UNL     1      -4.211   8.681  -6.649  1.00  0.00     0.017 C 
ATOM     23  C   UNL     1      -3.994   9.229  -9.076  1.00  0.00     0.017 C 
ATOM     24  C   UNL     1      -2.930  10.710  -7.371  1.00  0.00     0.017 C 
ENDBRANCH  17  21
ENDBRANCH  15  16
ENDBRANCH  12  15
ENDBRANCH   7  12
ENDBRANCH   3   6
ENDBRANCH   1   2
BRANCH   1  25
ATOM     25  C   UNL     1      -2.081  10.625  -1.002  1.00  0.00     0.042 C 
BRANCH  25  26
ATOM     26  C   UNL     1      -3.361  10.844  -1.801  1.00  0.00     0.118 C 
BRANCH  26  27
ATOM     27  N   UNL     1      -4.493  10.058  -1.325  1.00  0.00    -0.352 N 
ATOM     28  C   UNL     1      -5.718  10.477  -0.860  1.00  0.00     0.251 C 
ATOM     29  H   UNL     1      -4.362   9.082  -1.339  1.00  0.00     0.163 HD
ATOM     30  O   UNL     1      -6.503   9.662  -0.381  1.00  0.00    -0.269 OA
BRANCH  28  31
ATOM     31  C   UNL     1      -6.079  11.911  -0.906  1.00  0.00     0.039 A 
ATOM     32  C   UNL     1      -6.649  12.505   0.223  1.00  0.00     0.014 A 
ATOM     33  C   UNL     1      -5.834  12.675  -2.050  1.00  0.00     0.014 A 
ATOM     34  C   UNL     1      -6.896  13.880   0.231  1.00  0.00     0.010 A 
ATOM     35  C   UNL     1      -5.990  14.056  -2.004  1.00  0.00     0.010 A 
ATOM     36  C   UNL     1      -6.528  14.676  -0.866  1.00  0.00    -0.014 A 
BRANCH  36  37
ATOM     37  C   UNL     1      -6.688  16.154  -0.843  1.00  0.00     0.031 A 
ATOM     38  C   UNL     1      -7.565  16.837  -1.859  1.00  0.00     0.074 A 
ATOM     39  C   UNL     1      -5.973  16.892   0.031  1.00  0.00     0.049 A 
ATOM     40  N   UNL     1      -7.777  18.115  -2.039  1.00  0.00    -0.248 NA
ATOM     41  C   UNL     1      -8.273  15.973  -2.818  1.00  0.00     0.031 C 
ATOM     42  C   UNL     1      -5.026  16.359   1.013  1.00  0.00     0.029 A 
ATOM     43  N   UNL     1      -5.911  18.251   0.217  1.00  0.00    -0.354 N 
ATOM     44  C   UNL     1      -8.607  18.210  -3.151  1.00  0.00     0.074 A 
ATOM     45  C   UNL     1      -8.827  16.863  -3.628  1.00  0.00     0.031 C 
ATOM     46  C   UNL     1      -4.487  17.376   1.703  1.00  0.00     0.029 A 
ATOM     47  C   UNL     1      -5.019  18.635   1.191  1.00  0.00     0.049 A 
ATOM     48  H   UNL     1      -6.454  18.890  -0.298  1.00  0.00     0.167 HD
ATOM     49  C   UNL     1      -9.162  19.313  -3.707  1.00  0.00     0.034 A 
ATOM     50  C   UNL     1      -4.662  19.862   1.619  1.00  0.00     0.034 A 
ATOM     51  C   UNL     1      -8.973  20.647  -3.207  1.00  0.00     0.049 A 
ATOM     52  C   UNL     1      -5.318  21.070   1.008  1.00  0.00     0.074 A 
ATOM     53  C   UNL     1      -9.562  21.821  -3.643  1.00  0.00     0.029 A 
ATOM     54  N   UNL     1      -8.125  20.989  -2.165  1.00  0.00    -0.354 N 
ATOM     55  N   UNL     1      -6.221  21.128   0.059  1.00  0.00    -0.248 NA
ATOM     56  C   UNL     1      -4.933  22.382   1.549  1.00  0.00     0.031 C 
ATOM     57  C   UNL     1      -9.044  22.877  -2.887  1.00  0.00     0.029 A 
ATOM     58  C   UNL     1      -8.163  22.357  -1.952  1.00  0.00     0.049 A 
ATOM     59  H   UNL     1      -7.576  20.353  -1.652  1.00  0.00     0.167 HD
ATOM     60  C   UNL     1      -6.541  22.473  -0.083  1.00  0.00     0.074 A 
ATOM     61  C   UNL     1      -5.748  23.195   0.891  1.00  0.00     0.031 C 
ATOM     62  C   UNL     1      -7.406  23.058  -0.948  1.00  0.00     0.034 A 
BRANCH  49  63
ATOM     63  C   UNL     1     -10.064  19.115  -4.899  1.00  0.00     0.023 A 
ATOM     64  C   UNL     1     -11.318  18.492  -4.731  1.00  0.00     0.012 A 
ATOM     65  C   UNL     1      -9.693  19.586  -6.174  1.00  0.00     0.148 A 
ATOM     66  C   UNL     1     -12.169  18.300  -5.819  1.00  0.00     0.002 A 
ATOM     67  C   UNL     1     -10.569  19.436  -7.244  1.00  0.00     0.091 A 
ATOM     68  F   UNL     1      -8.490  20.158  -6.321  1.00  0.00    -0.205 F 
ATOM     69  C   UNL     1     -11.799  18.781  -7.072  1.00  0.00     0.022 A 
BRANCH  67  70
ATOM     70  S   UNL     1     -10.222  20.095  -8.879  1.00  0.00     0.127 S 
ATOM     71  O   UNL     1      -9.987  18.872  -9.645  1.00  0.00    -0.237 OA
ATOM     72  O   UNL     1     -11.471  20.786  -9.202  1.00  0.00    -0.237 OA
ATOM     73  O   UNL     1      -9.067  20.967  -8.725  1.00  0.00    -0.744 OA
ENDBRANCH  67  70
ENDBRANCH  49  63
BRANCH  50  74
ATOM     74  C   UNL     1      -3.677  20.007   2.730  1.00  0.00     0.023 A 
ATOM     75  C   UNL     1      -4.115  20.466   3.988  1.00  0.00     0.012 A 
ATOM     76  C   UNL     1      -2.321  19.668   2.557  1.00  0.00     0.148 A 
ATOM     77  C   UNL     1      -3.215  20.617   5.043  1.00  0.00     0.002 A 
ATOM     78  C   UNL     1      -1.441  19.767   3.628  1.00  0.00     0.091 A 
ATOM     79  F   UNL     1      -1.923  19.240   1.351  1.00  0.00    -0.205 F 
ATOM     80  C   UNL     1      -1.881  20.259   4.867  1.00  0.00     0.022 A 
BRANCH  78  81
ATOM     81  S   UNL     1       0.263  19.206   3.533  1.00  0.00     0.127 S 
ATOM     82  O   UNL     1       0.998  20.464   3.635  1.00  0.00    -0.237 OA
ATOM     83  O   UNL     1       0.359  18.339   4.708  1.00  0.00    -0.237 OA
ATOM     84  O   UNL     1       0.379  18.508   2.260  1.00  0.00    -0.744 OA
ENDBRANCH  78  81
ENDBRANCH  50  74
BRANCH  62  85
ATOM     85  C   UNL     1      -7.583  24.552  -0.858  1.00  0.00     0.023 A 
ATOM     86  C   UNL     1      -6.555  25.413  -1.292  1.00  0.00     0.012 A 
ATOM     87  C   UNL     1      -8.803  25.101  -0.413  1.00  0.00     0.148 A 
ATOM     88  C   UNL     1      -6.726  26.797  -1.252  1.00  0.00     0.002 A 
ATOM     89  C   UNL     1      -8.985  26.478  -0.426  1.00  0.00     0.091 A 
ATOM     90  F   UNL     1      -9.762  24.266   0.012  1.00  0.00    -0.205 F 
ATOM     91  C   UNL     1      -7.943  27.328  -0.832  1.00  0.00     0.022 A 
BRANCH  89  92
ATOM     92  S   UNL     1     -10.551  27.247   0.001  1.00  0.00     0.127 S 
ATOM     93  O   UNL     1     -10.233  27.876   1.282  1.00  0.00    -0.237 OA
ATOM     94  O   UNL     1     -10.748  28.184  -1.106  1.00  0.00    -0.237 OA
ATOM     95  O   UNL     1     -11.527  26.168   0.061  1.00  0.00    -0.744 OA
ENDBRANCH  89  92
ENDBRANCH  62  85
ENDBRANCH  36  37
ENDBRANCH  28  31
ENDBRANCH  26  27
ENDBRANCH  25  26
ENDBRANCH   1  25
TORSDOF 17
