REMARK SMILES O=C(NCCCNC(=O)[C@H]1[C@H]2CC[C@H](C2)[C@H]1[NH2+]C/C(Cl)=C/Cl)c1ccc(-c2c3nc(c(-c4cccc(S(=O)(=O)[O-])c4F)c4ccc([nH]4)c(-c4cccc(S(=O)(=O)[O-])c4F)c4nc(c(-c5cccc(S(=O)(=O)[O-])c5F)c5ccc2[nH]5)C=C4)C=C3)cc1
REMARK SMILES IDX 5 1 4 2 3 3 1 4 2 5 23 7 24 8 85 9 25 10 84 11 26 12 27 13
REMARK SMILES IDX 28 14 78 15 29 16 83 17 77 18 79 19 30 20 82 21 76 22 75 23
REMARK SMILES IDX 31 25 63 26 43 27 62 28 44 29 47 30 61 31 80 32 45 33 46 34
REMARK SMILES IDX 60 36 81 37 48 38 32 39 33 40 41 41 34 42 36 43 42 44 35 45
REMARK SMILES IDX 37 46 38 47 39 48 40 49 64 50 65 51 73 52 66 53 68 54 74 55
REMARK SMILES IDX 67 56 69 57 70 58 71 59 72 60 49 61 50 62 58 63 51 64 53 65
REMARK SMILES IDX 59 66 52 67 54 68 55 69 56 70 57 71 6 72 7 73 8 74 9 76
REMARK SMILES IDX 10 77 11 78 16 79 12 80 15 81 14 82 13 83 17 84 18 87 19 88
REMARK SMILES IDX 20 89 21 90 22 91
REMARK H PARENT 3 6 79 24 47 35 7 75 17 85 17 86
REMARK Flexibility Score: inf
ROOT
ATOM      1  C   UNL     1       4.671  -3.036  -0.547  1.00  0.00     0.042 C 
ENDROOT
BRANCH   1   2
ATOM      2  C   UNL     1       5.419  -2.920   0.774  1.00  0.00     0.118 C 
BRANCH   2   3
ATOM      3  N   UNL     1       5.349  -1.581   1.336  1.00  0.00    -0.352 N 
ATOM      4  O   UNL     1       4.558   0.125   2.558  1.00  0.00    -0.269 OA
ATOM      5  C   UNL     1       4.612  -1.094   2.390  1.00  0.00     0.251 C 
ATOM      6  H   UNL     1       5.922  -0.916   0.890  1.00  0.00     0.163 HD
BRANCH   5   7
ATOM      7  C   UNL     1       3.861  -2.001   3.292  1.00  0.00     0.039 A 
ATOM      8  C   UNL     1       4.383  -3.230   3.695  1.00  0.00     0.014 A 
ATOM      9  C   UNL     1       2.613  -1.597   3.780  1.00  0.00     0.014 A 
ATOM     10  C   UNL     1       3.595  -4.125   4.413  1.00  0.00     0.010 A 
ATOM     11  C   UNL     1       1.870  -2.451   4.605  1.00  0.00     0.010 A 
ATOM     12  C   UNL     1       2.333  -3.744   4.894  1.00  0.00    -0.014 A 
BRANCH  12  13
ATOM     13  C   UNL     1       1.556  -4.689   5.745  1.00  0.00     0.031 A 
ATOM     14  C   UNL     1       0.186  -5.168   5.340  1.00  0.00     0.074 A 
ATOM     15  C   UNL     1       2.099  -5.122   6.902  1.00  0.00     0.049 A 
ATOM     16  N   UNL     1      -0.604  -6.014   5.955  1.00  0.00    -0.248 NA
ATOM     17  C   UNL     1      -0.381  -4.621   4.098  1.00  0.00     0.031 C 
ATOM     18  C   UNL     1       3.397  -4.699   7.434  1.00  0.00     0.029 A 
ATOM     19  N   UNL     1       1.636  -6.015   7.836  1.00  0.00    -0.354 N 
ATOM     20  C   UNL     1      -1.775  -6.062   5.206  1.00  0.00     0.074 A 
ATOM     21  C   UNL     1      -1.597  -5.153   4.095  1.00  0.00     0.031 C 
ATOM     22  C   UNL     1       3.645  -5.360   8.573  1.00  0.00     0.029 A 
ATOM     23  C   UNL     1       2.502  -6.208   8.888  1.00  0.00     0.049 A 
ATOM     24  H   UNL     1       0.768  -6.472   7.761  1.00  0.00     0.167 HD
ATOM     25  C   UNL     1      -2.889  -6.805   5.416  1.00  0.00     0.034 A 
ATOM     26  C   UNL     1       2.390  -6.973   9.991  1.00  0.00     0.034 A 
ATOM     27  C   UNL     1      -3.047  -7.744   6.497  1.00  0.00     0.049 A 
ATOM     28  C   UNL     1       1.155  -7.807  10.179  1.00  0.00     0.074 A 
ATOM     29  C   UNL     1      -4.105  -8.602   6.743  1.00  0.00     0.029 A 
ATOM     30  N   UNL     1      -2.130  -7.941   7.518  1.00  0.00    -0.354 N 
ATOM     31  N   UNL     1       0.120  -7.939   9.387  1.00  0.00    -0.248 NA
ATOM     32  C   UNL     1       1.088  -8.621  11.400  1.00  0.00     0.031 C 
ATOM     33  C   UNL     1      -3.844  -9.292   7.932  1.00  0.00     0.029 A 
ATOM     34  C   UNL     1      -2.605  -8.894   8.406  1.00  0.00     0.049 A 
ATOM     35  H   UNL     1      -1.268  -7.473   7.601  1.00  0.00     0.167 HD
ATOM     36  C   UNL     1      -0.705  -8.879   9.994  1.00  0.00     0.074 A 
ATOM     37  C   UNL     1      -0.036  -9.297  11.209  1.00  0.00     0.031 C 
ATOM     38  C   UNL     1      -1.912  -9.342   9.587  1.00  0.00     0.034 A 
BRANCH  25  39
ATOM     39  C   UNL     1      -4.031  -6.656   4.441  1.00  0.00     0.023 A 
ATOM     40  C   UNL     1      -3.914  -7.175   3.135  1.00  0.00     0.012 A 
ATOM     41  C   UNL     1      -5.247  -6.065   4.840  1.00  0.00     0.148 A 
ATOM     42  C   UNL     1      -4.972  -7.074   2.232  1.00  0.00     0.002 A 
ATOM     43  C   UNL     1      -6.314  -6.010   3.949  1.00  0.00     0.091 A 
ATOM     44  F   UNL     1      -5.338  -5.562   6.079  1.00  0.00    -0.205 F 
ATOM     45  C   UNL     1      -6.174  -6.502   2.641  1.00  0.00     0.022 A 
BRANCH  43  46
ATOM     46  S   UNL     1      -7.928  -5.369   4.408  1.00  0.00     0.127 S 
ATOM     47  O   UNL     1      -7.962  -4.104   3.677  1.00  0.00    -0.237 OA
ATOM     48  O   UNL     1      -8.828  -6.398   3.886  1.00  0.00    -0.237 OA
ATOM     49  O   UNL     1      -7.916  -5.254   5.860  1.00  0.00    -0.744 OA
ENDBRANCH  43  46
ENDBRANCH  25  39
BRANCH  26  50
ATOM     50  C   UNL     1       3.506  -7.023  10.977  1.00  0.00     0.023 A 
ATOM     51  C   UNL     1       4.255  -8.208  11.115  1.00  0.00     0.012 A 
ATOM     52  C   UNL     1       3.849  -5.899  11.753  1.00  0.00     0.148 A 
ATOM     53  C   UNL     1       5.304  -8.283  12.031  1.00  0.00     0.002 A 
ATOM     54  C   UNL     1       4.933  -5.962  12.619  1.00  0.00     0.091 A 
ATOM     55  F   UNL     1       3.118  -4.784  11.614  1.00  0.00    -0.205 F 
ATOM     56  C   UNL     1       5.650  -7.158  12.774  1.00  0.00     0.022 A 
BRANCH  54  57
ATOM     57  S   UNL     1       5.535  -4.525  13.514  1.00  0.00     0.127 S 
ATOM     58  O   UNL     1       5.177  -4.860  14.890  1.00  0.00    -0.237 OA
ATOM     59  O   UNL     1       6.968  -4.567  13.222  1.00  0.00    -0.237 OA
ATOM     60  O   UNL     1       4.838  -3.383  12.939  1.00  0.00    -0.744 OA
ENDBRANCH  54  57
ENDBRANCH  26  50
BRANCH  38  61
ATOM     61  C   UNL     1      -2.575 -10.395  10.438  1.00  0.00     0.023 A 
ATOM     62  C   UNL     1      -3.101 -10.056  11.700  1.00  0.00     0.012 A 
ATOM     63  C   UNL     1      -2.719 -11.713   9.961  1.00  0.00     0.148 A 
ATOM     64  C   UNL     1      -3.722 -11.021  12.492  1.00  0.00     0.002 A 
ATOM     65  C   UNL     1      -3.386 -12.657  10.733  1.00  0.00     0.091 A 
ATOM     66  F   UNL     1      -2.194 -12.024   8.767  1.00  0.00    -0.205 F 
ATOM     67  C   UNL     1      -3.875 -12.317  12.005  1.00  0.00     0.022 A 
BRANCH  65  68
ATOM     68  S   UNL     1      -3.716 -14.321  10.142  1.00  0.00     0.127 S 
ATOM     69  O   UNL     1      -2.764 -15.109  10.923  1.00  0.00    -0.237 OA
ATOM     70  O   UNL     1      -5.118 -14.512  10.517  1.00  0.00    -0.237 OA
ATOM     71  O   UNL     1      -3.476 -14.290   8.706  1.00  0.00    -0.744 OA
ENDBRANCH  65  68
ENDBRANCH  38  61
ENDBRANCH  12  13
ENDBRANCH   5   7
ENDBRANCH   2   3
ENDBRANCH   1   2
BRANCH   1  72
ATOM     72  C   UNL     1       5.444  -2.519  -1.751  1.00  0.00     0.117 C 
BRANCH  72  73
ATOM     73  N   UNL     1       6.717  -3.199  -1.946  1.00  0.00    -0.356 N 
ATOM     74  C   UNL     1       7.136  -4.036  -2.941  1.00  0.00     0.229 C 
ATOM     75  H   UNL     1       7.387  -3.027  -1.245  1.00  0.00     0.163 HD
ATOM     76  O   UNL     1       8.334  -4.313  -2.982  1.00  0.00    -0.275 OA
BRANCH  74  77
ATOM     77  C   UNL     1       6.130  -4.535  -3.965  1.00  0.00     0.140 C 
ATOM     78  C   UNL     1       6.725  -5.204  -5.226  1.00  0.00     0.008 C 
ATOM     79  C   UNL     1       5.045  -5.558  -3.511  1.00  0.00     0.198 C 
ATOM     80  C   UNL     1       7.453  -6.525  -4.910  1.00  0.00     0.005 C 
ATOM     81  C   UNL     1       5.439  -5.719  -5.884  1.00  0.00     0.014 C 
ATOM     82  C   UNL     1       5.066  -6.591  -4.680  1.00  0.00     0.048 C 
ATOM     83  C   UNL     1       6.309  -7.495  -4.596  1.00  0.00     0.010 C 
BRANCH  79  84
ATOM     84  N   UNL     1       5.226  -6.207  -2.213  1.00  0.00    -0.338 N 
ATOM     85  H   UNL     1       5.638  -5.535  -1.565  1.00  0.00     0.346 HD
ATOM     86  H   UNL     1       5.834  -7.014  -2.352  1.00  0.00     0.346 HD
BRANCH  84  87
ATOM     87  C   UNL     1       3.959  -6.694  -1.647  1.00  0.00     0.311 C 
BRANCH  87  88
ATOM     88  C   UNL     1       4.152  -7.258  -0.261  1.00  0.00     0.083 C 
ATOM     89  Cl  UNL     1       3.307  -6.423   1.003  1.00  0.00    -0.082 Cl
ATOM     90  C   UNL     1       4.933  -8.318  -0.019  1.00  0.00     0.102 C 
ATOM     91  Cl  UNL     1       5.237  -9.017   1.515  1.00  0.00    -0.091 Cl
ENDBRANCH  87  88
ENDBRANCH  84  87
ENDBRANCH  79  84
ENDBRANCH  74  77
ENDBRANCH  72  73
ENDBRANCH   1  72
TORSDOF 16
