REMARK SMILES C[N@@H+]1CCN(C(=O)c2ccc3[nH]c4c(c3c2)CSCC4)C[C@H]1C(=O)NCCCNC(=O)c1ccc(-c2c3nc(c(-c4cccc(S(=O)(=O)[O-])c4F)c4ccc([nH]4)c(-c4cccc(S(=O)(=O)[O-])c4F)c4nc(c(-c5cccc(S(=O)(=O)[O-])c5F)c5ccc2[nH]5)C=C4)C=C3)cc1
REMARK SMILES IDX 27 1 26 2 25 3 23 4 24 5 22 7 1 8 2 9 3 10 4 12 21 13 5 14
REMARK SMILES IDX 6 15 7 16 8 17 9 18 16 19 10 20 15 21 11 22 14 23 12 24
REMARK SMILES IDX 13 25 17 26 20 28 18 29 19 30 28 31 29 32 30 33 31 35 32 36
REMARK SMILES IDX 33 37 94 38 34 39 93 40 35 41 36 42 37 43 87 44 38 45 92 46
REMARK SMILES IDX 86 47 88 48 39 49 91 50 85 51 84 52 40 54 72 55 52 56 71 57
REMARK SMILES IDX 53 58 56 59 70 60 89 61 54 62 55 63 69 65 90 66 57 67 41 68
REMARK SMILES IDX 42 69 50 70 43 71 45 72 51 73 44 74 46 75 47 76 48 77 49 78
REMARK SMILES IDX 73 79 74 80 82 81 75 82 77 83 83 84 76 85 78 86 79 87 80 88
REMARK SMILES IDX 81 89 58 90 59 91 67 92 60 93 62 94 68 95 61 96 63 97 64 98
REMARK SMILES IDX 65 99 66 100
REMARK H PARENT 25 6 2 11 12 27 29 34 88 53 56 64
REMARK Flexibility Score: inf
ROOT
ATOM      1  C   UNL     1       1.767  -1.315  -3.794  1.00  0.00     0.042 C 
ENDROOT
BRANCH   1   2
ATOM      2  C   UNL     1       0.636  -1.786  -2.886  1.00  0.00     0.118 C 
BRANCH   2   3
ATOM      3  N   UNL     1       1.095  -2.634  -1.797  1.00  0.00    -0.351 N 
ATOM      4  C   UNL     1       1.024  -2.447  -0.449  1.00  0.00     0.280 C 
ATOM      5  O   UNL     1       1.480  -3.338   0.277  1.00  0.00    -0.268 OA
ATOM      6  H   UNL     1       1.524  -3.474  -2.078  1.00  0.00     0.163 HD
BRANCH   4   7
ATOM      7  C   UNL     1       0.371  -1.201   0.169  1.00  0.00     0.293 C 
ATOM      8  C   UNL     1       2.422   0.128   0.100  1.00  0.00     0.333 C 
ATOM      9  N   UNL     1       1.011   0.067  -0.294  1.00  0.00    -0.324 N 
ATOM     10  C   UNL     1       0.284   1.221   0.287  1.00  0.00     0.284 C 
ATOM     11  H   UNL     1       0.965   0.096  -1.313  1.00  0.00     0.348 HD
ATOM     12  C   UNL     1      -1.228   1.195   0.001  1.00  0.00     0.181 C 
ATOM     13  C   UNL     1      -1.152  -1.264  -0.080  1.00  0.00     0.195 C 
ATOM     14  N   UNL     1      -1.844  -0.068   0.414  1.00  0.00    -0.326 N 
BRANCH  14  15
ATOM     15  C   UNL     1      -3.131  -0.041   0.942  1.00  0.00     0.254 C 
ATOM     16  O   UNL     1      -3.757   0.992   1.170  1.00  0.00    -0.269 OA
BRANCH  15  17
ATOM     17  C   UNL     1      -3.809  -1.321   1.232  1.00  0.00     0.040 A 
ATOM     18  C   UNL     1      -3.278  -2.207   2.172  1.00  0.00     0.016 A 
ATOM     19  C   UNL     1      -5.010  -1.601   0.564  1.00  0.00     0.024 A 
ATOM     20  C   UNL     1      -3.893  -3.438   2.414  1.00  0.00     0.027 A 
ATOM     21  C   UNL     1      -5.658  -2.826   0.815  1.00  0.00     0.004 A 
ATOM     22  C   UNL     1      -5.076  -3.718   1.720  1.00  0.00     0.046 A 
ATOM     23  C   UNL     1      -6.872  -3.421   0.347  1.00  0.00    -0.009 A 
ATOM     24  N   UNL     1      -5.881  -4.833   1.766  1.00  0.00    -0.358 N 
ATOM     25  C   UNL     1      -6.983  -4.646   0.980  1.00  0.00     0.021 A 
ATOM     26  C   UNL     1      -7.868  -2.821  -0.594  1.00  0.00     0.107 C 
ATOM     27  H   UNL     1      -5.691  -5.646   2.287  1.00  0.00     0.166 HD
ATOM     28  C   UNL     1      -8.095  -5.628   0.860  1.00  0.00     0.065 C 
ATOM     29  S   UNL     1      -9.202  -3.976  -1.095  1.00  0.00    -0.157 SA
ATOM     30  C   UNL     1      -9.392  -4.917   0.464  1.00  0.00     0.076 C 
ENDBRANCH  15  17
ENDBRANCH  14  15
ENDBRANCH   4   7
ENDBRANCH   2   3
ENDBRANCH   1   2
BRANCH   1  31
ATOM     31  C   UNL     1       2.550  -2.433  -4.482  1.00  0.00     0.118 C 
BRANCH  31  32
ATOM     32  N   UNL     1       1.730  -3.408  -5.175  1.00  0.00    -0.352 N 
ATOM     33  C   UNL     1       1.237  -3.534  -6.445  1.00  0.00     0.251 C 
ATOM     34  H   UNL     1       1.466  -4.157  -4.594  1.00  0.00     0.163 HD
ATOM     35  O   UNL     1       0.711  -4.621  -6.699  1.00  0.00    -0.269 OA
BRANCH  33  36
ATOM     36  C   UNL     1       1.240  -2.472  -7.489  1.00  0.00     0.039 A 
ATOM     37  C   UNL     1       1.727  -1.177  -7.325  1.00  0.00     0.014 A 
ATOM     38  C   UNL     1       0.626  -2.804  -8.714  1.00  0.00     0.014 A 
ATOM     39  C   UNL     1       1.526  -0.218  -8.314  1.00  0.00     0.010 A 
ATOM     40  C   UNL     1       0.441  -1.854  -9.716  1.00  0.00     0.010 A 
ATOM     41  C   UNL     1       0.853  -0.545  -9.496  1.00  0.00    -0.014 A 
BRANCH  41  42
ATOM     42  C   UNL     1       0.669   0.515 -10.485  1.00  0.00     0.031 A 
ATOM     43  C   UNL     1       1.917   1.155 -10.986  1.00  0.00     0.074 A 
ATOM     44  C   UNL     1      -0.522   0.899 -10.986  1.00  0.00     0.049 A 
ATOM     45  N   UNL     1       2.347   2.351 -10.737  1.00  0.00    -0.248 NA
ATOM     46  C   UNL     1       2.843   0.336 -11.778  1.00  0.00     0.031 C 
ATOM     47  C   UNL     1      -1.826   0.248 -10.851  1.00  0.00     0.029 A 
ATOM     48  N   UNL     1      -0.782   1.940 -11.830  1.00  0.00    -0.354 N 
ATOM     49  C   UNL     1       3.499   2.510 -11.505  1.00  0.00     0.074 A 
ATOM     50  C   UNL     1       3.828   1.203 -12.018  1.00  0.00     0.031 C 
ATOM     51  C   UNL     1      -2.678   0.768 -11.764  1.00  0.00     0.029 A 
ATOM     52  C   UNL     1      -2.030   1.880 -12.437  1.00  0.00     0.049 A 
ATOM     53  H   UNL     1      -0.142   2.669 -11.993  1.00  0.00     0.167 HD
ATOM     54  C   UNL     1       3.996   3.737 -11.824  1.00  0.00     0.034 A 
ATOM     55  C   UNL     1      -2.462   2.660 -13.458  1.00  0.00     0.034 A 
ATOM     56  C   UNL     1       3.413   4.786 -11.035  1.00  0.00     0.049 A 
ATOM     57  C   UNL     1      -1.649   3.899 -13.425  1.00  0.00     0.074 A 
ATOM     58  C   UNL     1       3.343   5.086  -9.690  1.00  0.00     0.029 A 
ATOM     59  N   UNL     1       2.476   5.581 -11.649  1.00  0.00    -0.354 N 
ATOM     60  N   UNL     1      -1.718   4.790 -12.476  1.00  0.00    -0.248 NA
ATOM     61  C   UNL     1      -0.480   3.986 -14.285  1.00  0.00     0.031 C 
ATOM     62  C   UNL     1       2.055   5.671  -9.515  1.00  0.00     0.029 A 
ATOM     63  C   UNL     1       1.440   5.713 -10.768  1.00  0.00     0.049 A 
ATOM     64  H   UNL     1       2.539   5.978 -12.547  1.00  0.00     0.167 HD
ATOM     65  C   UNL     1      -0.422   5.268 -12.352  1.00  0.00     0.074 A 
ATOM     66  C   UNL     1       0.264   4.826 -13.562  1.00  0.00     0.031 C 
ATOM     67  C   UNL     1       0.049   5.731 -11.158  1.00  0.00     0.034 A 
BRANCH  54  68
ATOM     68  C   UNL     1       4.770   4.066 -13.075  1.00  0.00     0.023 A 
ATOM     69  C   UNL     1       5.435   5.314 -13.129  1.00  0.00     0.012 A 
ATOM     70  C   UNL     1       4.627   3.358 -14.287  1.00  0.00     0.148 A 
ATOM     71  C   UNL     1       5.892   5.850 -14.337  1.00  0.00     0.002 A 
ATOM     72  C   UNL     1       5.145   3.864 -15.474  1.00  0.00     0.091 A 
ATOM     73  F   UNL     1       3.868   2.257 -14.327  1.00  0.00    -0.205 F 
ATOM     74  C   UNL     1       5.753   5.121 -15.511  1.00  0.00     0.022 A 
BRANCH  72  75
ATOM     75  S   UNL     1       5.016   2.947 -17.013  1.00  0.00     0.127 S 
ATOM     76  O   UNL     1       3.903   3.626 -17.665  1.00  0.00    -0.237 OA
ATOM     77  O   UNL     1       6.329   3.180 -17.615  1.00  0.00    -0.237 OA
ATOM     78  O   UNL     1       4.785   1.563 -16.611  1.00  0.00    -0.744 OA
ENDBRANCH  72  75
ENDBRANCH  54  68
BRANCH  55  79
ATOM     79  C   UNL     1      -3.377   2.358 -14.586  1.00  0.00     0.023 A 
ATOM     80  C   UNL     1      -3.879   3.420 -15.368  1.00  0.00     0.012 A 
ATOM     81  C   UNL     1      -3.529   1.044 -15.083  1.00  0.00     0.148 A 
ATOM     82  C   UNL     1      -4.457   3.190 -16.622  1.00  0.00     0.002 A 
ATOM     83  C   UNL     1      -4.118   0.819 -16.326  1.00  0.00     0.091 A 
ATOM     84  F   UNL     1      -3.010   0.023 -14.390  1.00  0.00    -0.205 F 
ATOM     85  C   UNL     1      -4.568   1.891 -17.105  1.00  0.00     0.022 A 
BRANCH  83  86
ATOM     86  S   UNL     1      -4.286  -0.835 -17.013  1.00  0.00     0.127 S 
ATOM     87  O   UNL     1      -5.638  -0.801 -17.572  1.00  0.00    -0.237 OA
ATOM     88  O   UNL     1      -3.215  -0.862 -18.006  1.00  0.00    -0.237 OA
ATOM     89  O   UNL     1      -4.131  -1.746 -15.887  1.00  0.00    -0.744 OA
ENDBRANCH  83  86
ENDBRANCH  55  79
BRANCH  67  90
ATOM     90  C   UNL     1      -0.930   5.980 -10.043  1.00  0.00     0.023 A 
ATOM     91  C   UNL     1      -1.603   4.920  -9.403  1.00  0.00     0.012 A 
ATOM     92  C   UNL     1      -0.970   7.265  -9.476  1.00  0.00     0.148 A 
ATOM     93  C   UNL     1      -2.302   5.138  -8.214  1.00  0.00     0.002 A 
ATOM     94  C   UNL     1      -1.629   7.468  -8.271  1.00  0.00     0.091 A 
ATOM     95  F   UNL     1      -0.305   8.251 -10.097  1.00  0.00    -0.205 F 
ATOM     96  C   UNL     1      -2.301   6.408  -7.640  1.00  0.00     0.022 A 
BRANCH  94  97
ATOM     97  S   UNL     1      -1.557   9.036  -7.401  1.00  0.00     0.127 S 
ATOM     98  O   UNL     1      -2.957   9.458  -7.413  1.00  0.00    -0.237 OA
ATOM     99  O   UNL     1      -1.049   8.635  -6.088  1.00  0.00    -0.237 OA
ATOM    100  O   UNL     1      -0.649   9.885  -8.163  1.00  0.00    -0.744 OA
ENDBRANCH  94  97
ENDBRANCH  67  90
ENDBRANCH  41  42
ENDBRANCH  33  36
ENDBRANCH  31  32
ENDBRANCH   1  31
TORSDOF 15
