REMARK SMILES Cc1cccc([C@H]([NH3+])[C@H](O)C(=O)NCCCNC(=O)c2ccc(-c3c4nc(c(-c5cccc(S(=O)(=O)[O-])c5F)c5ccc([nH]5)c(-c5cccc(S(=O)(=O)[O-])c5F)c5nc(c(-c6cccc(S(=O)(=O)[O-])c6F)c6ccc3[nH]6)C=C5)C=C4)cc2)c1
REMARK SMILES IDX 15 1 14 2 13 3 11 4 12 5 9 7 7 8 6 9 1 10 2 11 3 12 83 13
REMARK SMILES IDX 4 14 5 15 8 16 10 20 16 22 17 23 18 24 19 26 20 27 21 28
REMARK SMILES IDX 82 29 22 30 81 31 23 32 24 33 25 34 75 35 26 36 80 37 74 38
REMARK SMILES IDX 76 39 27 40 79 41 73 42 72 43 28 45 60 46 40 47 59 48 41 49
REMARK SMILES IDX 44 50 58 51 77 52 42 53 43 54 57 56 78 57 45 58 29 59 30 60
REMARK SMILES IDX 38 61 31 62 33 63 39 64 32 65 34 66 35 67 36 68 37 69 61 70
REMARK SMILES IDX 62 71 70 72 63 73 65 74 71 75 64 76 66 77 67 78 68 79 69 80
REMARK SMILES IDX 46 81 47 82 55 83 48 84 50 85 56 86 49 87 51 88 52 89 53 90
REMARK SMILES IDX 54 91
REMARK H PARENT 13 6 8 17 8 18 8 19 10 21 17 25 76 44 44 55
REMARK Flexibility Score: inf
ROOT
ATOM      1  C   UNL     1      -0.637   5.283   0.737  1.00  0.00     0.042 C 
ENDROOT
BRANCH   1   2
ATOM      2  C   UNL     1      -1.442   5.266   2.023  1.00  0.00     0.117 C 
BRANCH   2   3
ATOM      3  N   UNL     1      -2.844   4.971   1.795  1.00  0.00    -0.354 N 
ATOM      4  C   UNL     1      -3.517   3.813   1.587  1.00  0.00     0.255 C 
ATOM      5  O   UNL     1      -4.749   3.916   1.490  1.00  0.00    -0.272 OA
ATOM      6  H   UNL     1      -3.420   5.770   1.789  1.00  0.00     0.163 HD
BRANCH   4   7
ATOM      7  C   UNL     1      -2.880   2.405   1.425  1.00  0.00     0.266 C 
BRANCH   7   8
ATOM      8  C   UNL     1      -1.752   1.966   2.419  1.00  0.00     0.250 C 
BRANCH   8   9
ATOM      9  C   UNL     1      -0.276   2.029   2.004  1.00  0.00     0.013 A 
ATOM     10  C   UNL     1       3.088   1.784   3.832  1.00  0.00     0.044 C 
ATOM     11  C   UNL     1       2.073   1.968   2.745  1.00  0.00    -0.051 A 
ATOM     12  C   UNL     1       2.494   2.266   1.449  1.00  0.00     0.003 A 
ATOM     13  C   UNL     1       0.699   1.866   3.012  1.00  0.00     0.013 A 
ATOM     14  C   UNL     1       1.558   2.393   0.430  1.00  0.00     0.001 A 
ATOM     15  C   UNL     1       0.193   2.248   0.702  1.00  0.00     0.010 A 
ENDBRANCH   8   9
BRANCH   8  16
ATOM     16  N   UNL     1      -2.011   0.585   2.910  1.00  0.00    -0.349 N 
ATOM     17  H   UNL     1      -1.906  -0.076   2.140  1.00  0.00     0.345 HD
ATOM     18  H   UNL     1      -2.961   0.528   3.279  1.00  0.00     0.345 HD
ATOM     19  H   UNL     1      -1.346   0.356   3.648  1.00  0.00     0.345 HD
ENDBRANCH   8  16
ENDBRANCH   7   8
BRANCH   7  20
ATOM     20  O   UNL     1      -2.649   2.038   0.068  1.00  0.00    -0.378 OA
ATOM     21  H   UNL     1      -1.931   2.580  -0.296  1.00  0.00     0.211 HD
ENDBRANCH   7  20
ENDBRANCH   4   7
ENDBRANCH   2   3
ENDBRANCH   1   2
BRANCH   1  22
ATOM     22  C   UNL     1      -0.526   6.656   0.104  1.00  0.00     0.118 C 
BRANCH  22  23
ATOM     23  N   UNL     1       0.695   7.360   0.485  1.00  0.00    -0.352 N 
ATOM     24  C   UNL     1       1.150   8.605   0.096  1.00  0.00     0.251 C 
ATOM     25  H   UNL     1       1.281   6.876   1.111  1.00  0.00     0.163 HD
ATOM     26  O   UNL     1       2.281   8.960   0.426  1.00  0.00    -0.269 OA
BRANCH  24  27
ATOM     27  C   UNL     1       0.218   9.537  -0.579  1.00  0.00     0.039 A 
ATOM     28  C   UNL     1       0.086  10.821  -0.036  1.00  0.00     0.014 A 
ATOM     29  C   UNL     1      -0.706   9.064  -1.504  1.00  0.00     0.014 A 
ATOM     30  C   UNL     1      -1.119  11.499  -0.185  1.00  0.00     0.010 A 
ATOM     31  C   UNL     1      -1.934   9.679  -1.568  1.00  0.00     0.010 A 
ATOM     32  C   UNL     1      -2.160  10.849  -0.836  1.00  0.00    -0.014 A 
BRANCH  32  33
ATOM     33  C   UNL     1      -3.553  11.257  -0.781  1.00  0.00     0.031 A 
ATOM     34  C   UNL     1      -4.119  12.046  -1.885  1.00  0.00     0.074 A 
ATOM     35  C   UNL     1      -4.337  10.691   0.162  1.00  0.00     0.049 A 
ATOM     36  N   UNL     1      -5.287  12.585  -1.874  1.00  0.00    -0.248 NA
ATOM     37  C   UNL     1      -3.362  12.316  -3.098  1.00  0.00     0.031 C 
ATOM     38  C   UNL     1      -5.789  10.572   0.161  1.00  0.00     0.029 A 
ATOM     39  N   UNL     1      -3.965  10.294   1.452  1.00  0.00    -0.354 N 
ATOM     40  C   UNL     1      -5.553  13.015  -3.157  1.00  0.00     0.074 A 
ATOM     41  C   UNL     1      -4.289  12.920  -3.844  1.00  0.00     0.031 C 
ATOM     42  C   UNL     1      -6.208  10.413   1.427  1.00  0.00     0.029 A 
ATOM     43  C   UNL     1      -5.051  10.644   2.276  1.00  0.00     0.049 A 
ATOM     44  H   UNL     1      -3.123   9.863   1.725  1.00  0.00     0.167 HD
ATOM     45  C   UNL     1      -6.850  13.250  -3.507  1.00  0.00     0.034 A 
ATOM     46  C   UNL     1      -4.973  11.595   3.256  1.00  0.00     0.034 A 
ATOM     47  C   UNL     1      -7.718  13.203  -2.318  1.00  0.00     0.049 A 
ATOM     48  C   UNL     1      -5.986  12.718   3.083  1.00  0.00     0.074 A 
ATOM     49  C   UNL     1      -8.541  12.228  -1.778  1.00  0.00     0.029 A 
ATOM     50  N   UNL     1      -7.570  14.177  -1.336  1.00  0.00    -0.354 N 
ATOM     51  N   UNL     1      -6.701  12.904   2.008  1.00  0.00    -0.248 NA
ATOM     52  C   UNL     1      -6.252  13.733   4.099  1.00  0.00     0.031 C 
ATOM     53  C   UNL     1      -8.794  12.573  -0.420  1.00  0.00     0.029 A 
ATOM     54  C   UNL     1      -8.161  13.774  -0.149  1.00  0.00     0.049 A 
ATOM     55  H   UNL     1      -7.109  15.037  -1.467  1.00  0.00     0.167 HD
ATOM     56  C   UNL     1      -7.399  14.079   2.106  1.00  0.00     0.074 A 
ATOM     57  C   UNL     1      -7.147  14.516   3.470  1.00  0.00     0.031 C 
ATOM     58  C   UNL     1      -8.063  14.622   1.038  1.00  0.00     0.034 A 
BRANCH  45  59
ATOM     59  C   UNL     1      -7.402  13.242  -4.930  1.00  0.00     0.023 A 
ATOM     60  C   UNL     1      -8.803  13.101  -5.075  1.00  0.00     0.012 A 
ATOM     61  C   UNL     1      -6.669  13.267  -6.140  1.00  0.00     0.148 A 
ATOM     62  C   UNL     1      -9.421  12.906  -6.317  1.00  0.00     0.002 A 
ATOM     63  C   UNL     1      -7.275  13.028  -7.379  1.00  0.00     0.091 A 
ATOM     64  F   UNL     1      -5.377  13.586  -6.136  1.00  0.00    -0.205 F 
ATOM     65  C   UNL     1      -8.654  12.839  -7.470  1.00  0.00     0.022 A 
BRANCH  63  66
ATOM     66  S   UNL     1      -6.328  12.888  -8.909  1.00  0.00     0.127 S 
ATOM     67  O   UNL     1      -6.762  11.586  -9.420  1.00  0.00    -0.237 OA
ATOM     68  O   UNL     1      -6.808  14.033  -9.680  1.00  0.00    -0.237 OA
ATOM     69  O   UNL     1      -4.921  12.939  -8.530  1.00  0.00    -0.744 OA
ENDBRANCH  63  66
ENDBRANCH  45  59
BRANCH  46  70
ATOM     70  C   UNL     1      -3.598  11.760   3.824  1.00  0.00     0.023 A 
ATOM     71  C   UNL     1      -3.012  10.620   4.429  1.00  0.00     0.012 A 
ATOM     72  C   UNL     1      -2.761  12.818   3.428  1.00  0.00     0.148 A 
ATOM     73  C   UNL     1      -1.626  10.468   4.481  1.00  0.00     0.002 A 
ATOM     74  C   UNL     1      -1.376  12.665   3.500  1.00  0.00     0.091 A 
ATOM     75  F   UNL     1      -3.318  13.925   2.921  1.00  0.00    -0.205 F 
ATOM     76  C   UNL     1      -0.808  11.474   3.980  1.00  0.00     0.022 A 
BRANCH  74  77
ATOM     77  S   UNL     1      -0.263  13.926   2.861  1.00  0.00     0.127 S 
ATOM     78  O   UNL     1      -0.021  14.733   4.053  1.00  0.00    -0.237 OA
ATOM     79  O   UNL     1       0.883  13.139   2.406  1.00  0.00    -0.237 OA
ATOM     80  O   UNL     1      -1.010  14.562   1.785  1.00  0.00    -0.744 OA
ENDBRANCH  74  77
ENDBRANCH  46  70
BRANCH  58  81
ATOM     81  C   UNL     1      -8.654  16.021   0.982  1.00  0.00     0.023 A 
ATOM     82  C   UNL     1      -8.208  17.063   1.817  1.00  0.00     0.012 A 
ATOM     83  C   UNL     1      -9.574  16.377  -0.040  1.00  0.00     0.148 A 
ATOM     84  C   UNL     1      -8.684  18.373   1.687  1.00  0.00     0.002 A 
ATOM     85  C   UNL     1      -9.954  17.702  -0.239  1.00  0.00     0.091 A 
ATOM     86  F   UNL     1     -10.105  15.426  -0.824  1.00  0.00    -0.205 F 
ATOM     87  C   UNL     1      -9.537  18.700   0.642  1.00  0.00     0.022 A 
BRANCH  85  88
ATOM     88  S   UNL     1     -10.845  18.191  -1.725  1.00  0.00     0.127 S 
ATOM     89  O   UNL     1     -12.238  18.087  -1.296  1.00  0.00    -0.237 OA
ATOM     90  O   UNL     1     -10.377  19.562  -1.940  1.00  0.00    -0.237 OA
ATOM     91  O   UNL     1     -10.411  17.248  -2.747  1.00  0.00    -0.744 OA
ENDBRANCH  85  88
ENDBRANCH  58  81
ENDBRANCH  32  33
ENDBRANCH  24  27
ENDBRANCH  22  23
ENDBRANCH   1  22
TORSDOF 17
