REMARK SMILES COc1ccc([C@@H]2CC(c3ccc(Cl)cc3)=NN2C2=[NH+]C(=O)[C@@H](CC(=O)NCCCNC(=O)c3ccc(-c4c5nc(c(-c6cccc(S(=O)(=O)[O-])c6F)c6ccc([nH]6)c(-c6cccc(S(=O)(=O)[O-])c6F)c6nc(c(-c7cccc(S(=O)(=O)[O-])c7F)c7ccc4[nH]7)C=C6)C=C5)cc3)S2)cc1OC
REMARK SMILES IDX 28 1 27 2 25 3 26 4 24 6 23 7 19 8 20 9 97 10 21 11 22 13
REMARK SMILES IDX 18 14 7 15 8 16 9 17 17 18 6 19 3 20 4 21 99 22 5 23 98 24
REMARK SMILES IDX 2 25 1 26 100 27 101 28 10 29 11 30 16 31 12 32 15 33 13 34
REMARK SMILES IDX 14 35 29 36 30 37 31 38 32 39 33 41 34 42 35 43 96 44 36 45
REMARK SMILES IDX 95 46 37 47 38 48 39 49 89 50 40 51 94 52 88 53 90 54 41 55
REMARK SMILES IDX 93 56 87 57 86 58 42 60 74 61 54 62 73 63 55 64 58 65 72 66
REMARK SMILES IDX 91 67 56 68 57 69 71 71 92 72 59 73 43 74 44 75 52 76 45 77
REMARK SMILES IDX 47 78 53 79 46 80 48 81 49 82 50 83 51 84 75 85 76 86 84 87
REMARK SMILES IDX 77 88 79 89 85 90 78 91 80 92 81 93 82 94 83 95 60 96 61 97
REMARK SMILES IDX 69 98 62 99 64 100 70 101 63 102 65 103 66 104 67 105 68 106
REMARK H PARENT 27 5 20 12 31 40 90 59 58 70
REMARK Flexibility Score: inf
ROOT
ATOM      1  C   UNL     1      -0.499   7.688   3.928  1.00  0.00     0.117 C 
ENDROOT
BRANCH   1   2
ATOM      2  N   UNL     1      -0.334   8.736   2.935  1.00  0.00    -0.356 N 
ATOM      3  C   UNL     1       0.685   8.917   2.049  1.00  0.00     0.221 C 
ATOM      4  O   UNL     1       0.785   9.997   1.468  1.00  0.00    -0.275 OA
ATOM      5  H   UNL     1      -1.055   9.405   2.898  1.00  0.00     0.163 HD
BRANCH   3   6
ATOM      6  C   UNL     1       1.601   7.767   1.720  1.00  0.00     0.127 C 
BRANCH   6   7
ATOM      7  C   UNL     1       2.994   7.800   2.342  1.00  0.00     0.183 C 
ATOM      8  C   UNL     1       3.232   5.857   3.949  1.00  0.00     0.340 C 
ATOM      9  N   UNL     1       3.475   5.455   2.743  1.00  0.00    -0.202 N 
ATOM     10  S   UNL     1       3.116   7.598   4.145  1.00  0.00    -0.020 SA
ATOM     11  C   UNL     1       3.661   6.516   1.876  1.00  0.00     0.322 C 
ATOM     12  H   UNL     1       3.521   4.508   2.475  1.00  0.00     0.316 HD
ATOM     13  O   UNL     1       4.204   6.417   0.784  1.00  0.00    -0.246 OA
BRANCH   8  14
ATOM     14  N   UNL     1       3.042   5.067   5.067  1.00  0.00    -0.120 N 
ATOM     15  C   UNL     1       2.212   3.856   5.016  1.00  0.00     0.243 C 
ATOM     16  C   UNL     1       2.891   2.886   5.978  1.00  0.00     0.118 C 
ATOM     17  C   UNL     1       4.014   3.743   6.479  1.00  0.00     0.096 C 
ATOM     18  N   UNL     1       4.045   4.953   6.014  1.00  0.00    -0.086 NA
BRANCH  15  19
ATOM     19  C   UNL     1       0.761   4.163   5.372  1.00  0.00     0.003 A 
ATOM     20  C   UNL     1      -1.932   4.904   5.872  1.00  0.00     0.160 A 
ATOM     21  C   UNL     1      -0.965   4.991   6.882  1.00  0.00     0.051 A 
ATOM     22  C   UNL     1      -1.569   4.420   4.611  1.00  0.00     0.161 A 
ATOM     23  C   UNL     1       0.370   4.633   6.634  1.00  0.00     0.012 A 
ATOM     24  C   UNL     1      -0.235   4.033   4.387  1.00  0.00     0.058 A 
BRANCH  20  25
ATOM     25  O   UNL     1      -3.141   5.514   6.065  1.00  0.00    -0.493 OA
ATOM     26  C   UNL     1      -4.006   4.851   6.982  1.00  0.00     0.278 C 
ENDBRANCH  20  25
BRANCH  22  27
ATOM     27  O   UNL     1      -2.338   4.319   3.482  1.00  0.00    -0.493 OA
ATOM     28  C   UNL     1      -3.701   4.711   3.544  1.00  0.00     0.278 C 
ENDBRANCH  22  27
ENDBRANCH  15  19
BRANCH  17  29
ATOM     29  C   UNL     1       5.024   3.204   7.415  1.00  0.00     0.000 A 
ATOM     30  C   UNL     1       5.592   4.036   8.385  1.00  0.00     0.011 A 
ATOM     31  C   UNL     1       5.451   1.875   7.296  1.00  0.00     0.011 A 
ATOM     32  C   UNL     1       6.569   3.531   9.253  1.00  0.00     0.021 A 
ATOM     33  C   UNL     1       6.440   1.381   8.150  1.00  0.00     0.021 A 
ATOM     34  C   UNL     1       6.992   2.209   9.127  1.00  0.00     0.041 A 
ATOM     35  Cl  UNL     1       8.213   1.581  10.164  1.00  0.00    -0.084 Cl
ENDBRANCH  17  29
ENDBRANCH   8  14
ENDBRANCH   6   7
ENDBRANCH   3   6
ENDBRANCH   1   2
BRANCH   1  36
ATOM     36  C   UNL     1      -0.039   8.173   5.295  1.00  0.00     0.042 C 
BRANCH  36  37
ATOM     37  C   UNL     1      -0.980   9.153   5.960  1.00  0.00     0.118 C 
BRANCH  37  38
ATOM     38  N   UNL     1      -2.265   8.587   6.316  1.00  0.00    -0.352 N 
ATOM     39  C   UNL     1      -2.830   8.365   7.542  1.00  0.00     0.251 C 
ATOM     40  H   UNL     1      -2.823   8.317   5.550  1.00  0.00     0.163 HD
ATOM     41  O   UNL     1      -3.986   7.954   7.622  1.00  0.00    -0.269 OA
BRANCH  39  42
ATOM     42  C   UNL     1      -2.077   8.593   8.784  1.00  0.00     0.039 A 
ATOM     43  C   UNL     1      -2.139   7.610   9.780  1.00  0.00     0.014 A 
ATOM     44  C   UNL     1      -1.437   9.810   9.024  1.00  0.00     0.014 A 
ATOM     45  C   UNL     1      -1.599   7.866  11.034  1.00  0.00     0.010 A 
ATOM     46  C   UNL     1      -0.822  10.032  10.245  1.00  0.00     0.010 A 
ATOM     47  C   UNL     1      -0.970   9.094  11.274  1.00  0.00    -0.014 A 
BRANCH  47  48
ATOM     48  C   UNL     1      -0.629   9.509  12.647  1.00  0.00     0.031 A 
ATOM     49  C   UNL     1      -1.430  10.622  13.267  1.00  0.00     0.074 A 
ATOM     50  C   UNL     1       0.409   8.936  13.275  1.00  0.00     0.049 A 
ATOM     51  N   UNL     1      -1.237  11.255  14.391  1.00  0.00    -0.248 NA
ATOM     52  C   UNL     1      -2.589  11.115  12.496  1.00  0.00     0.031 C 
ATOM     53  C   UNL     1       1.246   7.871  12.719  1.00  0.00     0.029 A 
ATOM     54  N   UNL     1       0.958   9.192  14.501  1.00  0.00    -0.354 N 
ATOM     55  C   UNL     1      -2.204  12.255  14.431  1.00  0.00     0.074 A 
ATOM     56  C   UNL     1      -2.971  12.160  13.212  1.00  0.00     0.031 C 
ATOM     57  C   UNL     1       2.215   7.574  13.598  1.00  0.00     0.029 A 
ATOM     58  C   UNL     1       2.089   8.454  14.754  1.00  0.00     0.049 A 
ATOM     59  H   UNL     1       0.581   9.841  15.138  1.00  0.00     0.167 HD
ATOM     60  C   UNL     1      -2.434  13.160  15.411  1.00  0.00     0.034 A 
ATOM     61  C   UNL     1       2.936   8.512  15.797  1.00  0.00     0.034 A 
ATOM     62  C   UNL     1      -1.671  13.195  16.628  1.00  0.00     0.049 A 
ATOM     63  C   UNL     1       2.626   9.489  16.898  1.00  0.00     0.074 A 
ATOM     64  C   UNL     1      -1.833  14.013  17.729  1.00  0.00     0.029 A 
ATOM     65  N   UNL     1      -0.590  12.364  16.898  1.00  0.00    -0.354 N 
ATOM     66  N   UNL     1       1.653  10.369  16.969  1.00  0.00    -0.248 NA
ATOM     67  C   UNL     1       3.498   9.456  18.076  1.00  0.00     0.031 C 
ATOM     68  C   UNL     1      -0.830  13.696  18.652  1.00  0.00     0.029 A 
ATOM     69  C   UNL     1      -0.073  12.648  18.147  1.00  0.00     0.049 A 
ATOM     70  H   UNL     1      -0.244  11.673  16.288  1.00  0.00     0.167 HD
ATOM     71  C   UNL     1       1.771  10.969  18.215  1.00  0.00     0.074 A 
ATOM     72  C   UNL     1       2.899  10.332  18.871  1.00  0.00     0.031 C 
ATOM     73  C   UNL     1       1.030  11.961  18.770  1.00  0.00     0.034 A 
BRANCH  60  74
ATOM     74  C   UNL     1      -3.550  14.156  15.207  1.00  0.00     0.023 A 
ATOM     75  C   UNL     1      -4.893  13.723  15.187  1.00  0.00     0.012 A 
ATOM     76  C   UNL     1      -3.271  15.529  15.056  1.00  0.00     0.148 A 
ATOM     77  C   UNL     1      -5.933  14.630  14.978  1.00  0.00     0.002 A 
ATOM     78  C   UNL     1      -4.316  16.434  14.900  1.00  0.00     0.091 A 
ATOM     79  F   UNL     1      -1.990  15.925  15.053  1.00  0.00    -0.205 F 
ATOM     80  C   UNL     1      -5.645  15.985  14.845  1.00  0.00     0.022 A 
BRANCH  78  81
ATOM     81  S   UNL     1      -4.060  18.209  14.799  1.00  0.00     0.127 S 
ATOM     82  O   UNL     1      -4.471  18.490  13.423  1.00  0.00    -0.237 OA
ATOM     83  O   UNL     1      -4.978  18.708  15.823  1.00  0.00    -0.237 OA
ATOM     84  O   UNL     1      -2.649  18.431  15.083  1.00  0.00    -0.744 OA
ENDBRANCH  78  81
ENDBRANCH  60  74
BRANCH  61  85
ATOM     85  C   UNL     1       4.102   7.587  15.861  1.00  0.00     0.023 A 
ATOM     86  C   UNL     1       4.117   6.551  16.814  1.00  0.00     0.012 A 
ATOM     87  C   UNL     1       5.162   7.685  14.938  1.00  0.00     0.148 A 
ATOM     88  C   UNL     1       5.181   5.649  16.867  1.00  0.00     0.002 A 
ATOM     89  C   UNL     1       6.186   6.746  14.956  1.00  0.00     0.091 A 
ATOM     90  F   UNL     1       5.132   8.681  14.041  1.00  0.00    -0.205 F 
ATOM     91  C   UNL     1       6.208   5.738  15.932  1.00  0.00     0.022 A 
BRANCH  89  92
ATOM     92  S   UNL     1       7.467   6.692  13.696  1.00  0.00     0.127 S 
ATOM     93  O   UNL     1       8.654   7.061  14.461  1.00  0.00    -0.237 OA
ATOM     94  O   UNL     1       7.413   5.292  13.271  1.00  0.00    -0.237 OA
ATOM     95  O   UNL     1       7.053   7.641  12.671  1.00  0.00    -0.744 OA
ENDBRANCH  89  92
ENDBRANCH  61  85
BRANCH  73  96
ATOM     96  C   UNL     1       1.392  12.373  20.171  1.00  0.00     0.023 A 
ATOM     97  C   UNL     1       2.583  13.083  20.415  1.00  0.00     0.012 A 
ATOM     98  C   UNL     1       0.520  12.086  21.239  1.00  0.00     0.148 A 
ATOM     99  C   UNL     1       2.928  13.455  21.713  1.00  0.00     0.002 A 
ATOM    100  C   UNL     1       0.841  12.514  22.519  1.00  0.00     0.091 A 
ATOM    101  F   UNL     1      -0.600  11.394  20.985  1.00  0.00    -0.205 F 
ATOM    102  C   UNL     1       2.053  13.180  22.762  1.00  0.00     0.022 A 
BRANCH 100 103
ATOM    103  S   UNL     1      -0.279  12.298  23.905  1.00  0.00     0.127 S 
ATOM    104  O   UNL     1       0.368  11.215  24.644  1.00  0.00    -0.237 OA
ATOM    105  O   UNL     1      -0.217  13.606  24.559  1.00  0.00    -0.237 OA
ATOM    106  O   UNL     1      -1.575  11.975  23.325  1.00  0.00    -0.744 OA
ENDBRANCH 100 103
ENDBRANCH  73  96
ENDBRANCH  47  48
ENDBRANCH  39  42
ENDBRANCH  37  38
ENDBRANCH  36  37
ENDBRANCH   1  36
TORSDOF 19
