REMARK SMILES C[NH+]1CCC(NC(=O)N[C@@H]2C=C[C@H](C(=O)NCCCNC(=O)c3ccc(-c4c5nc(c(-c6cccc(S(=O)(=O)[O-])c6F)c6ccc([nH]6)c(-c6cccc(S(=O)(=O)[O-])c6F)c6nc(c(-c7cccc(S(=O)(=O)[O-])c7F)c7ccc4[nH]7)C=C6)C=C5)cc3)C2)CC1
REMARK SMILES IDX 18 1 17 2 16 3 14 4 15 5 13 7 10 8 11 9 86 10 12 11 9 12
REMARK SMILES IDX 6 13 7 14 8 16 5 18 1 19 2 20 3 21 88 22 4 24 87 25 19 26
REMARK SMILES IDX 20 27 21 28 22 30 23 31 24 32 85 33 25 34 84 35 26 36 27 37
REMARK SMILES IDX 28 38 78 39 29 40 83 41 77 42 79 43 30 44 82 45 76 46 75 47
REMARK SMILES IDX 31 49 63 50 43 51 62 52 44 53 47 54 61 55 80 56 45 57 46 58
REMARK SMILES IDX 60 60 81 61 48 62 32 63 33 64 41 65 34 66 36 67 42 68 35 69
REMARK SMILES IDX 37 70 38 71 39 72 40 73 64 74 65 75 73 76 66 77 68 78 74 79
REMARK SMILES IDX 67 80 69 81 70 82 71 83 72 84 49 85 50 86 58 87 51 88 53 89
REMARK SMILES IDX 59 90 52 91 54 92 55 93 56 94 57 95
REMARK H PARENT 16 6 6 15 9 17 2 23 20 29 79 48 47 59
REMARK Flexibility Score: inf
ROOT
ATOM      1  C   UNL     1      -2.671   2.193   0.088  1.00  0.00     0.042 C 
ENDROOT
BRANCH   1   2
ATOM      2  C   UNL     1      -2.355   0.808  -0.463  1.00  0.00     0.117 C 
BRANCH   2   3
ATOM      3  N   UNL     1      -2.122   0.838  -1.895  1.00  0.00    -0.356 N 
ATOM      4  C   UNL     1      -0.934   0.909  -2.564  1.00  0.00     0.227 C 
ATOM      5  O   UNL     1      -0.951   0.954  -3.794  1.00  0.00    -0.274 OA
ATOM      6  H   UNL     1      -2.928   0.804  -2.459  1.00  0.00     0.163 HD
BRANCH   4   7
ATOM      7  C   UNL     1       0.352   0.855  -1.752  1.00  0.00     0.103 C 
ATOM      8  C   UNL     1       2.598   0.464  -2.687  1.00  0.00     0.107 C 
ATOM      9  C   UNL     1       1.969  -0.793  -2.180  1.00  0.00    -0.006 C 
ATOM     10  C   UNL     1       1.524   1.535  -2.473  1.00  0.00     0.047 C 
ATOM     11  C   UNL     1       0.765  -0.582  -1.647  1.00  0.00    -0.016 C 
BRANCH   8  12
ATOM     12  N   UNL     1       2.980   0.263  -4.064  1.00  0.00    -0.332 N 
ATOM     13  N   UNL     1       5.172  -0.643  -3.967  1.00  0.00    -0.335 N 
ATOM     14  C   UNL     1       4.099  -0.199  -4.651  1.00  0.00     0.315 C 
ATOM     15  H   UNL     1       5.914  -0.945  -4.538  1.00  0.00     0.165 HD
ATOM     16  O   UNL     1       4.148  -0.231  -5.883  1.00  0.00    -0.249 OA
ATOM     17  H   UNL     1       2.278   0.516  -4.705  1.00  0.00     0.165 HD
BRANCH  13  18
ATOM     18  C   UNL     1       5.436  -0.758  -2.547  1.00  0.00     0.095 C 
ATOM     19  C   UNL     1       6.624  -0.974   1.472  1.00  0.00     0.332 C 
ATOM     20  N   UNL     1       6.765  -0.914   0.012  1.00  0.00    -0.337 N 
ATOM     21  C   UNL     1       6.211   0.362  -0.474  1.00  0.00     0.264 C 
ATOM     22  C   UNL     1       6.136  -2.095  -0.603  1.00  0.00     0.264 C 
ATOM     23  H   UNL     1       7.748  -0.939  -0.258  1.00  0.00     0.347 HD
ATOM     24  C   UNL     1       6.191   0.447  -1.999  1.00  0.00     0.086 C 
ATOM     25  C   UNL     1       6.159  -2.033  -2.137  1.00  0.00     0.086 C 
ENDBRANCH  13  18
ENDBRANCH   8  12
ENDBRANCH   4   7
ENDBRANCH   2   3
ENDBRANCH   1   2
BRANCH   1  26
ATOM     26  C   UNL     1      -3.921   2.820  -0.524  1.00  0.00     0.118 C 
BRANCH  26  27
ATOM     27  N   UNL     1      -5.103   1.984  -0.355  1.00  0.00    -0.352 N 
ATOM     28  C   UNL     1      -6.302   2.260   0.252  1.00  0.00     0.251 C 
ATOM     29  H   UNL     1      -5.029   1.079  -0.736  1.00  0.00     0.163 HD
ATOM     30  O   UNL     1      -7.092   1.348   0.471  1.00  0.00    -0.269 OA
BRANCH  28  31
ATOM     31  C   UNL     1      -6.633   3.645   0.646  1.00  0.00     0.039 A 
ATOM     32  C   UNL     1      -7.260   3.865   1.876  1.00  0.00     0.014 A 
ATOM     33  C   UNL     1      -6.346   4.719  -0.199  1.00  0.00     0.014 A 
ATOM     34  C   UNL     1      -7.544   5.170   2.281  1.00  0.00     0.010 A 
ATOM     35  C   UNL     1      -6.551   6.021   0.243  1.00  0.00     0.010 A 
ATOM     36  C   UNL     1      -7.162   6.261   1.483  1.00  0.00    -0.014 A 
BRANCH  36  37
ATOM     37  C   UNL     1      -7.383   7.659   1.929  1.00  0.00     0.031 A 
ATOM     38  C   UNL     1      -8.270   8.579   1.135  1.00  0.00     0.074 A 
ATOM     39  C   UNL     1      -6.717   8.124   3.004  1.00  0.00     0.049 A 
ATOM     40  N   UNL     1      -8.541   9.841   1.340  1.00  0.00    -0.248 NA
ATOM     41  C   UNL     1      -8.912   8.015  -0.063  1.00  0.00     0.031 C 
ATOM     42  C   UNL     1      -5.773   7.351   3.813  1.00  0.00     0.029 A 
ATOM     43  N   UNL     1      -6.714   9.366   3.587  1.00  0.00    -0.354 N 
ATOM     44  C   UNL     1      -9.354  10.232   0.283  1.00  0.00     0.074 A 
ATOM     45  C   UNL     1      -9.498   9.083  -0.584  1.00  0.00     0.031 C 
ATOM     46  C   UNL     1      -5.293   8.131   4.795  1.00  0.00     0.029 A 
ATOM     47  C   UNL     1      -5.864   9.467   4.663  1.00  0.00     0.049 A 
ATOM     48  H   UNL     1      -7.267  10.114   3.265  1.00  0.00     0.167 HD
ATOM     49  C   UNL     1      -9.952  11.428   0.067  1.00  0.00     0.034 A 
ATOM     50  C   UNL     1      -5.571  10.520   5.451  1.00  0.00     0.034 A 
ATOM     51  C   UNL     1      -9.828  12.558   0.947  1.00  0.00     0.049 A 
ATOM     52  C   UNL     1      -6.260  11.833   5.202  1.00  0.00     0.074 A 
ATOM     53  C   UNL     1     -10.457  13.787   0.864  1.00  0.00     0.029 A 
ATOM     54  N   UNL     1      -9.008  12.604   2.065  1.00  0.00    -0.354 N 
ATOM     55  N   UNL     1      -7.145  12.140   4.285  1.00  0.00    -0.248 NA
ATOM     56  C   UNL     1      -5.937  12.936   6.118  1.00  0.00     0.031 C 
ATOM     57  C   UNL     1      -9.989  14.589   1.910  1.00  0.00     0.029 A 
ATOM     58  C   UNL     1      -9.101  13.846   2.671  1.00  0.00     0.049 A 
ATOM     59  H   UNL     1      -8.443  11.863   2.381  1.00  0.00     0.167 HD
ATOM     60  C   UNL     1      -7.514  13.457   4.535  1.00  0.00     0.074 A 
ATOM     61  C   UNL     1      -6.767  13.883   5.702  1.00  0.00     0.031 C 
ATOM     62  C   UNL     1      -8.385  14.244   3.857  1.00  0.00     0.034 A 
BRANCH  49  63
ATOM     63  C   UNL     1     -10.824  11.558  -1.157  1.00  0.00     0.023 A 
ATOM     64  C   UNL     1     -12.041  10.847  -1.229  1.00  0.00     0.012 A 
ATOM     65  C   UNL     1     -10.458  12.404  -2.222  1.00  0.00     0.148 A 
ATOM     66  C   UNL     1     -12.853  10.936  -2.359  1.00  0.00     0.002 A 
ATOM     67  C   UNL     1     -11.298  12.528  -3.323  1.00  0.00     0.091 A 
ATOM     68  F   UNL     1      -9.290  13.058  -2.148  1.00  0.00    -0.205 F 
ATOM     69  C   UNL     1     -12.486  11.783  -3.401  1.00  0.00     0.022 A 
BRANCH  67  70
ATOM     70  S   UNL     1     -10.957  13.656  -4.678  1.00  0.00     0.127 S 
ATOM     71  O   UNL     1     -10.591  12.729  -5.748  1.00  0.00    -0.237 OA
ATOM     72  O   UNL     1     -12.249  14.318  -4.861  1.00  0.00    -0.237 OA
ATOM     73  O   UNL     1      -9.889  14.530  -4.213  1.00  0.00    -0.744 OA
ENDBRANCH  67  70
ENDBRANCH  49  63
BRANCH  50  74
ATOM     74  C   UNL     1      -4.630  10.349   6.594  1.00  0.00     0.023 A 
ATOM     75  C   UNL     1      -5.131  10.382   7.910  1.00  0.00     0.012 A 
ATOM     76  C   UNL     1      -3.257  10.114   6.386  1.00  0.00     0.148 A 
ATOM     77  C   UNL     1      -4.277  10.213   9.001  1.00  0.00     0.002 A 
ATOM     78  C   UNL     1      -2.422   9.891   7.474  1.00  0.00     0.091 A 
ATOM     79  F   UNL     1      -2.802  10.090   5.126  1.00  0.00    -0.205 F 
ATOM     80  C   UNL     1      -2.926   9.958   8.783  1.00  0.00     0.022 A 
BRANCH  78  81
ATOM     81  S   UNL     1      -0.697   9.425   7.290  1.00  0.00     0.127 S 
ATOM     82  O   UNL     1      -0.011  10.583   7.857  1.00  0.00    -0.237 OA
ATOM     83  O   UNL     1      -0.628   8.208   8.099  1.00  0.00    -0.237 OA
ATOM     84  O   UNL     1      -0.494   9.211   5.863  1.00  0.00    -0.744 OA
ENDBRANCH  78  81
ENDBRANCH  50  74
BRANCH  62  85
ATOM     85  C   UNL     1      -8.617  15.639   4.377  1.00  0.00     0.023 A 
ATOM     86  C   UNL     1      -7.612  16.618   4.248  1.00  0.00     0.012 A 
ATOM     87  C   UNL     1      -9.863  15.997   4.929  1.00  0.00     0.148 A 
ATOM     88  C   UNL     1      -7.830  17.922   4.694  1.00  0.00     0.002 A 
ATOM     89  C   UNL     1     -10.093  17.310   5.321  1.00  0.00     0.091 A 
ATOM     90  F   UNL     1     -10.801  15.048   5.059  1.00  0.00    -0.205 F 
ATOM     91  C   UNL     1      -9.073  18.270   5.218  1.00  0.00     0.022 A 
BRANCH  89  92
ATOM     92  S   UNL     1     -11.692  17.874   5.913  1.00  0.00     0.127 S 
ATOM     93  O   UNL     1     -11.418  18.113   7.330  1.00  0.00    -0.237 OA
ATOM     94  O   UNL     1     -11.905  19.085   5.121  1.00  0.00    -0.237 OA
ATOM     95  O   UNL     1     -12.629  16.795   5.633  1.00  0.00    -0.744 OA
ENDBRANCH  89  92
ENDBRANCH  62  85
ENDBRANCH  36  37
ENDBRANCH  28  31
ENDBRANCH  26  27
ENDBRANCH   1  26
TORSDOF 15
