REMARK SMILES C[C@](NC(=O)CSCc1cccs1)(C(=O)NCCCNC(=O)c1ccc(-c2c3nc(c(-c4cccc(S(=O)(=O)[O-])c4F)c4ccc([nH]4)c(-c4cccc(S(=O)(=O)[O-])c4F)c4nc(c(-c5cccc(S(=O)(=O)[O-])c5F)c5ccc2[nH]5)C=C4)C=C3)cc1)C(F)(F)F
REMARK SMILES IDX 17 1 16 2 14 3 15 4 2 6 1 7 86 8 87 9 88 10 89 11 3 12 4 13
REMARK SMILES IDX 5 15 6 16 7 17 8 18 9 19 10 20 13 21 11 22 12 23 18 24 19 25
REMARK SMILES IDX 20 26 21 27 22 29 23 30 24 31 85 32 25 33 84 34 26 35 27 36
REMARK SMILES IDX 28 37 78 38 29 39 83 40 77 41 79 42 30 43 82 44 76 45 75 46
REMARK SMILES IDX 31 48 63 49 43 50 62 51 44 52 47 53 61 54 80 55 45 56 46 57
REMARK SMILES IDX 60 59 81 60 48 61 32 62 33 63 41 64 34 65 36 66 42 67 35 68
REMARK SMILES IDX 37 69 38 70 39 71 40 72 64 73 65 74 73 75 66 76 68 77 74 78
REMARK SMILES IDX 67 79 69 80 70 81 71 82 72 83 49 84 50 85 58 86 51 87 53 88
REMARK SMILES IDX 59 89 52 90 54 91 55 92 56 93 57 94
REMARK H PARENT 16 5 3 14 20 28 79 47 47 58
REMARK Flexibility Score: inf
ROOT
ATOM      1  C   UNL     1      -1.912  -1.423  -0.284  1.00  0.00     0.117 C 
ENDROOT
BRANCH   1   2
ATOM      2  N   UNL     1      -1.814  -0.201  -1.037  1.00  0.00    -0.354 N 
ATOM      3  C   UNL     1      -0.788   0.226  -1.830  1.00  0.00     0.254 C 
ATOM      4  O   UNL     1      -1.130   0.939  -2.778  1.00  0.00    -0.272 OA
ATOM      5  H   UNL     1      -2.587   0.406  -0.972  1.00  0.00     0.163 HD
BRANCH   3   6
ATOM      6  C   UNL     1       0.676  -0.276  -1.647  1.00  0.00     0.212 C 
ATOM      7  C   UNL     1       0.941  -1.457  -2.573  1.00  0.00     0.056 C 
BRANCH   6   8
ATOM      8  C   UNL     1       1.516   0.932  -2.147  1.00  0.00     0.420 C 
ATOM      9  F   UNL     1       1.234   2.058  -1.448  1.00  0.00    -0.168 F 
ATOM     10  F   UNL     1       2.841   0.691  -1.976  1.00  0.00    -0.168 F 
ATOM     11  F   UNL     1       1.350   1.202  -3.461  1.00  0.00    -0.168 F 
ENDBRANCH   6   8
BRANCH   6  12
ATOM     12  N   UNL     1       0.939  -0.545  -0.180  1.00  0.00    -0.334 N 
ATOM     13  C   UNL     1       1.269  -1.558   0.659  1.00  0.00     0.231 C 
ATOM     14  H   UNL     1       0.838   0.289   0.332  1.00  0.00     0.164 HD
ATOM     15  O   UNL     1       1.113  -1.284   1.857  1.00  0.00    -0.274 OA
BRANCH  13  16
ATOM     16  C   UNL     1       1.902  -2.887   0.296  1.00  0.00     0.169 C 
BRANCH  16  17
ATOM     17  S   UNL     1       0.888  -4.200  -0.436  1.00  0.00    -0.146 SA
BRANCH  17  18
ATOM     18  C   UNL     1      -0.426  -4.542   0.768  1.00  0.00     0.116 C 
BRANCH  18  19
ATOM     19  C   UNL     1      -0.076  -4.969   2.152  1.00  0.00     0.014 A 
ATOM     20  C   UNL     1      -0.466  -4.362   3.334  1.00  0.00     0.016 A 
ATOM     21  S   UNL     1       0.702  -6.465   2.453  1.00  0.00    -0.148 S 
ATOM     22  C   UNL     1      -0.159  -5.146   4.481  1.00  0.00     0.012 A 
ATOM     23  C   UNL     1       0.477  -6.318   4.143  1.00  0.00     0.065 A 
ENDBRANCH  18  19
ENDBRANCH  17  18
ENDBRANCH  16  17
ENDBRANCH  13  16
ENDBRANCH   6  12
ENDBRANCH   3   6
ENDBRANCH   1   2
BRANCH   1  24
ATOM     24  C   UNL     1      -2.085  -1.209   1.213  1.00  0.00     0.042 C 
BRANCH  24  25
ATOM     25  C   UNL     1      -3.396  -1.754   1.764  1.00  0.00     0.118 C 
BRANCH  25  26
ATOM     26  N   UNL     1      -3.679  -3.133   1.374  1.00  0.00    -0.352 N 
ATOM     27  C   UNL     1      -4.120  -4.213   2.100  1.00  0.00     0.251 C 
ATOM     28  H   UNL     1      -3.526  -3.323   0.420  1.00  0.00     0.163 HD
ATOM     29  O   UNL     1      -4.179  -5.305   1.546  1.00  0.00    -0.269 OA
BRANCH  27  30
ATOM     30  C   UNL     1      -4.505  -4.071   3.522  1.00  0.00     0.039 A 
ATOM     31  C   UNL     1      -4.279  -5.138   4.397  1.00  0.00     0.014 A 
ATOM     32  C   UNL     1      -5.107  -2.906   3.993  1.00  0.00     0.014 A 
ATOM     33  C   UNL     1      -4.604  -5.008   5.750  1.00  0.00     0.010 A 
ATOM     34  C   UNL     1      -5.311  -2.731   5.354  1.00  0.00     0.010 A 
ATOM     35  C   UNL     1      -5.090  -3.788   6.245  1.00  0.00    -0.014 A 
BRANCH  35  36
ATOM     36  C   UNL     1      -5.401  -3.583   7.682  1.00  0.00     0.031 A 
ATOM     37  C   UNL     1      -6.792  -3.175   8.097  1.00  0.00     0.074 A 
ATOM     38  C   UNL     1      -4.410  -3.646   8.593  1.00  0.00     0.049 A 
ATOM     39  N   UNL     1      -7.235  -2.836   9.279  1.00  0.00    -0.248 NA
ATOM     40  C   UNL     1      -7.811  -3.093   7.034  1.00  0.00     0.031 C 
ATOM     41  C   UNL     1      -3.005  -3.938   8.299  1.00  0.00     0.029 A 
ATOM     42  N   UNL     1      -4.428  -3.434   9.948  1.00  0.00    -0.354 N 
ATOM     43  C   UNL     1      -8.559  -2.454   9.093  1.00  0.00     0.074 A 
ATOM     44  C   UNL     1      -8.836  -2.557   7.679  1.00  0.00     0.031 C 
ATOM     45  C   UNL     1      -2.299  -3.897   9.440  1.00  0.00     0.029 A 
ATOM     46  C   UNL     1      -3.190  -3.541  10.538  1.00  0.00     0.049 A 
ATOM     47  H   UNL     1      -5.248  -3.225  10.450  1.00  0.00     0.167 HD
ATOM     48  C   UNL     1      -9.475  -2.085  10.020  1.00  0.00     0.034 A 
ATOM     49  C   UNL     1      -2.816  -3.361  11.819  1.00  0.00     0.034 A 
ATOM     50  C   UNL     1      -9.207  -2.039  11.431  1.00  0.00     0.049 A 
ATOM     51  C   UNL     1      -3.866  -3.011  12.839  1.00  0.00     0.074 A 
ATOM     52  C   UNL     1     -10.085  -1.777  12.466  1.00  0.00     0.029 A 
ATOM     53  N   UNL     1      -7.964  -2.259  12.005  1.00  0.00    -0.354 N 
ATOM     54  N   UNL     1      -5.149  -2.806  12.666  1.00  0.00    -0.248 NA
ATOM     55  C   UNL     1      -3.423  -2.906  14.236  1.00  0.00     0.031 C 
ATOM     56  C   UNL     1      -9.366  -1.809  13.665  1.00  0.00     0.029 A 
ATOM     57  C   UNL     1      -8.049  -2.130  13.380  1.00  0.00     0.049 A 
ATOM     58  H   UNL     1      -7.142  -2.474  11.507  1.00  0.00     0.167 HD
ATOM     59  C   UNL     1      -5.675  -2.588  13.934  1.00  0.00     0.074 A 
ATOM     60  C   UNL     1      -4.573  -2.708  14.867  1.00  0.00     0.031 C 
ATOM     61  C   UNL     1      -6.950  -2.302  14.295  1.00  0.00     0.034 A 
BRANCH  48  62
ATOM     62  C   UNL     1     -10.866  -1.754   9.540  1.00  0.00     0.023 A 
ATOM     63  C   UNL     1     -11.691  -2.776   9.026  1.00  0.00     0.012 A 
ATOM     64  C   UNL     1     -11.375  -0.444   9.642  1.00  0.00     0.148 A 
ATOM     65  C   UNL     1     -12.982  -2.494   8.581  1.00  0.00     0.002 A 
ATOM     66  C   UNL     1     -12.681  -0.181   9.245  1.00  0.00     0.091 A 
ATOM     67  F   UNL     1     -10.572   0.520  10.114  1.00  0.00    -0.205 F 
ATOM     68  C   UNL     1     -13.480  -1.200   8.700  1.00  0.00     0.022 A 
BRANCH  66  69
ATOM     69  S   UNL     1     -13.448   1.433   9.434  1.00  0.00     0.127 S 
ATOM     70  O   UNL     1     -13.587   1.858   8.042  1.00  0.00    -0.237 OA
ATOM     71  O   UNL     1     -14.708   1.097  10.098  1.00  0.00    -0.237 OA
ATOM     72  O   UNL     1     -12.528   2.224  10.238  1.00  0.00    -0.744 OA
ENDBRANCH  66  69
ENDBRANCH  48  62
BRANCH  49  73
ATOM     73  C   UNL     1      -1.398  -3.581  12.222  1.00  0.00     0.023 A 
ATOM     74  C   UNL     1      -1.070  -4.697  13.017  1.00  0.00     0.012 A 
ATOM     75  C   UNL     1      -0.373  -2.711  11.803  1.00  0.00     0.148 A 
ATOM     76  C   UNL     1       0.246  -4.921  13.421  1.00  0.00     0.002 A 
ATOM     77  C   UNL     1       0.945  -2.972  12.162  1.00  0.00     0.091 A 
ATOM     78  F   UNL     1      -0.706  -1.653  11.052  1.00  0.00    -0.205 F 
ATOM     79  C   UNL     1       1.254  -4.065  12.986  1.00  0.00     0.022 A 
BRANCH  77  80
ATOM     80  S   UNL     1       2.324  -2.002  11.542  1.00  0.00     0.127 S 
ATOM     81  O   UNL     1       2.773  -1.316  12.750  1.00  0.00    -0.237 OA
ATOM     82  O   UNL     1       3.227  -3.044  11.052  1.00  0.00    -0.237 OA
ATOM     83  O   UNL     1       1.767  -1.150  10.500  1.00  0.00    -0.744 OA
ENDBRANCH  77  80
ENDBRANCH  49  73
BRANCH  61  84
ATOM     84  C   UNL     1      -7.238  -2.147  15.765  1.00  0.00     0.023 A 
ATOM     85  C   UNL     1      -6.767  -1.017  16.463  1.00  0.00     0.012 A 
ATOM     86  C   UNL     1      -8.034  -3.094  16.439  1.00  0.00     0.148 A 
ATOM     87  C   UNL     1      -7.048  -0.855  17.819  1.00  0.00     0.002 A 
ATOM     88  C   UNL     1      -8.356  -2.897  17.776  1.00  0.00     0.091 A 
ATOM     89  F   UNL     1      -8.459  -4.171  15.762  1.00  0.00    -0.205 F 
ATOM     90  C   UNL     1      -7.851  -1.787  18.471  1.00  0.00     0.022 A 
BRANCH  88  91
ATOM     91  S   UNL     1      -9.468  -3.990  18.667  1.00  0.00     0.127 S 
ATOM     92  O   UNL     1      -8.545  -4.691  19.558  1.00  0.00    -0.237 OA
ATOM     93  O   UNL     1     -10.362  -3.044  19.336  1.00  0.00    -0.237 OA
ATOM     94  O   UNL     1     -10.112  -4.819  17.657  1.00  0.00    -0.744 OA
ENDBRANCH  88  91
ENDBRANCH  61  84
ENDBRANCH  35  36
ENDBRANCH  27  30
ENDBRANCH  25  26
ENDBRANCH  24  25
ENDBRANCH   1  24
TORSDOF 19
