REMARK SMILES CCc1cc(OC(F)(F)F)cc2c1O[C@@H](C(F)(F)F)C(C(=O)NCCCNC(=O)c1ccc(-c3c4nc(c(-c5cccc(S(=O)(=O)[O-])c5F)c5ccc([nH]5)c(-c5cccc(S(=O)(=O)[O-])c5F)c5nc(c(-c6cccc(S(=O)(=O)[O-])c6F)c6ccc3[nH]6)C=C5)C=C4)cc1)=C2
REMARK SMILES IDX 25 1 24 2 23 3 21 4 22 5 20 7 3 8 4 9 13 10 5 11 12 12 14 13
REMARK SMILES IDX 11 14 93 15 15 16 2 17 1 18 6 19 7 20 8 21 9 22 10 23 16 24
REMARK SMILES IDX 17 25 18 26 19 27 26 28 27 29 28 30 29 32 30 33 31 34 92 35
REMARK SMILES IDX 32 36 91 37 33 38 34 39 35 40 85 41 36 42 90 43 84 44 86 45
REMARK SMILES IDX 37 46 89 47 83 48 82 49 38 51 70 52 50 53 69 54 51 55 54 56
REMARK SMILES IDX 68 57 87 58 52 59 53 60 67 62 88 63 55 64 39 65 40 66 48 67
REMARK SMILES IDX 41 68 43 69 49 70 42 71 44 72 45 73 46 74 47 75 71 76 72 77
REMARK SMILES IDX 80 78 73 79 75 80 81 81 74 82 76 83 77 84 78 85 79 86 56 87
REMARK SMILES IDX 57 88 65 89 58 90 60 91 66 92 59 93 61 94 62 95 63 96 64 97
REMARK H PARENT 23 6 27 31 86 50 54 61
REMARK Flexibility Score: inf
ROOT
ATOM      1  C   UNL     1       3.410  -3.651   7.152  1.00  0.00     0.042 C 
ENDROOT
BRANCH   1   2
ATOM      2  C   UNL     1       2.453  -2.481   6.917  1.00  0.00     0.118 C 
BRANCH   2   3
ATOM      3  N   UNL     1       3.188  -1.283   6.541  1.00  0.00    -0.352 N 
ATOM      4  C   UNL     1       3.519  -0.742   5.341  1.00  0.00     0.251 C 
ATOM      5  O   UNL     1       4.275   0.226   5.336  1.00  0.00    -0.270 OA
ATOM      6  H   UNL     1       3.510  -0.761   7.311  1.00  0.00     0.163 HD
BRANCH   4   7
ATOM      7  C   UNL     1       2.938  -1.213   4.059  1.00  0.00     0.067 C 
ATOM      8  C   UNL     1       0.956  -2.225   0.479  1.00  0.00    -0.002 A 
ATOM      9  C   UNL     1       0.714  -3.595   0.222  1.00  0.00     0.054 A 
ATOM     10  C   UNL     1       1.624  -1.882   1.665  1.00  0.00     0.131 A 
ATOM     11  C   UNL     1       1.134  -4.591   1.104  1.00  0.00     0.130 A 
ATOM     12  C   UNL     1       2.075  -2.877   2.539  1.00  0.00     0.021 A 
ATOM     13  O   UNL     1       1.735  -0.564   1.995  1.00  0.00    -0.475 OA
ATOM     14  C   UNL     1       1.830  -4.223   2.254  1.00  0.00     0.058 A 
ATOM     15  C   UNL     1       2.706  -2.507   3.799  1.00  0.00     0.025 C 
ATOM     16  C   UNL     1       2.756  -0.177   2.959  1.00  0.00     0.314 C 
BRANCH   8  17
ATOM     17  C   UNL     1       0.427  -1.248  -0.554  1.00  0.00     0.036 C 
ATOM     18  C   UNL     1       0.855   0.212  -0.497  1.00  0.00     0.009 C 
ENDBRANCH   8  17
BRANCH  11  19
ATOM     19  O   UNL     1       0.920  -5.934   0.982  1.00  0.00    -0.406 OA
BRANCH  19  20
ATOM     20  C   UNL     1       0.186  -6.392  -0.139  1.00  0.00     0.573 C 
ATOM     21  F   UNL     1      -1.050  -5.845  -0.171  1.00  0.00    -0.132 F 
ATOM     22  F   UNL     1       0.830  -6.107  -1.291  1.00  0.00    -0.132 F 
ATOM     23  F   UNL     1       0.043  -7.732  -0.053  1.00  0.00    -0.132 F 
ENDBRANCH  19  20
ENDBRANCH  11  19
BRANCH  16  24
ATOM     24  C   UNL     1       2.422   1.269   3.392  1.00  0.00     0.429 C 
ATOM     25  F   UNL     1       3.514   1.987   3.736  1.00  0.00    -0.167 F 
ATOM     26  F   UNL     1       1.854   1.959   2.363  1.00  0.00    -0.167 F 
ATOM     27  F   UNL     1       1.539   1.313   4.417  1.00  0.00    -0.167 F 
ENDBRANCH  16  24
ENDBRANCH   4   7
ENDBRANCH   2   3
ENDBRANCH   1   2
BRANCH   1  28
ATOM     28  C   UNL     1       4.223  -3.518   8.438  1.00  0.00     0.118 C 
BRANCH  28  29
ATOM     29  N   UNL     1       3.388  -3.665   9.621  1.00  0.00    -0.352 N 
ATOM     30  C   UNL     1       3.475  -4.569  10.649  1.00  0.00     0.251 C 
ATOM     31  H   UNL     1       2.650  -3.018   9.694  1.00  0.00     0.163 HD
ATOM     32  O   UNL     1       2.531  -4.686  11.426  1.00  0.00    -0.269 OA
BRANCH  30  33
ATOM     33  C   UNL     1       4.688  -5.397  10.826  1.00  0.00     0.039 A 
ATOM     34  C   UNL     1       4.542  -6.734  11.209  1.00  0.00     0.014 A 
ATOM     35  C   UNL     1       5.965  -4.851  10.668  1.00  0.00     0.014 A 
ATOM     36  C   UNL     1       5.673  -7.532  11.395  1.00  0.00     0.010 A 
ATOM     37  C   UNL     1       7.088  -5.666  10.784  1.00  0.00     0.010 A 
ATOM     38  C   UNL     1       6.955  -7.010  11.163  1.00  0.00    -0.014 A 
BRANCH  38  39
ATOM     39  C   UNL     1       8.168  -7.855  11.303  1.00  0.00     0.031 A 
ATOM     40  C   UNL     1       9.211  -7.528  12.336  1.00  0.00     0.074 A 
ATOM     41  C   UNL     1       8.379  -8.859  10.430  1.00  0.00     0.049 A 
ATOM     42  N   UNL     1      10.357  -8.115  12.566  1.00  0.00    -0.248 NA
ATOM     43  C   UNL     1       8.946  -6.370  13.204  1.00  0.00     0.031 C 
ATOM     44  C   UNL     1       7.488  -9.212   9.323  1.00  0.00     0.029 A 
ATOM     45  N   UNL     1       9.424  -9.739  10.312  1.00  0.00    -0.354 N 
ATOM     46  C   UNL     1      10.969  -7.375  13.570  1.00  0.00     0.074 A 
ATOM     47  C   UNL     1      10.080  -6.277  13.884  1.00  0.00     0.031 C 
ATOM     48  C   UNL     1       8.029 -10.227   8.632  1.00  0.00     0.029 A 
ATOM     49  C   UNL     1       9.313 -10.581   9.230  1.00  0.00     0.049 A 
ATOM     50  H   UNL     1      10.181  -9.766  10.941  1.00  0.00     0.167 HD
ATOM     51  C   UNL     1      12.149  -7.603  14.195  1.00  0.00     0.034 A 
ATOM     52  C   UNL     1      10.154 -11.524   8.763  1.00  0.00     0.034 A 
ATOM     53  C   UNL     1      13.007  -8.722  13.909  1.00  0.00     0.049 A 
ATOM     54  C   UNL     1      11.425 -11.807   9.512  1.00  0.00     0.074 A 
ATOM     55  C   UNL     1      14.164  -9.110  14.561  1.00  0.00     0.029 A 
ATOM     56  N   UNL     1      12.809  -9.625  12.875  1.00  0.00    -0.354 N 
ATOM     57  N   UNL     1      11.900 -11.213  10.581  1.00  0.00    -0.248 NA
ATOM     58  C   UNL     1      12.257 -12.914   9.021  1.00  0.00     0.031 C 
ATOM     59  C   UNL     1      14.679 -10.234  13.905  1.00  0.00     0.029 A 
ATOM     60  C   UNL     1      13.829 -10.561  12.860  1.00  0.00     0.049 A 
ATOM     61  H   UNL     1      12.054  -9.604  12.244  1.00  0.00     0.167 HD
ATOM     62  C   UNL     1      13.071 -11.887  10.905  1.00  0.00     0.074 A 
ATOM     63  C   UNL     1      13.221 -12.951   9.932  1.00  0.00     0.031 C 
ATOM     64  C   UNL     1      13.948 -11.640  11.910  1.00  0.00     0.034 A 
BRANCH  51  65
ATOM     65  C   UNL     1      12.554  -6.643  15.286  1.00  0.00     0.023 A 
ATOM     66  C   UNL     1      11.839  -6.628  16.502  1.00  0.00     0.012 A 
ATOM     67  C   UNL     1      13.651  -5.775  15.122  1.00  0.00     0.148 A 
ATOM     68  C   UNL     1      12.176  -5.731  17.515  1.00  0.00     0.002 A 
ATOM     69  C   UNL     1      14.010  -4.916  16.155  1.00  0.00     0.091 A 
ATOM     70  F   UNL     1      14.307  -5.783  13.953  1.00  0.00    -0.205 F 
ATOM     71  C   UNL     1      13.266  -4.882  17.346  1.00  0.00     0.022 A 
BRANCH  69  72
ATOM     72  S   UNL     1      15.449  -3.845  16.057  1.00  0.00     0.127 S 
ATOM     73  O   UNL     1      14.834  -2.549  15.773  1.00  0.00    -0.237 OA
ATOM     74  O   UNL     1      16.020  -3.966  17.399  1.00  0.00    -0.237 OA
ATOM     75  O   UNL     1      16.281  -4.396  14.997  1.00  0.00    -0.744 OA
ENDBRANCH  69  72
ENDBRANCH  51  65
BRANCH  52  76
ATOM     76  C   UNL     1       9.766 -12.309   7.558  1.00  0.00     0.023 A 
ATOM     77  C   UNL     1       9.354 -13.647   7.706  1.00  0.00     0.012 A 
ATOM     78  C   UNL     1       9.719 -11.710   6.284  1.00  0.00     0.148 A 
ATOM     79  C   UNL     1       8.916 -14.380   6.603  1.00  0.00     0.002 A 
ATOM     80  C   UNL     1       9.228 -12.428   5.200  1.00  0.00     0.091 A 
ATOM     81  F   UNL     1      10.120 -10.436   6.168  1.00  0.00    -0.205 F 
ATOM     82  C   UNL     1       8.840 -13.768   5.354  1.00  0.00     0.022 A 
BRANCH  80  83
ATOM     83  S   UNL     1       8.955 -11.681   3.589  1.00  0.00     0.127 S 
ATOM     84  O   UNL     1       9.931 -12.386   2.763  1.00  0.00    -0.237 OA
ATOM     85  O   UNL     1       7.558 -12.031   3.330  1.00  0.00    -0.237 OA
ATOM     86  O   UNL     1       9.194 -10.255   3.768  1.00  0.00    -0.744 OA
ENDBRANCH  80  83
ENDBRANCH  52  76
BRANCH  64  87
ATOM     87  C   UNL     1      15.148 -12.543  12.027  1.00  0.00     0.023 A 
ATOM     88  C   UNL     1      16.198 -12.434  11.094  1.00  0.00     0.012 A 
ATOM     89  C   UNL     1      15.271 -13.442  13.105  1.00  0.00     0.148 A 
ATOM     90  C   UNL     1      17.339 -13.228  11.215  1.00  0.00     0.002 A 
ATOM     91  C   UNL     1      16.431 -14.195  13.246  1.00  0.00     0.091 A 
ATOM     92  F   UNL     1      14.252 -13.546  13.971  1.00  0.00    -0.205 F 
ATOM     93  C   UNL     1      17.460 -14.098  12.296  1.00  0.00     0.022 A 
BRANCH  91  94
ATOM     94  S   UNL     1      16.714 -15.270  14.657  1.00  0.00     0.127 S 
ATOM     95  O   UNL     1      16.546 -16.594  14.062  1.00  0.00    -0.237 OA
ATOM     96  O   UNL     1      18.090 -14.939  15.030  1.00  0.00    -0.237 OA
ATOM     97  O   UNL     1      15.715 -14.898  15.650  1.00  0.00    -0.744 OA
ENDBRANCH  91  94
ENDBRANCH  64  87
ENDBRANCH  38  39
ENDBRANCH  30  33
ENDBRANCH  28  29
ENDBRANCH   1  28
TORSDOF 17
