REMARK SMILES CC(=O)N[C@@H](Cc1c(OCC(C)C)ccc2ccccc12)C(=O)NCCCNC(=O)c1ccc(-c2c3nc(c(-c4cccc(S(=O)(=O)[O-])c4F)c4ccc([nH]4)c(-c4cccc(S(=O)(=O)[O-])c4F)c4nc(c(-c5cccc(S(=O)(=O)[O-])c5F)c5ccc2[nH]5)C=C4)C=C3)cc1
REMARK SMILES IDX 25 1 24 2 22 3 23 4 5 6 4 7 1 8 2 9 3 10 6 12 7 13 8 14
REMARK SMILES IDX 21 15 14 16 16 17 20 18 15 19 17 20 19 21 18 22 9 23 10 24
REMARK SMILES IDX 11 25 12 26 13 27 26 28 27 29 28 30 29 31 30 33 31 34 32 35
REMARK SMILES IDX 93 36 33 37 92 38 34 39 35 40 36 41 86 42 37 43 91 44 85 45
REMARK SMILES IDX 87 46 38 47 90 48 84 49 83 50 39 52 71 53 51 54 70 55 52 56
REMARK SMILES IDX 55 57 69 58 88 59 53 60 54 61 68 63 89 64 56 65 40 66 41 67
REMARK SMILES IDX 49 68 42 69 44 70 50 71 43 72 45 73 46 74 47 75 48 76 72 77
REMARK SMILES IDX 73 78 81 79 74 80 76 81 82 82 75 83 77 84 78 85 79 86 80 87
REMARK SMILES IDX 57 88 58 89 66 90 59 91 61 92 67 93 60 94 62 95 63 96 64 97
REMARK SMILES IDX 65 98
REMARK H PARENT 24 5 4 11 28 32 87 51 55 62
REMARK Flexibility Score: inf
ROOT
ATOM      1  C   UNL     1       0.111  -3.245   4.067  1.00  0.00     0.117 C 
ENDROOT
BRANCH   1   2
ATOM      2  N   UNL     1       0.233  -3.756   2.716  1.00  0.00    -0.354 N 
ATOM      3  C   UNL     1       1.118  -3.399   1.742  1.00  0.00     0.242 C 
ATOM      4  O   UNL     1       1.296  -4.209   0.823  1.00  0.00    -0.273 OA
ATOM      5  H   UNL     1      -0.412  -4.457   2.468  1.00  0.00     0.163 HD
BRANCH   3   6
ATOM      6  C   UNL     1       1.977  -2.116   1.810  1.00  0.00     0.175 C 
BRANCH   6   7
ATOM      7  N   UNL     1       1.232  -0.905   2.147  1.00  0.00    -0.344 N 
ATOM      8  C   UNL     1       1.034  -0.027  -0.148  1.00  0.00     0.114 C 
ATOM      9  C   UNL     1       0.728   0.051   1.321  1.00  0.00     0.217 C 
ATOM     10  O   UNL     1       0.071   0.975   1.795  1.00  0.00    -0.275 OA
ATOM     11  H   UNL     1       1.072  -0.761   3.108  1.00  0.00     0.164 HD
ENDBRANCH   6   7
BRANCH   6  12
ATOM     12  C   UNL     1       3.293  -2.259   2.603  1.00  0.00     0.075 C 
BRANCH  12  13
ATOM     13  C   UNL     1       3.245  -2.655   4.075  1.00  0.00     0.005 A 
ATOM     14  C   UNL     1       3.056  -1.652   5.061  1.00  0.00     0.123 A 
ATOM     15  C   UNL     1       3.346  -4.030   4.475  1.00  0.00    -0.011 A 
ATOM     16  C   UNL     1       3.160  -1.983   6.408  1.00  0.00     0.047 A 
ATOM     17  C   UNL     1       3.286  -4.340   5.857  1.00  0.00    -0.018 A 
ATOM     18  C   UNL     1       3.413  -5.130   3.583  1.00  0.00     0.009 A 
ATOM     19  C   UNL     1       3.251  -3.314   6.802  1.00  0.00     0.012 A 
ATOM     20  C   UNL     1       3.215  -5.672   6.293  1.00  0.00     0.009 A 
ATOM     21  C   UNL     1       3.341  -6.454   4.029  1.00  0.00     0.001 A 
ATOM     22  C   UNL     1       3.223  -6.724   5.384  1.00  0.00     0.001 A 
BRANCH  14  23
ATOM     23  O   UNL     1       2.686  -0.413   4.610  1.00  0.00    -0.493 OA
BRANCH  23  24
ATOM     24  C   UNL     1       2.251   0.608   5.523  1.00  0.00     0.232 C 
BRANCH  24  25
ATOM     25  C   UNL     1       0.746   0.565   5.878  1.00  0.00     0.020 C 
ATOM     26  C   UNL     1       0.355  -0.553   6.845  1.00  0.00     0.011 C 
ATOM     27  C   UNL     1       0.327   1.899   6.508  1.00  0.00     0.011 C 
ENDBRANCH  24  25
ENDBRANCH  23  24
ENDBRANCH  14  23
ENDBRANCH  12  13
ENDBRANCH   6  12
ENDBRANCH   3   6
ENDBRANCH   1   2
BRANCH   1  28
ATOM     28  C   UNL     1      -1.295  -3.276   4.623  1.00  0.00     0.042 C 
BRANCH  28  29
ATOM     29  C   UNL     1      -1.773  -4.682   4.949  1.00  0.00     0.118 C 
BRANCH  29  30
ATOM     30  N   UNL     1      -0.982  -5.350   5.984  1.00  0.00    -0.352 N 
ATOM     31  C   UNL     1      -1.220  -5.589   7.321  1.00  0.00     0.251 C 
ATOM     32  H   UNL     1      -0.116  -5.693   5.666  1.00  0.00     0.163 HD
ATOM     33  O   UNL     1      -0.322  -6.044   8.018  1.00  0.00    -0.269 OA
BRANCH  31  34
ATOM     34  C   UNL     1      -2.534  -5.269   7.928  1.00  0.00     0.039 A 
ATOM     35  C   UNL     1      -2.585  -4.772   9.235  1.00  0.00     0.014 A 
ATOM     36  C   UNL     1      -3.719  -5.453   7.222  1.00  0.00     0.014 A 
ATOM     37  C   UNL     1      -3.809  -4.364   9.778  1.00  0.00     0.010 A 
ATOM     38  C   UNL     1      -4.903  -4.910   7.700  1.00  0.00     0.010 A 
ATOM     39  C   UNL     1      -4.971  -4.371   8.991  1.00  0.00    -0.014 A 
BRANCH  39  40
ATOM     40  C   UNL     1      -6.269  -3.830   9.478  1.00  0.00     0.031 A 
ATOM     41  C   UNL     1      -7.507  -4.694   9.450  1.00  0.00     0.074 A 
ATOM     42  C   UNL     1      -6.366  -2.529   9.820  1.00  0.00     0.049 A 
ATOM     43  N   UNL     1      -8.748  -4.367   9.701  1.00  0.00    -0.248 NA
ATOM     44  C   UNL     1      -7.336  -6.098   9.036  1.00  0.00     0.031 C 
ATOM     45  C   UNL     1      -5.270  -1.557   9.790  1.00  0.00     0.029 A 
ATOM     46  N   UNL     1      -7.448  -1.788  10.228  1.00  0.00    -0.354 N 
ATOM     47  C   UNL     1      -9.505  -5.499   9.417  1.00  0.00     0.074 A 
ATOM     48  C   UNL     1      -8.591  -6.508   8.933  1.00  0.00     0.031 C 
ATOM     49  C   UNL     1      -5.730  -0.357  10.174  1.00  0.00     0.029 A 
ATOM     50  C   UNL     1      -7.160  -0.459  10.441  1.00  0.00     0.049 A 
ATOM     51  H   UNL     1      -8.346  -2.171  10.356  1.00  0.00     0.167 HD
ATOM     52  C   UNL     1     -10.835  -5.697   9.579  1.00  0.00     0.034 A 
ATOM     53  C   UNL     1      -7.959   0.565  10.803  1.00  0.00     0.034 A 
ATOM     54  C   UNL     1     -11.726  -4.719  10.138  1.00  0.00     0.049 A 
ATOM     55  C   UNL     1      -9.416   0.296  11.059  1.00  0.00     0.074 A 
ATOM     56  C   UNL     1     -13.064  -4.860  10.461  1.00  0.00     0.029 A 
ATOM     57  N   UNL     1     -11.370  -3.419  10.460  1.00  0.00    -0.354 N 
ATOM     58  N   UNL     1     -10.079  -0.830  10.950  1.00  0.00    -0.248 NA
ATOM     59  C   UNL     1     -10.230   1.428  11.526  1.00  0.00     0.031 C 
ATOM     60  C   UNL     1     -13.522  -3.637  10.961  1.00  0.00     0.029 A 
ATOM     61  C   UNL     1     -12.463  -2.744  10.973  1.00  0.00     0.049 A 
ATOM     62  H   UNL     1     -10.472  -3.034  10.342  1.00  0.00     0.167 HD
ATOM     63  C   UNL     1     -11.376  -0.551  11.365  1.00  0.00     0.074 A 
ATOM     64  C   UNL     1     -11.399   0.845  11.753  1.00  0.00     0.031 C 
ATOM     65  C   UNL     1     -12.455  -1.371  11.407  1.00  0.00     0.034 A 
BRANCH  52  66
ATOM     66  C   UNL     1     -11.394  -7.048   9.211  1.00  0.00     0.023 A 
ATOM     67  C   UNL     1     -11.076  -8.173  10.000  1.00  0.00     0.012 A 
ATOM     68  C   UNL     1     -12.276  -7.197   8.123  1.00  0.00     0.148 A 
ATOM     69  C   UNL     1     -11.591  -9.430   9.689  1.00  0.00     0.002 A 
ATOM     70  C   UNL     1     -12.825  -8.444   7.848  1.00  0.00     0.091 A 
ATOM     71  F   UNL     1     -12.552  -6.122   7.371  1.00  0.00    -0.205 F 
ATOM     72  C   UNL     1     -12.474  -9.563   8.621  1.00  0.00     0.022 A 
BRANCH  70  73
ATOM     73  S   UNL     1     -14.036  -8.706   6.547  1.00  0.00     0.127 S 
ATOM     74  O   UNL     1     -13.260  -9.472   5.572  1.00  0.00    -0.237 OA
ATOM     75  O   UNL     1     -15.071  -9.474   7.241  1.00  0.00    -0.237 OA
ATOM     76  O   UNL     1     -14.452  -7.380   6.112  1.00  0.00    -0.744 OA
ENDBRANCH  70  73
ENDBRANCH  52  66
BRANCH  53  77
ATOM     77  C   UNL     1      -7.381   1.923  11.016  1.00  0.00     0.023 A 
ATOM     78  C   UNL     1      -7.291   2.436  12.325  1.00  0.00     0.012 A 
ATOM     79  C   UNL     1      -6.894   2.694   9.943  1.00  0.00     0.148 A 
ATOM     80  C   UNL     1      -6.761   3.705  12.559  1.00  0.00     0.002 A 
ATOM     81  C   UNL     1      -6.315   3.934  10.189  1.00  0.00     0.091 A 
ATOM     82  F   UNL     1      -6.996   2.194   8.703  1.00  0.00    -0.205 F 
ATOM     83  C   UNL     1      -6.264   4.450  11.493  1.00  0.00     0.022 A 
BRANCH  81  84
ATOM     84  S   UNL     1      -5.525   4.902   8.897  1.00  0.00     0.127 S 
ATOM     85  O   UNL     1      -6.467   6.006   8.732  1.00  0.00    -0.237 OA
ATOM     86  O   UNL     1      -4.254   5.263   9.525  1.00  0.00    -0.237 OA
ATOM     87  O   UNL     1      -5.396   4.001   7.759  1.00  0.00    -0.744 OA
ENDBRANCH  81  84
ENDBRANCH  53  77
BRANCH  65  88
ATOM     88  C   UNL     1     -13.748  -0.798  11.925  1.00  0.00     0.023 A 
ATOM     89  C   UNL     1     -14.477   0.112  11.135  1.00  0.00     0.012 A 
ATOM     90  C   UNL     1     -14.276  -1.224  13.159  1.00  0.00     0.148 A 
ATOM     91  C   UNL     1     -15.698   0.615  11.581  1.00  0.00     0.002 A 
ATOM     92  C   UNL     1     -15.517  -0.757  13.574  1.00  0.00     0.091 A 
ATOM     93  F   UNL     1     -13.557  -2.077  13.903  1.00  0.00    -0.205 F 
ATOM     94  C   UNL     1     -16.224   0.172  12.793  1.00  0.00     0.022 A 
BRANCH  92  95
ATOM     95  S   UNL     1     -16.316  -1.350  15.070  1.00  0.00     0.127 S 
ATOM     96  O   UNL     1     -16.172  -0.199  15.960  1.00  0.00    -0.237 OA
ATOM     97  O   UNL     1     -17.683  -1.602  14.614  1.00  0.00    -0.237 OA
ATOM     98  O   UNL     1     -15.584  -2.545  15.468  1.00  0.00    -0.744 OA
ENDBRANCH  92  95
ENDBRANCH  65  88
ENDBRANCH  39  40
ENDBRANCH  31  34
ENDBRANCH  29  30
ENDBRANCH  28  29
ENDBRANCH   1  28
TORSDOF 19
