REMARK SMILES NS(=O)(=O)c1ccc(-n2nc(NC(=O)NCCCC(=O)NCCCNC(=O)c3ccc(-c4c5nc(c(-c6cccc(S(=O)(=O)[O-])c6F)c6ccc([nH]6)c(-c6cccc(S(=O)(=O)[O-])c6F)c6nc(c(-c7cccc(S(=O)(=O)[O-])c7F)c7ccc4[nH]7)C=C6)C=C5)cc3)cc2-c2ccccc2)cc1
REMARK SMILES IDX 19 1 20 2 21 3 18 5 17 6 16 7 15 8 12 9 13 10 14 12 11 14
REMARK SMILES IDX 9 15 10 16 92 17 91 18 8 19 5 20 6 21 100 22 7 23 99 24 2 25
REMARK SMILES IDX 3 26 4 27 1 28 93 31 94 32 98 33 95 34 97 35 96 36 22 37
REMARK SMILES IDX 23 38 24 39 25 40 26 41 27 43 28 44 29 45 90 46 30 47 89 48
REMARK SMILES IDX 31 49 32 50 33 51 83 52 34 53 88 54 82 55 84 56 35 57 87 58
REMARK SMILES IDX 81 59 80 60 36 62 68 63 48 64 67 65 49 66 52 67 66 68 85 69
REMARK SMILES IDX 50 70 51 71 65 73 86 74 53 75 37 76 38 77 46 78 39 79 41 80
REMARK SMILES IDX 47 81 40 82 42 83 43 84 44 85 45 86 69 87 70 88 78 89 71 90
REMARK SMILES IDX 73 91 79 92 72 93 74 94 75 95 76 96 77 97 54 98 55 99 63 100
REMARK SMILES IDX 56 101 58 102 64 103 57 104 59 105 60 106 61 107 62 108
REMARK H PARENT 21 4 12 11 15 13 1 29 1 30 25 42 84 61 52 72
REMARK Flexibility Score: inf
ROOT
ATOM      1  C   UNL     1      -3.024   6.537   1.037  1.00  0.00     0.220 C 
ATOM      2  O   UNL     1      -3.098   5.528   0.337  1.00  0.00    -0.275 OA
ATOM      3  N   UNL     1      -2.506   7.672   0.488  1.00  0.00    -0.356 N 
ATOM      4  H   UNL     1      -2.254   7.591  -0.460  1.00  0.00     0.163 HD
ENDROOT
BRANCH   1   5
ATOM      5  C   UNL     1      -3.529   6.518   2.466  1.00  0.00     0.102 C 
BRANCH   5   6
ATOM      6  C   UNL     1      -2.557   5.896   3.469  1.00  0.00     0.031 C 
BRANCH   6   7
ATOM      7  C   UNL     1      -1.274   6.680   3.699  1.00  0.00     0.118 C 
BRANCH   7   8
ATOM      8  N   UNL     1      -1.443   8.029   4.217  1.00  0.00    -0.338 N 
ATOM      9  N   UNL     1       0.777   8.701   4.803  1.00  0.00    -0.291 N 
ATOM     10  C   UNL     1      -0.550   8.927   4.693  1.00  0.00     0.320 C 
ATOM     11  H   UNL     1       1.241   9.301   5.430  1.00  0.00     0.173 HD
ATOM     12  O   UNL     1      -1.004   9.984   5.147  1.00  0.00    -0.248 OA
ATOM     13  H   UNL     1      -2.375   8.346   4.222  1.00  0.00     0.165 HD
BRANCH   9  14
ATOM     14  C   UNL     1       1.594   7.781   4.192  1.00  0.00     0.157 A 
ATOM     15  N   UNL     1       2.139   6.158   2.952  1.00  0.00    -0.231 N 
ATOM     16  N   UNL     1       1.379   7.268   2.988  1.00  0.00    -0.149 NA
ATOM     17  C   UNL     1       3.171   6.246   3.878  1.00  0.00     0.076 A 
ATOM     18  C   UNL     1       2.818   7.302   4.704  1.00  0.00     0.078 A 
BRANCH  15  19
ATOM     19  C   UNL     1       1.725   5.062   2.147  1.00  0.00     0.065 A 
ATOM     20  C   UNL     1       0.890   2.925   0.569  1.00  0.00     0.082 A 
ATOM     21  C   UNL     1       1.444   2.675   1.825  1.00  0.00     0.024 A 
ATOM     22  C   UNL     1       0.715   4.236   0.111  1.00  0.00     0.024 A 
ATOM     23  C   UNL     1       1.870   3.747   2.612  1.00  0.00     0.030 A 
ATOM     24  C   UNL     1       1.110   5.308   0.911  1.00  0.00     0.030 A 
BRANCH  20  25
ATOM     25  S   UNL     1       0.472   1.605  -0.534  1.00  0.00     0.238 S 
ATOM     26  O   UNL     1       1.171   1.855  -1.777  1.00  0.00    -0.207 OA
ATOM     27  O   UNL     1      -0.926   1.325  -0.379  1.00  0.00    -0.207 OA
BRANCH  25  28
ATOM     28  N   UNL     1       1.262   0.250   0.112  1.00  0.00    -0.225 NA
ATOM     29  H   UNL     1       1.071  -0.565  -0.471  1.00  0.00     0.137 HD
ATOM     30  H   UNL     1       0.923   0.078   1.058  1.00  0.00     0.137 HD
ENDBRANCH  25  28
ENDBRANCH  20  25
ENDBRANCH  15  19
BRANCH  17  31
ATOM     31  C   UNL     1       4.325   5.355   3.885  1.00  0.00     0.000 A 
ATOM     32  C   UNL     1       5.017   5.109   2.690  1.00  0.00     0.010 A 
ATOM     33  C   UNL     1       4.701   4.678   5.048  1.00  0.00     0.010 A 
ATOM     34  C   UNL     1       6.039   4.164   2.646  1.00  0.00     0.001 A 
ATOM     35  C   UNL     1       5.729   3.733   5.003  1.00  0.00     0.001 A 
ATOM     36  C   UNL     1       6.389   3.471   3.801  1.00  0.00     0.000 A 
ENDBRANCH  17  31
ENDBRANCH   9  14
ENDBRANCH   7   8
ENDBRANCH   6   7
ENDBRANCH   5   6
ENDBRANCH   1   5
BRANCH   3  37
ATOM     37  C   UNL     1      -2.262   8.986   1.073  1.00  0.00     0.117 C 
BRANCH  37  38
ATOM     38  C   UNL     1      -0.778   9.249   1.333  1.00  0.00     0.042 C 
BRANCH  38  39
ATOM     39  C   UNL     1      -0.005   9.666   0.109  1.00  0.00     0.118 C 
BRANCH  39  40
ATOM     40  N   UNL     1      -0.152  11.086  -0.237  1.00  0.00    -0.352 N 
ATOM     41  C   UNL     1       0.536  11.797  -1.217  1.00  0.00     0.251 C 
ATOM     42  H   UNL     1      -0.814  11.595   0.285  1.00  0.00     0.163 HD
ATOM     43  O   UNL     1       0.602  13.020  -1.178  1.00  0.00    -0.269 OA
BRANCH  41  44
ATOM     44  C   UNL     1       1.181  11.041  -2.310  1.00  0.00     0.039 A 
ATOM     45  C   UNL     1       2.352  11.425  -2.967  1.00  0.00     0.014 A 
ATOM     46  C   UNL     1       0.594   9.835  -2.632  1.00  0.00     0.014 A 
ATOM     47  C   UNL     1       2.858  10.561  -3.941  1.00  0.00     0.010 A 
ATOM     48  C   UNL     1       1.398   8.857  -3.101  1.00  0.00     0.010 A 
ATOM     49  C   UNL     1       2.324   9.268  -4.017  1.00  0.00    -0.014 A 
BRANCH  49  50
ATOM     50  C   UNL     1       2.723   8.247  -4.963  1.00  0.00     0.031 A 
ATOM     51  C   UNL     1       4.144   7.895  -4.842  1.00  0.00     0.074 A 
ATOM     52  C   UNL     1       1.851   7.529  -5.710  1.00  0.00     0.049 A 
ATOM     53  N   UNL     1       5.110   8.389  -5.537  1.00  0.00    -0.248 NA
ATOM     54  C   UNL     1       4.572   7.113  -3.676  1.00  0.00     0.031 C 
ATOM     55  C   UNL     1       0.378   7.509  -5.683  1.00  0.00     0.029 A 
ATOM     56  N   UNL     1       2.132   6.563  -6.622  1.00  0.00    -0.354 N 
ATOM     57  C   UNL     1       6.244   7.736  -5.081  1.00  0.00     0.074 A 
ATOM     58  C   UNL     1       5.899   7.209  -3.787  1.00  0.00     0.031 C 
ATOM     59  C   UNL     1      -0.079   6.441  -6.381  1.00  0.00     0.029 A 
ATOM     60  C   UNL     1       1.044   5.806  -7.043  1.00  0.00     0.049 A 
ATOM     61  H   UNL     1       3.043   6.409  -6.962  1.00  0.00     0.167 HD
ATOM     62  C   UNL     1       7.247   7.422  -5.945  1.00  0.00     0.034 A 
ATOM     63  C   UNL     1       1.089   4.727  -7.865  1.00  0.00     0.034 A 
ATOM     64  C   UNL     1       7.051   8.082  -7.219  1.00  0.00     0.049 A 
ATOM     65  C   UNL     1       2.351   4.838  -8.637  1.00  0.00     0.074 A 
ATOM     66  C   UNL     1       6.929   9.394  -7.634  1.00  0.00     0.029 A 
ATOM     67  N   UNL     1       6.504   7.317  -8.225  1.00  0.00    -0.354 N 
ATOM     68  N   UNL     1       2.584   5.803  -9.484  1.00  0.00    -0.248 NA
ATOM     69  C   UNL     1       3.530   4.172  -8.108  1.00  0.00     0.031 C 
ATOM     70  C   UNL     1       5.903   9.372  -8.628  1.00  0.00     0.029 A 
ATOM     71  C   UNL     1       5.509   8.046  -8.823  1.00  0.00     0.049 A 
ATOM     72  H   UNL     1       6.779   6.404  -8.471  1.00  0.00     0.167 HD
ATOM     73  C   UNL     1       3.900   6.174  -9.233  1.00  0.00     0.074 A 
ATOM     74  C   UNL     1       4.460   5.067  -8.455  1.00  0.00     0.031 C 
ATOM     75  C   UNL     1       4.321   7.462  -9.416  1.00  0.00     0.034 A 
BRANCH  62  76
ATOM     76  C   UNL     1       8.168   6.231  -5.820  1.00  0.00     0.023 A 
ATOM     77  C   UNL     1       9.225   6.154  -6.754  1.00  0.00     0.012 A 
ATOM     78  C   UNL     1       7.915   5.075  -5.045  1.00  0.00     0.148 A 
ATOM     79  C   UNL     1       9.938   4.971  -6.961  1.00  0.00     0.002 A 
ATOM     80  C   UNL     1       8.674   3.922  -5.204  1.00  0.00     0.091 A 
ATOM     81  F   UNL     1       6.859   5.021  -4.233  1.00  0.00    -0.205 F 
ATOM     82  C   UNL     1       9.664   3.853  -6.185  1.00  0.00     0.022 A 
BRANCH  80  83
ATOM     83  S   UNL     1       8.391   2.460  -4.196  1.00  0.00     0.127 S 
ATOM     84  O   UNL     1       7.779   1.554  -5.163  1.00  0.00    -0.237 OA
ATOM     85  O   UNL     1       9.753   2.109  -3.792  1.00  0.00    -0.237 OA
ATOM     86  O   UNL     1       7.539   2.894  -3.096  1.00  0.00    -0.744 OA
ENDBRANCH  80  83
ENDBRANCH  62  76
BRANCH  63  87
ATOM     87  C   UNL     1       0.280   3.484  -7.846  1.00  0.00     0.023 A 
ATOM     88  C   UNL     1       0.193   2.673  -8.997  1.00  0.00     0.012 A 
ATOM     89  C   UNL     1      -0.166   2.944  -6.619  1.00  0.00     0.148 A 
ATOM     90  C   UNL     1      -0.295   1.360  -8.921  1.00  0.00     0.002 A 
ATOM     91  C   UNL     1      -0.652   1.640  -6.550  1.00  0.00     0.091 A 
ATOM     92  F   UNL     1      -0.025   3.680  -5.508  1.00  0.00    -0.205 F 
ATOM     93  C   UNL     1      -0.708   0.841  -7.698  1.00  0.00     0.022 A 
BRANCH  91  94
ATOM     94  S   UNL     1      -1.204   0.897  -5.006  1.00  0.00     0.127 S 
ATOM     95  O   UNL     1      -2.497   0.330  -5.393  1.00  0.00    -0.237 OA
ATOM     96  O   UNL     1      -0.159  -0.093  -4.752  1.00  0.00    -0.237 OA
ATOM     97  O   UNL     1      -1.294   1.999  -4.058  1.00  0.00    -0.744 OA
ENDBRANCH  91  94
ENDBRANCH  63  87
BRANCH  75  98
ATOM     98  C   UNL     1       3.368   8.427 -10.087  1.00  0.00     0.023 A 
ATOM     99  C   UNL     1       2.156   8.834  -9.486  1.00  0.00     0.012 A 
ATOM    100  C   UNL     1       3.786   9.075 -11.260  1.00  0.00     0.148 A 
ATOM    101  C   UNL     1       1.374   9.848 -10.049  1.00  0.00     0.002 A 
ATOM    102  C   UNL     1       3.028  10.110 -11.796  1.00  0.00     0.091 A 
ATOM    103  F   UNL     1       4.945   8.689 -11.813  1.00  0.00    -0.205 F 
ATOM    104  C   UNL     1       1.816  10.495 -11.198  1.00  0.00     0.022 A 
BRANCH 102 105
ATOM    105  S   UNL     1       3.594  11.066 -13.204  1.00  0.00     0.127 S 
ATOM    106  O   UNL     1       2.655  10.659 -14.247  1.00  0.00    -0.237 OA
ATOM    107  O   UNL     1       3.428  12.442 -12.734  1.00  0.00    -0.237 OA
ATOM    108  O   UNL     1       4.981  10.675 -13.427  1.00  0.00    -0.744 OA
ENDBRANCH 102 105
ENDBRANCH  75  98
ENDBRANCH  49  50
ENDBRANCH  41  44
ENDBRANCH  39  40
ENDBRANCH  38  39
ENDBRANCH  37  38
ENDBRANCH   3  37
TORSDOF 21
