REMARK SMILES CC(C)(C)N(CC(=O)NCCCNC(=O)c1ccc(-c2c3nc(c(-c4cccc(S(=O)(=O)[O-])c4F)c4ccc([nH]4)c(-c4cccc(S(=O)(=O)[O-])c4F)c4nc(c(-c5cccc(S(=O)(=O)[O-])c5F)c5ccc2[nH]5)C=C4)C=C3)cc1)C(=O)C1(c2ccccc2)CCC1
REMARK SMILES IDX 10 1 9 2 7 3 8 4 6 6 5 7 2 8 1 9 3 10 4 11 79 12 80 13 81 14
REMARK SMILES IDX 88 15 90 16 89 17 82 18 83 19 87 20 84 21 86 22 85 23 11 24
REMARK SMILES IDX 12 25 13 26 14 27 15 29 16 30 17 31 78 32 18 33 77 34 19 35
REMARK SMILES IDX 20 36 21 37 71 38 22 39 76 40 70 41 72 42 23 43 75 44 69 45
REMARK SMILES IDX 68 46 24 48 56 49 36 50 55 51 37 52 40 53 54 54 73 55 38 56
REMARK SMILES IDX 39 57 53 59 74 60 41 61 25 62 26 63 34 64 27 65 29 66 35 67
REMARK SMILES IDX 28 68 30 69 31 70 32 71 33 72 57 73 58 74 66 75 59 76 61 77
REMARK SMILES IDX 67 78 60 79 62 80 63 81 64 82 65 83 42 84 43 85 51 86 44 87
REMARK SMILES IDX 46 88 52 89 45 90 47 91 48 92 49 93 50 94
REMARK H PARENT 9 5 13 28 72 47 40 58
REMARK Flexibility Score: inf
ROOT
ATOM      1  C   UNL     1       3.905  -0.843   1.328  1.00  0.00     0.117 C 
ENDROOT
BRANCH   1   2
ATOM      2  N   UNL     1       4.170  -1.993   0.499  1.00  0.00    -0.354 N 
ATOM      3  C   UNL     1       3.402  -2.500  -0.499  1.00  0.00     0.239 C 
ATOM      4  O   UNL     1       3.990  -3.196  -1.330  1.00  0.00    -0.273 OA
ATOM      5  H   UNL     1       5.012  -2.469   0.680  1.00  0.00     0.163 HD
BRANCH   3   6
ATOM      6  C   UNL     1       1.946  -2.042  -0.692  1.00  0.00     0.220 C 
BRANCH   6   7
ATOM      7  N   UNL     1       0.991  -2.127   0.441  1.00  0.00    -0.328 N 
BRANCH   7   8
ATOM      8  C   UNL     1       0.129  -0.918   0.800  1.00  0.00     0.035 C 
ATOM      9  C   UNL     1       0.408   0.348  -0.054  1.00  0.00     0.034 C 
ATOM     10  C   UNL     1       0.327  -0.493   2.274  1.00  0.00     0.034 C 
ATOM     11  C   UNL     1      -1.373  -1.225   0.556  1.00  0.00     0.034 C 
ENDBRANCH   7   8
BRANCH   7  12
ATOM     12  C   UNL     1       0.623  -3.384   1.029  1.00  0.00     0.234 C 
ATOM     13  O   UNL     1      -0.151  -3.376   2.004  1.00  0.00    -0.274 OA
BRANCH  12  14
ATOM     14  C   UNL     1       1.149  -4.805   0.508  1.00  0.00     0.074 C 
ATOM     15  C   UNL     1       2.442  -5.311   1.256  1.00  0.00     0.022 C 
ATOM     16  C   UNL     1       0.440  -6.046   1.236  1.00  0.00     0.022 C 
ATOM     17  C   UNL     1       1.817  -6.714   1.335  1.00  0.00     0.003 C 
BRANCH  14  18
ATOM     18  C   UNL     1       1.027  -4.930  -1.102  1.00  0.00    -0.032 A 
ATOM     19  C   UNL     1       2.109  -5.307  -1.923  1.00  0.00     0.005 A 
ATOM     20  C   UNL     1      -0.172  -4.605  -1.775  1.00  0.00     0.005 A 
ATOM     21  C   UNL     1       2.056  -5.212  -3.316  1.00  0.00     0.000 A 
ATOM     22  C   UNL     1      -0.239  -4.522  -3.170  1.00  0.00     0.000 A 
ATOM     23  C   UNL     1       0.887  -4.796  -3.938  1.00  0.00     0.000 A 
ENDBRANCH  14  18
ENDBRANCH  12  14
ENDBRANCH   7  12
ENDBRANCH   6   7
ENDBRANCH   3   6
ENDBRANCH   1   2
BRANCH   1  24
ATOM     24  C   UNL     1       3.811  -1.204   2.796  1.00  0.00     0.042 C 
BRANCH  24  25
ATOM     25  C   UNL     1       5.099  -1.798   3.344  1.00  0.00     0.118 C 
BRANCH  25  26
ATOM     26  N   UNL     1       6.232  -0.891   3.190  1.00  0.00    -0.352 N 
ATOM     27  C   UNL     1       6.892  -0.132   4.124  1.00  0.00     0.251 C 
ATOM     28  H   UNL     1       6.577  -0.810   2.272  1.00  0.00     0.163 HD
ATOM     29  O   UNL     1       7.633   0.773   3.752  1.00  0.00    -0.269 OA
BRANCH  27  30
ATOM     30  C   UNL     1       6.714  -0.407   5.565  1.00  0.00     0.039 A 
ATOM     31  C   UNL     1       6.688   0.658   6.468  1.00  0.00     0.014 A 
ATOM     32  C   UNL     1       6.611  -1.719   6.029  1.00  0.00     0.014 A 
ATOM     33  C   UNL     1       6.513   0.403   7.830  1.00  0.00     0.010 A 
ATOM     34  C   UNL     1       6.320  -1.963   7.364  1.00  0.00     0.010 A 
ATOM     35  C   UNL     1       6.304  -0.909   8.285  1.00  0.00    -0.014 A 
BRANCH  35  36
ATOM     36  C   UNL     1       6.112  -1.213   9.725  1.00  0.00     0.031 A 
ATOM     37  C   UNL     1       7.079  -2.124  10.436  1.00  0.00     0.074 A 
ATOM     38  C   UNL     1       5.024  -0.743  10.366  1.00  0.00     0.049 A 
ATOM     39  N   UNL     1       7.053  -2.553  11.671  1.00  0.00    -0.248 NA
ATOM     40  C   UNL     1       8.204  -2.658   9.646  1.00  0.00     0.031 C 
ATOM     41  C   UNL     1       3.964   0.064   9.757  1.00  0.00     0.029 A 
ATOM     42  N   UNL     1       4.618  -0.896  11.666  1.00  0.00    -0.354 N 
ATOM     43  C   UNL     1       8.119  -3.437  11.789  1.00  0.00     0.074 A 
ATOM     44  C   UNL     1       8.746  -3.522  10.490  1.00  0.00     0.031 C 
ATOM     45  C   UNL     1       3.038   0.348  10.687  1.00  0.00     0.029 A 
ATOM     46  C   UNL     1       3.424  -0.276  11.948  1.00  0.00     0.049 A 
ATOM     47  H   UNL     1       5.133  -1.403  12.335  1.00  0.00     0.167 HD
ATOM     48  C   UNL     1       8.565  -4.089  12.888  1.00  0.00     0.034 A 
ATOM     49  C   UNL     1       2.724  -0.213  13.098  1.00  0.00     0.034 A 
ATOM     50  C   UNL     1       7.980  -3.943  14.192  1.00  0.00     0.049 A 
ATOM     51  C   UNL     1       3.287  -0.875  14.326  1.00  0.00     0.074 A 
ATOM     52  C   UNL     1       8.414  -4.470  15.395  1.00  0.00     0.029 A 
ATOM     53  N   UNL     1       6.834  -3.212  14.464  1.00  0.00    -0.354 N 
ATOM     54  N   UNL     1       4.394  -1.566  14.457  1.00  0.00    -0.248 NA
ATOM     55  C   UNL     1       2.529  -0.711  15.574  1.00  0.00     0.031 C 
ATOM     56  C   UNL     1       7.521  -4.067  16.394  1.00  0.00     0.029 A 
ATOM     57  C   UNL     1       6.543  -3.273  15.815  1.00  0.00     0.049 A 
ATOM     58  H   UNL     1       6.305  -2.721  13.795  1.00  0.00     0.167 HD
ATOM     59  C   UNL     1       4.482  -1.891  15.806  1.00  0.00     0.074 A 
ATOM     60  C   UNL     1       3.330  -1.298  16.453  1.00  0.00     0.031 C 
ATOM     61  C   UNL     1       5.421  -2.629  16.449  1.00  0.00     0.034 A 
BRANCH  48  62
ATOM     62  C   UNL     1       9.784  -4.962  12.739  1.00  0.00     0.023 A 
ATOM     63  C   UNL     1      11.043  -4.365  12.521  1.00  0.00     0.012 A 
ATOM     64  C   UNL     1       9.697  -6.362  12.859  1.00  0.00     0.148 A 
ATOM     65  C   UNL     1      12.189  -5.147  12.384  1.00  0.00     0.002 A 
ATOM     66  C   UNL     1      10.851  -7.133  12.769  1.00  0.00     0.091 A 
ATOM     67  F   UNL     1       8.490  -6.916  13.044  1.00  0.00    -0.205 F 
ATOM     68  C   UNL     1      12.095  -6.529  12.519  1.00  0.00     0.022 A 
BRANCH  66  69
ATOM     69  S   UNL     1      10.850  -8.914  13.008  1.00  0.00     0.127 S 
ATOM     70  O   UNL     1      11.092  -9.394  11.648  1.00  0.00    -0.237 OA
ATOM     71  O   UNL     1      11.970  -9.102  13.929  1.00  0.00    -0.237 OA
ATOM     72  O   UNL     1       9.545  -9.243  13.564  1.00  0.00    -0.744 OA
ENDBRANCH  66  69
ENDBRANCH  48  62
BRANCH  49  73
ATOM     73  C   UNL     1       1.464   0.581  13.159  1.00  0.00     0.023 A 
ATOM     74  C   UNL     1       1.450   1.795  13.874  1.00  0.00     0.012 A 
ATOM     75  C   UNL     1       0.298   0.166  12.489  1.00  0.00     0.148 A 
ATOM     76  C   UNL     1       0.289   2.565  13.948  1.00  0.00     0.002 A 
ATOM     77  C   UNL     1      -0.840   0.965  12.523  1.00  0.00     0.091 A 
ATOM     78  F   UNL     1       0.327  -0.996  11.822  1.00  0.00    -0.205 F 
ATOM     79  C   UNL     1      -0.852   2.155  13.265  1.00  0.00     0.022 A 
BRANCH  77  80
ATOM     80  S   UNL     1      -2.312   0.584  11.565  1.00  0.00     0.127 S 
ATOM     81  O   UNL     1      -3.245   0.163  12.606  1.00  0.00    -0.237 OA
ATOM     82  O   UNL     1      -2.616   1.876  10.950  1.00  0.00    -0.237 OA
ATOM     83  O   UNL     1      -1.906  -0.448  10.619  1.00  0.00    -0.744 OA
ENDBRANCH  77  80
ENDBRANCH  49  73
BRANCH  61  84
ATOM     84  C   UNL     1       5.263  -2.813  17.934  1.00  0.00     0.023 A 
ATOM     85  C   UNL     1       4.255  -3.664  18.429  1.00  0.00     0.012 A 
ATOM     86  C   UNL     1       6.156  -2.200  18.834  1.00  0.00     0.148 A 
ATOM     87  C   UNL     1       4.115  -3.874  19.800  1.00  0.00     0.002 A 
ATOM     88  C   UNL     1       6.042  -2.453  20.196  1.00  0.00     0.091 A 
ATOM     89  F   UNL     1       7.096  -1.379  18.345  1.00  0.00    -0.205 F 
ATOM     90  C   UNL     1       5.015  -3.279  20.681  1.00  0.00     0.022 A 
BRANCH  88  91
ATOM     91  S   UNL     1       7.217  -1.807  21.391  1.00  0.00     0.127 S 
ATOM     92  O   UNL     1       6.452  -0.724  22.006  1.00  0.00    -0.237 OA
ATOM     93  O   UNL     1       7.447  -2.962  22.260  1.00  0.00    -0.237 OA
ATOM     94  O   UNL     1       8.383  -1.395  20.619  1.00  0.00    -0.744 OA
ENDBRANCH  88  91
ENDBRANCH  61  84
ENDBRANCH  35  36
ENDBRANCH  27  30
ENDBRANCH  25  26
ENDBRANCH  24  25
ENDBRANCH   1  24
TORSDOF 18
