REMARK SMILES O=C(C[C@@H]1C=CCC1)NCc1ccc(C(=O)NCCCNC(=O)c2ccc(-c3c4nc(c(-c5cccc(S(=O)(=O)[O-])c5F)c5ccc([nH]5)c(-c5cccc(S(=O)(=O)[O-])c5F)c5nc(c(-c6cccc(S(=O)(=O)[O-])c6F)c6ccc3[nH]6)C=C5)C=C4)cc2)o1
REMARK SMILES IDX 18 1 17 2 15 3 16 4 14 6 11 7 12 8 87 9 13 10 10 11 9 12
REMARK SMILES IDX 1 13 2 14 3 16 4 17 5 18 8 19 6 20 7 21 19 22 20 23 21 24
REMARK SMILES IDX 22 25 23 27 24 28 25 29 86 30 26 31 85 32 27 33 28 34 29 35
REMARK SMILES IDX 79 36 30 37 84 38 78 39 80 40 31 41 83 42 77 43 76 44 32 46
REMARK SMILES IDX 64 47 44 48 63 49 45 50 48 51 62 52 81 53 46 54 47 55 61 57
REMARK SMILES IDX 82 58 49 59 33 60 34 61 42 62 35 63 37 64 43 65 36 66 38 67
REMARK SMILES IDX 39 68 40 69 41 70 65 71 66 72 74 73 67 74 69 75 75 76 68 77
REMARK SMILES IDX 70 78 71 79 72 80 73 81 50 82 51 83 59 84 52 85 54 86 60 87
REMARK SMILES IDX 53 88 55 89 56 90 57 91 58 92
REMARK H PARENT 17 5 9 15 21 26 80 45 48 56
REMARK Flexibility Score: inf
ROOT
ATOM      1  C   UNL     1       7.168   5.995  -4.777  1.00  0.00     0.118 C 
ENDROOT
BRANCH   1   2
ATOM      2  N   UNL     1       6.496   5.973  -3.494  1.00  0.00    -0.349 N 
ATOM      3  C   UNL     1       6.275   4.940  -2.611  1.00  0.00     0.286 C 
ATOM      4  O   UNL     1       5.797   5.262  -1.520  1.00  0.00    -0.266 OA
ATOM      5  H   UNL     1       6.137   6.842  -3.204  1.00  0.00     0.163 HD
BRANCH   3   6
ATOM      6  C   UNL     1       6.610   3.568  -2.949  1.00  0.00     0.191 A 
ATOM      7  C   UNL     1       7.021   1.461  -2.401  1.00  0.00     0.124 A 
ATOM      8  C   UNL     1       7.105   1.523  -3.772  1.00  0.00     0.048 A 
ATOM      9  O   UNL     1       6.726   2.690  -1.896  1.00  0.00    -0.454 OA
ATOM     10  C   UNL     1       6.816   2.864  -4.124  1.00  0.00     0.056 A 
BRANCH   7  11
ATOM     11  C   UNL     1       7.128   0.353  -1.425  1.00  0.00     0.191 C 
BRANCH  11  12
ATOM     12  N   UNL     1       5.786  -0.037  -1.071  1.00  0.00    -0.349 N 
ATOM     13  O   UNL     1       5.934  -2.216  -1.786  1.00  0.00    -0.275 OA
ATOM     14  C   UNL     1       5.293  -1.303  -1.276  1.00  0.00     0.220 C 
ATOM     15  H   UNL     1       5.195   0.635  -0.662  1.00  0.00     0.163 HD
BRANCH  14  16
ATOM     16  C   UNL     1       3.871  -1.478  -0.783  1.00  0.00     0.107 C 
BRANCH  16  17
ATOM     17  C   UNL     1       3.740  -1.798   0.716  1.00  0.00     0.021 C 
ATOM     18  C   UNL     1       4.950  -1.536   1.568  1.00  0.00    -0.027 C 
ATOM     19  C   UNL     1       3.486  -3.292   0.993  1.00  0.00     0.012 C 
ATOM     20  C   UNL     1       5.536  -2.668   1.972  1.00  0.00    -0.031 C 
ATOM     21  C   UNL     1       4.809  -3.875   1.485  1.00  0.00     0.027 C 
ENDBRANCH  16  17
ENDBRANCH  14  16
ENDBRANCH  11  12
ENDBRANCH   7  11
ENDBRANCH   3   6
ENDBRANCH   1   2
BRANCH   1  22
ATOM     22  C   UNL     1       6.179   6.038  -5.940  1.00  0.00     0.042 C 
BRANCH  22  23
ATOM     23  C   UNL     1       5.539   7.411  -6.143  1.00  0.00     0.118 C 
BRANCH  23  24
ATOM     24  N   UNL     1       6.515   8.416  -6.550  1.00  0.00    -0.352 N 
ATOM     25  C   UNL     1       6.585   9.180  -7.688  1.00  0.00     0.251 C 
ATOM     26  H   UNL     1       7.241   8.570  -5.904  1.00  0.00     0.163 HD
ATOM     27  O   UNL     1       7.620   9.797  -7.929  1.00  0.00    -0.269 OA
BRANCH  25  28
ATOM     28  C   UNL     1       5.439   9.270  -8.619  1.00  0.00     0.039 A 
ATOM     29  C   UNL     1       5.689   9.300  -9.995  1.00  0.00     0.014 A 
ATOM     30  C   UNL     1       4.128   9.384  -8.147  1.00  0.00     0.014 A 
ATOM     31  C   UNL     1       4.624   9.392 -10.895  1.00  0.00     0.010 A 
ATOM     32  C   UNL     1       3.064   9.404  -9.046  1.00  0.00     0.010 A 
ATOM     33  C   UNL     1       3.300   9.416 -10.429  1.00  0.00    -0.014 A 
BRANCH  33  34
ATOM     34  C   UNL     1       2.150   9.441 -11.370  1.00  0.00     0.031 A 
ATOM     35  C   UNL     1       1.204  10.612 -11.387  1.00  0.00     0.074 A 
ATOM     36  C   UNL     1       1.906   8.366 -12.144  1.00  0.00     0.049 A 
ATOM     37  N   UNL     1       0.112  10.778 -12.088  1.00  0.00    -0.248 NA
ATOM     38  C   UNL     1       1.507  11.730 -10.478  1.00  0.00     0.031 C 
ATOM     39  C   UNL     1       2.704   7.137 -12.159  1.00  0.00     0.029 A 
ATOM     40  N   UNL     1       0.900   8.118 -13.044  1.00  0.00    -0.354 N 
ATOM     41  C   UNL     1      -0.422  11.995 -11.679  1.00  0.00     0.074 A 
ATOM     42  C   UNL     1       0.451  12.512 -10.648  1.00  0.00     0.031 C 
ATOM     43  C   UNL     1       2.156   6.268 -13.024  1.00  0.00     0.029 A 
ATOM     44  C   UNL     1       0.956   6.862 -13.602  1.00  0.00     0.049 A 
ATOM     45  H   UNL     1       0.204   8.777 -13.269  1.00  0.00     0.167 HD
ATOM     46  C   UNL     1      -1.522  12.637 -12.139  1.00  0.00     0.034 A 
ATOM     47  C   UNL     1       0.130   6.253 -14.476  1.00  0.00     0.034 A 
ATOM     48  C   UNL     1      -2.359  12.142 -13.200  1.00  0.00     0.049 A 
ATOM     49  C   UNL     1      -1.056   7.010 -15.009  1.00  0.00     0.074 A 
ATOM     50  C   UNL     1      -3.439  12.761 -13.803  1.00  0.00     0.029 A 
ATOM     51  N   UNL     1      -2.214  10.907 -13.811  1.00  0.00    -0.354 N 
ATOM     52  N   UNL     1      -1.451   8.229 -14.729  1.00  0.00    -0.248 NA
ATOM     53  C   UNL     1      -1.890   6.324 -16.006  1.00  0.00     0.031 C 
ATOM     54  C   UNL     1      -3.960  11.891 -14.767  1.00  0.00     0.029 A 
ATOM     55  C   UNL     1      -3.188  10.740 -14.780  1.00  0.00     0.049 A 
ATOM     56  H   UNL     1      -1.519  10.245 -13.590  1.00  0.00     0.167 HD
ATOM     57  C   UNL     1      -2.554   8.468 -15.539  1.00  0.00     0.074 A 
ATOM     58  C   UNL     1      -2.752   7.276 -16.337  1.00  0.00     0.031 C 
ATOM     59  C   UNL     1      -3.341   9.570 -15.606  1.00  0.00     0.034 A 
BRANCH  46  60
ATOM     60  C   UNL     1      -1.856  13.978 -11.538  1.00  0.00     0.023 A 
ATOM     61  C   UNL     1      -1.047  15.094 -11.837  1.00  0.00     0.012 A 
ATOM     62  C   UNL     1      -2.998  14.151 -10.732  1.00  0.00     0.148 A 
ATOM     63  C   UNL     1      -1.348  16.351 -11.316  1.00  0.00     0.002 A 
ATOM     64  C   UNL     1      -3.317  15.417 -10.253  1.00  0.00     0.091 A 
ATOM     65  F   UNL     1      -3.745  13.076 -10.441  1.00  0.00    -0.205 F 
ATOM     66  C   UNL     1      -2.487  16.515 -10.534  1.00  0.00     0.022 A 
BRANCH  64  67
ATOM     67  S   UNL     1      -4.806  15.747  -9.302  1.00  0.00     0.127 S 
ATOM     68  O   UNL     1      -4.256  15.983  -7.968  1.00  0.00    -0.237 OA
ATOM     69  O   UNL     1      -5.335  16.940  -9.963  1.00  0.00    -0.237 OA
ATOM     70  O   UNL     1      -5.638  14.560  -9.435  1.00  0.00    -0.744 OA
ENDBRANCH  64  67
ENDBRANCH  46  60
BRANCH  47  71
ATOM     71  C   UNL     1       0.439   4.876 -14.953  1.00  0.00     0.023 A 
ATOM     72  C   UNL     1       0.866   4.686 -16.282  1.00  0.00     0.012 A 
ATOM     73  C   UNL     1       0.347   3.763 -14.095  1.00  0.00     0.148 A 
ATOM     74  C   UNL     1       1.167   3.409 -16.757  1.00  0.00     0.002 A 
ATOM     75  C   UNL     1       0.702   2.501 -14.559  1.00  0.00     0.091 A 
ATOM     76  F   UNL     1      -0.072   3.963 -12.838  1.00  0.00    -0.205 F 
ATOM     77  C   UNL     1       1.095   2.319 -15.894  1.00  0.00     0.022 A 
BRANCH  75  78
ATOM     78  S   UNL     1       0.771   1.066 -13.481  1.00  0.00     0.127 S 
ATOM     79  O   UNL     1      -0.389   0.300 -13.928  1.00  0.00    -0.237 OA
ATOM     80  O   UNL     1       2.067   0.485 -13.832  1.00  0.00    -0.237 OA
ATOM     81  O   UNL     1       0.700   1.592 -12.124  1.00  0.00    -0.744 OA
ENDBRANCH  75  78
ENDBRANCH  47  71
BRANCH  59  82
ATOM     82  C   UNL     1      -4.473   9.562 -16.600  1.00  0.00     0.023 A 
ATOM     83  C   UNL     1      -5.614   8.774 -16.354  1.00  0.00     0.012 A 
ATOM     84  C   UNL     1      -4.437  10.393 -17.737  1.00  0.00     0.148 A 
ATOM     85  C   UNL     1      -6.691   8.790 -17.240  1.00  0.00     0.002 A 
ATOM     86  C   UNL     1      -5.533  10.440 -18.590  1.00  0.00     0.091 A 
ATOM     87  F   UNL     1      -3.333  11.120 -17.964  1.00  0.00    -0.205 F 
ATOM     88  C   UNL     1      -6.655   9.631 -18.350  1.00  0.00     0.022 A 
BRANCH  86  89
ATOM     89  S   UNL     1      -5.614  11.565 -19.989  1.00  0.00     0.127 S 
ATOM     90  O   UNL     1      -5.434  10.652 -21.116  1.00  0.00    -0.237 OA
ATOM     91  O   UNL     1      -6.962  12.121 -19.863  1.00  0.00    -0.237 OA
ATOM     92  O   UNL     1      -4.542  12.531 -19.789  1.00  0.00    -0.744 OA
ENDBRANCH  86  89
ENDBRANCH  59  82
ENDBRANCH  33  34
ENDBRANCH  25  28
ENDBRANCH  23  24
ENDBRANCH  22  23
ENDBRANCH   1  22
TORSDOF 17
