REMARK SMILES C=C(C)COc1cc2oc(=O)c(CC(=O)N3CCC[C@H](C(=O)NCCCNC(=O)c4ccc(-c5c6nc(c(-c7cccc(S(=O)(=O)[O-])c7F)c7ccc([nH]7)c(-c7cccc(S(=O)(=O)[O-])c7F)c7nc(c(-c8cccc(S(=O)(=O)[O-])c8F)c8ccc5[nH]8)C=C7)C=C6)cc4)C3)c(C)c2cc1Cl
REMARK SMILES IDX 21 1 22 2 23 3 20 5 16 6 17 7 93 8 18 9 19 10 14 11 15 12
REMARK SMILES IDX 13 13 12 14 6 15 7 16 98 17 8 18 97 19 99 20 9 21 96 22
REMARK SMILES IDX 10 23 94 24 11 25 95 26 5 27 4 28 2 29 1 30 3 31 24 32 25 33
REMARK SMILES IDX 26 34 27 35 28 36 29 38 30 39 31 40 92 41 32 42 91 43 33 44
REMARK SMILES IDX 34 45 35 46 85 47 36 48 90 49 84 50 86 51 37 52 89 53 83 54
REMARK SMILES IDX 82 55 38 57 70 58 50 59 69 60 51 61 54 62 68 63 87 64 52 65
REMARK SMILES IDX 53 66 67 68 88 69 55 70 39 71 40 72 48 73 41 74 43 75 49 76
REMARK SMILES IDX 42 77 44 78 45 79 46 80 47 81 71 82 72 83 80 84 73 85 75 86
REMARK SMILES IDX 81 87 74 88 76 89 77 90 78 91 79 92 56 93 57 94 65 95 58 96
REMARK SMILES IDX 60 97 66 98 59 99 61 100 62 101 63 102 64 103
REMARK H PARENT 23 4 27 37 86 56 54 67
REMARK Flexibility Score: inf
ROOT
ATOM      1  C   UNL     1      -3.914   1.878  -5.595  1.00  0.00     0.224 C 
ATOM      2  O   UNL     1      -3.531   0.967  -4.849  1.00  0.00    -0.275 OA
ATOM      3  N   UNL     1      -4.508   2.934  -4.987  1.00  0.00    -0.356 N 
ATOM      4  H   UNL     1      -4.730   2.784  -4.039  1.00  0.00     0.163 HD
ENDROOT
BRANCH   1   5
ATOM      5  C   UNL     1      -3.679   1.752  -7.107  1.00  0.00     0.098 C 
ATOM      6  N   UNL     1      -3.037   3.921  -8.196  1.00  0.00    -0.342 N 
ATOM      7  C   UNL     1      -4.133   3.797  -9.167  1.00  0.00     0.119 C 
ATOM      8  C   UNL     1      -2.569   2.651  -7.654  1.00  0.00     0.133 C 
ATOM      9  C   UNL     1      -5.326   3.001  -8.643  1.00  0.00     0.022 C 
ATOM     10  C   UNL     1      -4.936   1.690  -7.972  1.00  0.00     0.017 C 
BRANCH   6  11
ATOM     11  C   UNL     1      -2.587   5.194  -7.868  1.00  0.00     0.227 C 
ATOM     12  O   UNL     1      -3.310   6.176  -8.091  1.00  0.00    -0.275 OA
BRANCH  11  13
ATOM     13  C   UNL     1      -1.169   5.494  -7.338  1.00  0.00     0.143 C 
BRANCH  13  14
ATOM     14  C   UNL     1      -0.458   4.567  -6.391  1.00  0.00     0.051 A 
ATOM     15  C   UNL     1       1.348   1.384  -2.896  1.00  0.00     0.142 A 
ATOM     16  C   UNL     1       1.493   1.508  -4.275  1.00  0.00     0.096 A 
ATOM     17  C   UNL     1       0.633   2.352  -2.187  1.00  0.00     0.083 A 
ATOM     18  C   UNL     1       0.859   2.564  -4.933  1.00  0.00     0.142 A 
ATOM     19  C   UNL     1      -0.023   3.383  -2.872  1.00  0.00     0.036 A 
ATOM     20  Cl  UNL     1       0.544   2.351  -0.464  1.00  0.00    -0.080 Cl
ATOM     21  O   UNL     1       1.079   2.654  -6.314  1.00  0.00    -0.422 OA
ATOM     22  C   UNL     1       0.068   3.496  -4.266  1.00  0.00     0.023 A 
ATOM     23  C   UNL     1       0.529   3.674  -7.067  1.00  0.00     0.340 A 
ATOM     24  C   UNL     1      -0.650   4.519  -5.053  1.00  0.00    -0.029 A 
ATOM     25  O   UNL     1       0.797   3.784  -8.258  1.00  0.00    -0.246 OA
ATOM     26  C   UNL     1      -1.614   5.405  -4.306  1.00  0.00     0.046 C 
BRANCH  15  27
ATOM     27  O   UNL     1       1.990   0.353  -2.262  1.00  0.00    -0.488 OA
BRANCH  27  28
ATOM     28  C   UNL     1       1.207  -0.854  -2.289  1.00  0.00     0.260 C 
BRANCH  28  29
ATOM     29  C   UNL     1       0.479  -1.037  -0.979  1.00  0.00    -0.043 C 
ATOM     30  C   UNL     1       1.132  -1.106   0.194  1.00  0.00     0.011 C 
ATOM     31  C   UNL     1      -1.020  -1.085  -1.051  1.00  0.00     0.042 C 
ENDBRANCH  28  29
ENDBRANCH  27  28
ENDBRANCH  15  27
ENDBRANCH  13  14
ENDBRANCH  11  13
ENDBRANCH   6  11
ENDBRANCH   1   5
BRANCH   3  32
ATOM     32  C   UNL     1      -4.874   4.243  -5.484  1.00  0.00     0.117 C 
BRANCH  32  33
ATOM     33  C   UNL     1      -6.365   4.521  -5.454  1.00  0.00     0.042 C 
BRANCH  33  34
ATOM     34  C   UNL     1      -6.816   5.146  -4.145  1.00  0.00     0.118 C 
BRANCH  34  35
ATOM     35  N   UNL     1      -6.330   6.516  -3.967  1.00  0.00    -0.352 N 
ATOM     36  C   UNL     1      -6.999   7.722  -3.945  1.00  0.00     0.251 C 
ATOM     37  H   UNL     1      -5.356   6.588  -3.842  1.00  0.00     0.163 HD
ATOM     38  O   UNL     1      -6.358   8.764  -3.919  1.00  0.00    -0.269 OA
BRANCH  36  39
ATOM     39  C   UNL     1      -8.478   7.754  -3.992  1.00  0.00     0.039 A 
ATOM     40  C   UNL     1      -9.225   6.822  -3.278  1.00  0.00     0.014 A 
ATOM     41  C   UNL     1      -9.127   8.705  -4.785  1.00  0.00     0.014 A 
ATOM     42  C   UNL     1     -10.576   6.674  -3.552  1.00  0.00     0.010 A 
ATOM     43  C   UNL     1     -10.516   8.641  -4.949  1.00  0.00     0.010 A 
ATOM     44  C   UNL     1     -11.245   7.582  -4.389  1.00  0.00    -0.014 A 
BRANCH  44  45
ATOM     45  C   UNL     1     -12.698   7.391  -4.642  1.00  0.00     0.031 A 
ATOM     46  C   UNL     1     -13.228   7.184  -6.038  1.00  0.00     0.074 A 
ATOM     47  C   UNL     1     -13.540   7.333  -3.589  1.00  0.00     0.049 A 
ATOM     48  N   UNL     1     -14.463   6.981  -6.421  1.00  0.00    -0.248 NA
ATOM     49  C   UNL     1     -12.260   7.214  -7.148  1.00  0.00     0.031 C 
ATOM     50  C   UNL     1     -13.151   7.532  -2.190  1.00  0.00     0.029 A 
ATOM     51  N   UNL     1     -14.881   7.057  -3.521  1.00  0.00    -0.354 N 
ATOM     52  C   UNL     1     -14.430   6.919  -7.809  1.00  0.00     0.074 A 
ATOM     53  C   UNL     1     -13.051   7.097  -8.207  1.00  0.00     0.031 C 
ATOM     54  C   UNL     1     -14.207   7.297  -1.400  1.00  0.00     0.029 A 
ATOM     55  C   UNL     1     -15.366   7.009  -2.235  1.00  0.00     0.049 A 
ATOM     56  H   UNL     1     -15.443   6.907  -4.316  1.00  0.00     0.167 HD
ATOM     57  C   UNL     1     -15.452   6.715  -8.672  1.00  0.00     0.034 A 
ATOM     58  C   UNL     1     -16.608   6.773  -1.770  1.00  0.00     0.034 A 
ATOM     59  C   UNL     1     -16.810   6.462  -8.273  1.00  0.00     0.049 A 
ATOM     60  C   UNL     1     -17.715   6.517  -2.746  1.00  0.00     0.074 A 
ATOM     61  C   UNL     1     -17.905   6.199  -9.078  1.00  0.00     0.029 A 
ATOM     62  N   UNL     1     -17.256   6.423  -6.962  1.00  0.00    -0.354 N 
ATOM     63  N   UNL     1     -17.648   6.418  -4.051  1.00  0.00    -0.248 NA
ATOM     64  C   UNL     1     -19.064   6.342  -2.193  1.00  0.00     0.031 C 
ATOM     65  C   UNL     1     -19.015   6.001  -8.252  1.00  0.00     0.029 A 
ATOM     66  C   UNL     1     -18.610   6.137  -6.934  1.00  0.00     0.049 A 
ATOM     67  H   UNL     1     -16.694   6.575  -6.168  1.00  0.00     0.167 HD
ATOM     68  C   UNL     1     -18.945   6.169  -4.477  1.00  0.00     0.074 A 
ATOM     69  C   UNL     1     -19.773   6.104  -3.290  1.00  0.00     0.031 C 
ATOM     70  C   UNL     1     -19.409   6.033  -5.742  1.00  0.00     0.034 A 
BRANCH  57  71
ATOM     71  C   UNL     1     -15.150   6.704 -10.146  1.00  0.00     0.023 A 
ATOM     72  C   UNL     1     -14.618   5.539 -10.731  1.00  0.00     0.012 A 
ATOM     73  C   UNL     1     -15.494   7.799 -10.963  1.00  0.00     0.148 A 
ATOM     74  C   UNL     1     -14.425   5.465 -12.110  1.00  0.00     0.002 A 
ATOM     75  C   UNL     1     -15.325   7.707 -12.340  1.00  0.00     0.091 A 
ATOM     76  F   UNL     1     -15.988   8.900 -10.380  1.00  0.00    -0.205 F 
ATOM     77  C   UNL     1     -14.788   6.543 -12.914  1.00  0.00     0.022 A 
BRANCH  75  78
ATOM     78  S   UNL     1     -15.812   9.014 -13.472  1.00  0.00     0.127 S 
ATOM     79  O   UNL     1     -14.518   9.436 -14.008  1.00  0.00    -0.237 OA
ATOM     80  O   UNL     1     -16.660   8.296 -14.422  1.00  0.00    -0.237 OA
ATOM     81  O   UNL     1     -16.502  10.011 -12.665  1.00  0.00    -0.744 OA
ENDBRANCH  75  78
ENDBRANCH  57  71
BRANCH  58  82
ATOM     82  C   UNL     1     -16.836   6.737  -0.300  1.00  0.00     0.023 A 
ATOM     83  C   UNL     1     -17.035   5.498   0.335  1.00  0.00     0.012 A 
ATOM     84  C   UNL     1     -16.749   7.908   0.478  1.00  0.00     0.148 A 
ATOM     85  C   UNL     1     -17.141   5.424   1.724  1.00  0.00     0.002 A 
ATOM     86  C   UNL     1     -16.804   7.822   1.863  1.00  0.00     0.091 A 
ATOM     87  F   UNL     1     -16.568   9.076  -0.155  1.00  0.00    -0.205 F 
ATOM     88  C   UNL     1     -17.010   6.582   2.488  1.00  0.00     0.022 A 
BRANCH  86  89
ATOM     89  S   UNL     1     -16.510   9.236   2.930  1.00  0.00     0.127 S 
ATOM     90  O   UNL     1     -17.822   9.425   3.543  1.00  0.00    -0.237 OA
ATOM     91  O   UNL     1     -15.476   8.722   3.829  1.00  0.00    -0.237 OA
ATOM     92  O   UNL     1     -16.064  10.309   2.051  1.00  0.00    -0.744 OA
ENDBRANCH  86  89
ENDBRANCH  58  82
BRANCH  70  93
ATOM     93  C   UNL     1     -20.881   5.801  -5.925  1.00  0.00     0.023 A 
ATOM     94  C   UNL     1     -21.759   6.900  -5.871  1.00  0.00     0.012 A 
ATOM     95  C   UNL     1     -21.373   4.528  -6.266  1.00  0.00     0.148 A 
ATOM     96  C   UNL     1     -23.114   6.733  -6.149  1.00  0.00     0.002 A 
ATOM     97  C   UNL     1     -22.720   4.375  -6.573  1.00  0.00     0.091 A 
ATOM     98  F   UNL     1     -20.514   3.499  -6.300  1.00  0.00    -0.205 F 
ATOM     99  C   UNL     1     -23.591   5.475  -6.511  1.00  0.00     0.022 A 
BRANCH  97 100
ATOM    100  S   UNL     1     -23.416   2.812  -7.119  1.00  0.00     0.127 S 
ATOM    101  O   UNL     1     -24.284   2.465  -5.994  1.00  0.00    -0.237 OA
ATOM    102  O   UNL     1     -24.123   3.199  -8.340  1.00  0.00    -0.237 OA
ATOM    103  O   UNL     1     -22.286   1.917  -7.328  1.00  0.00    -0.744 OA
ENDBRANCH  97 100
ENDBRANCH  70  93
ENDBRANCH  44  45
ENDBRANCH  36  39
ENDBRANCH  34  35
ENDBRANCH  33  34
ENDBRANCH  32  33
ENDBRANCH   3  32
TORSDOF 19
