REMARK SMILES Cc1ccc(-c2cc(Cl)cc3c2O[C@H](C(F)(F)F)C(C(=O)NCCCNC(=O)c2ccc(-c4c5nc(c(-c6cccc(S(=O)(=O)[O-])c6F)c6ccc([nH]6)c(-c6cccc(S(=O)(=O)[O-])c6F)c6nc(c(-c7cccc(S(=O)(=O)[O-])c7F)c7ccc4[nH]7)C=C6)C=C5)cc2)=C3)cc1F
REMARK SMILES IDX 25 1 24 2 23 3 22 4 20 5 21 6 19 8 6 9 7 10 12 11 8 12 11 13
REMARK SMILES IDX 13 14 9 15 10 16 92 17 14 18 5 19 1 20 2 21 3 22 94 23 4 24
REMARK SMILES IDX 93 25 95 26 15 27 16 28 17 29 18 30 26 31 27 32 28 34 29 35
REMARK SMILES IDX 30 36 91 37 31 38 90 39 32 40 33 41 34 42 84 43 35 44 89 45
REMARK SMILES IDX 83 46 85 47 36 48 88 49 82 50 81 51 37 53 69 54 49 55 68 56
REMARK SMILES IDX 50 57 53 58 67 59 86 60 51 61 52 62 66 64 87 65 54 66 38 67
REMARK SMILES IDX 39 68 47 69 40 70 42 71 48 72 41 73 43 74 44 75 45 76 46 77
REMARK SMILES IDX 70 78 71 79 79 80 72 81 74 82 80 83 73 84 75 85 76 86 77 87
REMARK SMILES IDX 78 88 55 89 56 90 64 91 57 92 59 93 65 94 58 95 60 96 61 97
REMARK SMILES IDX 62 98 63 99
REMARK H PARENT 22 7 26 33 85 52 53 63
REMARK Flexibility Score: inf
ROOT
ATOM      1  C   UNL     1      -2.534  -5.355   8.421  1.00  0.00     0.118 C 
ENDROOT
BRANCH   1   2
ATOM      2  C   UNL     1      -2.544  -4.527   7.138  1.00  0.00     0.042 C 
BRANCH   2   3
ATOM      3  C   UNL     1      -2.122  -5.253   5.857  1.00  0.00     0.118 C 
BRANCH   3   4
ATOM      4  N   UNL     1      -3.265  -5.843   5.180  1.00  0.00    -0.352 N 
ATOM      5  C   UNL     1      -4.005  -5.574   4.082  1.00  0.00     0.251 C 
ATOM      6  O   UNL     1      -4.972  -6.331   3.921  1.00  0.00    -0.270 OA
ATOM      7  H   UNL     1      -3.583  -6.652   5.643  1.00  0.00     0.163 HD
BRANCH   5   8
ATOM      8  C   UNL     1      -3.758  -4.486   3.085  1.00  0.00     0.067 C 
ATOM      9  C   UNL     1      -3.175  -1.691  -0.023  1.00  0.00     0.026 A 
ATOM     10  C   UNL     1      -4.032  -1.744  -1.134  1.00  0.00     0.033 A 
ATOM     11  C   UNL     1      -3.451  -2.542   1.066  1.00  0.00     0.135 A 
ATOM     12  C   UNL     1      -5.120  -2.619  -1.150  1.00  0.00     0.042 A 
ATOM     13  C   UNL     1      -4.531  -3.430   1.044  1.00  0.00     0.019 A 
ATOM     14  O   UNL     1      -2.667  -2.444   2.187  1.00  0.00    -0.475 OA
ATOM     15  Cl  UNL     1      -6.152  -2.671  -2.528  1.00  0.00    -0.084 Cl
ATOM     16  C   UNL     1      -5.372  -3.463  -0.070  1.00  0.00     0.032 A 
ATOM     17  C   UNL     1      -4.742  -4.328   2.175  1.00  0.00     0.025 C 
ATOM     18  C   UNL     1      -2.488  -3.681   2.946  1.00  0.00     0.314 C 
BRANCH   9  19
ATOM     19  C   UNL     1      -2.000  -0.807  -0.042  1.00  0.00    -0.012 A 
ATOM     20  C   UNL     1       1.491   1.751   0.003  1.00  0.00     0.047 C 
ATOM     21  C   UNL     1       0.270   0.885  -0.043  1.00  0.00    -0.015 A 
ATOM     22  C   UNL     1      -1.017   1.429  -0.010  1.00  0.00     0.007 A 
ATOM     23  C   UNL     1       0.407  -0.503  -0.092  1.00  0.00     0.126 A 
ATOM     24  C   UNL     1      -2.140   0.590  -0.017  1.00  0.00     0.009 A 
ATOM     25  C   UNL     1      -0.704  -1.342  -0.089  1.00  0.00     0.048 A 
ATOM     26  F   UNL     1       1.631  -1.046  -0.154  1.00  0.00    -0.207 F 
ENDBRANCH   9  19
BRANCH  18  27
ATOM     27  C   UNL     1      -1.328  -4.482   2.332  1.00  0.00     0.429 C 
ATOM     28  F   UNL     1      -0.230  -3.708   2.228  1.00  0.00    -0.167 F 
ATOM     29  F   UNL     1      -1.030  -5.574   3.062  1.00  0.00    -0.167 F 
ATOM     30  F   UNL     1      -1.633  -4.913   1.080  1.00  0.00    -0.167 F 
ENDBRANCH  18  27
ENDBRANCH   5   8
ENDBRANCH   3   4
ENDBRANCH   2   3
ENDBRANCH   1   2
BRANCH   1  31
ATOM     31  N   UNL     1      -1.393  -6.221   8.639  1.00  0.00    -0.352 N 
ATOM     32  C   UNL     1      -0.336  -6.182   9.509  1.00  0.00     0.251 C 
ATOM     33  H   UNL     1      -1.374  -6.999   8.036  1.00  0.00     0.163 HD
ATOM     34  O   UNL     1       0.109  -7.258   9.916  1.00  0.00    -0.269 OA
BRANCH  32  35
ATOM     35  C   UNL     1       0.403  -4.939   9.844  1.00  0.00     0.039 A 
ATOM     36  C   UNL     1      -0.156  -3.709  10.194  1.00  0.00     0.014 A 
ATOM     37  C   UNL     1       1.800  -5.059   9.783  1.00  0.00     0.014 A 
ATOM     38  C   UNL     1       0.677  -2.589  10.387  1.00  0.00     0.010 A 
ATOM     39  C   UNL     1       2.622  -3.955   9.974  1.00  0.00     0.010 A 
ATOM     40  C   UNL     1       2.067  -2.700  10.233  1.00  0.00    -0.014 A 
BRANCH  40  41
ATOM     41  C   UNL     1       2.983  -1.552  10.277  1.00  0.00     0.031 A 
ATOM     42  C   UNL     1       3.091  -0.669  11.469  1.00  0.00     0.074 A 
ATOM     43  C   UNL     1       3.689  -1.183   9.179  1.00  0.00     0.049 A 
ATOM     44  N   UNL     1       3.222   0.620  11.408  1.00  0.00    -0.248 NA
ATOM     45  C   UNL     1       3.051  -1.171  12.840  1.00  0.00     0.031 C 
ATOM     46  C   UNL     1       4.716  -0.146   9.104  1.00  0.00     0.029 A 
ATOM     47  N   UNL     1       3.531  -1.540   7.848  1.00  0.00    -0.354 N 
ATOM     48  C   UNL     1       3.642   1.048  12.648  1.00  0.00     0.074 A 
ATOM     49  C   UNL     1       3.380  -0.070  13.533  1.00  0.00     0.031 C 
ATOM     50  C   UNL     1       4.832   0.258   7.829  1.00  0.00     0.029 A 
ATOM     51  C   UNL     1       3.793  -0.405   7.066  1.00  0.00     0.049 A 
ATOM     52  H   UNL     1       3.281  -2.431   7.512  1.00  0.00     0.167 HD
ATOM     53  C   UNL     1       4.333   2.220  12.785  1.00  0.00     0.034 A 
ATOM     54  C   UNL     1       2.915   0.205   6.206  1.00  0.00     0.034 A 
ATOM     55  C   UNL     1       4.601   2.865  11.504  1.00  0.00     0.049 A 
ATOM     56  C   UNL     1       2.715   1.686   6.468  1.00  0.00     0.074 A 
ATOM     57  C   UNL     1       5.739   2.951  10.716  1.00  0.00     0.029 A 
ATOM     58  N   UNL     1       3.566   3.353  10.727  1.00  0.00    -0.354 N 
ATOM     59  N   UNL     1       3.248   2.312   7.475  1.00  0.00    -0.248 NA
ATOM     60  C   UNL     1       1.769   2.532   5.735  1.00  0.00     0.031 C 
ATOM     61  C   UNL     1       5.394   3.569   9.490  1.00  0.00     0.029 A 
ATOM     62  C   UNL     1       4.041   3.838   9.522  1.00  0.00     0.049 A 
ATOM     63  H   UNL     1       2.619   3.355  10.996  1.00  0.00     0.167 HD
ATOM     64  C   UNL     1       2.739   3.580   7.556  1.00  0.00     0.074 A 
ATOM     65  C   UNL     1       1.802   3.668   6.456  1.00  0.00     0.031 C 
ATOM     66  C   UNL     1       3.115   4.419   8.563  1.00  0.00     0.034 A 
BRANCH  53  67
ATOM     67  C   UNL     1       5.027   2.649  14.069  1.00  0.00     0.023 A 
ATOM     68  C   UNL     1       4.531   2.298  15.342  1.00  0.00     0.012 A 
ATOM     69  C   UNL     1       6.212   3.426  14.062  1.00  0.00     0.148 A 
ATOM     70  C   UNL     1       5.249   2.554  16.521  1.00  0.00     0.002 A 
ATOM     71  C   UNL     1       6.914   3.701  15.237  1.00  0.00     0.091 A 
ATOM     72  F   UNL     1       6.689   3.932  12.920  1.00  0.00    -0.205 F 
ATOM     73  C   UNL     1       6.456   3.239  16.468  1.00  0.00     0.022 A 
BRANCH  71  74
ATOM     74  S   UNL     1       8.439   4.649  15.141  1.00  0.00     0.127 S 
ATOM     75  O   UNL     1       9.273   3.843  14.255  1.00  0.00    -0.237 OA
ATOM     76  O   UNL     1       7.991   5.941  14.633  1.00  0.00    -0.237 OA
ATOM     77  O   UNL     1       8.901   4.679  16.531  1.00  0.00    -0.744 OA
ENDBRANCH  71  74
ENDBRANCH  53  67
BRANCH  54  78
ATOM     78  C   UNL     1       1.796  -0.678   5.782  1.00  0.00     0.023 A 
ATOM     79  C   UNL     1       0.650  -0.657   6.600  1.00  0.00     0.012 A 
ATOM     80  C   UNL     1       2.125  -1.833   5.044  1.00  0.00     0.148 A 
ATOM     81  C   UNL     1       0.007  -1.849   6.888  1.00  0.00     0.002 A 
ATOM     82  C   UNL     1       1.495  -3.022   5.366  1.00  0.00     0.091 A 
ATOM     83  F   UNL     1       3.193  -1.806   4.234  1.00  0.00    -0.205 F 
ATOM     84  C   UNL     1       0.484  -3.034   6.331  1.00  0.00     0.022 A 
BRANCH  82  85
ATOM     85  S   UNL     1       2.174  -4.580   4.803  1.00  0.00     0.127 S 
ATOM     86  O   UNL     1       2.227  -4.444   3.362  1.00  0.00    -0.237 OA
ATOM     87  O   UNL     1       3.455  -4.631   5.520  1.00  0.00    -0.237 OA
ATOM     88  O   UNL     1       1.180  -5.554   5.288  1.00  0.00    -0.744 OA
ENDBRANCH  82  85
ENDBRANCH  54  78
BRANCH  66  89
ATOM     89  C   UNL     1       2.648   5.837   8.764  1.00  0.00     0.023 A 
ATOM     90  C   UNL     1       2.638   6.365  10.079  1.00  0.00     0.012 A 
ATOM     91  C   UNL     1       2.309   6.720   7.727  1.00  0.00     0.148 A 
ATOM     92  C   UNL     1       2.261   7.680  10.359  1.00  0.00     0.002 A 
ATOM     93  C   UNL     1       1.880   8.019   8.013  1.00  0.00     0.091 A 
ATOM     94  F   UNL     1       2.449   6.338   6.450  1.00  0.00    -0.205 F 
ATOM     95  C   UNL     1       1.858   8.506   9.324  1.00  0.00     0.022 A 
BRANCH  93  96
ATOM     96  S   UNL     1       1.277   9.046   6.673  1.00  0.00     0.127 S 
ATOM     97  O   UNL     1       2.454   9.229   5.832  1.00  0.00    -0.237 OA
ATOM     98  O   UNL     1       0.196   8.238   6.112  1.00  0.00    -0.237 OA
ATOM     99  O   UNL     1       0.822  10.261   7.352  1.00  0.00    -0.744 OA
ENDBRANCH  93  96
ENDBRANCH  66  89
ENDBRANCH  40  41
ENDBRANCH  32  35
ENDBRANCH   1  31
TORSDOF 15
