REMARK SMILES CCc1sc(C(=O)Nc2ccc(C(=O)NCCCNC(=O)c3ccc(-c4c5nc(c(-c6cccc(S(=O)(=O)[O-])c6F)c6ccc([nH]6)c(-c6cccc(S(=O)(=O)[O-])c6F)c6nc(c(-c7cccc(S(=O)(=O)[O-])c7F)c7ccc4[nH]7)C=C6)C=C5)cc3)c(O)c2)cc1C
REMARK SMILES IDX 17 1 16 2 15 3 13 4 14 5 12 7 9 8 10 9 87 10 11 11 85 12
REMARK SMILES IDX 8 13 6 14 7 15 5 17 3 18 4 19 89 20 88 21 90 22 2 23 1 24
REMARK SMILES IDX 86 25 18 27 19 28 20 29 21 31 22 32 23 33 84 34 24 35 83 36
REMARK SMILES IDX 25 37 26 38 27 39 77 40 28 41 82 42 76 43 78 44 29 45 81 46
REMARK SMILES IDX 75 47 74 48 30 50 62 51 42 52 61 53 43 54 46 55 60 56 79 57
REMARK SMILES IDX 44 58 45 59 59 61 80 62 47 63 31 64 32 65 40 66 33 67 35 68
REMARK SMILES IDX 41 69 34 70 36 71 37 72 38 73 39 74 63 75 64 76 72 77 65 78
REMARK SMILES IDX 67 79 73 80 66 81 68 82 69 83 70 84 71 85 48 86 49 87 57 88
REMARK SMILES IDX 50 89 52 90 58 91 51 92 53 93 54 94 55 95 56 96
REMARK H PARENT 15 6 8 16 86 26 19 30 78 49 46 60
REMARK Flexibility Score: inf
ROOT
ATOM      1  C   UNL     1       1.403   3.888  -8.522  1.00  0.00     0.042 C 
ENDROOT
BRANCH   1   2
ATOM      2  C   UNL     1       2.588   2.969  -8.266  1.00  0.00     0.118 C 
BRANCH   2   3
ATOM      3  N   UNL     1       3.441   3.349  -7.146  1.00  0.00    -0.352 N 
ATOM      4  C   UNL     1       4.146   2.590  -6.241  1.00  0.00     0.255 C 
ATOM      5  O   UNL     1       4.823   3.172  -5.393  1.00  0.00    -0.269 OA
ATOM      6  H   UNL     1       3.528   4.321  -7.015  1.00  0.00     0.163 HD
BRANCH   4   7
ATOM      7  C   UNL     1       4.061   1.108  -6.202  1.00  0.00     0.081 A 
ATOM      8  C   UNL     1       3.392  -1.599  -5.885  1.00  0.00     0.045 A 
ATOM      9  C   UNL     1       3.761  -0.841  -4.778  1.00  0.00     0.027 A 
ATOM     10  C   UNL     1       3.602  -1.068  -7.160  1.00  0.00     0.073 A 
ATOM     11  C   UNL     1       4.045   0.519  -4.930  1.00  0.00     0.020 A 
ATOM     12  C   UNL     1       3.979   0.267  -7.312  1.00  0.00     0.130 A 
BRANCH   8  13
ATOM     13  N   UNL     1       2.841  -2.885  -5.797  1.00  0.00    -0.321 N 
ATOM     14  C   UNL     1       2.123  -3.542  -4.813  1.00  0.00     0.265 C 
ATOM     15  O   UNL     1       2.062  -4.771  -4.949  1.00  0.00    -0.268 OA
ATOM     16  H   UNL     1       2.996  -3.433  -6.600  1.00  0.00     0.170 HD
BRANCH  14  17
ATOM     17  C   UNL     1       1.423  -2.879  -3.713  1.00  0.00     0.093 A 
ATOM     18  C   UNL     1       0.419  -1.312  -2.071  1.00  0.00     0.008 A 
ATOM     19  S   UNL     1       0.890  -1.254  -3.716  1.00  0.00    -0.135 S 
ATOM     20  C   UNL     1       0.279  -2.626  -1.656  1.00  0.00    -0.036 A 
ATOM     21  C   UNL     1       0.906  -3.515  -2.593  1.00  0.00     0.029 A 
ATOM     22  C   UNL     1      -0.383  -3.091  -0.403  1.00  0.00     0.045 C 
BRANCH  18  23
ATOM     23  C   UNL     1       0.125  -0.030  -1.342  1.00  0.00     0.043 C 
ATOM     24  C   UNL     1       0.976   0.119  -0.084  1.00  0.00     0.010 C 
ENDBRANCH  18  23
ENDBRANCH  14  17
ENDBRANCH   8  13
BRANCH  12  25
ATOM     25  O   UNL     1       4.272   0.660  -8.588  1.00  0.00    -0.507 OA
ATOM     26  H   UNL     1       4.533   1.543  -8.758  1.00  0.00     0.293 HD
ENDBRANCH  12  25
ENDBRANCH   4   7
ENDBRANCH   2   3
ENDBRANCH   1   2
BRANCH   1  27
ATOM     27  C   UNL     1       1.732   5.361  -8.715  1.00  0.00     0.118 C 
BRANCH  27  28
ATOM     28  N   UNL     1       2.604   5.641  -9.850  1.00  0.00    -0.352 N 
ATOM     29  C   UNL     1       2.357   6.238 -11.065  1.00  0.00     0.251 C 
ATOM     30  H   UNL     1       3.537   5.350  -9.725  1.00  0.00     0.163 HD
ATOM     31  O   UNL     1       3.254   6.272 -11.907  1.00  0.00    -0.269 OA
BRANCH  29  32
ATOM     32  C   UNL     1       1.026   6.802 -11.389  1.00  0.00     0.039 A 
ATOM     33  C   UNL     1       0.504   6.617 -12.674  1.00  0.00     0.014 A 
ATOM     34  C   UNL     1       0.285   7.511 -10.446  1.00  0.00     0.014 A 
ATOM     35  C   UNL     1      -0.792   7.053 -12.972  1.00  0.00     0.010 A 
ATOM     36  C   UNL     1      -1.044   7.830 -10.702  1.00  0.00     0.010 A 
ATOM     37  C   UNL     1      -1.601   7.614 -11.970  1.00  0.00    -0.014 A 
BRANCH  37  38
ATOM     38  C   UNL     1      -3.023   7.979 -12.217  1.00  0.00     0.031 A 
ATOM     39  C   UNL     1      -3.501   9.388 -11.974  1.00  0.00     0.074 A 
ATOM     40  C   UNL     1      -3.913   7.020 -12.549  1.00  0.00     0.049 A 
ATOM     41  N   UNL     1      -4.715   9.871 -12.038  1.00  0.00    -0.248 NA
ATOM     42  C   UNL     1      -2.489  10.376 -11.565  1.00  0.00     0.031 C 
ATOM     43  C   UNL     1      -3.603   5.598 -12.715  1.00  0.00     0.029 A 
ATOM     44  N   UNL     1      -5.266   7.090 -12.771  1.00  0.00    -0.354 N 
ATOM     45  C   UNL     1      -4.620  11.196 -11.629  1.00  0.00     0.074 A 
ATOM     46  C   UNL     1      -3.237  11.430 -11.278  1.00  0.00     0.031 C 
ATOM     47  C   UNL     1      -4.730   4.933 -13.016  1.00  0.00     0.029 A 
ATOM     48  C   UNL     1      -5.848   5.870 -13.028  1.00  0.00     0.049 A 
ATOM     49  H   UNL     1      -5.773   7.934 -12.747  1.00  0.00     0.167 HD
ATOM     50  C   UNL     1      -5.585  12.145 -11.581  1.00  0.00     0.034 A 
ATOM     51  C   UNL     1      -7.138   5.536 -13.237  1.00  0.00     0.034 A 
ATOM     52  C   UNL     1      -6.947  11.926 -11.985  1.00  0.00     0.049 A 
ATOM     53  C   UNL     1      -8.182   6.619 -13.244  1.00  0.00     0.074 A 
ATOM     54  C   UNL     1      -7.974  12.848 -12.083  1.00  0.00     0.029 A 
ATOM     55  N   UNL     1      -7.476  10.698 -12.349  1.00  0.00    -0.354 N 
ATOM     56  N   UNL     1      -8.039   7.903 -13.024  1.00  0.00    -0.248 NA
ATOM     57  C   UNL     1      -9.558   6.215 -13.564  1.00  0.00     0.031 C 
ATOM     58  C   UNL     1      -9.133  12.170 -12.477  1.00  0.00     0.029 A 
ATOM     59  C   UNL     1      -8.819  10.833 -12.658  1.00  0.00     0.049 A 
ATOM     60  H   UNL     1      -6.972   9.853 -12.382  1.00  0.00     0.167 HD
ATOM     61  C   UNL     1      -9.296   8.465 -13.211  1.00  0.00     0.074 A 
ATOM     62  C   UNL     1     -10.185   7.384 -13.584  1.00  0.00     0.031 C 
ATOM     63  C   UNL     1      -9.683   9.758 -13.073  1.00  0.00     0.034 A 
BRANCH  50  64
ATOM     64  C   UNL     1      -5.187  13.525 -11.120  1.00  0.00     0.023 A 
ATOM     65  C   UNL     1      -4.349  14.319 -11.930  1.00  0.00     0.012 A 
ATOM     66  C   UNL     1      -5.673  14.052  -9.908  1.00  0.00     0.148 A 
ATOM     67  C   UNL     1      -3.962  15.595 -11.521  1.00  0.00     0.002 A 
ATOM     68  C   UNL     1      -5.325  15.344  -9.530  1.00  0.00     0.091 A 
ATOM     69  F   UNL     1      -6.452  13.278  -9.139  1.00  0.00    -0.205 F 
ATOM     70  C   UNL     1      -4.458  16.110 -10.327  1.00  0.00     0.022 A 
BRANCH  68  71
ATOM     71  S   UNL     1      -5.979  16.131  -8.054  1.00  0.00     0.127 S 
ATOM     72  O   UNL     1      -4.802  16.152  -7.186  1.00  0.00    -0.237 OA
ATOM     73  O   UNL     1      -6.386  17.443  -8.559  1.00  0.00    -0.237 OA
ATOM     74  O   UNL     1      -7.076  15.288  -7.602  1.00  0.00    -0.744 OA
ENDBRANCH  68  71
ENDBRANCH  50  64
BRANCH  51  75
ATOM     75  C   UNL     1      -7.500   4.117 -13.513  1.00  0.00     0.023 A 
ATOM     76  C   UNL     1      -7.911   3.743 -14.807  1.00  0.00     0.012 A 
ATOM     77  C   UNL     1      -7.401   3.131 -12.512  1.00  0.00     0.148 A 
ATOM     78  C   UNL     1      -8.246   2.418 -15.092  1.00  0.00     0.002 A 
ATOM     79  C   UNL     1      -7.680   1.804 -12.817  1.00  0.00     0.091 A 
ATOM     80  F   UNL     1      -7.016   3.509 -11.285  1.00  0.00    -0.205 F 
ATOM     81  C   UNL     1      -8.120   1.448 -14.101  1.00  0.00     0.022 A 
BRANCH  79  82
ATOM     82  S   UNL     1      -7.414   0.469 -11.645  1.00  0.00     0.127 S 
ATOM     83  O   UNL     1      -8.782   0.043 -11.361  1.00  0.00    -0.237 OA
ATOM     84  O   UNL     1      -6.627  -0.475 -12.440  1.00  0.00    -0.237 OA
ATOM     85  O   UNL     1      -6.692   1.062 -10.529  1.00  0.00    -0.744 OA
ENDBRANCH  79  82
ENDBRANCH  51  75
BRANCH  63  86
ATOM     86  C   UNL     1     -11.123  10.093 -13.361  1.00  0.00     0.023 A 
ATOM     87  C   UNL     1     -12.132   9.692 -12.463  1.00  0.00     0.012 A 
ATOM     88  C   UNL     1     -11.465  10.874 -14.483  1.00  0.00     0.148 A 
ATOM     89  C   UNL     1     -13.464  10.035 -12.696  1.00  0.00     0.002 A 
ATOM     90  C   UNL     1     -12.787  11.256 -14.680  1.00  0.00     0.091 A 
ATOM     91  F   UNL     1     -10.493  11.230 -15.335  1.00  0.00    -0.205 F 
ATOM     92  C   UNL     1     -13.789  10.826 -13.795  1.00  0.00     0.022 A 
BRANCH  90  93
ATOM     93  S   UNL     1     -13.283  12.355 -16.010  1.00  0.00     0.127 S 
ATOM     94  O   UNL     1     -14.004  11.444 -16.897  1.00  0.00    -0.237 OA
ATOM     95  O   UNL     1     -14.129  13.324 -15.312  1.00  0.00    -0.237 OA
ATOM     96  O   UNL     1     -12.051  12.911 -16.554  1.00  0.00    -0.744 OA
ENDBRANCH  90  93
ENDBRANCH  63  86
ENDBRANCH  37  38
ENDBRANCH  29  32
ENDBRANCH  27  28
ENDBRANCH   1  27
TORSDOF 17
