REMARK SMILES C[NH+](C)[C@H](CC(=O)Nc1cccc(Cl)c1)C(=O)NCCCNC(=O)c1ccc(-c2c3nc(c(-c4cccc(S(=O)(=O)[O-])c4F)c4ccc([nH]4)c(-c4cccc(S(=O)(=O)[O-])c4F)c4nc(c(-c5cccc(S(=O)(=O)[O-])c5F)c5ccc2[nH]5)C=C4)C=C3)cc1
REMARK SMILES IDX 20 1 19 2 18 3 16 4 17 5 4 7 2 8 1 9 3 10 5 12 6 13 7 14
REMARK SMILES IDX 8 15 9 17 10 18 15 19 11 20 13 21 12 22 14 23 21 24 22 25
REMARK SMILES IDX 23 26 24 28 25 29 26 30 87 31 27 32 86 33 28 34 29 35 30 36
REMARK SMILES IDX 80 37 31 38 85 39 79 40 81 41 32 42 84 43 78 44 77 45 33 47
REMARK SMILES IDX 65 48 45 49 64 50 46 51 49 52 63 53 82 54 47 55 48 56 62 58
REMARK SMILES IDX 83 59 50 60 34 61 35 62 43 63 36 64 38 65 44 66 37 67 39 68
REMARK SMILES IDX 40 69 41 70 42 71 66 72 67 73 75 74 68 75 70 76 76 77 69 78
REMARK SMILES IDX 71 79 72 80 73 81 74 82 51 83 52 84 60 85 53 86 55 87 61 88
REMARK SMILES IDX 54 89 56 90 57 91 58 92 59 93
REMARK H PARENT 18 6 2 11 8 16 22 27 81 46 49 57
REMARK Flexibility Score: inf
ROOT
ATOM      1  C   UNL     1       3.781   1.408  -0.172  1.00  0.00     0.042 C 
ENDROOT
BRANCH   1   2
ATOM      2  C   UNL     1       3.055   0.097   0.041  1.00  0.00     0.118 C 
BRANCH   2   3
ATOM      3  N   UNL     1       3.048  -0.524   1.352  1.00  0.00    -0.351 N 
ATOM      4  C   UNL     1       2.296  -1.638   1.695  1.00  0.00     0.278 C 
ATOM      5  O   UNL     1       2.914  -2.550   2.256  1.00  0.00    -0.268 OA
ATOM      6  H   UNL     1       3.619  -0.127   2.049  1.00  0.00     0.163 HD
BRANCH   4   7
ATOM      7  C   UNL     1       0.725  -1.670   1.566  1.00  0.00     0.283 C 
BRANCH   7   8
ATOM      8  N   UNL     1       0.094  -3.041   1.562  1.00  0.00    -0.329 N 
ATOM      9  C   UNL     1       0.223  -3.853   0.361  1.00  0.00     0.333 C 
ATOM     10  C   UNL     1      -1.323  -2.991   1.941  1.00  0.00     0.333 C 
ATOM     11  H   UNL     1       0.663  -3.517   2.262  1.00  0.00     0.348 HD
ENDBRANCH   7   8
BRANCH   7  12
ATOM     12  C   UNL     1       0.022  -0.527   0.843  1.00  0.00     0.175 C 
BRANCH  12  13
ATOM     13  C   UNL     1      -0.591  -0.627  -0.544  1.00  0.00     0.230 C 
ATOM     14  O   UNL     1      -1.807  -0.383  -0.639  1.00  0.00    -0.274 OA
ATOM     15  N   UNL     1       0.040  -0.749  -1.739  1.00  0.00    -0.326 N 
ATOM     16  H   UNL     1      -0.511  -0.359  -2.455  1.00  0.00     0.169 HD
BRANCH  15  17
ATOM     17  C   UNL     1       1.236  -1.259  -2.272  1.00  0.00     0.042 A 
ATOM     18  C   UNL     1       2.073  -2.178  -1.653  1.00  0.00     0.026 A 
ATOM     19  C   UNL     1       1.587  -0.837  -3.558  1.00  0.00     0.046 A 
ATOM     20  C   UNL     1       3.239  -2.660  -2.260  1.00  0.00     0.004 A 
ATOM     21  C   UNL     1       2.763  -1.293  -4.166  1.00  0.00     0.043 A 
ATOM     22  C   UNL     1       3.591  -2.206  -3.521  1.00  0.00     0.020 A 
ATOM     23  Cl  UNL     1       3.193  -0.706  -5.724  1.00  0.00    -0.084 Cl
ENDBRANCH  15  17
ENDBRANCH  12  13
ENDBRANCH   7  12
ENDBRANCH   4   7
ENDBRANCH   2   3
ENDBRANCH   1   2
BRANCH   1  24
ATOM     24  C   UNL     1       5.249   1.254  -0.566  1.00  0.00     0.118 C 
BRANCH  24  25
ATOM     25  N   UNL     1       5.521   0.347  -1.693  1.00  0.00    -0.352 N 
ATOM     26  C   UNL     1       5.993   0.552  -2.976  1.00  0.00     0.251 C 
ATOM     27  H   UNL     1       5.327  -0.597  -1.492  1.00  0.00     0.163 HD
ATOM     28  O   UNL     1       6.168  -0.400  -3.721  1.00  0.00    -0.269 OA
BRANCH  26  29
ATOM     29  C   UNL     1       6.271   1.917  -3.459  1.00  0.00     0.039 A 
ATOM     30  C   UNL     1       5.869   2.310  -4.742  1.00  0.00     0.014 A 
ATOM     31  C   UNL     1       6.929   2.814  -2.629  1.00  0.00     0.014 A 
ATOM     32  C   UNL     1       6.031   3.642  -5.139  1.00  0.00     0.010 A 
ATOM     33  C   UNL     1       6.954   4.154  -2.961  1.00  0.00     0.010 A 
ATOM     34  C   UNL     1       6.531   4.582  -4.229  1.00  0.00    -0.014 A 
BRANCH  34  35
ATOM     35  C   UNL     1       6.710   6.019  -4.544  1.00  0.00     0.031 A 
ATOM     36  C   UNL     1       8.085   6.615  -4.383  1.00  0.00     0.074 A 
ATOM     37  C   UNL     1       5.638   6.801  -4.776  1.00  0.00     0.049 A 
ATOM     38  N   UNL     1       8.443   7.868  -4.309  1.00  0.00    -0.248 NA
ATOM     39  C   UNL     1       9.197   5.663  -4.200  1.00  0.00     0.031 C 
ATOM     40  C   UNL     1       4.251   6.341  -4.873  1.00  0.00     0.029 A 
ATOM     41  N   UNL     1       5.545   8.162  -4.920  1.00  0.00    -0.354 N 
ATOM     42  C   UNL     1       9.796   7.851  -3.990  1.00  0.00     0.074 A 
ATOM     43  C   UNL     1      10.182   6.468  -3.835  1.00  0.00     0.031 C 
ATOM     44  C   UNL     1       3.446   7.400  -5.055  1.00  0.00     0.029 A 
ATOM     45  C   UNL     1       4.251   8.616  -5.046  1.00  0.00     0.049 A 
ATOM     46  H   UNL     1       6.329   8.758  -4.933  1.00  0.00     0.167 HD
ATOM     47  C   UNL     1      10.650   8.894  -3.872  1.00  0.00     0.034 A 
ATOM     48  C   UNL     1       3.776   9.874  -5.125  1.00  0.00     0.034 A 
ATOM     49  C   UNL     1      10.263  10.254  -4.118  1.00  0.00     0.049 A 
ATOM     50  C   UNL     1       4.759  11.015  -5.086  1.00  0.00     0.074 A 
ATOM     51  C   UNL     1      11.056  11.385  -4.148  1.00  0.00     0.029 A 
ATOM     52  N   UNL     1       8.965  10.662  -4.389  1.00  0.00    -0.354 N 
ATOM     53  N   UNL     1       6.060  10.977  -4.919  1.00  0.00    -0.248 NA
ATOM     54  C   UNL     1       4.218  12.366  -5.281  1.00  0.00     0.031 C 
ATOM     55  C   UNL     1      10.232  12.482  -4.420  1.00  0.00     0.029 A 
ATOM     56  C   UNL     1       8.932  12.029  -4.589  1.00  0.00     0.049 A 
ATOM     57  H   UNL     1       8.183  10.066  -4.433  1.00  0.00     0.167 HD
ATOM     58  C   UNL     1       6.498  12.291  -5.028  1.00  0.00     0.074 A 
ATOM     59  C   UNL     1       5.324  13.098  -5.295  1.00  0.00     0.031 C 
ATOM     60  C   UNL     1       7.752  12.793  -4.906  1.00  0.00     0.034 A 
BRANCH  47  61
ATOM     61  C   UNL     1      12.085   8.591  -3.522  1.00  0.00     0.023 A 
ATOM     62  C   UNL     1      12.901   7.897  -4.441  1.00  0.00     0.012 A 
ATOM     63  C   UNL     1      12.637   9.011  -2.296  1.00  0.00     0.148 A 
ATOM     64  C   UNL     1      14.221   7.578  -4.125  1.00  0.00     0.002 A 
ATOM     65  C   UNL     1      13.970   8.738  -2.011  1.00  0.00     0.091 A 
ATOM     66  F   UNL     1      11.846   9.652  -1.424  1.00  0.00    -0.205 F 
ATOM     67  C   UNL     1      14.758   8.007  -2.916  1.00  0.00     0.022 A 
BRANCH  65  68
ATOM     68  S   UNL     1      14.785   9.317  -0.519  1.00  0.00     0.127 S 
ATOM     69  O   UNL     1      15.025   8.062   0.193  1.00  0.00    -0.237 OA
ATOM     70  O   UNL     1      15.988   9.953  -1.056  1.00  0.00    -0.237 OA
ATOM     71  O   UNL     1      13.849  10.228   0.124  1.00  0.00    -0.744 OA
ENDBRANCH  65  68
ENDBRANCH  47  61
BRANCH  48  72
ATOM     72  C   UNL     1       2.318  10.116  -5.326  1.00  0.00     0.023 A 
ATOM     73  C   UNL     1       1.867  10.599  -6.571  1.00  0.00     0.012 A 
ATOM     74  C   UNL     1       1.373   9.843  -4.317  1.00  0.00     0.148 A 
ATOM     75  C   UNL     1       0.511  10.839  -6.797  1.00  0.00     0.002 A 
ATOM     76  C   UNL     1       0.018  10.032  -4.567  1.00  0.00     0.091 A 
ATOM     77  F   UNL     1       1.819   9.389  -3.137  1.00  0.00    -0.205 F 
ATOM     78  C   UNL     1      -0.414  10.547  -5.799  1.00  0.00     0.022 A 
BRANCH  76  79
ATOM     79  S   UNL     1      -1.257   9.561  -3.391  1.00  0.00     0.127 S 
ATOM     80  O   UNL     1      -1.768  10.862  -2.967  1.00  0.00    -0.237 OA
ATOM     81  O   UNL     1      -2.170   8.784  -4.231  1.00  0.00    -0.237 OA
ATOM     82  O   UNL     1      -0.577   8.783  -2.365  1.00  0.00    -0.744 OA
ENDBRANCH  76  79
ENDBRANCH  48  72
BRANCH  60  83
ATOM     83  C   UNL     1       7.930  14.273  -5.106  1.00  0.00     0.023 A 
ATOM     84  C   UNL     1       7.486  15.175  -4.120  1.00  0.00     0.012 A 
ATOM     85  C   UNL     1       8.620  14.759  -6.234  1.00  0.00     0.148 A 
ATOM     86  C   UNL     1       7.697  16.544  -4.270  1.00  0.00     0.002 A 
ATOM     87  C   UNL     1       8.874  16.119  -6.350  1.00  0.00     0.091 A 
ATOM     88  F   UNL     1       9.018  13.883  -7.168  1.00  0.00    -0.205 F 
ATOM     89  C   UNL     1       8.402  17.014  -5.376  1.00  0.00     0.022 A 
BRANCH  87  90
ATOM     90  S   UNL     1       9.866  16.800  -7.683  1.00  0.00     0.127 S 
ATOM     91  O   UNL     1       8.855  17.495  -8.479  1.00  0.00    -0.237 OA
ATOM     92  O   UNL     1      10.788  17.680  -6.964  1.00  0.00    -0.237 OA
ATOM     93  O   UNL     1      10.500  15.663  -8.335  1.00  0.00    -0.744 OA
ENDBRANCH  87  90
ENDBRANCH  60  83
ENDBRANCH  34  35
ENDBRANCH  26  29
ENDBRANCH  24  25
ENDBRANCH   1  24
TORSDOF 17
