REMARK SMILES Cc1cc2c(c(C)c1Br)C=C(C(=O)NCCCNC(=O)c1ccc(-c3c4nc(c(-c5cccc(S(=O)(=O)[O-])c5F)c5ccc([nH]5)c(-c5cccc(S(=O)(=O)[O-])c5F)c5nc(c(-c6cccc(S(=O)(=O)[O-])c6F)c6ccc3[nH]6)C=C5)C=C4)cc1)[C@@H](C(F)(F)F)O2
REMARK SMILES IDX 17 1 16 2 15 3 14 4 12 5 13 6 11 8 1 9 2 10 3 11 8 12 4 13
REMARK SMILES IDX 6 14 9 15 5 16 89 17 7 18 10 19 84 20 85 21 86 22 87 23
REMARK SMILES IDX 88 24 18 25 19 26 20 28 21 29 22 30 83 31 23 32 82 33 24 34
REMARK SMILES IDX 25 35 26 36 76 37 27 38 81 39 75 40 77 41 28 42 80 43 74 44
REMARK SMILES IDX 73 45 29 47 61 48 41 49 60 50 42 51 45 52 59 53 78 54 43 55
REMARK SMILES IDX 44 56 58 58 79 59 46 60 30 61 31 62 39 63 32 64 34 65 40 66
REMARK SMILES IDX 33 67 35 68 36 69 37 70 38 71 62 72 63 73 71 74 64 75 66 76
REMARK SMILES IDX 72 77 65 78 67 79 68 80 69 81 70 82 47 83 48 84 56 85 49 86
REMARK SMILES IDX 51 87 57 88 50 89 52 90 53 91 54 92 55 93
REMARK H PARENT 14 7 18 27 77 46 45 57
REMARK Flexibility Score: inf
ROOT
ATOM      1  C   UNL     1      -5.115   7.638   5.278  1.00  0.00     0.118 C 
ENDROOT
BRANCH   1   2
ATOM      2  C   UNL     1      -4.640   6.299   4.730  1.00  0.00     0.042 C 
BRANCH   2   3
ATOM      3  C   UNL     1      -4.581   6.289   3.211  1.00  0.00     0.118 C 
BRANCH   3   4
ATOM      4  N   UNL     1      -3.416   6.999   2.703  1.00  0.00    -0.352 N 
ATOM      5  C   UNL     1      -2.253   6.686   2.087  1.00  0.00     0.251 C 
ATOM      6  O   UNL     1      -1.535   7.649   1.797  1.00  0.00    -0.270 OA
ATOM      7  H   UNL     1      -3.496   7.970   2.847  1.00  0.00     0.163 HD
BRANCH   5   8
ATOM      8  C   UNL     1      -1.811   5.304   1.740  1.00  0.00     0.067 C 
ATOM      9  C   UNL     1       1.197  -0.182  -0.028  1.00  0.00     0.046 C 
ATOM     10  C   UNL     1       0.811   1.246   0.252  1.00  0.00    -0.033 A 
ATOM     11  C   UNL     1      -0.366   1.465   0.971  1.00  0.00     0.051 A 
ATOM     12  C   UNL     1       1.548   2.360  -0.204  1.00  0.00     0.024 A 
ATOM     13  C   UNL     1      -0.799   2.756   1.244  1.00  0.00     0.128 A 
ATOM     14  C   UNL     1       1.131   3.685   0.092  1.00  0.00    -0.026 A 
ATOM     15  Br  UNL     1       3.121   2.039  -1.247  1.00  0.00    -0.050 Br
ATOM     16  C   UNL     1      -0.064   3.871   0.833  1.00  0.00     0.021 A 
ATOM     17  O   UNL     1      -1.953   2.836   1.967  1.00  0.00    -0.475 OA
ATOM     18  C   UNL     1       1.913   4.901  -0.347  1.00  0.00     0.046 C 
ATOM     19  C   UNL     1      -0.571   5.190   1.230  1.00  0.00     0.026 C 
ATOM     20  C   UNL     1      -2.673   4.090   1.901  1.00  0.00     0.314 C 
BRANCH  20  21
ATOM     21  C   UNL     1      -3.767   3.995   0.819  1.00  0.00     0.429 C 
ATOM     22  F   UNL     1      -4.743   3.135   1.200  1.00  0.00    -0.167 F 
ATOM     23  F   UNL     1      -4.375   5.183   0.583  1.00  0.00    -0.167 F 
ATOM     24  F   UNL     1      -3.289   3.564  -0.371  1.00  0.00    -0.167 F 
ENDBRANCH  20  21
ENDBRANCH   5   8
ENDBRANCH   3   4
ENDBRANCH   2   3
ENDBRANCH   1   2
BRANCH   1  25
ATOM     25  N   UNL     1      -6.480   7.944   4.852  1.00  0.00    -0.352 N 
ATOM     26  C   UNL     1      -7.656   7.900   5.557  1.00  0.00     0.251 C 
ATOM     27  H   UNL     1      -6.569   8.224   3.912  1.00  0.00     0.163 HD
ATOM     28  O   UNL     1      -8.728   7.912   4.954  1.00  0.00    -0.269 OA
BRANCH  26  29
ATOM     29  C   UNL     1      -7.630   7.843   7.030  1.00  0.00     0.039 A 
ATOM     30  C   UNL     1      -8.545   7.033   7.706  1.00  0.00     0.014 A 
ATOM     31  C   UNL     1      -6.709   8.613   7.744  1.00  0.00     0.014 A 
ATOM     32  C   UNL     1      -8.492   6.952   9.098  1.00  0.00     0.010 A 
ATOM     33  C   UNL     1      -6.588   8.450   9.115  1.00  0.00     0.010 A 
ATOM     34  C   UNL     1      -7.492   7.636   9.810  1.00  0.00    -0.014 A 
BRANCH  34  35
ATOM     35  C   UNL     1      -7.385   7.542  11.285  1.00  0.00     0.031 A 
ATOM     36  C   UNL     1      -7.543   8.781  12.125  1.00  0.00     0.074 A 
ATOM     37  C   UNL     1      -7.067   6.364  11.856  1.00  0.00     0.049 A 
ATOM     38  N   UNL     1      -7.423   8.918  13.419  1.00  0.00    -0.248 NA
ATOM     39  C   UNL     1      -7.844  10.039  11.417  1.00  0.00     0.031 C 
ATOM     40  C   UNL     1      -6.818   5.115  11.133  1.00  0.00     0.029 A 
ATOM     41  N   UNL     1      -6.881   6.029  13.172  1.00  0.00    -0.354 N 
ATOM     42  C   UNL     1      -7.604  10.271  13.674  1.00  0.00     0.074 A 
ATOM     43  C   UNL     1      -7.788  10.925  12.399  1.00  0.00     0.031 C 
ATOM     44  C   UNL     1      -6.534   4.145  12.017  1.00  0.00     0.029 A 
ATOM     45  C   UNL     1      -6.546   4.708  13.363  1.00  0.00     0.049 A 
ATOM     46  H   UNL     1      -6.978   6.672  13.911  1.00  0.00     0.167 HD
ATOM     47  C   UNL     1      -7.656  10.907  14.867  1.00  0.00     0.034 A 
ATOM     48  C   UNL     1      -6.280   4.029  14.496  1.00  0.00     0.034 A 
ATOM     49  C   UNL     1      -7.524  10.239  16.132  1.00  0.00     0.049 A 
ATOM     50  C   UNL     1      -6.369   4.754  15.813  1.00  0.00     0.074 A 
ATOM     51  C   UNL     1      -7.638  10.776  17.401  1.00  0.00     0.029 A 
ATOM     52  N   UNL     1      -7.250   8.889  16.289  1.00  0.00    -0.354 N 
ATOM     53  N   UNL     1      -6.684   6.006  16.044  1.00  0.00    -0.248 NA
ATOM     54  C   UNL     1      -6.099   3.970  17.026  1.00  0.00     0.031 C 
ATOM     55  C   UNL     1      -7.408   9.755  18.326  1.00  0.00     0.029 A 
ATOM     56  C   UNL     1      -7.180   8.575  17.634  1.00  0.00     0.049 A 
ATOM     57  H   UNL     1      -7.124   8.248  15.552  1.00  0.00     0.167 HD
ATOM     58  C   UNL     1      -6.678   6.153  17.426  1.00  0.00     0.074 A 
ATOM     59  C   UNL     1      -6.353   4.855  17.981  1.00  0.00     0.031 C 
ATOM     60  C   UNL     1      -6.904   7.266  18.169  1.00  0.00     0.034 A 
BRANCH  47  61
ATOM     61  C   UNL     1      -7.938  12.387  14.868  1.00  0.00     0.023 A 
ATOM     62  C   UNL     1      -9.224  12.846  14.514  1.00  0.00     0.012 A 
ATOM     63  C   UNL     1      -6.968  13.314  15.295  1.00  0.00     0.148 A 
ATOM     64  C   UNL     1      -9.532  14.204  14.557  1.00  0.00     0.002 A 
ATOM     65  C   UNL     1      -7.297  14.662  15.384  1.00  0.00     0.091 A 
ATOM     66  F   UNL     1      -5.745  12.862  15.607  1.00  0.00    -0.205 F 
ATOM     67  C   UNL     1      -8.574  15.109  15.005  1.00  0.00     0.022 A 
BRANCH  65  68
ATOM     68  S   UNL     1      -6.168  15.899  16.030  1.00  0.00     0.127 S 
ATOM     69  O   UNL     1      -5.905  16.709  14.840  1.00  0.00    -0.237 OA
ATOM     70  O   UNL     1      -6.987  16.559  17.047  1.00  0.00    -0.237 OA
ATOM     71  O   UNL     1      -5.021  15.168  16.548  1.00  0.00    -0.744 OA
ENDBRANCH  65  68
ENDBRANCH  47  61
BRANCH  48  72
ATOM     72  C   UNL     1      -5.994   2.567  14.433  1.00  0.00     0.023 A 
ATOM     73  C   UNL     1      -6.947   1.659  14.932  1.00  0.00     0.012 A 
ATOM     74  C   UNL     1      -4.822   2.069  13.829  1.00  0.00     0.148 A 
ATOM     75  C   UNL     1      -6.730   0.282  14.853  1.00  0.00     0.002 A 
ATOM     76  C   UNL     1      -4.640   0.696  13.700  1.00  0.00     0.091 A 
ATOM     77  F   UNL     1      -3.923   2.949  13.368  1.00  0.00    -0.205 F 
ATOM     78  C   UNL     1      -5.584  -0.199  14.226  1.00  0.00     0.022 A 
BRANCH  76  79
ATOM     79  S   UNL     1      -3.269  -0.015  12.782  1.00  0.00     0.127 S 
ATOM     80  O   UNL     1      -2.505  -0.668  13.841  1.00  0.00    -0.237 OA
ATOM     81  O   UNL     1      -3.961  -0.926  11.868  1.00  0.00    -0.237 OA
ATOM     82  O   UNL     1      -2.608   1.105  12.127  1.00  0.00    -0.744 OA
ENDBRANCH  76  79
ENDBRANCH  48  72
BRANCH  60  83
ATOM     83  C   UNL     1      -6.821   7.144  19.668  1.00  0.00     0.023 A 
ATOM     84  C   UNL     1      -5.563   6.997  20.284  1.00  0.00     0.012 A 
ATOM     85  C   UNL     1      -7.970   7.306  20.468  1.00  0.00     0.148 A 
ATOM     86  C   UNL     1      -5.452   6.990  21.674  1.00  0.00     0.002 A 
ATOM     87  C   UNL     1      -7.845   7.353  21.851  1.00  0.00     0.091 A 
ATOM     88  F   UNL     1      -9.159   7.431  19.860  1.00  0.00    -0.205 F 
ATOM     89  C   UNL     1      -6.589   7.184  22.455  1.00  0.00     0.022 A 
BRANCH  87  90
ATOM     90  S   UNL     1      -9.232   7.710  22.935  1.00  0.00     0.127 S 
ATOM     91  O   UNL     1      -9.419   6.427  23.611  1.00  0.00    -0.237 OA
ATOM     92  O   UNL     1      -8.694   8.774  23.784  1.00  0.00    -0.237 OA
ATOM     93  O   UNL     1     -10.327   8.122  22.068  1.00  0.00    -0.744 OA
ENDBRANCH  87  90
ENDBRANCH  60  83
ENDBRANCH  34  35
ENDBRANCH  26  29
ENDBRANCH   1  25
TORSDOF 14
