REMARK SMILES C[NH+]1CCC([NH+]2CCC(Oc3ccc4ccccc4c3)(C(=O)NCCCNC(=O)c3ccc(-c4c5nc(c(-c6cccc(S(=O)(=O)[O-])c6F)c6ccc([nH]6)c(-c6cccc(S(=O)(=O)[O-])c6F)c6nc(c(-c7cccc(S(=O)(=O)[O-])c7F)c7ccc4[nH]7)C=C6)C=C5)cc3)CC2)CC1
REMARK SMILES IDX 25 1 24 2 23 3 21 4 22 5 9 7 6 8 7 9 94 10 8 12 93 13 5 14
REMARK SMILES IDX 1 15 2 16 3 17 96 18 4 20 95 21 10 22 11 23 12 24 20 25
REMARK SMILES IDX 13 26 19 27 14 28 18 29 15 30 17 31 16 32 26 33 27 34 28 35
REMARK SMILES IDX 29 37 30 38 31 39 92 40 32 41 91 42 33 43 34 44 35 45 85 46
REMARK SMILES IDX 36 47 90 48 84 49 86 50 37 51 89 52 83 53 82 54 38 56 70 57
REMARK SMILES IDX 50 58 69 59 51 60 54 61 68 62 87 63 52 64 53 65 67 67 88 68
REMARK SMILES IDX 55 69 39 70 40 71 48 72 41 73 43 74 49 75 42 76 44 77 45 78
REMARK SMILES IDX 46 79 47 80 71 81 72 82 80 83 73 84 75 85 81 86 74 87 76 88
REMARK SMILES IDX 77 89 78 90 79 91 56 92 57 93 65 94 58 95 60 96 66 97 59 98
REMARK SMILES IDX 61 99 62 100 63 101 64 102
REMARK H PARENT 23 6 6 11 2 19 27 36 86 55 54 66
REMARK Flexibility Score: inf
ROOT
ATOM      1  C   UNL     1       4.709  -1.137   5.532  1.00  0.00     0.042 C 
ENDROOT
BRANCH   1   2
ATOM      2  C   UNL     1       5.818  -1.634   4.609  1.00  0.00     0.118 C 
BRANCH   2   3
ATOM      3  N   UNL     1       5.315  -2.507   3.562  1.00  0.00    -0.353 N 
ATOM      4  C   UNL     1       5.244  -2.326   2.208  1.00  0.00     0.264 C 
ATOM      5  O   UNL     1       4.890  -3.313   1.552  1.00  0.00    -0.270 OA
ATOM      6  H   UNL     1       4.968  -3.372   3.879  1.00  0.00     0.163 HD
BRANCH   4   7
ATOM      7  C   UNL     1       5.592  -0.960   1.542  1.00  0.00     0.197 C 
ATOM      8  N   UNL     1       3.102  -0.117   0.209  1.00  0.00    -0.332 N 
ATOM      9  C   UNL     1       3.218  -0.121   1.672  1.00  0.00     0.267 C 
ATOM     10  C   UNL     1       3.927  -1.176  -0.395  1.00  0.00     0.267 C 
ATOM     11  H   UNL     1       3.476   0.778  -0.107  1.00  0.00     0.348 HD
ATOM     12  C   UNL     1       4.666   0.148   2.053  1.00  0.00     0.120 C 
ATOM     13  C   UNL     1       5.408  -1.071   0.013  1.00  0.00     0.120 C 
BRANCH   8  14
ATOM     14  C   UNL     1       1.698  -0.133  -0.276  1.00  0.00     0.195 C 
ATOM     15  C   UNL     1      -2.613   0.069  -0.226  1.00  0.00     0.332 C 
ATOM     16  N   UNL     1      -1.196   0.014   0.121  1.00  0.00    -0.337 N 
ATOM     17  C   UNL     1      -0.477   1.176  -0.411  1.00  0.00     0.268 C 
ATOM     18  C   UNL     1      -0.583  -1.237  -0.333  1.00  0.00     0.268 C 
ATOM     19  H   UNL     1      -1.126   0.040   1.138  1.00  0.00     0.347 HD
ATOM     20  C   UNL     1       0.970   1.180   0.080  1.00  0.00     0.126 C 
ATOM     21  C   UNL     1       0.858  -1.343   0.171  1.00  0.00     0.126 C 
ENDBRANCH   8  14
BRANCH   7  22
ATOM     22  O   UNL     1       6.989  -0.832   1.911  1.00  0.00    -0.477 OA
BRANCH  22  23
ATOM     23  C   UNL     1       7.698   0.255   1.498  1.00  0.00     0.121 A 
ATOM     24  C   UNL     1       7.465   1.535   1.985  1.00  0.00     0.047 A 
ATOM     25  C   UNL     1       8.804   0.015   0.682  1.00  0.00     0.055 A 
ATOM     26  C   UNL     1       8.257   2.602   1.560  1.00  0.00     0.012 A 
ATOM     27  C   UNL     1       9.639   1.070   0.279  1.00  0.00    -0.015 A 
ATOM     28  C   UNL     1       9.343   2.386   0.702  1.00  0.00    -0.018 A 
ATOM     29  C   UNL     1      10.767   0.849  -0.527  1.00  0.00     0.009 A 
ATOM     30  C   UNL     1      10.155   3.448   0.278  1.00  0.00     0.009 A 
ATOM     31  C   UNL     1      11.577   1.914  -0.927  1.00  0.00     0.001 A 
ATOM     32  C   UNL     1      11.265   3.212  -0.534  1.00  0.00     0.001 A 
ENDBRANCH  22  23
ENDBRANCH   7  22
ENDBRANCH   4   7
ENDBRANCH   2   3
ENDBRANCH   1   2
BRANCH   1  33
ATOM     33  C   UNL     1       4.025  -2.233   6.340  1.00  0.00     0.118 C 
BRANCH  33  34
ATOM     34  N   UNL     1       4.935  -2.903   7.258  1.00  0.00    -0.352 N 
ATOM     35  C   UNL     1       4.912  -2.987   8.627  1.00  0.00     0.251 C 
ATOM     36  H   UNL     1       5.687  -3.371   6.827  1.00  0.00     0.163 HD
ATOM     37  O   UNL     1       5.893  -3.443   9.214  1.00  0.00    -0.269 OA
BRANCH  35  38
ATOM     38  C   UNL     1       3.737  -2.529   9.402  1.00  0.00     0.039 A 
ATOM     39  C   UNL     1       3.951  -1.852  10.607  1.00  0.00     0.014 A 
ATOM     40  C   UNL     1       2.433  -2.794   8.977  1.00  0.00     0.014 A 
ATOM     41  C   UNL     1       2.861  -1.394  11.352  1.00  0.00     0.010 A 
ATOM     42  C   UNL     1       1.350  -2.268   9.679  1.00  0.00     0.010 A 
ATOM     43  C   UNL     1       1.551  -1.570  10.879  1.00  0.00    -0.014 A 
BRANCH  43  44
ATOM     44  C   UNL     1       0.386  -1.016  11.617  1.00  0.00     0.031 A 
ATOM     45  C   UNL     1      -0.675  -1.928  12.173  1.00  0.00     0.074 A 
ATOM     46  C   UNL     1       0.240   0.321  11.716  1.00  0.00     0.049 A 
ATOM     47  N   UNL     1      -1.775  -1.620  12.810  1.00  0.00    -0.248 NA
ATOM     48  C   UNL     1      -0.491  -3.374  11.963  1.00  0.00     0.031 C 
ATOM     49  C   UNL     1       1.151   1.314  11.143  1.00  0.00     0.029 A 
ATOM     50  N   UNL     1      -0.743   1.075  12.307  1.00  0.00    -0.354 N 
ATOM     51  C   UNL     1      -2.431  -2.823  13.043  1.00  0.00     0.074 A 
ATOM     52  C   UNL     1      -1.621  -3.865  12.452  1.00  0.00     0.031 C 
ATOM     53  C   UNL     1       0.686   2.545  11.412  1.00  0.00     0.029 A 
ATOM     54  C   UNL     1      -0.567   2.430  12.152  1.00  0.00     0.049 A 
ATOM     55  H   UNL     1      -1.502   0.682  12.796  1.00  0.00     0.167 HD
ATOM     56  C   UNL     1      -3.588  -3.045  13.714  1.00  0.00     0.034 A 
ATOM     57  C   UNL     1      -1.330   3.466  12.553  1.00  0.00     0.034 A 
ATOM     58  C   UNL     1      -4.368  -2.012  14.341  1.00  0.00     0.049 A 
ATOM     59  C   UNL     1      -2.581   3.191  13.342  1.00  0.00     0.074 A 
ATOM     60  C   UNL     1      -5.497  -2.145  15.129  1.00  0.00     0.029 A 
ATOM     61  N   UNL     1      -4.107  -0.654  14.244  1.00  0.00    -0.354 N 
ATOM     62  N   UNL     1      -3.091   2.039  13.705  1.00  0.00    -0.248 NA
ATOM     63  C   UNL     1      -3.341   4.358  13.812  1.00  0.00     0.031 C 
ATOM     64  C   UNL     1      -5.934  -0.865  15.489  1.00  0.00     0.029 A 
ATOM     65  C   UNL     1      -5.061   0.064  14.947  1.00  0.00     0.049 A 
ATOM     66  H   UNL     1      -3.355  -0.257  13.748  1.00  0.00     0.167 HD
ATOM     67  C   UNL     1      -4.211   2.342  14.471  1.00  0.00     0.074 A 
ATOM     68  C   UNL     1      -4.289   3.786  14.541  1.00  0.00     0.031 C 
ATOM     69  C   UNL     1      -5.103   1.500  15.050  1.00  0.00     0.034 A 
BRANCH  56  70
ATOM     70  C   UNL     1      -4.055  -4.472  13.852  1.00  0.00     0.023 A 
ATOM     71  C   UNL     1      -3.354  -5.354  14.700  1.00  0.00     0.012 A 
ATOM     72  C   UNL     1      -5.217  -4.923  13.195  1.00  0.00     0.148 A 
ATOM     73  C   UNL     1      -3.780  -6.671  14.864  1.00  0.00     0.002 A 
ATOM     74  C   UNL     1      -5.660  -6.226  13.399  1.00  0.00     0.091 A 
ATOM     75  F   UNL     1      -5.859  -4.078  12.377  1.00  0.00    -0.205 F 
ATOM     76  C   UNL     1      -4.937  -7.103  14.223  1.00  0.00     0.022 A 
BRANCH  74  77
ATOM     77  S   UNL     1      -7.184  -6.853  12.683  1.00  0.00     0.127 S 
ATOM     78  O   UNL     1      -6.674  -7.769  11.663  1.00  0.00    -0.237 OA
ATOM     79  O   UNL     1      -7.816  -7.509  13.828  1.00  0.00    -0.237 OA
ATOM     80  O   UNL     1      -7.899  -5.690  12.179  1.00  0.00    -0.744 OA
ENDBRANCH  74  77
ENDBRANCH  56  70
BRANCH  57  81
ATOM     81  C   UNL     1      -0.892   4.862  12.271  1.00  0.00     0.023 A 
ATOM     82  C   UNL     1      -0.448   5.675  13.331  1.00  0.00     0.012 A 
ATOM     83  C   UNL     1      -0.880   5.376  10.960  1.00  0.00     0.148 A 
ATOM     84  C   UNL     1      -0.028   6.985  13.096  1.00  0.00     0.002 A 
ATOM     85  C   UNL     1      -0.407   6.662  10.725  1.00  0.00     0.091 A 
ATOM     86  F   UNL     1      -1.318   4.590   9.966  1.00  0.00    -0.205 F 
ATOM     87  C   UNL     1       0.002   7.474  11.793  1.00  0.00     0.022 A 
BRANCH  85  88
ATOM     88  S   UNL     1      -0.204   7.322   9.066  1.00  0.00     0.127 S 
ATOM     89  O   UNL     1      -1.273   8.318   9.008  1.00  0.00    -0.237 OA
ATOM     90  O   UNL     1       1.150   7.878   9.127  1.00  0.00    -0.237 OA
ATOM     91  O   UNL     1      -0.345   6.186   8.171  1.00  0.00    -0.744 OA
ENDBRANCH  85  88
ENDBRANCH  57  81
BRANCH  69  92
ATOM     92  C   UNL     1      -6.231   2.114  15.837  1.00  0.00     0.023 A 
ATOM     93  C   UNL     1      -7.278   2.774  15.162  1.00  0.00     0.012 A 
ATOM     94  C   UNL     1      -6.288   1.981  17.238  1.00  0.00     0.148 A 
ATOM     95  C   UNL     1      -8.344   3.323  15.873  1.00  0.00     0.002 A 
ATOM     96  C   UNL     1      -7.379   2.487  17.935  1.00  0.00     0.091 A 
ATOM     97  F   UNL     1      -5.274   1.367  17.865  1.00  0.00    -0.205 F 
ATOM     98  C   UNL     1      -8.401   3.170  17.256  1.00  0.00     0.022 A 
BRANCH  96  99
ATOM     99  S   UNL     1      -7.582   2.252  19.705  1.00  0.00     0.127 S 
ATOM    100  O   UNL     1      -7.277   3.586  20.220  1.00  0.00    -0.237 OA
ATOM    101  O   UNL     1      -8.990   1.865  19.808  1.00  0.00    -0.237 OA
ATOM    102  O   UNL     1      -6.641   1.205  20.079  1.00  0.00    -0.744 OA
ENDBRANCH  96  99
ENDBRANCH  69  92
ENDBRANCH  43  44
ENDBRANCH  35  38
ENDBRANCH  33  34
ENDBRANCH   1  33
TORSDOF 16
