REMARK SMILES O=C(NCCCNC(=O)c1nnn(-c2ccccc2C(F)(F)F)c1-c1cccc(Cl)c1)c1ccc(-c2c3nc(c(-c4cccc(S(=O)(=O)[O-])c4F)c4ccc([nH]4)c(-c4cccc(S(=O)(=O)[O-])c4F)c4nc(c(-c5cccc(S(=O)(=O)[O-])c5F)c5ccc2[nH]5)C=C4)C=C3)cc1
REMARK SMILES IDX 4 1 3 2 1 3 2 4 32 6 33 7 94 8 34 9 93 10 35 11 36 12 37 13
REMARK SMILES IDX 87 14 38 15 92 16 86 17 88 18 39 19 91 20 85 21 84 22 40 24
REMARK SMILES IDX 72 25 52 26 71 27 53 28 56 29 70 30 89 31 54 32 55 33 69 35
REMARK SMILES IDX 90 36 57 37 41 38 42 39 50 40 43 41 45 42 51 43 44 44 46 45
REMARK SMILES IDX 47 46 48 47 49 48 73 49 74 50 82 51 75 52 77 53 83 54 76 55
REMARK SMILES IDX 78 56 79 57 80 58 81 59 58 60 59 61 67 62 60 63 62 64 68 65
REMARK SMILES IDX 61 66 63 67 64 68 65 69 66 70 5 71 6 72 7 73 8 74 9 76 10 77
REMARK SMILES IDX 11 78 24 79 12 80 13 81 25 82 26 83 31 84 27 85 29 86 28 87
REMARK SMILES IDX 30 88 14 89 15 90 19 91 16 92 18 93 17 94 20 95 21 96 22 97
REMARK SMILES IDX 23 98
REMARK H PARENT 3 5 88 23 56 34 7 75
REMARK Flexibility Score: inf
ROOT
ATOM      1  C   UNL     1       4.695   0.750   0.500  1.00  0.00     0.118 C 
ENDROOT
BRANCH   1   2
ATOM      2  N   UNL     1       3.258   0.777   0.681  1.00  0.00    -0.352 N 
ATOM      3  O   UNL     1       1.120   0.274   0.696  1.00  0.00    -0.269 OA
ATOM      4  C   UNL     1       2.191   0.151   0.095  1.00  0.00     0.251 C 
ATOM      5  H   UNL     1       2.983   1.393   1.398  1.00  0.00     0.163 HD
BRANCH   4   6
ATOM      6  C   UNL     1       2.207  -0.592  -1.198  1.00  0.00     0.039 A 
ATOM      7  C   UNL     1       3.320  -0.798  -2.012  1.00  0.00     0.014 A 
ATOM      8  C   UNL     1       0.958  -1.069  -1.646  1.00  0.00     0.014 A 
ATOM      9  C   UNL     1       3.177  -1.399  -3.266  1.00  0.00     0.010 A 
ATOM     10  C   UNL     1       0.812  -1.680  -2.890  1.00  0.00     0.010 A 
ATOM     11  C   UNL     1       1.920  -1.817  -3.719  1.00  0.00    -0.014 A 
BRANCH  11  12
ATOM     12  C   UNL     1       1.837  -2.512  -5.005  1.00  0.00     0.031 A 
ATOM     13  C   UNL     1       2.557  -3.818  -5.069  1.00  0.00     0.074 A 
ATOM     14  C   UNL     1       1.059  -2.131  -6.040  1.00  0.00     0.049 A 
ATOM     15  N   UNL     1       3.557  -4.146  -5.823  1.00  0.00    -0.248 NA
ATOM     16  C   UNL     1       2.160  -4.860  -4.112  1.00  0.00     0.031 C 
ATOM     17  C   UNL     1       0.033  -1.085  -6.059  1.00  0.00     0.029 A 
ATOM     18  N   UNL     1       0.941  -2.701  -7.277  1.00  0.00    -0.354 N 
ATOM     19  C   UNL     1       3.790  -5.501  -5.579  1.00  0.00     0.074 A 
ATOM     20  C   UNL     1       3.000  -5.847  -4.426  1.00  0.00     0.031 C 
ATOM     21  C   UNL     1      -0.752  -1.252  -7.148  1.00  0.00     0.029 A 
ATOM     22  C   UNL     1      -0.202  -2.315  -7.970  1.00  0.00     0.049 A 
ATOM     23  H   UNL     1       1.605  -3.328  -7.644  1.00  0.00     0.167 HD
ATOM     24  C   UNL     1       4.467  -6.294  -6.455  1.00  0.00     0.034 A 
ATOM     25  C   UNL     1      -0.693  -2.874  -9.104  1.00  0.00     0.034 A 
ATOM     26  C   UNL     1       5.202  -5.528  -7.422  1.00  0.00     0.049 A 
ATOM     27  C   UNL     1       0.406  -3.621  -9.752  1.00  0.00     0.074 A 
ATOM     28  C   UNL     1       6.209  -4.585  -7.372  1.00  0.00     0.029 A 
ATOM     29  N   UNL     1       4.686  -5.458  -8.691  1.00  0.00    -0.354 N 
ATOM     30  N   UNL     1       1.446  -3.059 -10.298  1.00  0.00    -0.248 NA
ATOM     31  C   UNL     1       0.526  -5.044  -9.484  1.00  0.00     0.031 C 
ATOM     32  C   UNL     1       5.914  -3.680  -8.432  1.00  0.00     0.029 A 
ATOM     33  C   UNL     1       4.772  -4.150  -9.084  1.00  0.00     0.049 A 
ATOM     34  H   UNL     1       4.323  -6.206  -9.219  1.00  0.00     0.167 HD
ATOM     35  C   UNL     1       2.488  -3.935 -10.034  1.00  0.00     0.074 A 
ATOM     36  C   UNL     1       1.843  -5.186  -9.646  1.00  0.00     0.031 C 
ATOM     37  C   UNL     1       3.766  -3.481  -9.877  1.00  0.00     0.034 A 
BRANCH  24  38
ATOM     38  C   UNL     1       4.232  -7.774  -6.652  1.00  0.00     0.023 A 
ATOM     39  C   UNL     1       5.161  -8.489  -7.444  1.00  0.00     0.012 A 
ATOM     40  C   UNL     1       3.022  -8.432  -6.336  1.00  0.00     0.148 A 
ATOM     41  C   UNL     1       4.883  -9.771  -7.930  1.00  0.00     0.002 A 
ATOM     42  C   UNL     1       2.785  -9.738  -6.753  1.00  0.00     0.091 A 
ATOM     43  F   UNL     1       2.031  -7.756  -5.745  1.00  0.00    -0.205 F 
ATOM     44  C   UNL     1       3.698 -10.401  -7.576  1.00  0.00     0.022 A 
BRANCH  42  45
ATOM     45  S   UNL     1       1.297 -10.620  -6.270  1.00  0.00     0.127 S 
ATOM     46  O   UNL     1       0.506 -10.552  -7.494  1.00  0.00    -0.237 OA
ATOM     47  O   UNL     1       1.824 -11.945  -5.944  1.00  0.00    -0.237 OA
ATOM     48  O   UNL     1       0.776  -9.889  -5.120  1.00  0.00    -0.744 OA
ENDBRANCH  42  45
ENDBRANCH  24  38
BRANCH  25  49
ATOM     49  C   UNL     1      -2.090  -3.009  -9.576  1.00  0.00     0.023 A 
ATOM     50  C   UNL     1      -2.350  -3.212 -10.947  1.00  0.00     0.012 A 
ATOM     51  C   UNL     1      -3.138  -3.234  -8.657  1.00  0.00     0.148 A 
ATOM     52  C   UNL     1      -3.603  -3.660 -11.385  1.00  0.00     0.002 A 
ATOM     53  C   UNL     1      -4.382  -3.676  -9.098  1.00  0.00     0.091 A 
ATOM     54  F   UNL     1      -2.883  -3.106  -7.348  1.00  0.00    -0.205 F 
ATOM     55  C   UNL     1      -4.614  -3.902 -10.460  1.00  0.00     0.022 A 
BRANCH  53  56
ATOM     56  S   UNL     1      -5.727  -4.043  -7.962  1.00  0.00     0.127 S 
ATOM     57  O   UNL     1      -6.842  -3.318  -8.572  1.00  0.00    -0.237 OA
ATOM     58  O   UNL     1      -5.816  -5.497  -8.059  1.00  0.00    -0.237 OA
ATOM     59  O   UNL     1      -5.308  -3.519  -6.668  1.00  0.00    -0.744 OA
ENDBRANCH  53  56
ENDBRANCH  25  49
BRANCH  37  60
ATOM     60  C   UNL     1       4.079  -2.064 -10.284  1.00  0.00     0.023 A 
ATOM     61  C   UNL     1       3.467  -0.953  -9.666  1.00  0.00     0.012 A 
ATOM     62  C   UNL     1       5.153  -1.847 -11.164  1.00  0.00     0.148 A 
ATOM     63  C   UNL     1       3.902   0.346  -9.938  1.00  0.00     0.002 A 
ATOM     64  C   UNL     1       5.618  -0.557 -11.389  1.00  0.00     0.091 A 
ATOM     65  F   UNL     1       5.726  -2.914 -11.742  1.00  0.00    -0.205 F 
ATOM     66  C   UNL     1       4.989   0.543 -10.786  1.00  0.00     0.022 A 
BRANCH  64  67
ATOM     67  S   UNL     1       7.103  -0.249 -12.349  1.00  0.00     0.127 S 
ATOM     68  O   UNL     1       6.556   0.285 -13.594  1.00  0.00    -0.237 OA
ATOM     69  O   UNL     1       7.812   0.730 -11.522  1.00  0.00    -0.237 OA
ATOM     70  O   UNL     1       7.782  -1.534 -12.460  1.00  0.00    -0.744 OA
ENDBRANCH  64  67
ENDBRANCH  37  60
ENDBRANCH  11  12
ENDBRANCH   4   6
ENDBRANCH   1   2
BRANCH   1  71
ATOM     71  C   UNL     1       5.240   1.782  -0.485  1.00  0.00     0.042 C 
BRANCH  71  72
ATOM     72  C   UNL     1       4.839   3.230  -0.220  1.00  0.00     0.118 C 
BRANCH  72  73
ATOM     73  N   UNL     1       5.400   3.796   0.992  1.00  0.00    -0.351 N 
ATOM     74  C   UNL     1       5.998   5.022   1.197  1.00  0.00     0.274 C 
ATOM     75  H   UNL     1       5.346   3.219   1.788  1.00  0.00     0.163 HD
ATOM     76  O   UNL     1       6.457   5.250   2.316  1.00  0.00    -0.267 OA
BRANCH  74  77
ATOM     77  C   UNL     1       6.093   6.003   0.120  1.00  0.00     0.178 A 
ATOM     78  N   UNL     1       7.292   6.613  -0.172  1.00  0.00    -0.124 NA
ATOM     79  C   UNL     1       5.115   6.498  -0.737  1.00  0.00     0.108 A 
ATOM     80  N   UNL     1       7.117   7.407  -1.218  1.00  0.00    -0.061 NA
ATOM     81  N   UNL     1       5.796   7.451  -1.488  1.00  0.00    -0.211 N 
BRANCH  79  82
ATOM     82  C   UNL     1       3.719   6.121  -0.947  1.00  0.00     0.004 A 
ATOM     83  C   UNL     1       3.304   5.647  -2.203  1.00  0.00     0.010 A 
ATOM     84  C   UNL     1       2.795   6.189   0.099  1.00  0.00     0.031 A 
ATOM     85  C   UNL     1       1.982   5.258  -2.415  1.00  0.00     0.002 A 
ATOM     86  C   UNL     1       1.470   5.808  -0.124  1.00  0.00     0.041 A 
ATOM     87  C   UNL     1       1.062   5.342  -1.373  1.00  0.00     0.020 A 
ATOM     88  Cl  UNL     1       0.329   5.923   1.159  1.00  0.00    -0.084 Cl
ENDBRANCH  79  82
BRANCH  81  89
ATOM     89  C   UNL     1       5.289   8.248  -2.544  1.00  0.00     0.079 A 
ATOM     90  C   UNL     1       5.899   8.099  -3.801  1.00  0.00     0.029 A 
ATOM     91  C   UNL     1       4.136   9.045  -2.394  1.00  0.00     0.081 A 
ATOM     92  C   UNL     1       5.296   8.644  -4.933  1.00  0.00     0.002 A 
ATOM     93  C   UNL     1       3.543   9.573  -3.557  1.00  0.00     0.015 A 
ATOM     94  C   UNL     1       4.106   9.357  -4.815  1.00  0.00     0.001 A 
BRANCH  91  95
ATOM     95  C   UNL     1       3.545   9.459  -1.066  1.00  0.00     0.418 C 
ATOM     96  F   UNL     1       3.428  10.816  -0.966  1.00  0.00    -0.166 F 
ATOM     97  F   UNL     1       2.287   8.977  -0.877  1.00  0.00    -0.166 F 
ATOM     98  F   UNL     1       4.265   9.087   0.025  1.00  0.00    -0.166 F 
ENDBRANCH  91  95
ENDBRANCH  81  89
ENDBRANCH  74  77
ENDBRANCH  72  73
ENDBRANCH  71  72
ENDBRANCH   1  71
TORSDOF 16
