REMARK SMILES CCCCC[NH2+][C@](C)(C(=O)NCCCNC(=O)c1ccc(-c2c3nc(c(-c4cccc(S(=O)(=O)[O-])c4F)c4ccc([nH]4)c(-c4cccc(S(=O)(=O)[O-])c4F)c4nc(c(-c5cccc(S(=O)(=O)[O-])c5F)c5ccc2[nH]5)C=C4)C=C3)cc1)C(F)(F)F
REMARK SMILES IDX 12 1 11 2 9 3 10 4 7 6 8 7 6 8 5 11 4 12 3 13 2 14 1 15
REMARK SMILES IDX 81 16 82 17 83 18 84 19 13 20 14 21 15 22 16 23 17 25 18 26
REMARK SMILES IDX 19 27 80 28 20 29 79 30 21 31 22 32 23 33 73 34 24 35 78 36
REMARK SMILES IDX 72 37 74 38 25 39 77 40 71 41 70 42 26 44 58 45 38 46 57 47
REMARK SMILES IDX 39 48 42 49 56 50 75 51 40 52 41 53 55 55 76 56 43 57 27 58
REMARK SMILES IDX 28 59 36 60 29 61 31 62 37 63 30 64 32 65 33 66 34 67 35 68
REMARK SMILES IDX 59 69 60 70 68 71 61 72 63 73 69 74 62 75 64 76 65 77 66 78
REMARK SMILES IDX 67 79 44 80 45 81 53 82 46 83 48 84 54 85 47 86 49 87 50 88
REMARK SMILES IDX 51 89 52 90
REMARK H PARENT 11 5 6 9 6 10 15 24 74 43 42 54
REMARK Flexibility Score: inf
ROOT
ATOM      1  C   UNL     1      -1.991  -4.204  -2.176  1.00  0.00     0.118 C 
ENDROOT
BRANCH   1   2
ATOM      2  N   UNL     1      -2.799  -5.042  -1.308  1.00  0.00    -0.350 N 
ATOM      3  C   UNL     1      -3.272  -4.882  -0.036  1.00  0.00     0.290 C 
ATOM      4  O   UNL     1      -4.011  -5.787   0.363  1.00  0.00    -0.267 OA
ATOM      5  H   UNL     1      -3.060  -5.898  -1.718  1.00  0.00     0.163 HD
BRANCH   3   6
ATOM      6  C   UNL     1      -2.951  -3.639   0.823  1.00  0.00     0.268 C 
ATOM      7  C   UNL     1      -1.429  -3.556   1.073  1.00  0.00     0.101 C 
BRANCH   6   8
ATOM      8  N   UNL     1      -3.391  -2.366   0.128  1.00  0.00    -0.326 N 
ATOM      9  H   UNL     1      -3.256  -1.587   0.773  1.00  0.00     0.347 HD
ATOM     10  H   UNL     1      -2.825  -2.285  -0.717  1.00  0.00     0.347 HD
BRANCH   8  11
ATOM     11  C   UNL     1      -4.791  -2.365  -0.305  1.00  0.00     0.261 C 
BRANCH  11  12
ATOM     12  C   UNL     1      -5.150  -1.097  -1.098  1.00  0.00     0.061 C 
BRANCH  12  13
ATOM     13  C   UNL     1      -4.386  -0.880  -2.413  1.00  0.00     0.006 C 
BRANCH  13  14
ATOM     14  C   UNL     1      -4.599  -1.957  -3.478  1.00  0.00    -0.003 C 
ATOM     15  C   UNL     1      -5.965  -1.915  -4.138  1.00  0.00     0.004 C 
ENDBRANCH  13  14
ENDBRANCH  12  13
ENDBRANCH  11  12
ENDBRANCH   8  11
ENDBRANCH   6   8
BRANCH   6  16
ATOM     16  C   UNL     1      -3.604  -3.872   2.221  1.00  0.00     0.453 C 
ATOM     17  F   UNL     1      -3.127  -4.979   2.839  1.00  0.00    -0.164 F 
ATOM     18  F   UNL     1      -3.325  -2.830   3.054  1.00  0.00    -0.164 F 
ATOM     19  F   UNL     1      -4.952  -3.971   2.179  1.00  0.00    -0.164 F 
ENDBRANCH   6  16
ENDBRANCH   3   6
ENDBRANCH   1   2
BRANCH   1  20
ATOM     20  C   UNL     1      -0.777  -4.932  -2.723  1.00  0.00     0.042 C 
BRANCH  20  21
ATOM     21  C   UNL     1      -1.129  -6.079  -3.661  1.00  0.00     0.118 C 
BRANCH  21  22
ATOM     22  N   UNL     1      -1.872  -5.646  -4.842  1.00  0.00    -0.352 N 
ATOM     23  C   UNL     1      -1.531  -5.704  -6.172  1.00  0.00     0.251 C 
ATOM     24  H   UNL     1      -2.755  -5.252  -4.656  1.00  0.00     0.163 HD
ATOM     25  O   UNL     1      -2.224  -5.123  -7.004  1.00  0.00    -0.269 OA
BRANCH  23  26
ATOM     26  C   UNL     1      -0.323  -6.443  -6.593  1.00  0.00     0.039 A 
ATOM     27  C   UNL     1       0.525  -5.879  -7.549  1.00  0.00     0.014 A 
ATOM     28  C   UNL     1      -0.020  -7.685  -6.032  1.00  0.00     0.014 A 
ATOM     29  C   UNL     1       1.722  -6.522  -7.874  1.00  0.00     0.010 A 
ATOM     30  C   UNL     1       1.216  -8.268  -6.277  1.00  0.00     0.010 A 
ATOM     31  C   UNL     1       2.099  -7.698  -7.205  1.00  0.00    -0.014 A 
BRANCH  31  32
ATOM     32  C   UNL     1       3.414  -8.347  -7.445  1.00  0.00     0.031 A 
ATOM     33  C   UNL     1       3.477  -9.768  -7.940  1.00  0.00     0.074 A 
ATOM     34  C   UNL     1       4.547  -7.699  -7.104  1.00  0.00     0.049 A 
ATOM     35  N   UNL     1       4.522 -10.531  -8.119  1.00  0.00    -0.248 NA
ATOM     36  C   UNL     1       2.195 -10.432  -8.236  1.00  0.00     0.031 C 
ATOM     37  C   UNL     1       4.613  -6.357  -6.518  1.00  0.00     0.029 A 
ATOM     38  N   UNL     1       5.859  -8.096  -7.165  1.00  0.00    -0.354 N 
ATOM     39  C   UNL     1       4.026 -11.773  -8.496  1.00  0.00     0.074 A 
ATOM     40  C   UNL     1       2.584 -11.672  -8.492  1.00  0.00     0.031 C 
ATOM     41  C   UNL     1       5.895  -6.045  -6.273  1.00  0.00     0.029 A 
ATOM     42  C   UNL     1       6.741  -7.172  -6.654  1.00  0.00     0.049 A 
ATOM     43  H   UNL     1       6.143  -8.961  -7.540  1.00  0.00     0.167 HD
ATOM     44  C   UNL     1       4.708 -12.890  -8.842  1.00  0.00     0.034 A 
ATOM     45  C   UNL     1       8.078  -7.229  -6.496  1.00  0.00     0.034 A 
ATOM     46  C   UNL     1       6.142 -12.965  -8.909  1.00  0.00     0.049 A 
ATOM     47  C   UNL     1       8.816  -8.454  -6.963  1.00  0.00     0.074 A 
ATOM     48  C   UNL     1       6.926 -14.007  -9.370  1.00  0.00     0.029 A 
ATOM     49  N   UNL     1       7.006 -11.964  -8.496  1.00  0.00    -0.354 N 
ATOM     50  N   UNL     1       8.336  -9.551  -7.497  1.00  0.00    -0.248 NA
ATOM     51  C   UNL     1      10.281  -8.435  -6.845  1.00  0.00     0.031 C 
ATOM     52  C   UNL     1       8.267 -13.646  -9.211  1.00  0.00     0.029 A 
ATOM     53  C   UNL     1       8.317 -12.368  -8.679  1.00  0.00     0.049 A 
ATOM     54  H   UNL     1       6.729 -11.094  -8.128  1.00  0.00     0.167 HD
ATOM     55  C   UNL     1       9.439 -10.338  -7.808  1.00  0.00     0.074 A 
ATOM     56  C   UNL     1      10.613  -9.580  -7.427  1.00  0.00     0.031 C 
ATOM     57  C   UNL     1       9.476 -11.581  -8.347  1.00  0.00     0.034 A 
BRANCH  44  58
ATOM     58  C   UNL     1       3.916 -14.110  -9.231  1.00  0.00     0.023 A 
ATOM     59  C   UNL     1       3.222 -14.130 -10.458  1.00  0.00     0.012 A 
ATOM     60  C   UNL     1       3.922 -15.262  -8.421  1.00  0.00     0.148 A 
ATOM     61  C   UNL     1       2.520 -15.266 -10.859  1.00  0.00     0.002 A 
ATOM     62  C   UNL     1       3.259 -16.406  -8.848  1.00  0.00     0.091 A 
ATOM     63  F   UNL     1       4.569 -15.216  -7.248  1.00  0.00    -0.205 F 
ATOM     64  C   UNL     1       2.549 -16.407 -10.061  1.00  0.00     0.022 A 
BRANCH  62  65
ATOM     65  S   UNL     1       3.304 -17.952  -7.935  1.00  0.00     0.127 S 
ATOM     66  O   UNL     1       1.925 -18.054  -7.460  1.00  0.00    -0.237 OA
ATOM     67  O   UNL     1       3.662 -18.914  -8.977  1.00  0.00    -0.237 OA
ATOM     68  O   UNL     1       4.310 -17.777  -6.897  1.00  0.00    -0.744 OA
ENDBRANCH  62  65
ENDBRANCH  44  58
BRANCH  45  69
ATOM     69  C   UNL     1       8.812  -6.065  -5.921  1.00  0.00     0.023 A 
ATOM     70  C   UNL     1       9.651  -5.296  -6.751  1.00  0.00     0.012 A 
ATOM     71  C   UNL     1       8.666  -5.703  -4.568  1.00  0.00     0.148 A 
ATOM     72  C   UNL     1      10.360  -4.210  -6.236  1.00  0.00     0.002 A 
ATOM     73  C   UNL     1       9.330  -4.586  -4.075  1.00  0.00     0.091 A 
ATOM     74  F   UNL     1       7.873  -6.454  -3.791  1.00  0.00    -0.205 F 
ATOM     75  C   UNL     1      10.193  -3.849  -4.902  1.00  0.00     0.022 A 
BRANCH  73  76
ATOM     76  S   UNL     1       9.061  -3.969  -2.410  1.00  0.00     0.127 S 
ATOM     77  O   UNL     1      10.303  -4.351  -1.744  1.00  0.00    -0.237 OA
ATOM     78  O   UNL     1       8.900  -2.533  -2.640  1.00  0.00    -0.237 OA
ATOM     79  O   UNL     1       7.854  -4.635  -1.938  1.00  0.00    -0.744 OA
ENDBRANCH  73  76
ENDBRANCH  45  69
BRANCH  57  80
ATOM     80  C   UNL     1      10.828 -12.196  -8.595  1.00  0.00     0.023 A 
ATOM     81  C   UNL     1      11.602 -12.649  -7.508  1.00  0.00     0.012 A 
ATOM     82  C   UNL     1      11.293 -12.398  -9.909  1.00  0.00     0.148 A 
ATOM     83  C   UNL     1      12.834 -13.265  -7.726  1.00  0.00     0.002 A 
ATOM     84  C   UNL     1      12.496 -13.059 -10.120  1.00  0.00     0.091 A 
ATOM     85  F   UNL     1      10.549 -11.944 -10.928  1.00  0.00    -0.205 F 
ATOM     86  C   UNL     1      13.274 -13.482  -9.030  1.00  0.00     0.022 A 
BRANCH  84  87
ATOM     87  S   UNL     1      13.093 -13.468 -11.764  1.00  0.00     0.127 S 
ATOM     88  O   UNL     1      14.194 -12.521 -11.926  1.00  0.00    -0.237 OA
ATOM     89  O   UNL     1      13.505 -14.863 -11.606  1.00  0.00    -0.237 OA
ATOM     90  O   UNL     1      11.962 -13.272 -12.661  1.00  0.00    -0.744 OA
ENDBRANCH  84  87
ENDBRANCH  57  80
ENDBRANCH  31  32
ENDBRANCH  23  26
ENDBRANCH  21  22
ENDBRANCH  20  21
ENDBRANCH   1  20
TORSDOF 19
