REMARK SMILES C#CCN(CC(=O)NCCCNC(=O)c1ccc(-c2c3nc(c(-c4cccc(S(=O)(=O)[O-])c4F)c4ccc([nH]4)c(-c4cccc(S(=O)(=O)[O-])c4F)c4nc(c(-c5cccc(S(=O)(=O)[O-])c5F)c5ccc2[nH]5)C=C4)C=C3)cc1)C(=O)NCC[C@@H]1CCCO1
REMARK SMILES IDX 9 1 8 2 6 3 7 4 5 6 4 7 3 8 2 9 1 10 78 11 79 12 80 13 81 15
REMARK SMILES IDX 82 16 83 17 84 18 87 19 85 20 86 21 10 22 11 23 12 24 13 25
REMARK SMILES IDX 14 27 15 28 16 29 77 30 17 31 76 32 18 33 19 34 20 35 70 36
REMARK SMILES IDX 21 37 75 38 69 39 71 40 22 41 74 42 68 43 67 44 23 46 55 47
REMARK SMILES IDX 35 48 54 49 36 50 39 51 53 52 72 53 37 54 38 55 52 57 73 58
REMARK SMILES IDX 40 59 24 60 25 61 33 62 26 63 28 64 34 65 27 66 29 67 30 68
REMARK SMILES IDX 31 69 32 70 56 71 57 72 65 73 58 74 60 75 66 76 59 77 61 78
REMARK SMILES IDX 62 79 63 80 64 81 41 82 42 83 50 84 43 85 45 86 51 87 44 88
REMARK SMILES IDX 46 89 47 90 48 91 49 92
REMARK H PARENT 8 5 80 14 12 26 71 45 39 56
REMARK Flexibility Score: inf
ROOT
ATOM      1  C   UNL     1      -5.100  -0.077   0.353  1.00  0.00     0.117 C 
ENDROOT
BRANCH   1   2
ATOM      2  N   UNL     1      -5.358  -0.304  -1.053  1.00  0.00    -0.354 N 
ATOM      3  C   UNL     1      -4.556  -0.872  -1.999  1.00  0.00     0.239 C 
ATOM      4  O   UNL     1      -5.106  -1.317  -3.011  1.00  0.00    -0.273 OA
ATOM      5  H   UNL     1      -6.239  -0.005  -1.373  1.00  0.00     0.163 HD
BRANCH   3   6
ATOM      6  C   UNL     1      -3.056  -1.107  -1.760  1.00  0.00     0.222 C 
BRANCH   6   7
ATOM      7  N   UNL     1      -2.314   0.054  -1.283  1.00  0.00    -0.304 N 
BRANCH   7   8
ATOM      8  C   UNL     1      -1.758  -0.037   0.065  1.00  0.00     0.211 C 
BRANCH   8   9
ATOM      9  C   UNL     1      -0.237  -0.037   0.065  1.00  0.00    -0.085 C 
ATOM     10  C   UNL     1       1.066  -0.037   0.065  1.00  0.00     0.006 C 
ENDBRANCH   8   9
ENDBRANCH   7   8
BRANCH   7  11
ATOM     11  C   UNL     1      -2.026   1.195  -1.971  1.00  0.00     0.318 C 
ATOM     12  O   UNL     1      -1.469   2.154  -1.426  1.00  0.00    -0.249 OA
ATOM     13  N   UNL     1      -2.291   1.394  -3.267  1.00  0.00    -0.338 N 
ATOM     14  H   UNL     1      -1.904   2.248  -3.567  1.00  0.00     0.165 HD
BRANCH  13  15
ATOM     15  C   UNL     1      -2.975   0.738  -4.368  1.00  0.00     0.120 C 
BRANCH  15  16
ATOM     16  C   UNL     1      -4.348   1.351  -4.639  1.00  0.00     0.053 C 
BRANCH  16  17
ATOM     17  C   UNL     1      -4.298   2.644  -5.455  1.00  0.00     0.120 C 
ATOM     18  C   UNL     1      -3.657   3.836  -4.762  1.00  0.00     0.034 C 
ATOM     19  O   UNL     1      -5.642   3.052  -5.779  1.00  0.00    -0.378 OA
ATOM     20  C   UNL     1      -4.322   4.993  -5.462  1.00  0.00     0.031 C 
ATOM     21  C   UNL     1      -5.732   4.479  -5.645  1.00  0.00     0.160 C 
ENDBRANCH  16  17
ENDBRANCH  15  16
ENDBRANCH  13  15
ENDBRANCH   7  11
ENDBRANCH   6   7
ENDBRANCH   3   6
ENDBRANCH   1   2
BRANCH   1  22
ATOM     22  C   UNL     1      -4.902   1.391   0.714  1.00  0.00     0.042 C 
BRANCH  22  23
ATOM     23  C   UNL     1      -6.145   2.258   0.552  1.00  0.00     0.118 C 
BRANCH  23  24
ATOM     24  N   UNL     1      -7.271   1.777   1.341  1.00  0.00    -0.352 N 
ATOM     25  C   UNL     1      -7.942   2.344   2.395  1.00  0.00     0.251 C 
ATOM     26  H   UNL     1      -7.610   0.893   1.071  1.00  0.00     0.163 HD
ATOM     27  O   UNL     1      -8.720   1.645   3.042  1.00  0.00    -0.269 OA
BRANCH  25  28
ATOM     28  C   UNL     1      -7.750   3.766   2.761  1.00  0.00     0.039 A 
ATOM     29  C   UNL     1      -7.796   4.123   4.113  1.00  0.00     0.014 A 
ATOM     30  C   UNL     1      -7.604   4.758   1.789  1.00  0.00     0.014 A 
ATOM     31  C   UNL     1      -7.655   5.462   4.489  1.00  0.00     0.010 A 
ATOM     32  C   UNL     1      -7.381   6.080   2.168  1.00  0.00     0.010 A 
ATOM     33  C   UNL     1      -7.425   6.451   3.520  1.00  0.00    -0.014 A 
BRANCH  33  34
ATOM     34  C   UNL     1      -7.249   7.877   3.898  1.00  0.00     0.031 A 
ATOM     35  C   UNL     1      -8.230   8.917   3.421  1.00  0.00     0.074 A 
ATOM     36  C   UNL     1      -6.165   8.250   4.607  1.00  0.00     0.049 A 
ATOM     37  N   UNL     1      -8.215  10.212   3.605  1.00  0.00    -0.248 NA
ATOM     38  C   UNL     1      -9.361   8.444   2.605  1.00  0.00     0.031 C 
ATOM     39  C   UNL     1      -5.101   7.351   5.059  1.00  0.00     0.029 A 
ATOM     40  N   UNL     1      -5.765   9.486   5.049  1.00  0.00    -0.354 N 
ATOM     41  C   UNL     1      -9.303  10.711   2.899  1.00  0.00     0.074 A 
ATOM     42  C   UNL     1      -9.939   9.584   2.254  1.00  0.00     0.031 C 
ATOM     43  C   UNL     1      -4.173   8.065   5.718  1.00  0.00     0.029 A 
ATOM     44  C   UNL     1      -4.561   9.472   5.713  1.00  0.00     0.049 A 
ATOM     45  H   UNL     1      -6.291  10.306   4.904  1.00  0.00     0.167 HD
ATOM     46  C   UNL     1      -9.755  11.986   2.821  1.00  0.00     0.034 A 
ATOM     47  C   UNL     1      -3.849  10.479   6.256  1.00  0.00     0.034 A 
ATOM     48  C   UNL     1      -9.153  13.096   3.509  1.00  0.00     0.049 A 
ATOM     49  C   UNL     1      -4.402  11.877   6.201  1.00  0.00     0.074 A 
ATOM     50  C   UNL     1      -9.588  14.408   3.570  1.00  0.00     0.029 A 
ATOM     51  N   UNL     1      -7.986  13.026   4.253  1.00  0.00    -0.354 N 
ATOM     52  N   UNL     1      -5.522  12.302   5.668  1.00  0.00    -0.248 NA
ATOM     53  C   UNL     1      -3.613  12.929   6.859  1.00  0.00     0.031 C 
ATOM     54  C   UNL     1      -8.673  15.136   4.339  1.00  0.00     0.029 A 
ATOM     55  C   UNL     1      -7.681  14.272   4.774  1.00  0.00     0.049 A 
ATOM     56  H   UNL     1      -7.453  12.210   4.392  1.00  0.00     0.167 HD
ATOM     57  C   UNL     1      -5.589  13.661   5.954  1.00  0.00     0.074 A 
ATOM     58  C   UNL     1      -4.409  13.982   6.730  1.00  0.00     0.031 C 
ATOM     59  C   UNL     1      -6.532  14.566   5.591  1.00  0.00     0.034 A 
BRANCH  46  60
ATOM     60  C   UNL     1     -11.000  12.239   2.010  1.00  0.00     0.023 A 
ATOM     61  C   UNL     1     -12.246  11.793   2.495  1.00  0.00     0.012 A 
ATOM     62  C   UNL     1     -10.949  12.964   0.802  1.00  0.00     0.148 A 
ATOM     63  C   UNL     1     -13.417  12.030   1.776  1.00  0.00     0.002 A 
ATOM     64  C   UNL     1     -12.126  13.235   0.113  1.00  0.00     0.091 A 
ATOM     65  F   UNL     1      -9.754  13.364   0.345  1.00  0.00    -0.205 F 
ATOM     66  C   UNL     1     -13.358  12.759   0.592  1.00  0.00     0.022 A 
BRANCH  64  67
ATOM     67  S   UNL     1     -12.168  14.232  -1.381  1.00  0.00     0.127 S 
ATOM     68  O   UNL     1     -12.464  13.226  -2.399  1.00  0.00    -0.237 OA
ATOM     69  O   UNL     1     -13.266  15.159  -1.103  1.00  0.00    -0.237 OA
ATOM     70  O   UNL     1     -10.857  14.858  -1.483  1.00  0.00    -0.744 OA
ENDBRANCH  64  67
ENDBRANCH  46  60
BRANCH  47  71
ATOM     71  C   UNL     1      -2.571  10.190   6.966  1.00  0.00     0.023 A 
ATOM     72  C   UNL     1      -2.518  10.319   8.368  1.00  0.00     0.012 A 
ATOM     73  C   UNL     1      -1.421   9.767   6.272  1.00  0.00     0.148 A 
ATOM     74  C   UNL     1      -1.335  10.068   9.063  1.00  0.00     0.002 A 
ATOM     75  C   UNL     1      -0.260   9.466   6.976  1.00  0.00     0.091 A 
ATOM     76  F   UNL     1      -1.487   9.661   4.938  1.00  0.00    -0.205 F 
ATOM     77  C   UNL     1      -0.210   9.632   8.369  1.00  0.00     0.022 A 
BRANCH  75  78
ATOM     78  S   UNL     1       1.195   8.776   6.180  1.00  0.00     0.127 S 
ATOM     79  O   UNL     1       2.122   9.906   6.221  1.00  0.00    -0.237 OA
ATOM     80  O   UNL     1       1.535   7.669   7.077  1.00  0.00    -0.237 OA
ATOM     81  O   UNL     1       0.758   8.361   4.857  1.00  0.00    -0.744 OA
ENDBRANCH  75  78
ENDBRANCH  47  71
BRANCH  59  82
ATOM     82  C   UNL     1      -6.347  15.988   6.053  1.00  0.00     0.023 A 
ATOM     83  C   UNL     1      -5.347  16.789   5.467  1.00  0.00     0.012 A 
ATOM     84  C   UNL     1      -7.206  16.549   7.018  1.00  0.00     0.148 A 
ATOM     85  C   UNL     1      -5.181  18.116   5.860  1.00  0.00     0.002 A 
ATOM     86  C   UNL     1      -7.066  17.887   7.369  1.00  0.00     0.091 A 
ATOM     87  F   UNL     1      -8.139  15.767   7.579  1.00  0.00    -0.205 F 
ATOM     88  C   UNL     1      -6.047  18.668   6.801  1.00  0.00     0.022 A 
BRANCH  86  89
ATOM     89  S   UNL     1      -8.198  18.705   8.500  1.00  0.00     0.127 S 
ATOM     90  O   UNL     1      -7.386  18.808   9.711  1.00  0.00    -0.237 OA
ATOM     91  O   UNL     1      -8.448  19.979   7.824  1.00  0.00    -0.237 OA
ATOM     92  O   UNL     1      -9.363  17.837   8.596  1.00  0.00    -0.744 OA
ENDBRANCH  86  89
ENDBRANCH  59  82
ENDBRANCH  33  34
ENDBRANCH  25  28
ENDBRANCH  23  24
ENDBRANCH  22  23
ENDBRANCH   1  22
TORSDOF 20
