REMARK SMILES Cc1ccc(C(=O)NCCCNC(=O)c2ccc(-c3c4nc(c(-c5cccc(S(=O)(=O)[O-])c5F)c5ccc([nH]5)c(-c5cccc(S(=O)(=O)[O-])c5F)c5nc(c(-c6cccc(S(=O)(=O)[O-])c6F)c6ccc3[nH]6)C=C5)C=C4)cc2)c(NC(=O)CN2C(=O)/C(=C/c3ccccc3C)SC2=S)c1
REMARK SMILES IDX 9 1 8 2 6 3 7 4 5 6 1 7 2 8 3 9 98 10 4 11 78 12 79 13 80 14
REMARK SMILES IDX 81 16 82 17 83 18 84 19 96 20 85 21 86 22 95 23 97 24 87 25
REMARK SMILES IDX 88 26 89 27 93 28 90 29 92 30 94 31 91 32 10 33 11 34 12 35
REMARK SMILES IDX 13 36 14 38 15 39 16 40 77 41 17 42 76 43 18 44 19 45 20 46
REMARK SMILES IDX 70 47 21 48 75 49 69 50 71 51 22 52 74 53 68 54 67 55 23 57
REMARK SMILES IDX 55 58 35 59 54 60 36 61 39 62 53 63 72 64 37 65 38 66 52 68
REMARK SMILES IDX 73 69 40 70 24 71 25 72 33 73 26 74 28 75 34 76 27 77 29 78
REMARK SMILES IDX 30 79 31 80 32 81 56 82 57 83 65 84 58 85 60 86 66 87 59 88
REMARK SMILES IDX 61 89 62 90 63 91 64 92 41 93 42 94 50 95 43 96 45 97 51 98
REMARK SMILES IDX 44 99 46 100 47 101 48 102 49 103
REMARK H PARENT 8 5 79 15 12 37 71 56 39 67
REMARK Flexibility Score: inf
ROOT
ATOM      1  C   UNL     1      -1.421   2.824  -1.133  1.00  0.00     0.118 C 
ENDROOT
BRANCH   1   2
ATOM      2  N   UNL     1      -1.928   1.572  -1.696  1.00  0.00    -0.352 N 
ATOM      3  C   UNL     1      -1.692   0.243  -1.405  1.00  0.00     0.253 C 
ATOM      4  O   UNL     1      -1.921  -0.625  -2.242  1.00  0.00    -0.269 OA
ATOM      5  H   UNL     1      -2.568   1.704  -2.432  1.00  0.00     0.163 HD
BRANCH   3   6
ATOM      6  C   UNL     1      -1.120  -0.257  -0.152  1.00  0.00     0.063 A 
ATOM      7  C   UNL     1       2.827   0.525   0.796  1.00  0.00     0.044 C 
ATOM      8  C   UNL     1       1.392   0.085   0.774  1.00  0.00    -0.049 A 
ATOM      9  C   UNL     1       1.094  -1.105   0.113  1.00  0.00     0.004 A 
ATOM     10  C   UNL     1       0.331   0.859   1.299  1.00  0.00     0.030 A 
ATOM     11  C   UNL     1      -0.192  -1.287  -0.349  1.00  0.00     0.016 A 
ATOM     12  C   UNL     1      -0.994   0.598   0.904  1.00  0.00     0.054 A 
BRANCH  12  13
ATOM     13  N   UNL     1      -2.075   1.304   1.457  1.00  0.00    -0.324 N 
ATOM     14  C   UNL     1      -3.423   1.391   1.289  1.00  0.00     0.244 C 
ATOM     15  H   UNL     1      -1.770   1.910   2.171  1.00  0.00     0.170 HD
ATOM     16  O   UNL     1      -3.883   2.272   2.050  1.00  0.00    -0.273 OA
BRANCH  14  17
ATOM     17  C   UNL     1      -4.512   0.529   0.536  1.00  0.00     0.227 C 
BRANCH  17  18
ATOM     18  N   UNL     1      -4.585  -0.335  -0.663  1.00  0.00    -0.283 N 
ATOM     19  C   UNL     1      -4.611   0.244  -1.935  1.00  0.00     0.266 C 
ATOM     20  C   UNL     1      -4.983  -1.661  -0.656  1.00  0.00     0.148 C 
ATOM     21  O   UNL     1      -4.588   1.421  -2.193  1.00  0.00    -0.268 OA
ATOM     22  C   UNL     1      -4.557  -0.841  -2.982  1.00  0.00     0.081 C 
ATOM     23  S   UNL     1      -5.142  -2.293  -2.306  1.00  0.00    -0.054 SA
ATOM     24  S   UNL     1      -5.307  -2.642   0.659  1.00  0.00    -0.052 S 
ATOM     25  C   UNL     1      -3.839  -0.633  -4.099  1.00  0.00     0.029 C 
BRANCH  25  26
ATOM     26  C   UNL     1      -3.279  -1.543  -5.130  1.00  0.00    -0.021 A 
ATOM     27  C   UNL     1      -2.703  -2.780  -4.785  1.00  0.00     0.008 A 
ATOM     28  C   UNL     1      -3.139  -1.097  -6.463  1.00  0.00    -0.044 A 
ATOM     29  C   UNL     1      -2.098  -3.599  -5.749  1.00  0.00     0.001 A 
ATOM     30  C   UNL     1      -2.563  -1.947  -7.428  1.00  0.00     0.004 A 
ATOM     31  C   UNL     1      -3.617   0.255  -6.928  1.00  0.00     0.045 C 
ATOM     32  C   UNL     1      -2.050  -3.192  -7.076  1.00  0.00     0.000 A 
ENDBRANCH  25  26
ENDBRANCH  17  18
ENDBRANCH  14  17
ENDBRANCH  12  13
ENDBRANCH   3   6
ENDBRANCH   1   2
BRANCH   1  33
ATOM     33  C   UNL     1      -1.902   4.073  -1.868  1.00  0.00     0.042 C 
BRANCH  33  34
ATOM     34  C   UNL     1      -3.409   4.305  -1.730  1.00  0.00     0.118 C 
BRANCH  34  35
ATOM     35  N   UNL     1      -3.749   5.704  -1.480  1.00  0.00    -0.352 N 
ATOM     36  C   UNL     1      -4.881   6.451  -1.757  1.00  0.00     0.251 C 
ATOM     37  H   UNL     1      -3.037   6.212  -1.028  1.00  0.00     0.163 HD
ATOM     38  O   UNL     1      -4.881   7.632  -1.416  1.00  0.00    -0.269 OA
BRANCH  36  39
ATOM     39  C   UNL     1      -6.104   5.830  -2.327  1.00  0.00     0.039 A 
ATOM     40  C   UNL     1      -7.361   6.273  -1.888  1.00  0.00     0.014 A 
ATOM     41  C   UNL     1      -6.037   4.726  -3.163  1.00  0.00     0.014 A 
ATOM     42  C   UNL     1      -8.482   5.460  -2.057  1.00  0.00     0.010 A 
ATOM     43  C   UNL     1      -7.098   3.858  -3.223  1.00  0.00     0.010 A 
ATOM     44  C   UNL     1      -8.301   4.199  -2.613  1.00  0.00    -0.014 A 
BRANCH  44  45
ATOM     45  C   UNL     1      -9.304   3.154  -2.678  1.00  0.00     0.031 A 
ATOM     46  C   UNL     1     -10.318   3.207  -3.735  1.00  0.00     0.074 A 
ATOM     47  C   UNL     1      -9.128   2.068  -1.895  1.00  0.00     0.049 A 
ATOM     48  N   UNL     1     -11.456   2.613  -3.683  1.00  0.00    -0.248 NA
ATOM     49  C   UNL     1     -10.110   3.978  -4.953  1.00  0.00     0.031 C 
ATOM     50  C   UNL     1      -9.756   0.760  -1.996  1.00  0.00     0.029 A 
ATOM     51  N   UNL     1      -8.432   2.016  -0.683  1.00  0.00    -0.354 N 
ATOM     52  C   UNL     1     -12.001   2.675  -4.951  1.00  0.00     0.074 A 
ATOM     53  C   UNL     1     -11.185   3.628  -5.663  1.00  0.00     0.031 C 
ATOM     54  C   UNL     1      -9.668   0.151  -0.799  1.00  0.00     0.029 A 
ATOM     55  C   UNL     1      -9.156   1.140   0.140  1.00  0.00     0.049 A 
ATOM     56  H   UNL     1      -7.604   2.496  -0.454  1.00  0.00     0.167 HD
ATOM     57  C   UNL     1     -12.961   1.770  -5.295  1.00  0.00     0.034 A 
ATOM     58  C   UNL     1      -9.780   1.553   1.287  1.00  0.00     0.034 A 
ATOM     59  C   UNL     1     -13.277   0.907  -4.141  1.00  0.00     0.049 A 
ATOM     60  C   UNL     1     -11.281   1.320   1.241  1.00  0.00     0.074 A 
ATOM     61  C   UNL     1     -12.816  -0.347  -3.772  1.00  0.00     0.029 A 
ATOM     62  N   UNL     1     -13.891   1.446  -3.014  1.00  0.00    -0.354 N 
ATOM     63  N   UNL     1     -11.942   1.003   0.162  1.00  0.00    -0.248 NA
ATOM     64  C   UNL     1     -12.155   1.470   2.401  1.00  0.00     0.031 C 
ATOM     65  C   UNL     1     -13.067  -0.515  -2.383  1.00  0.00     0.029 A 
ATOM     66  C   UNL     1     -13.716   0.616  -1.913  1.00  0.00     0.049 A 
ATOM     67  H   UNL     1     -14.382   2.299  -2.998  1.00  0.00     0.167 HD
ATOM     68  C   UNL     1     -13.287   1.058   0.410  1.00  0.00     0.074 A 
ATOM     69  C   UNL     1     -13.363   1.262   1.848  1.00  0.00     0.031 C 
ATOM     70  C   UNL     1     -14.217   1.005  -0.596  1.00  0.00     0.034 A 
BRANCH  57  71
ATOM     71  C   UNL     1     -13.355   1.409  -6.725  1.00  0.00     0.023 A 
ATOM     72  C   UNL     1     -13.955   0.143  -6.922  1.00  0.00     0.012 A 
ATOM     73  C   UNL     1     -13.136   2.169  -7.900  1.00  0.00     0.148 A 
ATOM     74  C   UNL     1     -14.221  -0.383  -8.192  1.00  0.00     0.002 A 
ATOM     75  C   UNL     1     -13.347   1.624  -9.174  1.00  0.00     0.091 A 
ATOM     76  F   UNL     1     -12.803   3.457  -7.809  1.00  0.00    -0.205 F 
ATOM     77  C   UNL     1     -13.884   0.344  -9.322  1.00  0.00     0.022 A 
BRANCH  75  78
ATOM     78  S   UNL     1     -12.892   2.484 -10.694  1.00  0.00     0.127 S 
ATOM     79  O   UNL     1     -12.053   1.492 -11.371  1.00  0.00    -0.237 OA
ATOM     80  O   UNL     1     -14.190   2.712 -11.326  1.00  0.00    -0.237 OA
ATOM     81  O   UNL     1     -12.176   3.687 -10.284  1.00  0.00    -0.744 OA
ENDBRANCH  75  78
ENDBRANCH  57  71
BRANCH  58  82
ATOM     82  C   UNL     1      -9.133   2.754   1.915  1.00  0.00     0.023 A 
ATOM     83  C   UNL     1      -7.757   2.645   2.232  1.00  0.00     0.012 A 
ATOM     84  C   UNL     1      -9.688   4.037   1.770  1.00  0.00     0.148 A 
ATOM     85  C   UNL     1      -6.922   3.762   2.151  1.00  0.00     0.002 A 
ATOM     86  C   UNL     1      -8.849   5.150   1.729  1.00  0.00     0.091 A 
ATOM     87  F   UNL     1     -11.011   4.159   1.602  1.00  0.00    -0.205 F 
ATOM     88  C   UNL     1      -7.460   5.005   1.842  1.00  0.00     0.022 A 
BRANCH  86  89
ATOM     89  S   UNL     1      -9.528   6.788   1.446  1.00  0.00     0.127 S 
ATOM     90  O   UNL     1      -9.986   7.151   2.783  1.00  0.00    -0.237 OA
ATOM     91  O   UNL     1      -8.373   7.550   0.973  1.00  0.00    -0.237 OA
ATOM     92  O   UNL     1     -10.557   6.577   0.438  1.00  0.00    -0.744 OA
ENDBRANCH  86  89
ENDBRANCH  58  82
BRANCH  70  93
ATOM     93  C   UNL     1     -15.694   1.314  -0.422  1.00  0.00     0.023 A 
ATOM     94  C   UNL     1     -16.179   2.090   0.649  1.00  0.00     0.012 A 
ATOM     95  C   UNL     1     -16.640   0.942  -1.412  1.00  0.00     0.148 A 
ATOM     96  C   UNL     1     -17.537   2.396   0.792  1.00  0.00     0.002 A 
ATOM     97  C   UNL     1     -17.967   1.358  -1.332  1.00  0.00     0.091 A 
ATOM     98  F   UNL     1     -16.267   0.158  -2.434  1.00  0.00    -0.205 F 
ATOM     99  C   UNL     1     -18.429   2.046  -0.209  1.00  0.00     0.022 A 
BRANCH  97 100
ATOM    100  S   UNL     1     -19.088   1.170  -2.725  1.00  0.00     0.127 S 
ATOM    101  O   UNL     1     -19.791  -0.065  -2.385  1.00  0.00    -0.237 OA
ATOM    102  O   UNL     1     -19.907   2.381  -2.634  1.00  0.00    -0.237 OA
ATOM    103  O   UNL     1     -18.231   1.120  -3.902  1.00  0.00    -0.744 OA
ENDBRANCH  97 100
ENDBRANCH  70  93
ENDBRANCH  44  45
ENDBRANCH  36  39
ENDBRANCH  34  35
ENDBRANCH  33  34
ENDBRANCH   1  33
TORSDOF 17
