REMARK SMILES N#Cc1cnc2cc(C(=O)NCCCNC(=O)c3ccc(-c4c5nc(c(-c6cccc(S(=O)(=O)[O-])c6F)c6ccc([nH]6)c(-c6cccc(S(=O)(=O)[O-])c6F)c6nc(c(-c7cccc(S(=O)(=O)[O-])c7F)c7ccc4[nH]7)C=C6)C=C5)cc3)[nH]c2c1
REMARK SMILES IDX 14 1 13 2 12 3 11 4 9 5 10 6 8 8 3 9 4 10 83 11 5 12 82 13
REMARK SMILES IDX 6 14 81 15 7 16 2 18 1 19 15 20 16 21 17 23 18 24 19 25
REMARK SMILES IDX 80 26 20 27 79 28 21 29 22 30 23 31 73 32 24 33 78 34 72 35
REMARK SMILES IDX 74 36 25 37 77 38 71 39 70 40 26 42 58 43 38 44 57 45 39 46
REMARK SMILES IDX 42 47 56 48 75 49 40 50 41 51 55 53 76 54 43 55 27 56 28 57
REMARK SMILES IDX 36 58 29 59 31 60 37 61 30 62 32 63 33 64 34 65 35 66 59 67
REMARK SMILES IDX 60 68 68 69 61 70 63 71 69 72 62 73 64 74 65 75 66 76 67 77
REMARK SMILES IDX 44 78 45 79 53 80 46 81 48 82 54 83 47 84 49 85 50 86 51 87
REMARK SMILES IDX 52 88
REMARK H PARENT 11 7 81 17 15 22 74 41 42 52
REMARK Flexibility Score: inf
ROOT
ATOM      1  C   UNL     1      12.163  -0.243  -2.703  1.00  0.00     0.118 C 
ENDROOT
BRANCH   1   2
ATOM      2  C   UNL     1      10.920  -0.499  -1.867  1.00  0.00     0.042 C 
BRANCH   2   3
ATOM      3  C   UNL     1      10.947   0.344  -0.588  1.00  0.00     0.118 C 
BRANCH   3   4
ATOM      4  N   UNL     1      10.457   1.697  -0.780  1.00  0.00    -0.351 N 
ATOM      5  C   UNL     1       9.232   2.264  -0.561  1.00  0.00     0.267 C 
ATOM      6  O   UNL     1       9.152   3.488  -0.660  1.00  0.00    -0.268 OA
ATOM      7  H   UNL     1      11.132   2.322  -1.133  1.00  0.00     0.163 HD
BRANCH   5   8
ATOM      8  C   UNL     1       8.059   1.476  -0.253  1.00  0.00     0.107 A 
ATOM      9  C   UNL     1       3.704   0.130   0.087  1.00  0.00     0.072 A 
ATOM     10  C   UNL     1       4.390  -1.077   0.163  1.00  0.00     0.131 A 
ATOM     11  C   UNL     1       4.422   1.326   0.016  1.00  0.00     0.049 A 
ATOM     12  N   UNL     1       5.733  -1.217   0.177  1.00  0.00    -0.253 NA
ATOM     13  C   UNL     1       5.812   1.191  -0.014  1.00  0.00     0.066 A 
ATOM     14  C   UNL     1       6.418  -0.056   0.061  1.00  0.00     0.089 A 
ATOM     15  N   UNL     1       6.826   2.107  -0.144  1.00  0.00    -0.349 N 
ATOM     16  C   UNL     1       7.809   0.129  -0.057  1.00  0.00     0.062 A 
ATOM     17  H   UNL     1       6.697   3.083  -0.158  1.00  0.00     0.167 HD
BRANCH   9  18
ATOM     18  C   UNL     1       2.269   0.123   0.070  1.00  0.00     0.101 C 
ATOM     19  N   UNL     1       1.119   0.094   0.066  1.00  0.00    -0.192 NA
ENDBRANCH   9  18
ENDBRANCH   5   8
ENDBRANCH   3   4
ENDBRANCH   2   3
ENDBRANCH   1   2
BRANCH   1  20
ATOM     20  N   UNL     1      13.394  -0.744  -2.069  1.00  0.00    -0.352 N 
ATOM     21  C   UNL     1      14.670  -0.845  -2.599  1.00  0.00     0.251 C 
ATOM     22  H   UNL     1      13.297  -1.049  -1.138  1.00  0.00     0.163 HD
ATOM     23  O   UNL     1      15.512  -1.552  -2.054  1.00  0.00    -0.269 OA
BRANCH  21  24
ATOM     24  C   UNL     1      15.002  -0.072  -3.812  1.00  0.00     0.039 A 
ATOM     25  C   UNL     1      15.896  -0.523  -4.783  1.00  0.00     0.014 A 
ATOM     26  C   UNL     1      14.350   1.144  -3.978  1.00  0.00     0.014 A 
ATOM     27  C   UNL     1      16.104   0.278  -5.906  1.00  0.00     0.010 A 
ATOM     28  C   UNL     1      14.304   1.735  -5.203  1.00  0.00     0.010 A 
ATOM     29  C   UNL     1      15.296   1.417  -6.100  1.00  0.00    -0.014 A 
BRANCH  29  30
ATOM     30  C   UNL     1      15.324   2.218  -7.312  1.00  0.00     0.031 A 
ATOM     31  C   UNL     1      15.054   1.380  -8.497  1.00  0.00     0.074 A 
ATOM     32  C   UNL     1      15.413   3.571  -7.343  1.00  0.00     0.049 A 
ATOM     33  N   UNL     1      15.957   0.858  -9.254  1.00  0.00    -0.248 NA
ATOM     34  C   UNL     1      13.710   0.820  -8.704  1.00  0.00     0.031 C 
ATOM     35  C   UNL     1      15.393   4.535  -6.232  1.00  0.00     0.029 A 
ATOM     36  N   UNL     1      15.480   4.396  -8.424  1.00  0.00    -0.354 N 
ATOM     37  C   UNL     1      15.260   0.172 -10.235  1.00  0.00     0.074 A 
ATOM     38  C   UNL     1      13.944  -0.042  -9.698  1.00  0.00     0.031 C 
ATOM     39  C   UNL     1      15.222   5.793  -6.713  1.00  0.00     0.029 A 
ATOM     40  C   UNL     1      15.287   5.755  -8.163  1.00  0.00     0.049 A 
ATOM     41  H   UNL     1      15.654   4.057  -9.332  1.00  0.00     0.167 HD
ATOM     42  C   UNL     1      15.753   0.143 -11.503  1.00  0.00     0.034 A 
ATOM     43  C   UNL     1      15.218   6.766  -9.075  1.00  0.00     0.034 A 
ATOM     44  C   UNL     1      17.126   0.610 -11.511  1.00  0.00     0.049 A 
ATOM     45  C   UNL     1      15.913   6.276 -10.287  1.00  0.00     0.074 A 
ATOM     46  C   UNL     1      18.305   0.204 -10.919  1.00  0.00     0.029 A 
ATOM     47  N   UNL     1      17.301   1.931 -11.850  1.00  0.00    -0.354 N 
ATOM     48  N   UNL     1      17.189   6.021 -10.317  1.00  0.00    -0.248 NA
ATOM     49  C   UNL     1      15.103   5.609 -11.290  1.00  0.00     0.031 C 
ATOM     50  C   UNL     1      18.963   1.412 -10.537  1.00  0.00     0.029 A 
ATOM     51  C   UNL     1      18.214   2.495 -11.002  1.00  0.00     0.049 A 
ATOM     52  H   UNL     1      16.842   2.397 -12.586  1.00  0.00     0.167 HD
ATOM     53  C   UNL     1      17.266   4.807 -10.985  1.00  0.00     0.074 A 
ATOM     54  C   UNL     1      15.964   4.649 -11.639  1.00  0.00     0.031 C 
ATOM     55  C   UNL     1      18.250   3.908 -10.688  1.00  0.00     0.034 A 
BRANCH  42  56
ATOM     56  C   UNL     1      14.923   0.149 -12.770  1.00  0.00     0.023 A 
ATOM     57  C   UNL     1      15.646   0.131 -13.986  1.00  0.00     0.012 A 
ATOM     58  C   UNL     1      13.542   0.438 -12.858  1.00  0.00     0.148 A 
ATOM     59  C   UNL     1      15.051   0.464 -15.206  1.00  0.00     0.002 A 
ATOM     60  C   UNL     1      12.938   0.704 -14.082  1.00  0.00     0.091 A 
ATOM     61  F   UNL     1      12.805   0.567 -11.755  1.00  0.00    -0.205 F 
ATOM     62  C   UNL     1      13.695   0.751 -15.254  1.00  0.00     0.022 A 
BRANCH  60  63
ATOM     63  S   UNL     1      11.176   1.043 -14.226  1.00  0.00     0.127 S 
ATOM     64  O   UNL     1      11.181   2.434 -14.670  1.00  0.00    -0.237 OA
ATOM     65  O   UNL     1      10.774   0.069 -15.241  1.00  0.00    -0.237 OA
ATOM     66  O   UNL     1      10.612   0.802 -12.905  1.00  0.00    -0.744 OA
ENDBRANCH  60  63
ENDBRANCH  42  56
BRANCH  43  67
ATOM     67  C   UNL     1      14.327   7.960  -9.162  1.00  0.00     0.023 A 
ATOM     68  C   UNL     1      14.601   8.974 -10.113  1.00  0.00     0.012 A 
ATOM     69  C   UNL     1      13.038   7.931  -8.593  1.00  0.00     0.148 A 
ATOM     70  C   UNL     1      13.613   9.885 -10.520  1.00  0.00     0.002 A 
ATOM     71  C   UNL     1      12.054   8.828  -9.012  1.00  0.00     0.091 A 
ATOM     72  F   UNL     1      12.752   6.964  -7.712  1.00  0.00    -0.205 F 
ATOM     73  C   UNL     1      12.334   9.799  -9.983  1.00  0.00     0.022 A 
BRANCH  71  74
ATOM     74  S   UNL     1      10.355   8.733  -8.427  1.00  0.00     0.127 S 
ATOM     75  O   UNL     1      10.120  10.101  -7.964  1.00  0.00    -0.237 OA
ATOM     76  O   UNL     1       9.636   8.367  -9.645  1.00  0.00    -0.237 OA
ATOM     77  O   UNL     1      10.353   7.729  -7.371  1.00  0.00    -0.744 OA
ENDBRANCH  71  74
ENDBRANCH  43  67
BRANCH  55  78
ATOM     78  C   UNL     1      19.393   4.366  -9.811  1.00  0.00     0.023 A 
ATOM     79  C   UNL     1      19.240   4.714  -8.451  1.00  0.00     0.012 A 
ATOM     80  C   UNL     1      20.689   4.252 -10.337  1.00  0.00     0.148 A 
ATOM     81  C   UNL     1      20.360   4.944  -7.640  1.00  0.00     0.002 A 
ATOM     82  C   UNL     1      21.796   4.426  -9.518  1.00  0.00     0.091 A 
ATOM     83  F   UNL     1      20.815   3.929 -11.633  1.00  0.00    -0.205 F 
ATOM     84  C   UNL     1      21.638   4.782  -8.170  1.00  0.00     0.022 A 
BRANCH  82  85
ATOM     85  S   UNL     1      23.455   4.088 -10.110  1.00  0.00     0.127 S 
ATOM     86  O   UNL     1      24.033   5.428 -10.179  1.00  0.00    -0.237 OA
ATOM     87  O   UNL     1      23.997   3.239  -9.048  1.00  0.00    -0.237 OA
ATOM     88  O   UNL     1      23.297   3.410 -11.391  1.00  0.00    -0.744 OA
ENDBRANCH  82  85
ENDBRANCH  55  78
ENDBRANCH  29  30
ENDBRANCH  21  24
ENDBRANCH   1  20
TORSDOF 14
