REMARK SMILES Cc1nn(C)c(C)c1C[C@@H](C)C(=O)N[C@@H](C(=O)NCCCNC(=O)c1ccc(-c2c3nc(c(-c4cccc(S(=O)(=O)[O-])c4F)c4ccc([nH]4)c(-c4cccc(S(=O)(=O)[O-])c4F)c4nc(c(-c5cccc(S(=O)(=O)[O-])c5F)c5ccc2[nH]5)C=C4)C=C3)cc1)c1ccccc1Cl
REMARK SMILES IDX 19 1 18 2 16 3 17 4 15 6 14 7 12 8 13 9 10 11 11 12 9 13
REMARK SMILES IDX 8 14 1 15 2 16 3 17 4 18 6 19 5 20 7 21 88 22 89 23 93 24
REMARK SMILES IDX 90 25 92 26 94 27 91 28 20 29 21 30 22 31 23 32 24 34 25 35
REMARK SMILES IDX 26 36 87 37 27 38 86 39 28 40 29 41 30 42 80 43 31 44 85 45
REMARK SMILES IDX 79 46 81 47 32 48 84 49 78 50 77 51 33 53 65 54 45 55 64 56
REMARK SMILES IDX 46 57 49 58 63 59 82 60 47 61 48 62 62 64 83 65 50 66 34 67
REMARK SMILES IDX 35 68 43 69 36 70 38 71 44 72 37 73 39 74 40 75 41 76 42 77
REMARK SMILES IDX 66 78 67 79 75 80 68 81 70 82 76 83 69 84 71 85 72 86 73 87
REMARK SMILES IDX 74 88 51 89 52 90 60 91 53 92 55 93 61 94 54 95 56 96 57 97
REMARK SMILES IDX 58 98 59 99
REMARK H PARENT 18 5 14 10 22 33 81 52 49 63
REMARK Flexibility Score: inf
ROOT
ATOM      1  C   UNL     1      -2.184   4.448  -1.515  1.00  0.00     0.117 C 
ENDROOT
BRANCH   1   2
ATOM      2  N   UNL     1      -1.385   5.338  -2.318  1.00  0.00    -0.354 N 
ATOM      3  C   UNL     1      -0.064   5.669  -2.164  1.00  0.00     0.247 C 
ATOM      4  O   UNL     1       0.504   6.090  -3.179  1.00  0.00    -0.272 OA
ATOM      5  H   UNL     1      -1.848   5.764  -3.075  1.00  0.00     0.163 HD
BRANCH   3   6
ATOM      6  C   UNL     1       0.734   5.341  -0.843  1.00  0.00     0.203 C 
BRANCH   6   7
ATOM      7  N   UNL     1      -0.008   5.529   0.409  1.00  0.00    -0.340 N 
ATOM      8  C   UNL     1      -0.367   4.708   1.432  1.00  0.00     0.224 C 
ATOM      9  O   UNL     1      -1.078   5.205   2.310  1.00  0.00    -0.275 OA
ATOM     10  H   UNL     1      -0.315   6.456   0.537  1.00  0.00     0.164 HD
BRANCH   8  11
ATOM     11  C   UNL     1       0.064   3.238   1.557  1.00  0.00     0.080 C 
ATOM     12  C   UNL     1       1.549   3.183   1.874  1.00  0.00     0.018 C 
BRANCH  11  13
ATOM     13  C   UNL     1      -0.455   2.375   0.399  1.00  0.00     0.052 C 
BRANCH  13  14
ATOM     14  C   UNL     1      -0.156   0.914   0.360  1.00  0.00    -0.003 A 
ATOM     15  C   UNL     1      -2.591  -0.112   0.331  1.00  0.00     0.069 C 
ATOM     16  C   UNL     1      -1.102  -0.157   0.343  1.00  0.00     0.063 A 
ATOM     17  N   UNL     1      -0.497  -1.344   0.233  1.00  0.00    -0.178 NA
ATOM     18  N   UNL     1       0.804  -1.046   0.116  1.00  0.00    -0.272 N 
ATOM     19  C   UNL     1       1.053   0.299   0.070  1.00  0.00     0.038 A 
ATOM     20  C   UNL     1       1.740  -2.134  -0.030  1.00  0.00     0.174 C 
ATOM     21  C   UNL     1       2.377   0.864  -0.292  1.00  0.00     0.066 C 
ENDBRANCH  13  14
ENDBRANCH  11  13
ENDBRANCH   8  11
ENDBRANCH   6   7
BRANCH   6  22
ATOM     22  C   UNL     1       2.049   6.112  -0.794  1.00  0.00     0.002 A 
ATOM     23  C   UNL     1       3.260   5.391  -0.845  1.00  0.00     0.008 A 
ATOM     24  C   UNL     1       2.116   7.514  -0.739  1.00  0.00     0.046 A 
ATOM     25  C   UNL     1       4.492   6.045  -0.829  1.00  0.00     0.000 A 
ATOM     26  C   UNL     1       3.354   8.167  -0.736  1.00  0.00     0.021 A 
ATOM     27  Cl  UNL     1       0.699   8.502  -0.671  1.00  0.00    -0.084 Cl
ATOM     28  C   UNL     1       4.539   7.434  -0.777  1.00  0.00     0.002 A 
ENDBRANCH   6  22
ENDBRANCH   3   6
ENDBRANCH   1   2
BRANCH   1  29
ATOM     29  C   UNL     1      -3.507   5.005  -1.045  1.00  0.00     0.042 C 
BRANCH  29  30
ATOM     30  C   UNL     1      -4.564   5.042  -2.130  1.00  0.00     0.118 C 
BRANCH  30  31
ATOM     31  N   UNL     1      -4.921   3.714  -2.625  1.00  0.00    -0.352 N 
ATOM     32  C   UNL     1      -6.128   3.057  -2.622  1.00  0.00     0.251 C 
ATOM     33  H   UNL     1      -4.177   3.209  -3.026  1.00  0.00     0.163 HD
ATOM     34  O   UNL     1      -6.171   1.874  -2.954  1.00  0.00    -0.269 OA
BRANCH  32  35
ATOM     35  C   UNL     1      -7.361   3.756  -2.197  1.00  0.00     0.039 A 
ATOM     36  C   UNL     1      -8.303   3.070  -1.427  1.00  0.00     0.014 A 
ATOM     37  C   UNL     1      -7.583   5.089  -2.542  1.00  0.00     0.014 A 
ATOM     38  C   UNL     1      -9.420   3.750  -0.933  1.00  0.00     0.010 A 
ATOM     39  C   UNL     1      -8.624   5.793  -1.950  1.00  0.00     0.010 A 
ATOM     40  C   UNL     1      -9.563   5.130  -1.149  1.00  0.00    -0.014 A 
BRANCH  40  41
ATOM     41  C   UNL     1     -10.680   5.904  -0.550  1.00  0.00     0.031 A 
ATOM     42  C   UNL     1     -11.636   6.662  -1.435  1.00  0.00     0.074 A 
ATOM     43  C   UNL     1     -10.776   6.003   0.792  1.00  0.00     0.049 A 
ATOM     44  N   UNL     1     -12.626   7.447  -1.096  1.00  0.00    -0.248 NA
ATOM     45  C   UNL     1     -11.432   6.556  -2.891  1.00  0.00     0.031 C 
ATOM     46  C   UNL     1      -9.853   5.399   1.757  1.00  0.00     0.029 A 
ATOM     47  N   UNL     1     -11.681   6.672   1.578  1.00  0.00    -0.354 N 
ATOM     48  C   UNL     1     -13.133   7.954  -2.287  1.00  0.00     0.074 A 
ATOM     49  C   UNL     1     -12.315   7.428  -3.355  1.00  0.00     0.031 C 
ATOM     50  C   UNL     1     -10.248   5.712   3.001  1.00  0.00     0.029 A 
ATOM     51  C   UNL     1     -11.430   6.562   2.926  1.00  0.00     0.049 A 
ATOM     52  H   UNL     1     -12.439   7.182   1.211  1.00  0.00     0.167 HD
ATOM     53  C   UNL     1     -14.208   8.755  -2.479  1.00  0.00     0.034 A 
ATOM     54  C   UNL     1     -12.079   7.090   3.982  1.00  0.00     0.034 A 
ATOM     55  C   UNL     1     -15.056   9.226  -1.420  1.00  0.00     0.049 A 
ATOM     56  C   UNL     1     -13.307   7.926   3.737  1.00  0.00     0.074 A 
ATOM     57  C   UNL     1     -16.224   9.963  -1.516  1.00  0.00     0.029 A 
ATOM     58  N   UNL     1     -14.830   9.007  -0.070  1.00  0.00    -0.354 N 
ATOM     59  N   UNL     1     -13.868   8.255   2.599  1.00  0.00    -0.248 NA
ATOM     60  C   UNL     1     -14.014   8.430   4.923  1.00  0.00     0.031 C 
ATOM     61  C   UNL     1     -16.695  10.202  -0.221  1.00  0.00     0.029 A 
ATOM     62  C   UNL     1     -15.834   9.596   0.679  1.00  0.00     0.049 A 
ATOM     63  H   UNL     1     -14.068   8.506   0.301  1.00  0.00     0.167 HD
ATOM     64  C   UNL     1     -15.010   8.973   2.932  1.00  0.00     0.074 A 
ATOM     65  C   UNL     1     -15.076   9.007   4.378  1.00  0.00     0.031 C 
ATOM     66  C   UNL     1     -15.914   9.570   2.116  1.00  0.00     0.034 A 
BRANCH  53  67
ATOM     67  C   UNL     1     -14.575   9.110  -3.897  1.00  0.00     0.023 A 
ATOM     68  C   UNL     1     -15.117   8.119  -4.741  1.00  0.00     0.012 A 
ATOM     69  C   UNL     1     -14.449  10.430  -4.373  1.00  0.00     0.148 A 
ATOM     70  C   UNL     1     -15.500   8.426  -6.045  1.00  0.00     0.002 A 
ATOM     71  C   UNL     1     -14.875  10.739  -5.660  1.00  0.00     0.091 A 
ATOM     72  F   UNL     1     -13.912  11.354  -3.564  1.00  0.00    -0.205 F 
ATOM     73  C   UNL     1     -15.390   9.737  -6.500  1.00  0.00     0.022 A 
BRANCH  71  74
ATOM     74  S   UNL     1     -14.851  12.410  -6.318  1.00  0.00     0.127 S 
ATOM     75  O   UNL     1     -13.820  12.306  -7.350  1.00  0.00    -0.237 OA
ATOM     76  O   UNL     1     -16.214  12.557  -6.831  1.00  0.00    -0.237 OA
ATOM     77  O   UNL     1     -14.524  13.280  -5.197  1.00  0.00    -0.744 OA
ENDBRANCH  71  74
ENDBRANCH  53  67
BRANCH  54  78
ATOM     78  C   UNL     1     -11.628   6.787   5.371  1.00  0.00     0.023 A 
ATOM     79  C   UNL     1     -12.428   5.968   6.193  1.00  0.00     0.012 A 
ATOM     80  C   UNL     1     -10.416   7.292   5.878  1.00  0.00     0.148 A 
ATOM     81  C   UNL     1     -12.050   5.692   7.507  1.00  0.00     0.002 A 
ATOM     82  C   UNL     1     -10.018   6.967   7.171  1.00  0.00     0.091 A 
ATOM     83  F   UNL     1      -9.674   8.079   5.088  1.00  0.00    -0.205 F 
ATOM     84  C   UNL     1     -10.842   6.184   7.993  1.00  0.00     0.022 A 
BRANCH  82  85
ATOM     85  S   UNL     1      -8.420   7.452   7.832  1.00  0.00     0.127 S 
ATOM     86  O   UNL     1      -8.789   8.524   8.752  1.00  0.00    -0.237 OA
ATOM     87  O   UNL     1      -7.969   6.217   8.475  1.00  0.00    -0.237 OA
ATOM     88  O   UNL     1      -7.627   7.848   6.676  1.00  0.00    -0.744 OA
ENDBRANCH  82  85
ENDBRANCH  54  78
BRANCH  66  89
ATOM     89  C   UNL     1     -17.073  10.281   2.763  1.00  0.00     0.023 A 
ATOM     90  C   UNL     1     -16.859  11.503   3.430  1.00  0.00     0.012 A 
ATOM     91  C   UNL     1     -18.381   9.771   2.652  1.00  0.00     0.148 A 
ATOM     92  C   UNL     1     -17.925  12.189   4.009  1.00  0.00     0.002 A 
ATOM     93  C   UNL     1     -19.445  10.486   3.188  1.00  0.00     0.091 A 
ATOM     94  F   UNL     1     -18.562   8.598   2.029  1.00  0.00    -0.205 F 
ATOM     95  C   UNL     1     -19.218  11.688   3.878  1.00  0.00     0.022 A 
BRANCH  93  96
ATOM     96  S   UNL     1     -21.152   9.966   2.982  1.00  0.00     0.127 S 
ATOM     97  O   UNL     1     -21.476   9.470   4.319  1.00  0.00    -0.237 OA
ATOM     98  O   UNL     1     -21.818  11.218   2.618  1.00  0.00    -0.237 OA
ATOM     99  O   UNL     1     -21.140   8.962   1.927  1.00  0.00    -0.744 OA
ENDBRANCH  93  96
ENDBRANCH  66  89
ENDBRANCH  40  41
ENDBRANCH  32  35
ENDBRANCH  30  31
ENDBRANCH  29  30
ENDBRANCH   1  29
TORSDOF 18
