REMARK SMILES COc1ccc(-c2ccc(/C=C3\SC(=S)N([C@H](Cc4ccccc4)C(=O)NCCCNC(=O)c4ccc(-c5c6nc(c(-c7cccc(S(=O)(=O)[O-])c7F)c7ccc([nH]7)c(-c7cccc(S(=O)(=O)[O-])c7F)c7nc(c(-c8cccc(S(=O)(=O)[O-])c8F)c8ccc5[nH]8)C=C7)C=C6)cc4)C3=O)o2)cc1
REMARK SMILES IDX 28 1 27 2 25 3 26 4 17 6 16 7 11 8 12 9 13 10 97 11 14 12
REMARK SMILES IDX 98 13 15 14 10 15 7 16 8 17 99 18 9 19 6 20 3 21 4 22 101 23
REMARK SMILES IDX 5 24 100 25 2 26 1 27 18 28 19 29 20 30 24 31 21 32 23 33
REMARK SMILES IDX 22 34 29 35 30 36 31 37 32 38 33 40 34 41 35 42 96 43 36 44
REMARK SMILES IDX 95 45 37 46 38 47 39 48 89 49 40 50 94 51 88 52 90 53 41 54
REMARK SMILES IDX 93 55 87 56 86 57 42 59 74 60 54 61 73 62 55 63 58 64 72 65
REMARK SMILES IDX 91 66 56 67 57 68 71 70 92 71 59 72 43 73 44 74 52 75 45 76
REMARK SMILES IDX 47 77 53 78 46 79 48 80 49 81 50 82 51 83 75 84 76 85 84 86
REMARK SMILES IDX 77 87 79 88 85 89 78 90 80 91 81 92 82 93 83 94 60 95 61 96
REMARK SMILES IDX 69 97 62 98 64 99 70 100 63 101 65 102 66 103 67 104 68 105
REMARK H PARENT 27 5 31 39 90 58 58 69
REMARK Flexibility Score: inf
ROOT
ATOM      1  C   UNL     1       1.448   6.307  12.199  1.00  0.00     0.117 C 
ENDROOT
BRANCH   1   2
ATOM      2  N   UNL     1       1.955   7.612  12.586  1.00  0.00    -0.354 N 
ATOM      3  C   UNL     1       1.399   8.855  12.452  1.00  0.00     0.243 C 
ATOM      4  O   UNL     1       2.030   9.816  12.904  1.00  0.00    -0.273 OA
ATOM      5  H   UNL     1       2.842   7.600  13.013  1.00  0.00     0.163 HD
BRANCH   3   6
ATOM      6  C   UNL     1       0.118   9.091  11.608  1.00  0.00     0.185 C 
BRANCH   6   7
ATOM      7  N   UNL     1      -1.101   8.337  12.058  1.00  0.00    -0.280 N 
ATOM      8  C   UNL     1      -2.639   6.275  14.623  1.00  0.00     0.068 C 
ATOM      9  C   UNL     1      -2.412   7.029  13.540  1.00  0.00     0.084 C 
ATOM     10  S   UNL     1      -3.459   7.286  12.215  1.00  0.00    -0.054 SA
ATOM     11  C   UNL     1      -1.164   7.811  13.347  1.00  0.00     0.267 C 
ATOM     12  C   UNL     1      -2.333   8.373  11.427  1.00  0.00     0.149 C 
ATOM     13  O   UNL     1      -0.361   7.962  14.254  1.00  0.00    -0.268 OA
ATOM     14  S   UNL     1      -2.894   9.279  10.152  1.00  0.00    -0.052 S 
BRANCH   8  15
ATOM     15  C   UNL     1      -3.854   5.557  14.783  1.00  0.00     0.128 A 
ATOM     16  C   UNL     1      -5.840   5.038  15.621  1.00  0.00     0.134 A 
ATOM     17  C   UNL     1      -5.685   4.254  14.502  1.00  0.00     0.051 A 
ATOM     18  O   UNL     1      -4.732   5.805  15.810  1.00  0.00    -0.457 OA
ATOM     19  C   UNL     1      -4.413   4.569  13.978  1.00  0.00     0.051 A 
BRANCH  16  20
ATOM     20  C   UNL     1      -6.910   5.197  16.588  1.00  0.00     0.017 A 
ATOM     21  C   UNL     1      -9.043   5.479  18.400  1.00  0.00     0.118 A 
ATOM     22  C   UNL     1      -8.353   6.603  17.939  1.00  0.00     0.047 A 
ATOM     23  C   UNL     1      -8.672   4.214  17.946  1.00  0.00     0.047 A 
ATOM     24  C   UNL     1      -7.284   6.464  17.049  1.00  0.00     0.016 A 
ATOM     25  C   UNL     1      -7.615   4.076  17.040  1.00  0.00     0.016 A 
BRANCH  21  26
ATOM     26  O   UNL     1     -10.073   5.742  19.260  1.00  0.00    -0.497 OA
ATOM     27  C   UNL     1     -10.489   4.656  20.080  1.00  0.00     0.278 C 
ENDBRANCH  21  26
ENDBRANCH  16  20
ENDBRANCH   8  15
ENDBRANCH   6   7
BRANCH   6  28
ATOM     28  C   UNL     1       0.583   8.774  10.146  1.00  0.00     0.071 C 
BRANCH  28  29
ATOM     29  C   UNL     1       0.249   9.697   8.993  1.00  0.00    -0.045 A 
ATOM     30  C   UNL     1      -0.167  11.025   9.134  1.00  0.00     0.004 A 
ATOM     31  C   UNL     1       0.371   9.173   7.692  1.00  0.00     0.004 A 
ATOM     32  C   UNL     1      -0.570  11.764   8.017  1.00  0.00     0.000 A 
ATOM     33  C   UNL     1      -0.001   9.922   6.576  1.00  0.00     0.000 A 
ATOM     34  C   UNL     1      -0.498  11.210   6.742  1.00  0.00     0.000 A 
ENDBRANCH  28  29
ENDBRANCH   6  28
ENDBRANCH   3   6
ENDBRANCH   1   2
BRANCH   1  35
ATOM     35  C   UNL     1       2.453   5.498  11.394  1.00  0.00     0.042 C 
BRANCH  35  36
ATOM     36  C   UNL     1       3.713   5.118  12.162  1.00  0.00     0.118 C 
BRANCH  36  37
ATOM     37  N   UNL     1       3.440   4.276  13.319  1.00  0.00    -0.352 N 
ATOM     38  C   UNL     1       3.914   3.025  13.632  1.00  0.00     0.251 C 
ATOM     39  H   UNL     1       2.819   4.662  13.977  1.00  0.00     0.163 HD
ATOM     40  O   UNL     1       3.419   2.411  14.573  1.00  0.00    -0.269 OA
BRANCH  38  41
ATOM     41  C   UNL     1       5.002   2.412  12.837  1.00  0.00     0.039 A 
ATOM     42  C   UNL     1       4.938   1.048  12.536  1.00  0.00     0.014 A 
ATOM     43  C   UNL     1       6.096   3.168  12.411  1.00  0.00     0.014 A 
ATOM     44  C   UNL     1       5.942   0.459  11.762  1.00  0.00     0.010 A 
ATOM     45  C   UNL     1       7.046   2.602  11.567  1.00  0.00     0.010 A 
ATOM     46  C   UNL     1       6.992   1.237  11.249  1.00  0.00    -0.014 A 
BRANCH  46  47
ATOM     47  C   UNL     1       8.062   0.645  10.406  1.00  0.00     0.031 A 
ATOM     48  C   UNL     1       9.494   0.682  10.875  1.00  0.00     0.074 A 
ATOM     49  C   UNL     1       7.764   0.160   9.184  1.00  0.00     0.049 A 
ATOM     50  N   UNL     1      10.577   0.298  10.251  1.00  0.00    -0.248 NA
ATOM     51  C   UNL     1       9.745   1.259  12.207  1.00  0.00     0.031 C 
ATOM     52  C   UNL     1       6.430   0.142   8.581  1.00  0.00     0.029 A 
ATOM     53  N   UNL     1       8.572  -0.385   8.217  1.00  0.00    -0.354 N 
ATOM     54  C   UNL     1      11.635   0.628  11.090  1.00  0.00     0.074 A 
ATOM     55  C   UNL     1      11.069   1.278  12.251  1.00  0.00     0.031 C 
ATOM     56  C   UNL     1       6.510  -0.390   7.350  1.00  0.00     0.029 A 
ATOM     57  C   UNL     1       7.901  -0.727   7.065  1.00  0.00     0.049 A 
ATOM     58  H   UNL     1       9.540  -0.520   8.336  1.00  0.00     0.167 HD
ATOM     59  C   UNL     1      12.957   0.382  10.929  1.00  0.00     0.034 A 
ATOM     60  C   UNL     1       8.357  -1.250   5.910  1.00  0.00     0.034 A 
ATOM     61  C   UNL     1      13.510  -0.323   9.805  1.00  0.00     0.049 A 
ATOM     62  C   UNL     1       9.822  -1.576   5.784  1.00  0.00     0.074 A 
ATOM     63  C   UNL     1      14.822  -0.706   9.591  1.00  0.00     0.029 A 
ATOM     64  N   UNL     1      12.782  -0.754   8.708  1.00  0.00    -0.354 N 
ATOM     65  N   UNL     1      10.784  -1.399   6.656  1.00  0.00    -0.248 NA
ATOM     66  C   UNL     1      10.256  -2.214   4.532  1.00  0.00     0.031 C 
ATOM     67  C   UNL     1      14.888  -1.361   8.356  1.00  0.00     0.029 A 
ATOM     68  C   UNL     1      13.614  -1.402   7.813  1.00  0.00     0.049 A 
ATOM     69  H   UNL     1      11.814  -0.620   8.584  1.00  0.00     0.167 HD
ATOM     70  C   UNL     1      11.928  -1.938   6.077  1.00  0.00     0.074 A 
ATOM     71  C   UNL     1      11.533  -2.465   4.787  1.00  0.00     0.031 C 
ATOM     72  C   UNL     1      13.193  -1.980   6.563  1.00  0.00     0.034 A 
BRANCH  59  73
ATOM     73  C   UNL     1      13.890   0.821  12.027  1.00  0.00     0.023 A 
ATOM     74  C   UNL     1      13.876   0.142  13.263  1.00  0.00     0.012 A 
ATOM     75  C   UNL     1      14.814   1.865  11.824  1.00  0.00     0.148 A 
ATOM     76  C   UNL     1      14.737   0.518  14.292  1.00  0.00     0.002 A 
ATOM     77  C   UNL     1      15.702   2.204  12.839  1.00  0.00     0.091 A 
ATOM     78  F   UNL     1      14.800   2.513  10.651  1.00  0.00    -0.205 F 
ATOM     79  C   UNL     1      15.657   1.541  14.077  1.00  0.00     0.022 A 
BRANCH  77  80
ATOM     80  S   UNL     1      16.979   3.451  12.634  1.00  0.00     0.127 S 
ATOM     81  O   UNL     1      16.470   4.535  13.474  1.00  0.00    -0.237 OA
ATOM     82  O   UNL     1      18.161   2.773  13.164  1.00  0.00    -0.237 OA
ATOM     83  O   UNL     1      17.033   3.739  11.207  1.00  0.00    -0.744 OA
ENDBRANCH  77  80
ENDBRANCH  59  73
BRANCH  60  84
ATOM     84  C   UNL     1       7.404  -1.576   4.811  1.00  0.00     0.023 A 
ATOM     85  C   UNL     1       7.129  -2.926   4.516  1.00  0.00     0.012 A 
ATOM     86  C   UNL     1       6.751  -0.567   4.077  1.00  0.00     0.148 A 
ATOM     87  C   UNL     1       6.250  -3.266   3.487  1.00  0.00     0.002 A 
ATOM     88  C   UNL     1       5.834  -0.912   3.091  1.00  0.00     0.091 A 
ATOM     89  F   UNL     1       7.033   0.712   4.365  1.00  0.00    -0.205 F 
ATOM     90  C   UNL     1       5.595  -2.260   2.782  1.00  0.00     0.022 A 
BRANCH  88  91
ATOM     91  S   UNL     1       4.847   0.314   2.224  1.00  0.00     0.127 S 
ATOM     92  O   UNL     1       5.460   0.311   0.899  1.00  0.00    -0.237 OA
ATOM     93  O   UNL     1       3.508  -0.274   2.286  1.00  0.00    -0.237 OA
ATOM     94  O   UNL     1       4.993   1.545   2.991  1.00  0.00    -0.744 OA
ENDBRANCH  88  91
ENDBRANCH  60  84
BRANCH  72  95
ATOM     95  C   UNL     1      14.243  -2.658   5.724  1.00  0.00     0.023 A 
ATOM     96  C   UNL     1      14.730  -2.026   4.563  1.00  0.00     0.012 A 
ATOM     97  C   UNL     1      14.806  -3.883   6.134  1.00  0.00     0.148 A 
ATOM     98  C   UNL     1      15.741  -2.618   3.806  1.00  0.00     0.002 A 
ATOM     99  C   UNL     1      15.846  -4.443   5.402  1.00  0.00     0.091 A 
ATOM    100  F   UNL     1      14.315  -4.479   7.231  1.00  0.00    -0.205 F 
ATOM    101  C   UNL     1      16.306  -3.818   4.231  1.00  0.00     0.022 A 
BRANCH  99 102
ATOM    102  S   UNL     1      16.697  -5.934   5.930  1.00  0.00     0.127 S 
ATOM    103  O   UNL     1      16.166  -6.927   4.998  1.00  0.00    -0.237 OA
ATOM    104  O   UNL     1      18.102  -5.584   5.714  1.00  0.00    -0.237 OA
ATOM    105  O   UNL     1      16.334  -6.127   7.328  1.00  0.00    -0.744 OA
ENDBRANCH  99 102
ENDBRANCH  72  95
ENDBRANCH  46  47
ENDBRANCH  38  41
ENDBRANCH  36  37
ENDBRANCH  35  36
ENDBRANCH   1  35
TORSDOF 19
