REMARK SMILES Nn1c(S[C@@H](C(=O)NCCCNC(=O)c2ccc(-c3c4nc(c(-c5cccc(S(=O)(=O)[O-])c5F)c5ccc([nH]5)c(-c5cccc(S(=O)(=O)[O-])c5F)c5nc(c(-c6cccc(S(=O)(=O)[O-])c6F)c6ccc3[nH]6)C=C5)C=C4)cc2)c2ccccc2)nc2ccc(Br)cc2c1=O
REMARK SMILES IDX 10 1 9 2 8 3 6 4 7 5 5 7 4 8 3 9 2 10 92 11 84 12 91 13
REMARK SMILES IDX 93 14 85 15 90 16 86 17 88 18 87 19 89 20 1 21 78 24 79 25
REMARK SMILES IDX 83 26 80 27 82 28 81 29 11 30 12 31 13 32 14 34 15 35 16 36
REMARK SMILES IDX 77 37 17 38 76 39 18 40 19 41 20 42 70 43 21 44 75 45 69 46
REMARK SMILES IDX 71 47 22 48 74 49 68 50 67 51 23 53 55 54 35 55 54 56 36 57
REMARK SMILES IDX 39 58 53 59 72 60 37 61 38 62 52 64 73 65 40 66 24 67 25 68
REMARK SMILES IDX 33 69 26 70 28 71 34 72 27 73 29 74 30 75 31 76 32 77 56 78
REMARK SMILES IDX 57 79 65 80 58 81 60 82 66 83 59 84 61 85 62 86 63 87 64 88
REMARK SMILES IDX 41 89 42 90 50 91 43 92 45 93 51 94 44 95 46 96 47 97 48 98
REMARK SMILES IDX 49 99
REMARK H PARENT 8 6 1 22 1 23 12 33 71 52 39 63
REMARK Flexibility Score: inf
ROOT
ATOM      1  C   UNL     1       4.815   2.788  -1.425  1.00  0.00     0.042 C 
ENDROOT
BRANCH   1   2
ATOM      2  C   UNL     1       5.147   1.298  -1.350  1.00  0.00     0.117 C 
BRANCH   2   3
ATOM      3  N   UNL     1       4.481   0.594  -0.265  1.00  0.00    -0.355 N 
ATOM      4  C   UNL     1       3.420  -0.272  -0.258  1.00  0.00     0.238 C 
ATOM      5  O   UNL     1       3.258  -0.894   0.800  1.00  0.00    -0.273 OA
ATOM      6  H   UNL     1       4.862   0.772   0.625  1.00  0.00     0.163 HD
BRANCH   4   7
ATOM      7  C   UNL     1       2.562  -0.543  -1.525  1.00  0.00     0.174 C 
BRANCH   7   8
ATOM      8  S   UNL     1       1.935   0.961  -2.285  1.00  0.00    -0.068 SA
BRANCH   8   9
ATOM      9  C   UNL     1       0.504   1.591  -1.515  1.00  0.00     0.191 A 
ATOM     10  N   UNL     1       0.112   1.347  -0.202  1.00  0.00    -0.202 N 
ATOM     11  C   UNL     1      -1.109   1.815   0.301  1.00  0.00     0.280 A 
ATOM     12  N   UNL     1      -0.188   2.345  -2.312  1.00  0.00    -0.222 NA
ATOM     13  C   UNL     1      -1.881   2.697  -0.586  1.00  0.00     0.069 A 
ATOM     14  O   UNL     1      -1.532   1.537   1.423  1.00  0.00    -0.267 OA
ATOM     15  C   UNL     1      -1.354   2.955  -1.848  1.00  0.00     0.079 A 
ATOM     16  C   UNL     1      -3.073   3.291  -0.158  1.00  0.00     0.031 A 
ATOM     17  C   UNL     1      -2.018   3.855  -2.683  1.00  0.00     0.030 A 
ATOM     18  C   UNL     1      -3.729   4.176  -1.010  1.00  0.00     0.018 A 
ATOM     19  C   UNL     1      -3.202   4.471  -2.267  1.00  0.00     0.018 A 
ATOM     20  Br  UNL     1      -5.343   4.987  -0.456  1.00  0.00    -0.051 Br
BRANCH  10  21
ATOM     21  N   UNL     1       0.924   0.667   0.728  1.00  0.00    -0.334 N 
ATOM     22  H   UNL     1       1.798   0.308   0.449  1.00  0.00     0.178 HD
ATOM     23  H   UNL     1       0.618   0.551   1.656  1.00  0.00     0.178 HD
ENDBRANCH  10  21
ENDBRANCH   8   9
ENDBRANCH   7   8
BRANCH   7  24
ATOM     24  C   UNL     1       1.626  -1.759  -1.424  1.00  0.00    -0.025 A 
ATOM     25  C   UNL     1       2.184  -3.003  -1.058  1.00  0.00     0.005 A 
ATOM     26  C   UNL     1       0.246  -1.734  -1.688  1.00  0.00     0.005 A 
ATOM     27  C   UNL     1       1.394  -4.145  -0.904  1.00  0.00     0.000 A 
ATOM     28  C   UNL     1      -0.549  -2.873  -1.516  1.00  0.00     0.000 A 
ATOM     29  C   UNL     1       0.023  -4.076  -1.118  1.00  0.00     0.000 A 
ENDBRANCH   7  24
ENDBRANCH   4   7
ENDBRANCH   2   3
ENDBRANCH   1   2
BRANCH   1  30
ATOM     30  C   UNL     1       5.083   3.574  -0.147  1.00  0.00     0.118 C 
BRANCH  30  31
ATOM     31  N   UNL     1       6.501   3.748   0.129  1.00  0.00    -0.352 N 
ATOM     32  C   UNL     1       7.305   4.861   0.036  1.00  0.00     0.251 C 
ATOM     33  H   UNL     1       6.962   2.933   0.433  1.00  0.00     0.163 HD
ATOM     34  O   UNL     1       8.521   4.724   0.159  1.00  0.00    -0.269 OA
BRANCH  32  35
ATOM     35  C   UNL     1       6.736   6.201  -0.242  1.00  0.00     0.039 A 
ATOM     36  C   UNL     1       5.564   6.642   0.376  1.00  0.00     0.014 A 
ATOM     37  C   UNL     1       7.412   7.055  -1.122  1.00  0.00     0.014 A 
ATOM     38  C   UNL     1       4.980   7.845  -0.015  1.00  0.00     0.010 A 
ATOM     39  C   UNL     1       6.870   8.304  -1.446  1.00  0.00     0.010 A 
ATOM     40  C   UNL     1       5.622   8.691  -0.934  1.00  0.00    -0.014 A 
BRANCH  40  41
ATOM     41  C   UNL     1       4.981   9.974  -1.330  1.00  0.00     0.031 A 
ATOM     42  C   UNL     1       4.553  10.221  -2.753  1.00  0.00     0.074 A 
ATOM     43  C   UNL     1       4.750  10.914  -0.393  1.00  0.00     0.049 A 
ATOM     44  N   UNL     1       3.964  11.274  -3.262  1.00  0.00    -0.248 NA
ATOM     45  C   UNL     1       4.822   9.157  -3.735  1.00  0.00     0.031 C 
ATOM     46  C   UNL     1       5.137  10.811   1.016  1.00  0.00     0.029 A 
ATOM     47  N   UNL     1       4.127  12.134  -0.476  1.00  0.00    -0.354 N 
ATOM     48  C   UNL     1       3.822  11.016  -4.620  1.00  0.00     0.074 A 
ATOM     49  C   UNL     1       4.394   9.710  -4.863  1.00  0.00     0.031 C 
ATOM     50  C   UNL     1       4.711  11.900   1.671  1.00  0.00     0.029 A 
ATOM     51  C   UNL     1       4.062  12.802   0.724  1.00  0.00     0.049 A 
ATOM     52  H   UNL     1       3.761  12.497  -1.316  1.00  0.00     0.167 HD
ATOM     53  C   UNL     1       3.248  11.786  -5.574  1.00  0.00     0.034 A 
ATOM     54  C   UNL     1       3.545  14.007   1.035  1.00  0.00     0.034 A 
ATOM     55  C   UNL     1       2.632  13.062  -5.330  1.00  0.00     0.049 A 
ATOM     56  C   UNL     1       2.892  14.830  -0.036  1.00  0.00     0.074 A 
ATOM     57  C   UNL     1       1.995  13.893  -6.235  1.00  0.00     0.029 A 
ATOM     58  N   UNL     1       2.566  13.687  -4.096  1.00  0.00    -0.354 N 
ATOM     59  N   UNL     1       2.711  14.535  -1.299  1.00  0.00    -0.248 NA
ATOM     60  C   UNL     1       2.358  16.141   0.360  1.00  0.00     0.031 C 
ATOM     61  C   UNL     1       1.542  15.022  -5.547  1.00  0.00     0.029 A 
ATOM     62  C   UNL     1       1.892  14.890  -4.213  1.00  0.00     0.049 A 
ATOM     63  H   UNL     1       2.942  13.329  -3.259  1.00  0.00     0.167 HD
ATOM     64  C   UNL     1       2.032  15.615  -1.848  1.00  0.00     0.074 A 
ATOM     65  C   UNL     1       1.816  16.565  -0.776  1.00  0.00     0.031 C 
ATOM     66  C   UNL     1       1.640  15.806  -3.131  1.00  0.00     0.034 A 
BRANCH  53  67
ATOM     67  C   UNL     1       3.195  11.247  -6.978  1.00  0.00     0.023 A 
ATOM     68  C   UNL     1       2.206  10.301  -7.311  1.00  0.00     0.012 A 
ATOM     69  C   UNL     1       4.045  11.747  -7.983  1.00  0.00     0.148 A 
ATOM     70  C   UNL     1       2.069   9.850  -8.623  1.00  0.00     0.002 A 
ATOM     71  C   UNL     1       3.885  11.315  -9.295  1.00  0.00     0.091 A 
ATOM     72  F   UNL     1       4.987  12.637  -7.639  1.00  0.00    -0.205 F 
ATOM     73  C   UNL     1       2.900  10.364  -9.615  1.00  0.00     0.022 A 
BRANCH  71  74
ATOM     74  S   UNL     1       4.865  11.954 -10.658  1.00  0.00     0.127 S 
ATOM     75  O   UNL     1       5.655  10.780 -11.027  1.00  0.00    -0.237 OA
ATOM     76  O   UNL     1       3.836  12.325 -11.629  1.00  0.00    -0.237 OA
ATOM     77  O   UNL     1       5.626  13.071 -10.118  1.00  0.00    -0.744 OA
ENDBRANCH  71  74
ENDBRANCH  53  67
BRANCH  54  78
ATOM     78  C   UNL     1       3.586  14.463   2.450  1.00  0.00     0.023 A 
ATOM     79  C   UNL     1       2.412  14.411   3.225  1.00  0.00     0.012 A 
ATOM     80  C   UNL     1       4.800  14.843   3.055  1.00  0.00     0.148 A 
ATOM     81  C   UNL     1       2.446  14.730   4.582  1.00  0.00     0.002 A 
ATOM     82  C   UNL     1       4.835  15.115   4.417  1.00  0.00     0.091 A 
ATOM     83  F   UNL     1       5.900  14.888   2.291  1.00  0.00    -0.205 F 
ATOM     84  C   UNL     1       3.658  15.068   5.181  1.00  0.00     0.022 A 
BRANCH  82  85
ATOM     85  S   UNL     1       6.365  15.437   5.300  1.00  0.00     0.127 S 
ATOM     86  O   UNL     1       6.165  16.812   5.752  1.00  0.00    -0.237 OA
ATOM     87  O   UNL     1       6.316  14.427   6.358  1.00  0.00    -0.237 OA
ATOM     88  O   UNL     1       7.433  15.246   4.329  1.00  0.00    -0.744 OA
ENDBRANCH  82  85
ENDBRANCH  54  78
BRANCH  66  89
ATOM     89  C   UNL     1       0.925  17.083  -3.468  1.00  0.00     0.023 A 
ATOM     90  C   UNL     1       1.673  18.259  -3.667  1.00  0.00     0.012 A 
ATOM     91  C   UNL     1      -0.463  17.089  -3.710  1.00  0.00     0.148 A 
ATOM     92  C   UNL     1       1.047  19.428  -4.097  1.00  0.00     0.002 A 
ATOM     93  C   UNL     1      -1.074  18.250  -4.168  1.00  0.00     0.091 A 
ATOM     94  F   UNL     1      -1.151  15.957  -3.503  1.00  0.00    -0.205 F 
ATOM     95  C   UNL     1      -0.321  19.421  -4.358  1.00  0.00     0.022 A 
BRANCH  93  96
ATOM     96  S   UNL     1      -2.816  18.321  -4.602  1.00  0.00     0.127 S 
ATOM     97  O   UNL     1      -3.345  19.206  -3.565  1.00  0.00    -0.237 OA
ATOM     98  O   UNL     1      -2.777  18.905  -5.942  1.00  0.00    -0.237 OA
ATOM     99  O   UNL     1      -3.301  16.948  -4.552  1.00  0.00    -0.744 OA
ENDBRANCH  93  96
ENDBRANCH  66  89
ENDBRANCH  40  41
ENDBRANCH  32  35
ENDBRANCH  30  31
ENDBRANCH   1  30
TORSDOF 17
