REMARK SMILES O=C(NCCCNC(=O)[C@@H]1C=C[C@H](NC(=O)[C@@H]2Cc3ccccc3O2)C1)c1ccc(-c2c3nc(c(-c4cccc(S(=O)(=O)[O-])c4F)c4ccc([nH]4)c(-c4cccc(S(=O)(=O)[O-])c4F)c4nc(c(-c5cccc(S(=O)(=O)[O-])c5F)c5ccc2[nH]5)C=C4)C=C3)cc1
REMARK SMILES IDX 4 1 3 2 1 3 2 4 27 6 28 7 89 8 29 9 88 10 30 11 31 12 32 13
REMARK SMILES IDX 82 14 33 15 87 16 81 17 83 18 34 19 86 20 80 21 79 22 35 24
REMARK SMILES IDX 67 25 47 26 66 27 48 28 51 29 65 30 84 31 49 32 50 33 64 35
REMARK SMILES IDX 85 36 52 37 36 38 37 39 45 40 38 41 40 42 46 43 39 44 41 45
REMARK SMILES IDX 42 46 43 47 44 48 68 49 69 50 77 51 70 52 72 53 78 54 71 55
REMARK SMILES IDX 73 56 74 57 75 58 76 59 53 60 54 61 62 62 55 63 57 64 63 65
REMARK SMILES IDX 56 66 58 67 59 68 60 69 61 70 5 71 6 72 7 73 8 74 9 76 10 77
REMARK SMILES IDX 11 78 26 79 12 80 13 81 14 82 15 83 16 85 17 86 18 87 25 88
REMARK SMILES IDX 19 89 24 90 20 91 23 92 21 93 22 94
REMARK H PARENT 3 5 83 23 51 34 7 75 14 84
REMARK Flexibility Score: inf
ROOT
ATOM      1  C   UNL     1      -2.445  -0.759   4.719  1.00  0.00     0.118 C 
ENDROOT
BRANCH   1   2
ATOM      2  N   UNL     1      -3.768  -0.582   4.149  1.00  0.00    -0.352 N 
ATOM      3  O   UNL     1      -5.443   0.390   3.024  1.00  0.00    -0.269 OA
ATOM      4  C   UNL     1      -4.240   0.352   3.262  1.00  0.00     0.251 C 
ATOM      5  H   UNL     1      -4.436  -1.241   4.447  1.00  0.00     0.163 HD
BRANCH   4   6
ATOM      6  C   UNL     1      -3.326   1.319   2.614  1.00  0.00     0.039 A 
ATOM      7  C   UNL     1      -2.130   0.909   2.016  1.00  0.00     0.014 A 
ATOM      8  C   UNL     1      -3.715   2.660   2.549  1.00  0.00     0.014 A 
ATOM      9  C   UNL     1      -1.275   1.855   1.446  1.00  0.00     0.010 A 
ATOM     10  C   UNL     1      -2.882   3.597   1.935  1.00  0.00     0.010 A 
ATOM     11  C   UNL     1      -1.642   3.209   1.403  1.00  0.00    -0.014 A 
BRANCH  11  12
ATOM     12  C   UNL     1      -0.753   4.225   0.782  1.00  0.00     0.031 A 
ATOM     13  C   UNL     1      -0.136   5.310   1.620  1.00  0.00     0.074 A 
ATOM     14  C   UNL     1      -0.559   4.215  -0.551  1.00  0.00     0.049 A 
ATOM     15  N   UNL     1       0.585   6.335   1.246  1.00  0.00    -0.248 NA
ATOM     16  C   UNL     1      -0.374   5.241   3.071  1.00  0.00     0.031 C 
ATOM     17  C   UNL     1      -1.132   3.236  -1.476  1.00  0.00     0.029 A 
ATOM     18  N   UNL     1       0.140   5.074  -1.362  1.00  0.00    -0.354 N 
ATOM     19  C   UNL     1       0.852   7.057   2.403  1.00  0.00     0.074 A 
ATOM     20  C   UNL     1       0.206   6.356   3.493  1.00  0.00     0.031 C 
ATOM     21  C   UNL     1      -0.779   3.561  -2.730  1.00  0.00     0.029 A 
ATOM     22  C   UNL     1       0.006   4.792  -2.701  1.00  0.00     0.049 A 
ATOM     23  H   UNL     1       0.683   5.820  -1.018  1.00  0.00     0.167 HD
ATOM     24  C   UNL     1       1.577   8.193   2.547  1.00  0.00     0.034 A 
ATOM     25  C   UNL     1       0.436   5.463  -3.787  1.00  0.00     0.034 A 
ATOM     26  C   UNL     1       2.232   8.875   1.462  1.00  0.00     0.049 A 
ATOM     27  C   UNL     1       1.241   6.720  -3.605  1.00  0.00     0.074 A 
ATOM     28  C   UNL     1       3.047   9.993   1.516  1.00  0.00     0.029 A 
ATOM     29  N   UNL     1       2.135   8.516   0.126  1.00  0.00    -0.354 N 
ATOM     30  N   UNL     1       1.591   7.319  -2.493  1.00  0.00    -0.248 NA
ATOM     31  C   UNL     1       1.738   7.376  -4.823  1.00  0.00     0.031 C 
ATOM     32  C   UNL     1       3.413  10.330   0.209  1.00  0.00     0.029 A 
ATOM     33  C   UNL     1       2.862   9.398  -0.656  1.00  0.00     0.049 A 
ATOM     34  H   UNL     1       1.624   7.748  -0.216  1.00  0.00     0.167 HD
ATOM     35  C   UNL     1       2.384   8.396  -2.872  1.00  0.00     0.074 A 
ATOM     36  C   UNL     1       2.466   8.365  -4.318  1.00  0.00     0.031 C 
ATOM     37  C   UNL     1       2.984   9.327  -2.091  1.00  0.00     0.034 A 
BRANCH  24  38
ATOM     38  C   UNL     1       1.714   8.764   3.936  1.00  0.00     0.023 A 
ATOM     39  C   UNL     1       2.502   8.093   4.895  1.00  0.00     0.012 A 
ATOM     40  C   UNL     1       1.099   9.983   4.282  1.00  0.00     0.148 A 
ATOM     41  C   UNL     1       2.638   8.602   6.186  1.00  0.00     0.002 A 
ATOM     42  C   UNL     1       1.278  10.508   5.557  1.00  0.00     0.091 A 
ATOM     43  F   UNL     1       0.338  10.600   3.367  1.00  0.00    -0.205 F 
ATOM     44  C   UNL     1       2.034   9.813   6.514  1.00  0.00     0.022 A 
BRANCH  42  45
ATOM     45  S   UNL     1       0.606  12.101   6.047  1.00  0.00     0.127 S 
ATOM     46  O   UNL     1      -0.514  11.699   6.897  1.00  0.00    -0.237 OA
ATOM     47  O   UNL     1       1.729  12.704   6.766  1.00  0.00    -0.237 OA
ATOM     48  O   UNL     1       0.246  12.780   4.810  1.00  0.00    -0.744 OA
ENDBRANCH  42  45
ENDBRANCH  24  38
BRANCH  25  49
ATOM     49  C   UNL     1       0.138   4.924  -5.143  1.00  0.00     0.023 A 
ATOM     50  C   UNL     1       1.175   4.357  -5.907  1.00  0.00     0.012 A 
ATOM     51  C   UNL     1      -1.178   4.911  -5.648  1.00  0.00     0.148 A 
ATOM     52  C   UNL     1       0.910   3.801  -7.160  1.00  0.00     0.002 A 
ATOM     53  C   UNL     1      -1.443   4.306  -6.870  1.00  0.00     0.091 A 
ATOM     54  F   UNL     1      -2.147   5.463  -4.904  1.00  0.00    -0.205 F 
ATOM     55  C   UNL     1      -0.398   3.765  -7.635  1.00  0.00     0.022 A 
BRANCH  53  56
ATOM     56  S   UNL     1      -3.111   4.093  -7.503  1.00  0.00     0.127 S 
ATOM     57  O   UNL     1      -3.087   4.935  -8.696  1.00  0.00    -0.237 OA
ATOM     58  O   UNL     1      -3.148   2.654  -7.765  1.00  0.00    -0.237 OA
ATOM     59  O   UNL     1      -3.999   4.537  -6.438  1.00  0.00    -0.744 OA
ENDBRANCH  53  56
ENDBRANCH  25  49
BRANCH  37  60
ATOM     60  C   UNL     1       3.841  10.368  -2.763  1.00  0.00     0.023 A 
ATOM     61  C   UNL     1       3.244  11.418  -3.487  1.00  0.00     0.012 A 
ATOM     62  C   UNL     1       5.240  10.358  -2.584  1.00  0.00     0.148 A 
ATOM     63  C   UNL     1       4.028  12.430  -4.041  1.00  0.00     0.002 A 
ATOM     64  C   UNL     1       6.009  11.396  -3.095  1.00  0.00     0.091 A 
ATOM     65  F   UNL     1       5.789   9.339  -1.907  1.00  0.00    -0.205 F 
ATOM     66  C   UNL     1       5.406  12.427  -3.833  1.00  0.00     0.022 A 
BRANCH  64  67
ATOM     67  S   UNL     1       7.774  11.529  -2.790  1.00  0.00     0.127 S 
ATOM     68  O   UNL     1       8.326  11.271  -4.119  1.00  0.00    -0.237 OA
ATOM     69  O   UNL     1       7.905  12.913  -2.333  1.00  0.00    -0.237 OA
ATOM     70  O   UNL     1       8.087  10.526  -1.781  1.00  0.00    -0.744 OA
ENDBRANCH  64  67
ENDBRANCH  37  60
ENDBRANCH  11  12
ENDBRANCH   4   6
ENDBRANCH   1   2
BRANCH   1  71
ATOM     71  C   UNL     1      -2.424  -0.726   6.245  1.00  0.00     0.042 C 
BRANCH  71  72
ATOM     72  C   UNL     1      -3.351  -1.721   6.944  1.00  0.00     0.117 C 
BRANCH  72  73
ATOM     73  N   UNL     1      -2.999  -3.115   6.753  1.00  0.00    -0.356 N 
ATOM     74  C   UNL     1      -2.403  -4.003   7.593  1.00  0.00     0.227 C 
ATOM     75  H   UNL     1      -3.230  -3.479   5.867  1.00  0.00     0.163 HD
ATOM     76  O   UNL     1      -2.565  -5.202   7.338  1.00  0.00    -0.274 OA
BRANCH  74  77
ATOM     77  C   UNL     1      -1.583  -3.587   8.832  1.00  0.00     0.103 C 
ATOM     78  C   UNL     1      -0.895  -2.257   8.840  1.00  0.00    -0.016 C 
ATOM     79  C   UNL     1      -0.386  -4.566   9.028  1.00  0.00     0.047 C 
ATOM     80  C   UNL     1       0.439  -2.343   8.832  1.00  0.00    -0.006 C 
ATOM     81  C   UNL     1       0.907  -3.748   8.901  1.00  0.00     0.106 C 
BRANCH  81  82
ATOM     82  N   UNL     1       1.853  -4.035   7.835  1.00  0.00    -0.347 N 
ATOM     83  C   UNL     1       1.789  -4.172   6.478  1.00  0.00     0.261 C 
ATOM     84  H   UNL     1       2.768  -4.161   8.177  1.00  0.00     0.164 HD
ATOM     85  O   UNL     1       2.861  -4.283   5.877  1.00  0.00    -0.271 OA
BRANCH  83  86
ATOM     86  C   UNL     1       0.450  -4.232   5.755  1.00  0.00     0.266 C 
ATOM     87  C   UNL     1       0.051  -5.692   5.515  1.00  0.00     0.095 C 
ATOM     88  O   UNL     1       0.399  -3.579   4.461  1.00  0.00    -0.480 OA
ATOM     89  C   UNL     1      -0.957  -5.440   4.460  1.00  0.00    -0.002 A 
ATOM     90  C   UNL     1      -0.654  -4.229   3.855  1.00  0.00     0.123 A 
ATOM     91  C   UNL     1      -2.048  -6.189   4.064  1.00  0.00     0.008 A 
ATOM     92  C   UNL     1      -1.398  -3.740   2.803  1.00  0.00     0.047 A 
ATOM     93  C   UNL     1      -2.851  -5.681   3.041  1.00  0.00     0.001 A 
ATOM     94  C   UNL     1      -2.525  -4.467   2.410  1.00  0.00     0.004 A 
ENDBRANCH  83  86
ENDBRANCH  81  82
ENDBRANCH  74  77
ENDBRANCH  72  73
ENDBRANCH  71  72
ENDBRANCH   1  71
TORSDOF 15
