REMARK SMILES C[C@]12c3ccccc3[C@](C)(c3ccccc31)[C@@H]1C(=O)N(c3ccc(C(=O)NCCCNC(=O)c4ccc(-c5c6nc(c(-c7cccc(S(=O)(=O)[O-])c7F)c7ccc([nH]7)c(-c7cccc(S(=O)(=O)[O-])c7F)c7nc(c(-c8cccc(S(=O)(=O)[O-])c8F)c8ccc5[nH]8)C=C7)C=C6)cc4)cc3)C(=O)[C@H]12
REMARK SMILES IDX 30 1 29 2 28 3 27 4 25 5 26 6 24 8 21 9 22 10 98 11 23 12
REMARK SMILES IDX 97 13 20 14 1 15 2 16 16 17 3 18 101 19 15 20 11 21 8 22
REMARK SMILES IDX 4 23 17 24 99 25 14 26 12 27 9 28 7 29 5 30 18 31 100 32
REMARK SMILES IDX 13 33 10 34 6 35 19 36 31 37 32 38 33 40 34 41 35 42 96 43
REMARK SMILES IDX 36 44 95 45 37 46 38 47 39 48 89 49 40 50 94 51 88 52 90 53
REMARK SMILES IDX 41 54 93 55 87 56 86 57 42 59 74 60 54 61 73 62 55 63 58 64
REMARK SMILES IDX 72 65 91 66 56 67 57 68 71 70 92 71 59 72 43 73 44 74 52 75
REMARK SMILES IDX 45 76 47 77 53 78 46 79 48 80 49 81 50 82 51 83 75 84 76 85
REMARK SMILES IDX 84 86 77 87 79 88 85 89 78 90 80 91 81 92 82 93 83 94 60 95
REMARK SMILES IDX 61 96 69 97 62 98 64 99 70 100 63 101 65 102 66 103 67 104
REMARK SMILES IDX 68 105
REMARK H PARENT 27 7 31 39 90 58 58 69
REMARK Flexibility Score: inf
ROOT
ATOM      1  C   UNL     1       0.617  -0.297 -11.728  1.00  0.00     0.118 C 
ENDROOT
BRANCH   1   2
ATOM      2  C   UNL     1       0.164  -0.400 -10.281  1.00  0.00     0.042 C 
BRANCH   2   3
ATOM      3  C   UNL     1      -0.146  -1.812  -9.811  1.00  0.00     0.118 C 
BRANCH   3   4
ATOM      4  N   UNL     1       0.999  -2.712  -9.861  1.00  0.00    -0.352 N 
ATOM      5  C   UNL     1       1.626  -3.459  -8.895  1.00  0.00     0.251 C 
ATOM      6  O   UNL     1       2.621  -4.112  -9.205  1.00  0.00    -0.269 OA
ATOM      7  H   UNL     1       1.398  -2.801 -10.757  1.00  0.00     0.163 HD
BRANCH   5   8
ATOM      8  C   UNL     1       1.179  -3.455  -7.482  1.00  0.00     0.039 A 
ATOM      9  C   UNL     1       0.470  -3.160  -4.776  1.00  0.00     0.052 A 
ATOM     10  C   UNL     1       1.811  -3.311  -5.145  1.00  0.00     0.027 A 
ATOM     11  C   UNL     1      -0.516  -3.277  -5.764  1.00  0.00     0.027 A 
ATOM     12  C   UNL     1       2.163  -3.471  -6.488  1.00  0.00     0.016 A 
ATOM     13  C   UNL     1      -0.164  -3.441  -7.106  1.00  0.00     0.016 A 
BRANCH   9  14
ATOM     14  N   UNL     1       0.112  -2.831  -3.451  1.00  0.00    -0.250 N 
ATOM     15  C   UNL     1       1.716  -0.687   0.195  1.00  0.00     0.022 C 
ATOM     16  C   UNL     1       0.314  -1.256  -0.014  1.00  0.00     0.030 C 
ATOM     17  C   UNL     1      -0.831  -0.209   0.026  1.00  0.00    -0.033 A 
ATOM     18  C   UNL     1      -0.123  -2.332   1.033  1.00  0.00    -0.033 A 
ATOM     19  C   UNL     1       0.227  -2.148  -1.276  1.00  0.00     0.108 C 
ATOM     20  C   UNL     1      -0.688   1.158   0.248  1.00  0.00     0.005 A 
ATOM     21  C   UNL     1      -2.149  -0.766  -0.117  1.00  0.00    -0.033 A 
ATOM     22  C   UNL     1      -1.393  -2.937   0.728  1.00  0.00    -0.033 A 
ATOM     23  C   UNL     1       0.632  -2.775   2.115  1.00  0.00     0.005 A 
ATOM     24  C   UNL     1      -1.235  -2.230  -1.717  1.00  0.00     0.108 C 
ATOM     25  C   UNL     1       0.892  -2.024  -2.608  1.00  0.00     0.238 C 
ATOM     26  C   UNL     1      -1.830   1.959   0.342  1.00  0.00     0.000 A 
ATOM     27  C   UNL     1      -3.278   0.041  -0.006  1.00  0.00     0.005 A 
ATOM     28  C   UNL     1      -2.140  -2.287  -0.464  1.00  0.00     0.030 C 
ATOM     29  C   UNL     1      -1.863  -3.982   1.517  1.00  0.00     0.005 A 
ATOM     30  C   UNL     1       0.142  -3.823   2.892  1.00  0.00     0.000 A 
ATOM     31  C   UNL     1      -1.103  -3.187  -2.853  1.00  0.00     0.238 C 
ATOM     32  O   UNL     1       1.933  -1.434  -2.832  1.00  0.00    -0.274 OA
ATOM     33  C   UNL     1      -3.111   1.405   0.227  1.00  0.00     0.000 A 
ATOM     34  C   UNL     1      -3.514  -2.876  -0.780  1.00  0.00     0.022 C 
ATOM     35  C   UNL     1      -1.088  -4.423   2.593  1.00  0.00     0.000 A 
ATOM     36  O   UNL     1      -1.938  -4.003  -3.207  1.00  0.00    -0.274 OA
ENDBRANCH   9  14
ENDBRANCH   5   8
ENDBRANCH   3   4
ENDBRANCH   2   3
ENDBRANCH   1   2
BRANCH   1  37
ATOM     37  N   UNL     1      -0.406  -0.696 -12.691  1.00  0.00    -0.352 N 
ATOM     38  C   UNL     1      -1.184   0.049 -13.551  1.00  0.00     0.251 C 
ATOM     39  H   UNL     1      -0.569  -1.666 -12.732  1.00  0.00     0.163 HD
ATOM     40  O   UNL     1      -2.094  -0.501 -14.165  1.00  0.00    -0.269 OA
BRANCH  38  41
ATOM     41  C   UNL     1      -0.963   1.506 -13.696  1.00  0.00     0.039 A 
ATOM     42  C   UNL     1       0.327   2.030 -13.728  1.00  0.00     0.014 A 
ATOM     43  C   UNL     1      -2.061   2.368 -13.770  1.00  0.00     0.014 A 
ATOM     44  C   UNL     1       0.517   3.394 -13.559  1.00  0.00     0.010 A 
ATOM     45  C   UNL     1      -1.861   3.753 -13.739  1.00  0.00     0.010 A 
ATOM     46  C   UNL     1      -0.573   4.278 -13.552  1.00  0.00    -0.014 A 
BRANCH  46  47
ATOM     47  C   UNL     1      -0.334   5.730 -13.329  1.00  0.00     0.031 A 
ATOM     48  C   UNL     1      -0.960   6.450 -12.160  1.00  0.00     0.074 A 
ATOM     49  C   UNL     1       0.505   6.395 -14.150  1.00  0.00     0.049 A 
ATOM     50  N   UNL     1      -0.839   7.706 -11.811  1.00  0.00    -0.248 NA
ATOM     51  C   UNL     1      -1.836   5.671 -11.268  1.00  0.00     0.031 C 
ATOM     52  C   UNL     1       1.172   5.818 -15.321  1.00  0.00     0.029 A 
ATOM     53  N   UNL     1       0.958   7.690 -14.119  1.00  0.00    -0.354 N 
ATOM     54  C   UNL     1      -1.654   7.877 -10.698  1.00  0.00     0.074 A 
ATOM     55  C   UNL     1      -2.272   6.599 -10.426  1.00  0.00     0.031 C 
ATOM     56  C   UNL     1       1.984   6.736 -15.864  1.00  0.00     0.029 A 
ATOM     57  C   UNL     1       1.843   7.987 -15.128  1.00  0.00     0.049 A 
ATOM     58  H   UNL     1       0.675   8.344 -13.439  1.00  0.00     0.167 HD
ATOM     59  C   UNL     1      -1.853   8.991  -9.956  1.00  0.00     0.034 A 
ATOM     60  C   UNL     1       2.463   9.139 -15.447  1.00  0.00     0.034 A 
ATOM     61  C   UNL     1      -1.194  10.246 -10.186  1.00  0.00     0.049 A 
ATOM     62  C   UNL     1       2.221  10.360 -14.611  1.00  0.00     0.074 A 
ATOM     63  C   UNL     1      -1.298  11.414  -9.450  1.00  0.00     0.029 A 
ATOM     64  N   UNL     1      -0.310  10.501 -11.221  1.00  0.00    -0.354 N 
ATOM     65  N   UNL     1       1.496  10.477 -13.526  1.00  0.00    -0.248 NA
ATOM     66  C   UNL     1       2.884  11.601 -15.032  1.00  0.00     0.031 C 
ATOM     67  C   UNL     1      -0.490  12.381 -10.052  1.00  0.00     0.029 A 
ATOM     68  C   UNL     1       0.132  11.809 -11.149  1.00  0.00     0.049 A 
ATOM     69  H   UNL     1      -0.037   9.848 -11.906  1.00  0.00     0.167 HD
ATOM     70  C   UNL     1       1.626  11.800 -13.125  1.00  0.00     0.074 A 
ATOM     71  C   UNL     1       2.512  12.442 -14.074  1.00  0.00     0.031 C 
ATOM     72  C   UNL     1       1.048  12.425 -12.072  1.00  0.00     0.034 A 
BRANCH  59  73
ATOM     73  C   UNL     1      -2.793   8.911  -8.783  1.00  0.00     0.023 A 
ATOM     74  C   UNL     1      -2.351   8.326  -7.581  1.00  0.00     0.012 A 
ATOM     75  C   UNL     1      -4.061   9.524  -8.834  1.00  0.00     0.148 A 
ATOM     76  C   UNL     1      -3.161   8.346  -6.445  1.00  0.00     0.002 A 
ATOM     77  C   UNL     1      -4.849   9.566  -7.691  1.00  0.00     0.091 A 
ATOM     78  F   UNL     1      -4.460  10.067  -9.993  1.00  0.00    -0.205 F 
ATOM     79  C   UNL     1      -4.402   8.975  -6.497  1.00  0.00     0.022 A 
BRANCH  77  80
ATOM     80  S   UNL     1      -6.442  10.396  -7.633  1.00  0.00     0.127 S 
ATOM     81  O   UNL     1      -7.346   9.277  -7.369  1.00  0.00    -0.237 OA
ATOM     82  O   UNL     1      -6.266  11.316  -6.510  1.00  0.00    -0.237 OA
ATOM     83  O   UNL     1      -6.613  11.034  -8.930  1.00  0.00    -0.744 OA
ENDBRANCH  77  80
ENDBRANCH  59  73
BRANCH  60  84
ATOM     84  C   UNL     1       3.395   9.164 -16.606  1.00  0.00     0.023 A 
ATOM     85  C   UNL     1       4.782   9.204 -16.378  1.00  0.00     0.012 A 
ATOM     86  C   UNL     1       2.912   9.058 -17.925  1.00  0.00     0.148 A 
ATOM     87  C   UNL     1       5.676   9.140 -17.447  1.00  0.00     0.002 A 
ATOM     88  C   UNL     1       3.807   8.954 -18.981  1.00  0.00     0.091 A 
ATOM     89  F   UNL     1       1.585   9.020 -18.111  1.00  0.00    -0.205 F 
ATOM     90  C   UNL     1       5.190   9.004 -18.745  1.00  0.00     0.022 A 
BRANCH  88  91
ATOM     91  S   UNL     1       3.280   8.671 -20.674  1.00  0.00     0.127 S 
ATOM     92  O   UNL     1       3.757   9.881 -21.340  1.00  0.00    -0.237 OA
ATOM     93  O   UNL     1       4.012   7.451 -21.014  1.00  0.00    -0.237 OA
ATOM     94  O   UNL     1       1.833   8.517 -20.621  1.00  0.00    -0.744 OA
ENDBRANCH  88  91
ENDBRANCH  60  84
BRANCH  72  95
ATOM     95  C   UNL     1       1.352  13.880 -11.856  1.00  0.00     0.023 A 
ATOM     96  C   UNL     1       0.684  14.847 -12.631  1.00  0.00     0.012 A 
ATOM     97  C   UNL     1       2.180  14.287 -10.791  1.00  0.00     0.148 A 
ATOM     98  C   UNL     1       0.837  16.204 -12.348  1.00  0.00     0.002 A 
ATOM     99  C   UNL     1       2.300  15.638 -10.494  1.00  0.00     0.091 A 
ATOM    100  F   UNL     1       2.805  13.342 -10.074  1.00  0.00    -0.205 F 
ATOM    101  C   UNL     1       1.632  16.598 -11.274  1.00  0.00     0.022 A 
BRANCH  99 102
ATOM    102  S   UNL     1       3.240  16.242  -9.088  1.00  0.00     0.127 S 
ATOM    103  O   UNL     1       4.295  17.013  -9.745  1.00  0.00    -0.237 OA
ATOM    104  O   UNL     1       2.248  17.047  -8.377  1.00  0.00    -0.237 OA
ATOM    105  O   UNL     1       3.698  15.061  -8.369  1.00  0.00    -0.744 OA
ENDBRANCH  99 102
ENDBRANCH  72  95
ENDBRANCH  46  47
ENDBRANCH  38  41
ENDBRANCH   1  37
TORSDOF 14
