REMARK SMILES COc1ccc(-n2c(SCc3cn(-c4ccc(C(=O)NCCCNC(=O)c5ccc(-c6c7nc(c(-c8cccc(S(=O)(=O)[O-])c8F)c8ccc([nH]8)c(-c8cccc(S(=O)(=O)[O-])c8F)c8nc(c(-c9cccc(S(=O)(=O)[O-])c9F)c9ccc6[nH]9)C=C8)C=C7)cc5)cc4)nn3)nc3ccccc3c2=O)cc1
REMARK SMILES IDX 18 1 19 2 20 3 17 5 14 6 15 7 91 8 16 9 90 10 13 11 11 12
REMARK SMILES IDX 12 13 93 14 92 15 10 16 9 17 8 18 7 19 101 20 94 21 100 22
REMARK SMILES IDX 102 23 95 24 99 25 96 26 98 27 97 28 6 29 3 30 4 31 104 32
REMARK SMILES IDX 5 33 103 34 2 35 1 36 21 37 22 38 23 39 24 40 25 41 26 43
REMARK SMILES IDX 27 44 28 45 89 46 29 47 88 48 30 49 31 50 32 51 82 52 33 53
REMARK SMILES IDX 87 54 81 55 83 56 34 57 86 58 80 59 79 60 35 62 67 63 47 64
REMARK SMILES IDX 66 65 48 66 51 67 65 68 84 69 49 70 50 71 64 73 85 74 52 75
REMARK SMILES IDX 36 76 37 77 45 78 38 79 40 80 46 81 39 82 41 83 42 84 43 85
REMARK SMILES IDX 44 86 68 87 69 88 77 89 70 90 72 91 78 92 71 93 73 94 74 95
REMARK SMILES IDX 75 96 76 97 53 98 54 99 62 100 55 101 57 102 63 103 56 104
REMARK SMILES IDX 58 105 59 106 60 107 61 108
REMARK H PARENT 20 4 24 42 83 61 51 72
REMARK Flexibility Score: inf
ROOT
ATOM      1  C   UNL     1      -0.748  -8.557   2.940  1.00  0.00     0.251 C 
ATOM      2  O   UNL     1      -1.399  -8.979   1.990  1.00  0.00    -0.269 OA
ATOM      3  N   UNL     1      -0.300  -9.463   3.872  1.00  0.00    -0.352 N 
ATOM      4  H   UNL     1      -0.694 -10.361   3.777  1.00  0.00     0.163 HD
ENDROOT
BRANCH   1   5
ATOM      5  C   UNL     1      -0.376  -7.120   2.971  1.00  0.00     0.039 A 
ATOM      6  C   UNL     1       0.822  -4.636   2.778  1.00  0.00     0.066 A 
ATOM      7  C   UNL     1       0.164  -5.144   1.662  1.00  0.00     0.029 A 
ATOM      8  C   UNL     1       0.722  -5.255   4.024  1.00  0.00     0.029 A 
ATOM      9  C   UNL     1      -0.407  -6.411   1.758  1.00  0.00     0.016 A 
ATOM     10  C   UNL     1       0.070  -6.469   4.117  1.00  0.00     0.016 A 
BRANCH   6  11
ATOM     11  N   UNL     1       1.716  -3.575   2.637  1.00  0.00    -0.220 N 
ATOM     12  C   UNL     1       3.407  -2.252   2.900  1.00  0.00     0.093 A 
ATOM     13  C   UNL     1       2.878  -3.437   3.341  1.00  0.00     0.141 A 
ATOM     14  N   UNL     1       2.631  -1.766   1.890  1.00  0.00    -0.134 NA
ATOM     15  N   UNL     1       1.632  -2.619   1.693  1.00  0.00    -0.062 NA
BRANCH  12  16
ATOM     16  C   UNL     1       4.621  -1.563   3.347  1.00  0.00     0.138 C 
BRANCH  16  17
ATOM     17  S   UNL     1       5.032  -1.921   5.055  1.00  0.00    -0.081 SA
BRANCH  17  18
ATOM     18  C   UNL     1       3.479  -1.672   5.968  1.00  0.00     0.176 A 
ATOM     19  N   UNL     1       3.187  -0.336   6.143  1.00  0.00    -0.255 N 
ATOM     20  C   UNL     1       3.804   0.280   7.223  1.00  0.00     0.266 A 
ATOM     21  N   UNL     1       3.318  -2.466   6.988  1.00  0.00    -0.223 NA
ATOM     22  C   UNL     1       4.553  -0.681   8.102  1.00  0.00     0.066 A 
ATOM     23  O   UNL     1       3.824   1.481   7.466  1.00  0.00    -0.268 OA
ATOM     24  C   UNL     1       4.170  -2.039   8.036  1.00  0.00     0.079 A 
ATOM     25  C   UNL     1       5.744  -0.319   8.725  1.00  0.00     0.016 A 
ATOM     26  C   UNL     1       4.890  -3.005   8.736  1.00  0.00     0.029 A 
ATOM     27  C   UNL     1       6.528  -1.315   9.315  1.00  0.00     0.001 A 
ATOM     28  C   UNL     1       6.084  -2.643   9.358  1.00  0.00     0.002 A 
BRANCH  19  29
ATOM     29  C   UNL     1       2.370   0.325   5.199  1.00  0.00     0.052 A 
ATOM     30  C   UNL     1       0.975   1.072   2.903  1.00  0.00     0.119 A 
ATOM     31  C   UNL     1       0.329   0.317   3.876  1.00  0.00     0.048 A 
ATOM     32  C   UNL     1       2.263   1.560   3.127  1.00  0.00     0.048 A 
ATOM     33  C   UNL     1       1.040  -0.088   5.011  1.00  0.00     0.030 A 
ATOM     34  C   UNL     1       2.948   1.220   4.296  1.00  0.00     0.030 A 
BRANCH  30  35
ATOM     35  O   UNL     1       0.322   1.372   1.738  1.00  0.00    -0.497 OA
ATOM     36  C   UNL     1       0.784   0.533   0.671  1.00  0.00     0.278 C 
ENDBRANCH  30  35
ENDBRANCH  19  29
ENDBRANCH  17  18
ENDBRANCH  16  17
ENDBRANCH  12  16
ENDBRANCH   6  11
ENDBRANCH   1   5
BRANCH   3  37
ATOM     37  C   UNL     1       0.647  -9.346   4.970  1.00  0.00     0.118 C 
BRANCH  37  38
ATOM     38  C   UNL     1      -0.039  -9.037   6.309  1.00  0.00     0.042 C 
BRANCH  38  39
ATOM     39  C   UNL     1      -0.572 -10.286   6.968  1.00  0.00     0.118 C 
BRANCH  39  40
ATOM     40  N   UNL     1       0.500 -11.157   7.476  1.00  0.00    -0.352 N 
ATOM     41  C   UNL     1       0.382 -12.397   8.095  1.00  0.00     0.251 C 
ATOM     42  H   UNL     1       1.418 -10.819   7.365  1.00  0.00     0.163 HD
ATOM     43  O   UNL     1       1.286 -12.866   8.758  1.00  0.00    -0.269 OA
BRANCH  41  44
ATOM     44  C   UNL     1      -0.880 -13.129   7.892  1.00  0.00     0.039 A 
ATOM     45  C   UNL     1      -1.535 -13.851   8.893  1.00  0.00     0.014 A 
ATOM     46  C   UNL     1      -1.450 -12.975   6.641  1.00  0.00     0.014 A 
ATOM     47  C   UNL     1      -2.794 -14.370   8.601  1.00  0.00     0.010 A 
ATOM     48  C   UNL     1      -2.791 -13.117   6.527  1.00  0.00     0.010 A 
ATOM     49  C   UNL     1      -3.404 -13.991   7.398  1.00  0.00    -0.014 A 
BRANCH  49  50
ATOM     50  C   UNL     1      -4.711 -14.439   6.967  1.00  0.00     0.031 A 
ATOM     51  C   UNL     1      -5.807 -14.039   7.875  1.00  0.00     0.074 A 
ATOM     52  C   UNL     1      -4.905 -14.897   5.706  1.00  0.00     0.049 A 
ATOM     53  N   UNL     1      -6.472 -14.804   8.673  1.00  0.00    -0.248 NA
ATOM     54  C   UNL     1      -6.068 -12.604   8.069  1.00  0.00     0.031 C 
ATOM     55  C   UNL     1      -3.949 -14.974   4.585  1.00  0.00     0.029 A 
ATOM     56  N   UNL     1      -6.071 -15.223   5.101  1.00  0.00    -0.354 N 
ATOM     57  C   UNL     1      -7.424 -13.979   9.260  1.00  0.00     0.074 A 
ATOM     58  C   UNL     1      -6.960 -12.631   9.062  1.00  0.00     0.031 C 
ATOM     59  C   UNL     1      -4.627 -15.031   3.416  1.00  0.00     0.029 A 
ATOM     60  C   UNL     1      -6.039 -15.172   3.710  1.00  0.00     0.049 A 
ATOM     61  H   UNL     1      -6.878 -15.477   5.604  1.00  0.00     0.167 HD
ATOM     62  C   UNL     1      -8.657 -14.455   9.588  1.00  0.00     0.034 A 
ATOM     63  C   UNL     1      -7.118 -15.166   2.887  1.00  0.00     0.034 A 
ATOM     64  C   UNL     1      -8.703 -15.896   9.492  1.00  0.00     0.049 A 
ATOM     65  C   UNL     1      -8.255 -15.703   3.681  1.00  0.00     0.074 A 
ATOM     66  C   UNL     1      -7.972 -16.930  10.046  1.00  0.00     0.029 A 
ATOM     67  N   UNL     1      -9.312 -16.423   8.376  1.00  0.00    -0.354 N 
ATOM     68  N   UNL     1      -8.287 -16.926   4.140  1.00  0.00    -0.248 NA
ATOM     69  C   UNL     1      -9.086 -14.743   4.394  1.00  0.00     0.031 C 
ATOM     70  C   UNL     1      -7.761 -17.837   8.964  1.00  0.00     0.029 A 
ATOM     71  C   UNL     1      -8.454 -17.356   7.851  1.00  0.00     0.049 A 
ATOM     72  H   UNL     1     -10.196 -16.177   8.020  1.00  0.00     0.167 HD
ATOM     73  C   UNL     1      -8.751 -16.793   5.444  1.00  0.00     0.074 A 
ATOM     74  C   UNL     1      -9.313 -15.441   5.512  1.00  0.00     0.031 C 
ATOM     75  C   UNL     1      -8.354 -17.646   6.437  1.00  0.00     0.034 A 
BRANCH  62  76
ATOM     76  C   UNL     1      -9.929 -13.643   9.609  1.00  0.00     0.023 A 
ATOM     77  C   UNL     1     -11.070 -14.259  10.170  1.00  0.00     0.012 A 
ATOM     78  C   UNL     1     -10.137 -12.453   8.876  1.00  0.00     0.148 A 
ATOM     79  C   UNL     1     -12.355 -13.752   9.961  1.00  0.00     0.002 A 
ATOM     80  C   UNL     1     -11.409 -11.909   8.737  1.00  0.00     0.091 A 
ATOM     81  F   UNL     1      -9.136 -11.905   8.184  1.00  0.00    -0.205 F 
ATOM     82  C   UNL     1     -12.525 -12.572   9.248  1.00  0.00     0.022 A 
BRANCH  80  83
ATOM     83  S   UNL     1     -11.679 -10.364   7.860  1.00  0.00     0.127 S 
ATOM     84  O   UNL     1     -12.288 -10.836   6.620  1.00  0.00    -0.237 OA
ATOM     85  O   UNL     1     -12.584  -9.660   8.769  1.00  0.00    -0.237 OA
ATOM     86  O   UNL     1     -10.363  -9.751   7.737  1.00  0.00    -0.744 OA
ENDBRANCH  80  83
ENDBRANCH  62  76
BRANCH  63  87
ATOM     87  C   UNL     1      -7.310 -14.444   1.602  1.00  0.00     0.023 A 
ATOM     88  C   UNL     1      -8.351 -14.819   0.728  1.00  0.00     0.012 A 
ATOM     89  C   UNL     1      -6.653 -13.217   1.354  1.00  0.00     0.148 A 
ATOM     90  C   UNL     1      -8.739 -13.990  -0.336  1.00  0.00     0.002 A 
ATOM     91  C   UNL     1      -7.038 -12.400   0.293  1.00  0.00     0.091 A 
ATOM     92  F   UNL     1      -5.714 -12.804   2.215  1.00  0.00    -0.205 F 
ATOM     93  C   UNL     1      -8.088 -12.779  -0.550  1.00  0.00     0.022 A 
BRANCH  91  94
ATOM     94  S   UNL     1      -6.255 -10.812  -0.022  1.00  0.00     0.127 S 
ATOM     95  O   UNL     1      -5.999 -10.880  -1.462  1.00  0.00    -0.237 OA
ATOM     96  O   UNL     1      -7.305  -9.875   0.369  1.00  0.00    -0.237 OA
ATOM     97  O   UNL     1      -5.056 -10.801   0.803  1.00  0.00    -0.744 OA
ENDBRANCH  91  94
ENDBRANCH  63  87
BRANCH  75  98
ATOM     98  C   UNL     1      -7.531 -18.859   6.069  1.00  0.00     0.023 A 
ATOM     99  C   UNL     1      -6.241 -18.761   5.503  1.00  0.00     0.012 A 
ATOM    100  C   UNL     1      -7.981 -20.118   6.497  1.00  0.00     0.148 A 
ATOM    101  C   UNL     1      -5.428 -19.890   5.355  1.00  0.00     0.002 A 
ATOM    102  C   UNL     1      -7.156 -21.231   6.388  1.00  0.00     0.091 A 
ATOM    103  F   UNL     1      -9.203 -20.198   7.045  1.00  0.00    -0.205 F 
ATOM    104  C   UNL     1      -5.882 -21.124   5.810  1.00  0.00     0.022 A 
BRANCH 102 105
ATOM    105  S   UNL     1      -7.634 -22.820   7.068  1.00  0.00     0.127 S 
ATOM    106  O   UNL     1      -7.952 -23.583   5.863  1.00  0.00    -0.237 OA
ATOM    107  O   UNL     1      -6.415 -23.247   7.759  1.00  0.00    -0.237 OA
ATOM    108  O   UNL     1      -8.758 -22.555   7.957  1.00  0.00    -0.744 OA
ENDBRANCH 102 105
ENDBRANCH  75  98
ENDBRANCH  49  50
ENDBRANCH  41  44
ENDBRANCH  39  40
ENDBRANCH  38  39
ENDBRANCH  37  38
ENDBRANCH   3  37
TORSDOF 19
