REMARK SMILES C=CCN(CC(=O)NCCCNC(=O)c1ccc(-c2c3nc(c(-c4cccc(S(=O)(=O)[O-])c4F)c4ccc([nH]4)c(-c4cccc(S(=O)(=O)[O-])c4F)c4nc(c(-c5cccc(S(=O)(=O)[O-])c5F)c5ccc2[nH]5)C=C4)C=C3)cc1)c1ccc([N+](=O)[O-])cc1Br
REMARK SMILES IDX 10 1 9 2 8 3 6 4 7 5 5 7 4 8 3 9 2 10 1 11 78 12 79 13 86 14
REMARK SMILES IDX 80 15 85 16 87 17 81 18 82 19 83 20 84 21 11 22 12 23 13 24
REMARK SMILES IDX 14 26 15 27 16 28 77 29 17 30 76 31 18 32 19 33 20 34 70 35
REMARK SMILES IDX 21 36 75 37 69 38 71 39 22 40 74 41 68 42 67 43 23 45 55 46
REMARK SMILES IDX 35 47 54 48 36 49 39 50 53 51 72 52 37 53 38 54 52 56 73 57
REMARK SMILES IDX 40 58 24 59 25 60 33 61 26 62 28 63 34 64 27 65 29 66 30 67
REMARK SMILES IDX 31 68 32 69 56 70 57 71 65 72 58 73 60 74 66 75 59 76 61 77
REMARK SMILES IDX 62 78 63 79 64 80 41 81 42 82 50 83 43 84 45 85 51 86 44 87
REMARK SMILES IDX 46 88 47 89 48 90 49 91
REMARK H PARENT 8 6 12 25 71 44 39 55
REMARK Flexibility Score: inf
ROOT
ATOM      1  C   UNL     1      -4.281   0.454  -0.205  1.00  0.00     0.042 C 
ENDROOT
BRANCH   1   2
ATOM      2  C   UNL     1      -4.478  -0.952  -0.770  1.00  0.00     0.117 C 
BRANCH   2   3
ATOM      3  N   UNL     1      -4.550  -0.969  -2.216  1.00  0.00    -0.354 N 
ATOM      4  C   UNL     1      -3.610  -1.300  -3.151  1.00  0.00     0.239 C 
ATOM      5  O   UNL     1      -3.967  -1.256  -4.334  1.00  0.00    -0.273 OA
ATOM      6  H   UNL     1      -5.420  -0.696  -2.588  1.00  0.00     0.163 HD
BRANCH   4   7
ATOM      7  C   UNL     1      -2.191  -1.756  -2.768  1.00  0.00     0.216 C 
BRANCH   7   8
ATOM      8  N   UNL     1      -1.287  -0.724  -2.223  1.00  0.00    -0.358 N 
BRANCH   8   9
ATOM      9  C   UNL     1      -1.076  -0.656  -0.776  1.00  0.00     0.144 C 
BRANCH   9  10
ATOM     10  C   UNL     1       0.345  -0.904  -0.389  1.00  0.00    -0.014 C 
ATOM     11  C   UNL     1       1.087  -0.046   0.324  1.00  0.00     0.006 C 
ENDBRANCH   9  10
ENDBRANCH   8   9
BRANCH   8  12
ATOM     12  C   UNL     1      -0.949   0.389  -2.994  1.00  0.00     0.052 A 
ATOM     13  C   UNL     1      -1.931   1.349  -3.308  1.00  0.00     0.034 A 
ATOM     14  C   UNL     1       0.362   0.652  -3.454  1.00  0.00     0.048 A 
ATOM     15  C   UNL     1      -1.632   2.528  -4.000  1.00  0.00     0.088 A 
ATOM     16  C   UNL     1       0.690   1.856  -4.095  1.00  0.00     0.103 A 
ATOM     17  Br  UNL     1       1.756  -0.646  -3.387  1.00  0.00    -0.048 Br
ATOM     18  C   UNL     1      -0.313   2.789  -4.364  1.00  0.00     0.270 A 
BRANCH  18  19
ATOM     19  N   UNL     1       0.017   4.028  -5.072  1.00  0.00     0.062 N 
ATOM     20  O   UNL     1      -0.915   4.659  -5.588  1.00  0.00    -0.258 OA
ATOM     21  O   UNL     1       1.211   4.353  -5.135  1.00  0.00    -0.258 OA
ENDBRANCH  18  19
ENDBRANCH   8  12
ENDBRANCH   7   8
ENDBRANCH   4   7
ENDBRANCH   2   3
ENDBRANCH   1   2
BRANCH   1  22
ATOM     22  C   UNL     1      -5.496   1.368  -0.331  1.00  0.00     0.118 C 
BRANCH  22  23
ATOM     23  N   UNL     1      -6.618   0.916   0.477  1.00  0.00    -0.352 N 
ATOM     24  C   UNL     1      -7.308   1.551   1.480  1.00  0.00     0.251 C 
ATOM     25  H   UNL     1      -6.934   0.007   0.271  1.00  0.00     0.163 HD
ATOM     26  O   UNL     1      -8.098   0.896   2.157  1.00  0.00    -0.269 OA
BRANCH  24  27
ATOM     27  C   UNL     1      -7.115   2.993   1.763  1.00  0.00     0.039 A 
ATOM     28  C   UNL     1      -7.149   3.423   3.094  1.00  0.00     0.014 A 
ATOM     29  C   UNL     1      -6.967   3.932   0.739  1.00  0.00     0.014 A 
ATOM     30  C   UNL     1      -6.993   4.779   3.398  1.00  0.00     0.010 A 
ATOM     31  C   UNL     1      -6.737   5.273   1.047  1.00  0.00     0.010 A 
ATOM     32  C   UNL     1      -6.763   5.715   2.378  1.00  0.00    -0.014 A 
BRANCH  32  33
ATOM     33  C   UNL     1      -6.559   7.156   2.684  1.00  0.00     0.031 A 
ATOM     34  C   UNL     1      -7.530   8.189   2.175  1.00  0.00     0.074 A 
ATOM     35  C   UNL     1      -5.458   7.547   3.357  1.00  0.00     0.049 A 
ATOM     36  N   UNL     1      -7.489   9.491   2.295  1.00  0.00    -0.248 NA
ATOM     37  C   UNL     1      -8.687   7.697   1.407  1.00  0.00     0.031 C 
ATOM     38  C   UNL     1      -4.402   6.655   3.841  1.00  0.00     0.029 A 
ATOM     39  N   UNL     1      -5.030   8.798   3.727  1.00  0.00    -0.354 N 
ATOM     40  C   UNL     1      -8.585   9.976   1.590  1.00  0.00     0.074 A 
ATOM     41  C   UNL     1      -9.256   8.829   1.017  1.00  0.00     0.031 C 
ATOM     42  C   UNL     1      -3.451   7.385   4.444  1.00  0.00     0.029 A 
ATOM     43  C   UNL     1      -3.812   8.797   4.368  1.00  0.00     0.049 A 
ATOM     44  H   UNL     1      -5.545   9.617   3.551  1.00  0.00     0.167 HD
ATOM     45  C   UNL     1      -9.015  11.253   1.456  1.00  0.00     0.034 A 
ATOM     46  C   UNL     1      -3.068   9.819   4.837  1.00  0.00     0.034 A 
ATOM     47  C   UNL     1      -8.377  12.388   2.067  1.00  0.00     0.049 A 
ATOM     48  C   UNL     1      -3.592  11.224   4.715  1.00  0.00     0.074 A 
ATOM     49  C   UNL     1      -8.785  13.710   2.064  1.00  0.00     0.029 A 
ATOM     50  N   UNL     1      -7.194  12.337   2.788  1.00  0.00    -0.354 N 
ATOM     51  N   UNL     1      -4.715  11.643   4.183  1.00  0.00    -0.248 NA
ATOM     52  C   UNL     1      -2.766  12.294   5.293  1.00  0.00     0.031 C 
ATOM     53  C   UNL     1      -7.838  14.462   2.769  1.00  0.00     0.029 A 
ATOM     54  C   UNL     1      -6.853  13.604   3.231  1.00  0.00     0.049 A 
ATOM     55  H   UNL     1      -6.673  11.520   2.961  1.00  0.00     0.167 HD
ATOM     56  C   UNL     1      -4.747  13.017   4.395  1.00  0.00     0.074 A 
ATOM     57  C   UNL     1      -3.542  13.356   5.124  1.00  0.00     0.031 C 
ATOM     58  C   UNL     1      -5.681  13.920   4.006  1.00  0.00     0.034 A 
BRANCH  45  59
ATOM     59  C   UNL     1     -10.274  11.489   0.660  1.00  0.00     0.023 A 
ATOM     60  C   UNL     1     -11.517  11.095   1.196  1.00  0.00     0.012 A 
ATOM     61  C   UNL     1     -10.238  12.151  -0.583  1.00  0.00     0.148 A 
ATOM     62  C   UNL     1     -12.700  11.321   0.494  1.00  0.00     0.002 A 
ATOM     63  C   UNL     1     -11.425  12.414  -1.257  1.00  0.00     0.091 A 
ATOM     64  F   UNL     1      -9.046  12.502  -1.087  1.00  0.00    -0.205 F 
ATOM     65  C   UNL     1     -12.655  11.989  -0.727  1.00  0.00     0.022 A 
BRANCH  63  66
ATOM     66  S   UNL     1     -11.483  13.337  -2.797  1.00  0.00     0.127 S 
ATOM     67  O   UNL     1     -11.825  12.288  -3.757  1.00  0.00    -0.237 OA
ATOM     68  O   UNL     1     -12.555  14.299  -2.540  1.00  0.00    -0.237 OA
ATOM     69  O   UNL     1     -10.162  13.928  -2.961  1.00  0.00    -0.744 OA
ENDBRANCH  63  66
ENDBRANCH  45  59
BRANCH  46  70
ATOM     70  C   UNL     1      -1.778   9.543   5.531  1.00  0.00     0.023 A 
ATOM     71  C   UNL     1      -1.682   9.756   6.920  1.00  0.00     0.012 A 
ATOM     72  C   UNL     1      -0.658   9.050   4.834  1.00  0.00     0.148 A 
ATOM     73  C   UNL     1      -0.486   9.519   7.597  1.00  0.00     0.002 A 
ATOM     74  C   UNL     1       0.514   8.761   5.524  1.00  0.00     0.091 A 
ATOM     75  F   UNL     1      -0.764   8.865   3.511  1.00  0.00    -0.205 F 
ATOM     76  C   UNL     1       0.609   9.012   6.902  1.00  0.00     0.022 A 
BRANCH  74  77
ATOM     77  S   UNL     1       1.926   7.979   4.735  1.00  0.00     0.127 S 
ATOM     78  O   UNL     1       2.882   9.079   4.671  1.00  0.00    -0.237 OA
ATOM     79  O   UNL     1       2.261   6.924   5.692  1.00  0.00    -0.237 OA
ATOM     80  O   UNL     1       1.434   7.487   3.454  1.00  0.00    -0.744 OA
ENDBRANCH  74  77
ENDBRANCH  46  70
BRANCH  58  81
ATOM     81  C   UNL     1      -5.464  15.360   4.390  1.00  0.00     0.023 A 
ATOM     82  C   UNL     1      -4.463  16.115   3.746  1.00  0.00     0.012 A 
ATOM     83  C   UNL     1      -6.295  15.984   5.341  1.00  0.00     0.148 A 
ATOM     84  C   UNL     1      -4.271  17.458   4.068  1.00  0.00     0.002 A 
ATOM     85  C   UNL     1      -6.130  17.336   5.621  1.00  0.00     0.091 A 
ATOM     86  F   UNL     1      -7.229  15.245   5.959  1.00  0.00    -0.205 F 
ATOM     87  C   UNL     1      -5.111  18.071   4.995  1.00  0.00     0.022 A 
BRANCH  85  88
ATOM     88  S   UNL     1      -7.227  18.228   6.729  1.00  0.00     0.127 S 
ATOM     89  O   UNL     1      -6.388  18.388   7.915  1.00  0.00    -0.237 OA
ATOM     90  O   UNL     1      -7.480  19.465   5.989  1.00  0.00    -0.237 OA
ATOM     91  O   UNL     1      -8.399  17.379   6.899  1.00  0.00    -0.744 OA
ENDBRANCH  85  88
ENDBRANCH  58  81
ENDBRANCH  32  33
ENDBRANCH  24  27
ENDBRANCH  22  23
ENDBRANCH   1  22
TORSDOF 18
