REMARK SMILES O=C(COc1ccc2c(c1)CCC2)N[C@@H](CO)C(=O)NCCCNC(=O)c1ccc(-c2c3nc(c(-c4cccc(S(=O)(=O)[O-])c4F)c4ccc([nH]4)c(-c4cccc(S(=O)(=O)[O-])c4F)c4nc(c(-c5cccc(S(=O)(=O)[O-])c5F)c5ccc2[nH]5)C=C4)C=C3)cc1
REMARK SMILES IDX 21 1 20 2 18 3 19 4 15 6 14 7 1 8 2 9 3 11 4 12 5 13 6 14
REMARK SMILES IDX 10 15 7 16 9 17 8 18 11 19 13 20 12 21 16 22 17 23 22 25
REMARK SMILES IDX 23 26 24 27 25 28 26 30 27 31 28 32 89 33 29 34 88 35 30 36
REMARK SMILES IDX 31 37 32 38 82 39 33 40 87 41 81 42 83 43 34 44 86 45 80 46
REMARK SMILES IDX 79 47 35 49 67 50 47 51 66 52 48 53 51 54 65 55 84 56 49 57
REMARK SMILES IDX 50 58 64 60 85 61 52 62 36 63 37 64 45 65 38 66 40 67 46 68
REMARK SMILES IDX 39 69 41 70 42 71 43 72 44 73 68 74 69 75 77 76 70 77 72 78
REMARK SMILES IDX 78 79 71 80 73 81 74 82 75 83 76 84 53 85 54 86 62 87 55 88
REMARK SMILES IDX 57 89 63 90 56 91 58 92 59 93 60 94 61 95
REMARK H PARENT 20 5 14 10 17 24 24 29 83 48 51 59
REMARK Flexibility Score: inf
ROOT
ATOM      1  C   UNL     1       5.062  -3.418   0.382  1.00  0.00     0.117 C 
ENDROOT
BRANCH   1   2
ATOM      2  N   UNL     1       3.881  -3.726   1.168  1.00  0.00    -0.354 N 
ATOM      3  C   UNL     1       2.569  -3.448   0.932  1.00  0.00     0.244 C 
ATOM      4  O   UNL     1       1.732  -4.018   1.640  1.00  0.00    -0.273 OA
ATOM      5  H   UNL     1       4.057  -4.214   2.005  1.00  0.00     0.163 HD
BRANCH   3   6
ATOM      6  C   UNL     1       2.123  -2.513  -0.203  1.00  0.00     0.197 C 
BRANCH   6   7
ATOM      7  N   UNL     1       2.825  -1.230  -0.139  1.00  0.00    -0.339 N 
ATOM      8  O   UNL     1       1.056   0.030  -0.865  1.00  0.00    -0.271 OA
ATOM      9  C   UNL     1       2.149  -0.040  -0.310  1.00  0.00     0.258 C 
ATOM     10  H   UNL     1       3.794  -1.217   0.030  1.00  0.00     0.164 HD
BRANCH   9  11
ATOM     11  C   UNL     1       2.878   1.183   0.260  1.00  0.00     0.329 C 
BRANCH  11  12
ATOM     12  O   UNL     1       3.726   0.898   1.375  1.00  0.00    -0.484 OA
BRANCH  12  13
ATOM     13  C   UNL     1       3.087   0.964   2.588  1.00  0.00     0.120 A 
ATOM     14  C   UNL     1       2.049   0.079   2.929  1.00  0.00     0.047 A 
ATOM     15  C   UNL     1       3.588   1.862   3.535  1.00  0.00     0.050 A 
ATOM     16  C   UNL     1       1.492   0.088   4.209  1.00  0.00     0.008 A 
ATOM     17  C   UNL     1       3.031   1.858   4.807  1.00  0.00    -0.041 A 
ATOM     18  C   UNL     1       1.998   0.975   5.140  1.00  0.00    -0.045 A 
ATOM     19  C   UNL     1       3.370   2.732   5.976  1.00  0.00     0.036 C 
ATOM     20  C   UNL     1       1.569   1.158   6.562  1.00  0.00     0.036 C 
ATOM     21  C   UNL     1       2.767   1.924   7.137  1.00  0.00     0.010 C 
ENDBRANCH  12  13
ENDBRANCH  11  12
ENDBRANCH   9  11
ENDBRANCH   6   7
BRANCH   6  22
ATOM     22  C   UNL     1       2.116  -3.204  -1.574  1.00  0.00     0.191 C 
BRANCH  22  23
ATOM     23  O   UNL     1       3.394  -3.299  -2.196  1.00  0.00    -0.394 OA
ATOM     24  H   UNL     1       3.737  -2.409  -2.368  1.00  0.00     0.210 HD
ENDBRANCH  22  23
ENDBRANCH   6  22
ENDBRANCH   3   6
ENDBRANCH   1   2
BRANCH   1  25
ATOM     25  C   UNL     1       6.100  -2.638   1.169  1.00  0.00     0.042 C 
BRANCH  25  26
ATOM     26  C   UNL     1       6.702  -3.414   2.326  1.00  0.00     0.118 C 
BRANCH  26  27
ATOM     27  N   UNL     1       7.436  -4.596   1.890  1.00  0.00    -0.352 N 
ATOM     28  C   UNL     1       8.767  -4.904   2.016  1.00  0.00     0.251 C 
ATOM     29  H   UNL     1       6.892  -5.279   1.435  1.00  0.00     0.163 HD
ATOM     30  O   UNL     1       9.224  -5.873   1.408  1.00  0.00    -0.269 OA
BRANCH  28  31
ATOM     31  C   UNL     1       9.652  -4.075   2.861  1.00  0.00     0.039 A 
ATOM     32  C   UNL     1      10.959  -3.821   2.438  1.00  0.00     0.014 A 
ATOM     33  C   UNL     1       9.203  -3.561   4.079  1.00  0.00     0.014 A 
ATOM     34  C   UNL     1      11.794  -3.017   3.216  1.00  0.00     0.010 A 
ATOM     35  C   UNL     1       9.989  -2.662   4.786  1.00  0.00     0.010 A 
ATOM     36  C   UNL     1      11.308  -2.411   4.386  1.00  0.00    -0.014 A 
BRANCH  36  37
ATOM     37  C   UNL     1      12.175  -1.559   5.238  1.00  0.00     0.031 A 
ATOM     38  C   UNL     1      12.426  -1.943   6.674  1.00  0.00     0.074 A 
ATOM     39  C   UNL     1      12.672  -0.406   4.752  1.00  0.00     0.049 A 
ATOM     40  N   UNL     1      13.108  -1.308   7.591  1.00  0.00    -0.248 NA
ATOM     41  C   UNL     1      11.793  -3.183   7.154  1.00  0.00     0.031 C 
ATOM     42  C   UNL     1      12.422   0.125   3.411  1.00  0.00     0.029 A 
ATOM     43  N   UNL     1      13.472   0.540   5.341  1.00  0.00    -0.354 N 
ATOM     44  C   UNL     1      12.953  -2.048   8.758  1.00  0.00     0.074 A 
ATOM     45  C   UNL     1      12.061  -3.142   8.449  1.00  0.00     0.031 C 
ATOM     46  C   UNL     1      13.060   1.298   3.277  1.00  0.00     0.029 A 
ATOM     47  C   UNL     1      13.740   1.616   4.529  1.00  0.00     0.049 A 
ATOM     48  H   UNL     1      13.820   0.457   6.258  1.00  0.00     0.167 HD
ATOM     49  C   UNL     1      13.531  -1.864   9.969  1.00  0.00     0.034 A 
ATOM     50  C   UNL     1      14.450   2.736   4.768  1.00  0.00     0.034 A 
ATOM     51  C   UNL     1      14.448  -0.797  10.260  1.00  0.00     0.049 A 
ATOM     52  C   UNL     1      15.134   2.896   6.097  1.00  0.00     0.074 A 
ATOM     53  C   UNL     1      15.155  -0.560  11.425  1.00  0.00     0.029 A 
ATOM     54  N   UNL     1      14.781   0.220   9.377  1.00  0.00    -0.354 N 
ATOM     55  N   UNL     1      15.097   2.106   7.144  1.00  0.00    -0.248 NA
ATOM     56  C   UNL     1      15.995   4.075   6.264  1.00  0.00     0.031 C 
ATOM     57  C   UNL     1      15.894   0.616  11.255  1.00  0.00     0.029 A 
ATOM     58  C   UNL     1      15.680   1.088   9.970  1.00  0.00     0.049 A 
ATOM     59  H   UNL     1      14.429   0.309   8.462  1.00  0.00     0.167 HD
ATOM     60  C   UNL     1      15.959   2.670   8.078  1.00  0.00     0.074 A 
ATOM     61  C   UNL     1      16.514   3.860   7.465  1.00  0.00     0.031 C 
ATOM     62  C   UNL     1      16.258   2.245   9.331  1.00  0.00     0.034 A 
BRANCH  49  63
ATOM     63  C   UNL     1      13.216  -2.872  11.046  1.00  0.00     0.023 A 
ATOM     64  C   UNL     1      13.664  -4.204  10.912  1.00  0.00     0.012 A 
ATOM     65  C   UNL     1      12.486  -2.506  12.193  1.00  0.00     0.148 A 
ATOM     66  C   UNL     1      13.339  -5.167  11.866  1.00  0.00     0.002 A 
ATOM     67  C   UNL     1      12.213  -3.459  13.169  1.00  0.00     0.091 A 
ATOM     68  F   UNL     1      12.048  -1.244  12.300  1.00  0.00    -0.205 F 
ATOM     69  C   UNL     1      12.622  -4.792  12.998  1.00  0.00     0.022 A 
BRANCH  67  70
ATOM     70  S   UNL     1      11.372  -3.058  14.704  1.00  0.00     0.127 S 
ATOM     71  O   UNL     1      10.063  -3.675  14.493  1.00  0.00    -0.237 OA
ATOM     72  O   UNL     1      12.210  -3.729  15.698  1.00  0.00    -0.237 OA
ATOM     73  O   UNL     1      11.374  -1.605  14.793  1.00  0.00    -0.744 OA
ENDBRANCH  67  70
ENDBRANCH  49  63
BRANCH  50  74
ATOM     74  C   UNL     1      14.597   3.755   3.691  1.00  0.00     0.023 A 
ATOM     75  C   UNL     1      15.836   3.907   3.039  1.00  0.00     0.012 A 
ATOM     76  C   UNL     1      13.499   4.530   3.272  1.00  0.00     0.148 A 
ATOM     77  C   UNL     1      15.985   4.833   2.006  1.00  0.00     0.002 A 
ATOM     78  C   UNL     1      13.639   5.408   2.205  1.00  0.00     0.091 A 
ATOM     79  F   UNL     1      12.331   4.369   3.910  1.00  0.00    -0.205 F 
ATOM     80  C   UNL     1      14.885   5.575   1.582  1.00  0.00     0.022 A 
BRANCH  78  81
ATOM     81  S   UNL     1      12.249   6.302   1.502  1.00  0.00     0.127 S 
ATOM     82  O   UNL     1      12.597   7.687   1.808  1.00  0.00    -0.237 OA
ATOM     83  O   UNL     1      12.346   5.939   0.087  1.00  0.00    -0.237 OA
ATOM     84  O   UNL     1      11.064   5.788   2.175  1.00  0.00    -0.744 OA
ENDBRANCH  78  81
ENDBRANCH  50  74
BRANCH  62  85
ATOM     85  C   UNL     1      17.271   3.038  10.114  1.00  0.00     0.023 A 
ATOM     86  C   UNL     1      16.945   4.317  10.607  1.00  0.00     0.012 A 
ATOM     87  C   UNL     1      18.530   2.481  10.415  1.00  0.00     0.148 A 
ATOM     88  C   UNL     1      17.872   5.046  11.352  1.00  0.00     0.002 A 
ATOM     89  C   UNL     1      19.427   3.190  11.205  1.00  0.00     0.091 A 
ATOM     90  F   UNL     1      18.829   1.271   9.922  1.00  0.00    -0.205 F 
ATOM     91  C   UNL     1      19.106   4.478  11.662  1.00  0.00     0.022 A 
BRANCH  89  92
ATOM     92  S   UNL     1      20.995   2.494  11.736  1.00  0.00     0.127 S 
ATOM     93  O   UNL     1      21.945   3.237  10.911  1.00  0.00    -0.237 OA
ATOM     94  O   UNL     1      21.022   2.840  13.158  1.00  0.00    -0.237 OA
ATOM     95  O   UNL     1      20.912   1.065  11.465  1.00  0.00    -0.744 OA
ENDBRANCH  89  92
ENDBRANCH  62  85
ENDBRANCH  36  37
ENDBRANCH  28  31
ENDBRANCH  26  27
ENDBRANCH  25  26
ENDBRANCH   1  25
TORSDOF 19
