REMARK SMILES O=C(NCCCNC(=O)c1cccc(S(=O)(=O)NNC(=O)c2ccc3c(c2)OCO3)c1)c1ccc(-c2c3nc(c(-c4cccc(S(=O)(=O)[O-])c4F)c4ccc([nH]4)c(-c4cccc(S(=O)(=O)[O-])c4F)c4nc(c(-c5cccc(S(=O)(=O)[O-])c5F)c5ccc2[nH]5)C=C4)C=C3)cc1
REMARK SMILES IDX 5 1 4 2 3 3 1 4 2 5 32 7 33 8 94 9 34 10 93 11 35 12 36 13
REMARK SMILES IDX 37 14 87 15 38 16 92 17 86 18 88 19 39 20 91 21 85 22 84 23
REMARK SMILES IDX 40 25 72 26 52 27 71 28 53 29 56 30 70 31 89 32 54 33 55 34
REMARK SMILES IDX 69 36 90 37 57 38 41 39 42 40 50 41 43 42 45 43 51 44 44 45
REMARK SMILES IDX 46 46 47 47 48 48 49 49 73 50 74 51 82 52 75 53 77 54 83 55
REMARK SMILES IDX 76 56 78 57 79 58 80 59 81 60 58 61 59 62 67 63 60 64 62 65
REMARK SMILES IDX 68 66 61 67 63 68 64 69 65 70 66 71 6 72 7 73 8 74 9 76
REMARK SMILES IDX 10 77 11 78 31 79 12 80 14 81 13 82 15 83 16 84 17 85 18 86
REMARK SMILES IDX 19 88 20 89 21 91 22 92 23 93 27 94 24 95 26 96 25 97 28 98
REMARK SMILES IDX 30 99 29 100
REMARK H PARENT 3 6 88 24 56 35 7 75 18 87 19 90
REMARK Flexibility Score: inf
ROOT
ATOM      1  C   UNL     1       4.843  -0.345  -2.573  1.00  0.00     0.042 C 
ENDROOT
BRANCH   1   2
ATOM      2  C   UNL     1       4.509   0.523  -1.370  1.00  0.00     0.118 C 
BRANCH   2   3
ATOM      3  N   UNL     1       3.083   0.533  -1.063  1.00  0.00    -0.352 N 
ATOM      4  O   UNL     1       1.165  -0.075  -0.063  1.00  0.00    -0.269 OA
ATOM      5  C   UNL     1       2.391  -0.029  -0.015  1.00  0.00     0.251 C 
ATOM      6  H   UNL     1       2.525   1.020  -1.712  1.00  0.00     0.163 HD
BRANCH   5   7
ATOM      7  C   UNL     1       3.117  -0.594   1.145  1.00  0.00     0.039 A 
ATOM      8  C   UNL     1       4.247   0.045   1.655  1.00  0.00     0.014 A 
ATOM      9  C   UNL     1       2.655  -1.769   1.746  1.00  0.00     0.014 A 
ATOM     10  C   UNL     1       5.021  -0.585   2.619  1.00  0.00     0.010 A 
ATOM     11  C   UNL     1       3.371  -2.339   2.807  1.00  0.00     0.010 A 
ATOM     12  C   UNL     1       4.584  -1.774   3.225  1.00  0.00    -0.014 A 
BRANCH  12  13
ATOM     13  C   UNL     1       5.390  -2.339   4.339  1.00  0.00     0.031 A 
ATOM     14  C   UNL     1       6.015  -3.705   4.253  1.00  0.00     0.074 A 
ATOM     15  C   UNL     1       5.597  -1.569   5.428  1.00  0.00     0.049 A 
ATOM     16  N   UNL     1       6.816  -4.292   5.105  1.00  0.00    -0.248 NA
ATOM     17  C   UNL     1       5.698  -4.523   3.072  1.00  0.00     0.031 C 
ATOM     18  C   UNL     1       4.993  -0.252   5.650  1.00  0.00     0.029 A 
ATOM     19  N   UNL     1       6.380  -1.764   6.536  1.00  0.00    -0.354 N 
ATOM     20  C   UNL     1       7.075  -5.554   4.584  1.00  0.00     0.074 A 
ATOM     21  C   UNL     1       6.333  -5.656   3.346  1.00  0.00     0.031 C 
ATOM     22  C   UNL     1       5.466   0.264   6.793  1.00  0.00     0.029 A 
ATOM     23  C   UNL     1       6.361  -0.705   7.414  1.00  0.00     0.049 A 
ATOM     24  H   UNL     1       6.906  -2.582   6.688  1.00  0.00     0.167 HD
ATOM     25  C   UNL     1       7.876  -6.529   5.080  1.00  0.00     0.034 A 
ATOM     26  C   UNL     1       6.986  -0.530   8.593  1.00  0.00     0.034 A 
ATOM     27  C   UNL     1       8.640  -6.409   6.295  1.00  0.00     0.049 A 
ATOM     28  C   UNL     1       7.909  -1.605   9.087  1.00  0.00     0.074 A 
ATOM     29  C   UNL     1       9.504  -7.329   6.863  1.00  0.00     0.029 A 
ATOM     30  N   UNL     1       8.637  -5.300   7.127  1.00  0.00    -0.354 N 
ATOM     31  N   UNL     1       8.226  -2.742   8.518  1.00  0.00    -0.248 NA
ATOM     32  C   UNL     1       8.582  -1.362  10.369  1.00  0.00     0.031 C 
ATOM     33  C   UNL     1      10.019  -6.778   8.042  1.00  0.00     0.029 A 
ATOM     34  C   UNL     1       9.486  -5.509   8.201  1.00  0.00     0.049 A 
ATOM     35  H   UNL     1       8.108  -4.483   6.977  1.00  0.00     0.167 HD
ATOM     36  C   UNL     1       9.143  -3.347   9.366  1.00  0.00     0.074 A 
ATOM     37  C   UNL     1       9.364  -2.429  10.466  1.00  0.00     0.031 C 
ATOM     38  C   UNL     1       9.727  -4.566   9.262  1.00  0.00     0.034 A 
BRANCH  25  39
ATOM     39  C   UNL     1       8.019  -7.798   4.278  1.00  0.00     0.023 A 
ATOM     40  C   UNL     1       8.804  -7.787   3.107  1.00  0.00     0.012 A 
ATOM     41  C   UNL     1       7.452  -9.010   4.718  1.00  0.00     0.148 A 
ATOM     42  C   UNL     1       9.005  -8.956   2.374  1.00  0.00     0.002 A 
ATOM     43  C   UNL     1       7.686 -10.180   4.002  1.00  0.00     0.091 A 
ATOM     44  F   UNL     1       6.692  -8.998   5.823  1.00  0.00    -0.205 F 
ATOM     45  C   UNL     1       8.455 -10.153   2.826  1.00  0.00     0.022 A 
BRANCH  43  46
ATOM     46  S   UNL     1       7.082 -11.785   4.538  1.00  0.00     0.127 S 
ATOM     47  O   UNL     1       6.030 -12.046   3.557  1.00  0.00    -0.237 OA
ATOM     48  O   UNL     1       8.271 -12.627   4.394  1.00  0.00    -0.237 OA
ATOM     49  O   UNL     1       6.629 -11.605   5.910  1.00  0.00    -0.744 OA
ENDBRANCH  43  46
ENDBRANCH  25  39
BRANCH  26  50
ATOM     50  C   UNL     1       6.786   0.736   9.351  1.00  0.00     0.023 A 
ATOM     51  C   UNL     1       7.848   1.653   9.475  1.00  0.00     0.012 A 
ATOM     52  C   UNL     1       5.531   1.062   9.901  1.00  0.00     0.148 A 
ATOM     53  C   UNL     1       7.668   2.860  10.152  1.00  0.00     0.002 A 
ATOM     54  C   UNL     1       5.342   2.293  10.517  1.00  0.00     0.091 A 
ATOM     55  F   UNL     1       4.536   0.170   9.795  1.00  0.00    -0.205 F 
ATOM     56  C   UNL     1       6.413   3.187  10.659  1.00  0.00     0.022 A 
BRANCH  54  57
ATOM     57  S   UNL     1       3.712   2.839  11.040  1.00  0.00     0.127 S 
ATOM     58  O   UNL     1       3.732   2.522  12.464  1.00  0.00    -0.237 OA
ATOM     59  O   UNL     1       3.746   4.268  10.725  1.00  0.00    -0.237 OA
ATOM     60  O   UNL     1       2.778   2.075  10.222  1.00  0.00    -0.744 OA
ENDBRANCH  54  57
ENDBRANCH  26  50
BRANCH  38  61
ATOM     61  C   UNL     1      10.665  -4.971  10.367  1.00  0.00     0.023 A 
ATOM     62  C   UNL     1      10.139  -5.330  11.624  1.00  0.00     0.012 A 
ATOM     63  C   UNL     1      12.054  -5.037  10.152  1.00  0.00     0.148 A 
ATOM     64  C   UNL     1      10.986  -5.713  12.663  1.00  0.00     0.002 A 
ATOM     65  C   UNL     1      12.889  -5.462  11.180  1.00  0.00     0.091 A 
ATOM     66  F   UNL     1      12.537  -4.669   8.957  1.00  0.00    -0.205 F 
ATOM     67  C   UNL     1      12.358  -5.789  12.438  1.00  0.00     0.022 A 
BRANCH  65  68
ATOM     68  S   UNL     1      14.658  -5.667  10.947  1.00  0.00     0.127 S 
ATOM     69  O   UNL     1      15.184  -4.458  11.578  1.00  0.00    -0.237 OA
ATOM     70  O   UNL     1      14.931  -6.905  11.680  1.00  0.00    -0.237 OA
ATOM     71  O   UNL     1      14.858  -5.766   9.508  1.00  0.00    -0.744 OA
ENDBRANCH  65  68
ENDBRANCH  38  61
ENDBRANCH  12  13
ENDBRANCH   5   7
ENDBRANCH   2   3
ENDBRANCH   1   2
BRANCH   1  72
ATOM     72  C   UNL     1       4.264   0.181  -3.877  1.00  0.00     0.118 C 
BRANCH  72  73
ATOM     73  N   UNL     1       4.806   1.487  -4.228  1.00  0.00    -0.352 N 
ATOM     74  C   UNL     1       5.794   1.823  -5.118  1.00  0.00     0.251 C 
ATOM     75  H   UNL     1       4.400   2.247  -3.752  1.00  0.00     0.163 HD
ATOM     76  O   UNL     1       6.287   2.947  -5.096  1.00  0.00    -0.269 OA
BRANCH  74  77
ATOM     77  C   UNL     1       6.254   0.849  -6.127  1.00  0.00     0.041 A 
ATOM     78  C   UNL     1       7.623   0.732  -6.388  1.00  0.00     0.014 A 
ATOM     79  C   UNL     1       5.328   0.119  -6.876  1.00  0.00     0.035 A 
ATOM     80  C   UNL     1       8.073  -0.163  -7.361  1.00  0.00     0.002 A 
ATOM     81  C   UNL     1       5.784  -0.783  -7.834  1.00  0.00     0.084 A 
ATOM     82  C   UNL     1       7.155  -0.929  -8.078  1.00  0.00     0.022 A 
BRANCH  81  83
ATOM     83  S   UNL     1       4.664  -1.732  -8.818  1.00  0.00     0.257 S 
ATOM     84  O   UNL     1       4.898  -1.377 -10.200  1.00  0.00    -0.205 OA
ATOM     85  O   UNL     1       4.732  -3.097  -8.346  1.00  0.00    -0.205 OA
BRANCH  83  86
ATOM     86  N   UNL     1       3.120  -1.179  -8.411  1.00  0.00    -0.123 NA
ATOM     87  H   UNL     1       3.077  -1.167  -7.392  1.00  0.00     0.167 HD
BRANCH  86  88
ATOM     88  N   UNL     1       2.644   0.114  -8.858  1.00  0.00    -0.273 N 
ATOM     89  C   UNL     1       1.312   0.416  -9.060  1.00  0.00     0.266 C 
ATOM     90  H   UNL     1       3.309   0.819  -9.027  1.00  0.00     0.186 HD
ATOM     91  O   UNL     1       0.926   1.537  -9.367  1.00  0.00    -0.268 OA
BRANCH  89  92
ATOM     92  C   UNL     1       0.371  -0.718  -9.062  1.00  0.00     0.045 A 
ATOM     93  C   UNL     1       0.001  -1.235 -10.321  1.00  0.00     0.018 A 
ATOM     94  C   UNL     1      -0.003  -1.345  -7.870  1.00  0.00     0.064 A 
ATOM     95  C   UNL     1      -0.714  -2.430 -10.402  1.00  0.00     0.051 A 
ATOM     96  C   UNL     1      -0.682  -2.537  -7.992  1.00  0.00     0.166 A 
ATOM     97  C   UNL     1      -1.019  -3.068  -9.219  1.00  0.00     0.165 A 
ATOM     98  O   UNL     1      -1.042  -3.350  -6.963  1.00  0.00    -0.454 OA
ATOM     99  O   UNL     1      -1.632  -4.276  -9.109  1.00  0.00    -0.454 OA
ATOM    100  C   UNL     1      -1.536  -4.499  -7.686  1.00  0.00     0.468 C 
ENDBRANCH  89  92
ENDBRANCH  86  88
ENDBRANCH  83  86
ENDBRANCH  81  83
ENDBRANCH  74  77
ENDBRANCH  72  73
ENDBRANCH   1  72
TORSDOF 17
