REMARK SMILES CCCc1cc(OC(F)(F)F)cc2c1O[C@@H](C(F)(F)F)C(C(=O)NCCCNC(=O)c1ccc(-c3c4nc(c(-c5cccc(S(=O)(=O)[O-])c5F)c5ccc([nH]5)c(-c5cccc(S(=O)(=O)[O-])c5F)c5nc(c(-c6cccc(S(=O)(=O)[O-])c6F)c6ccc3[nH]6)C=C5)C=C4)cc1)=C2
REMARK SMILES IDX 26 1 25 2 24 3 22 4 23 5 21 7 4 8 5 9 14 10 6 11 13 12 15 13
REMARK SMILES IDX 12 14 94 15 16 16 3 17 2 18 1 19 7 20 8 21 9 22 10 23 11 24
REMARK SMILES IDX 17 25 18 26 19 27 20 28 27 29 28 30 29 31 30 33 31 34 32 35
REMARK SMILES IDX 93 36 33 37 92 38 34 39 35 40 36 41 86 42 37 43 91 44 85 45
REMARK SMILES IDX 87 46 38 47 90 48 84 49 83 50 39 52 71 53 51 54 70 55 52 56
REMARK SMILES IDX 55 57 69 58 88 59 53 60 54 61 68 63 89 64 56 65 40 66 41 67
REMARK SMILES IDX 49 68 42 69 44 70 50 71 43 72 45 73 46 74 47 75 48 76 72 77
REMARK SMILES IDX 73 78 81 79 74 80 76 81 82 82 75 83 77 84 78 85 79 86 80 87
REMARK SMILES IDX 57 88 58 89 66 90 59 91 61 92 67 93 60 94 62 95 63 96 64 97
REMARK SMILES IDX 65 98
REMARK H PARENT 24 6 28 32 87 51 55 62
REMARK Flexibility Score: inf
ROOT
ATOM      1  C   UNL     1       1.315  -9.576  -0.193  1.00  0.00     0.042 C 
ENDROOT
BRANCH   1   2
ATOM      2  C   UNL     1       2.535  -8.728  -0.568  1.00  0.00     0.118 C 
BRANCH   2   3
ATOM      3  N   UNL     1       2.637  -8.573  -2.011  1.00  0.00    -0.352 N 
ATOM      4  C   UNL     1       2.214  -7.610  -2.871  1.00  0.00     0.251 C 
ATOM      5  O   UNL     1       2.367  -7.807  -4.074  1.00  0.00    -0.270 OA
ATOM      6  H   UNL     1       3.107  -9.316  -2.454  1.00  0.00     0.163 HD
BRANCH   4   7
ATOM      7  C   UNL     1       1.651  -6.312  -2.418  1.00  0.00     0.067 C 
ATOM      8  C   UNL     1       0.428  -2.476  -1.171  1.00  0.00    -0.002 A 
ATOM      9  C   UNL     1      -0.461  -2.383  -0.085  1.00  0.00     0.054 A 
ATOM     10  C   UNL     1       0.827  -3.757  -1.596  1.00  0.00     0.131 A 
ATOM     11  C   UNL     1      -0.884  -3.520   0.607  1.00  0.00     0.130 A 
ATOM     12  C   UNL     1       0.371  -4.901  -0.940  1.00  0.00     0.021 A 
ATOM     13  O   UNL     1       1.731  -3.832  -2.620  1.00  0.00    -0.475 OA
ATOM     14  C   UNL     1      -0.478  -4.777   0.163  1.00  0.00     0.058 A 
ATOM     15  C   UNL     1       0.855  -6.210  -1.345  1.00  0.00     0.025 C 
ATOM     16  C   UNL     1       1.864  -5.104  -3.324  1.00  0.00     0.314 C 
BRANCH   8  17
ATOM     17  C   UNL     1       0.948  -1.257  -1.911  1.00  0.00     0.039 C 
BRANCH  17  18
ATOM     18  C   UNL     1       0.643   0.136  -1.341  1.00  0.00     0.001 C 
ATOM     19  C   UNL     1       1.403   0.448  -0.057  1.00  0.00     0.004 C 
ENDBRANCH  17  18
ENDBRANCH   8  17
BRANCH  11  20
ATOM     20  O   UNL     1      -1.674  -3.542   1.721  1.00  0.00    -0.406 OA
BRANCH  20  21
ATOM     21  C   UNL     1      -1.946  -2.308   2.363  1.00  0.00     0.573 C 
ATOM     22  F   UNL     1      -0.806  -1.640   2.651  1.00  0.00    -0.132 F 
ATOM     23  F   UNL     1      -2.736  -1.528   1.594  1.00  0.00    -0.132 F 
ATOM     24  F   UNL     1      -2.590  -2.549   3.526  1.00  0.00    -0.132 F 
ENDBRANCH  20  21
ENDBRANCH  11  20
BRANCH  16  25
ATOM     25  C   UNL     1       3.194  -5.038  -4.109  1.00  0.00     0.429 C 
ATOM     26  F   UNL     1       3.169  -5.750  -5.257  1.00  0.00    -0.167 F 
ATOM     27  F   UNL     1       3.462  -3.758  -4.492  1.00  0.00    -0.167 F 
ATOM     28  F   UNL     1       4.253  -5.449  -3.374  1.00  0.00    -0.167 F 
ENDBRANCH  16  25
ENDBRANCH   4   7
ENDBRANCH   2   3
ENDBRANCH   1   2
BRANCH   1  29
ATOM     29  C   UNL     1       1.492 -11.063  -0.491  1.00  0.00     0.118 C 
BRANCH  29  30
ATOM     30  N   UNL     1       2.462 -11.681   0.400  1.00  0.00    -0.352 N 
ATOM     31  C   UNL     1       2.312 -12.733   1.269  1.00  0.00     0.251 C 
ATOM     32  H   UNL     1       3.363 -11.285   0.376  1.00  0.00     0.163 HD
ATOM     33  O   UNL     1       3.186 -12.947   2.105  1.00  0.00    -0.269 OA
BRANCH  31  34
ATOM     34  C   UNL     1       1.115 -13.602   1.209  1.00  0.00     0.039 A 
ATOM     35  C   UNL     1       0.546 -14.048   2.406  1.00  0.00     0.014 A 
ATOM     36  C   UNL     1       0.586 -14.026  -0.013  1.00  0.00     0.014 A 
ATOM     37  C   UNL     1      -0.576 -14.880   2.377  1.00  0.00     0.010 A 
ATOM     38  C   UNL     1      -0.572 -14.800  -0.041  1.00  0.00     0.010 A 
ATOM     39  C   UNL     1      -1.159 -15.245   1.153  1.00  0.00    -0.014 A 
BRANCH  39  40
ATOM     40  C   UNL     1      -2.378 -16.093   1.100  1.00  0.00     0.031 A 
ATOM     41  C   UNL     1      -2.326 -17.458   0.466  1.00  0.00     0.074 A 
ATOM     42  C   UNL     1      -3.549 -15.603   1.555  1.00  0.00     0.049 A 
ATOM     43  N   UNL     1      -3.296 -18.311   0.263  1.00  0.00    -0.248 NA
ATOM     44  C   UNL     1      -1.015 -17.915  -0.027  1.00  0.00     0.031 C 
ATOM     45  C   UNL     1      -3.741 -14.271   2.133  1.00  0.00     0.029 A 
ATOM     46  N   UNL     1      -4.804 -16.157   1.579  1.00  0.00    -0.354 N 
ATOM     47  C   UNL     1      -2.723 -19.390  -0.402  1.00  0.00     0.074 A 
ATOM     48  C   UNL     1      -1.327 -19.067  -0.603  1.00  0.00     0.031 C 
ATOM     49  C   UNL     1      -5.034 -14.114   2.458  1.00  0.00     0.029 A 
ATOM     50  C   UNL     1      -5.769 -15.317   2.084  1.00  0.00     0.049 A 
ATOM     51  H   UNL     1      -4.996 -17.070   1.263  1.00  0.00     0.167 HD
ATOM     52  C   UNL     1      -3.297 -20.557  -0.781  1.00  0.00     0.034 A 
ATOM     53  C   UNL     1      -7.097 -15.496   2.225  1.00  0.00     0.034 A 
ATOM     54  C   UNL     1      -4.676 -20.890  -0.543  1.00  0.00     0.049 A 
ATOM     55  C   UNL     1      -7.703 -16.811   1.814  1.00  0.00     0.074 A 
ATOM     56  C   UNL     1      -5.340 -22.069  -0.835  1.00  0.00     0.029 A 
ATOM     57  N   UNL     1      -5.603 -20.046   0.047  1.00  0.00    -0.354 N 
ATOM     58  N   UNL     1      -7.116 -17.871   1.313  1.00  0.00    -0.248 NA
ATOM     59  C   UNL     1      -9.150 -16.969   2.021  1.00  0.00     0.031 C 
ATOM     60  C   UNL     1      -6.672 -21.932  -0.431  1.00  0.00     0.029 A 
ATOM     61  C   UNL     1      -6.832 -20.676   0.130  1.00  0.00     0.049 A 
ATOM     62  H   UNL     1      -5.415 -19.132   0.361  1.00  0.00     0.167 HD
ATOM     63  C   UNL     1      -8.111 -18.833   1.185  1.00  0.00     0.074 A 
ATOM     64  C   UNL     1      -9.334 -18.238   1.681  1.00  0.00     0.031 C 
ATOM     65  C   UNL     1      -8.025 -20.091   0.687  1.00  0.00     0.034 A 
BRANCH  52  66
ATOM     66  C   UNL     1      -2.416 -21.592  -1.432  1.00  0.00     0.023 A 
ATOM     67  C   UNL     1      -1.467 -22.280  -0.648  1.00  0.00     0.012 A 
ATOM     68  C   UNL     1      -2.564 -21.933  -2.791  1.00  0.00     0.148 A 
ATOM     69  C   UNL     1      -0.658 -23.266  -1.210  1.00  0.00     0.002 A 
ATOM     70  C   UNL     1      -1.784 -22.947  -3.335  1.00  0.00     0.091 A 
ATOM     71  F   UNL     1      -3.459 -21.257  -3.526  1.00  0.00    -0.205 F 
ATOM     72  C   UNL     1      -0.823 -23.606  -2.550  1.00  0.00     0.022 A 
BRANCH  70  73
ATOM     73  S   UNL     1      -1.968 -23.515  -5.030  1.00  0.00     0.127 S 
ATOM     74  O   UNL     1      -0.727 -23.040  -5.637  1.00  0.00    -0.237 OA
ATOM     75  O   UNL     1      -2.049 -24.966  -4.861  1.00  0.00    -0.237 OA
ATOM     76  O   UNL     1      -3.186 -22.893  -5.532  1.00  0.00    -0.744 OA
ENDBRANCH  70  73
ENDBRANCH  52  66
BRANCH  53  77
ATOM     77  C   UNL     1      -7.937 -14.433   2.848  1.00  0.00     0.023 A 
ATOM     78  C   UNL     1      -8.499 -14.657   4.120  1.00  0.00     0.012 A 
ATOM     79  C   UNL     1      -8.177 -13.206   2.200  1.00  0.00     0.148 A 
ATOM     80  C   UNL     1      -9.316 -13.697   4.718  1.00  0.00     0.002 A 
ATOM     81  C   UNL     1      -8.947 -12.231   2.825  1.00  0.00     0.091 A 
ATOM     82  F   UNL     1      -7.648 -13.014   0.983  1.00  0.00    -0.205 F 
ATOM     83  C   UNL     1      -9.533 -12.481   4.075  1.00  0.00     0.022 A 
BRANCH  81  84
ATOM     84  S   UNL     1      -9.165 -10.591   2.126  1.00  0.00     0.127 S 
ATOM     85  O   UNL     1     -10.528 -10.662   1.611  1.00  0.00    -0.237 OA
ATOM     86  O   UNL     1      -8.991  -9.732   3.298  1.00  0.00    -0.237 OA
ATOM     87  O   UNL     1      -8.111 -10.454   1.127  1.00  0.00    -0.744 OA
ENDBRANCH  81  84
ENDBRANCH  53  77
BRANCH  65  88
ATOM     88  C   UNL     1      -9.275 -20.930   0.692  1.00  0.00     0.023 A 
ATOM     89  C   UNL     1     -10.311 -20.649  -0.221  1.00  0.00     0.012 A 
ATOM     90  C   UNL     1      -9.393 -22.039   1.552  1.00  0.00     0.148 A 
ATOM     91  C   UNL     1     -11.459 -21.439  -0.255  1.00  0.00     0.002 A 
ATOM     92  C   UNL     1     -10.518 -22.851   1.480  1.00  0.00     0.091 A 
ATOM     93  F   UNL     1      -8.405 -22.278   2.427  1.00  0.00    -0.205 F 
ATOM     94  C   UNL     1     -11.557 -22.545   0.586  1.00  0.00     0.022 A 
BRANCH  92  95
ATOM     95  S   UNL     1     -10.688 -24.349   2.456  1.00  0.00     0.127 S 
ATOM     96  O   UNL     1     -11.689 -23.949   3.444  1.00  0.00    -0.237 OA
ATOM     97  O   UNL     1     -11.163 -25.314   1.464  1.00  0.00    -0.237 OA
ATOM     98  O   UNL     1      -9.362 -24.634   2.987  1.00  0.00    -0.744 OA
ENDBRANCH  92  95
ENDBRANCH  65  88
ENDBRANCH  39  40
ENDBRANCH  31  34
ENDBRANCH  29  30
ENDBRANCH   1  29
TORSDOF 18
