REMARK SMILES O=C(NCCCNC(=O)[C@H](CO)NC(=O)[C@H](CS)NC(=O)c1ccc(F)cc1)c1ccc(-c2c3nc(c(-c4cccc(S(=O)(=O)[O-])c4F)c4ccc([nH]4)c(-c4cccc(S(=O)(=O)[O-])c4F)c4nc(c(-c5cccc(S(=O)(=O)[O-])c5F)c5ccc2[nH]5)C=C4)C=C3)cc1
REMARK SMILES IDX 5 1 4 2 3 3 1 4 2 5 29 7 30 8 91 9 31 10 90 11 32 12 33 13
REMARK SMILES IDX 34 14 84 15 35 16 89 17 83 18 85 19 36 20 88 21 82 22 81 23
REMARK SMILES IDX 37 25 69 26 49 27 68 28 50 29 53 30 67 31 86 32 51 33 52 34
REMARK SMILES IDX 66 36 87 37 54 38 38 39 39 40 47 41 40 42 42 43 48 44 41 45
REMARK SMILES IDX 43 46 44 47 45 48 46 49 70 50 71 51 79 52 72 53 74 54 80 55
REMARK SMILES IDX 73 56 75 57 76 58 77 59 78 60 55 61 56 62 64 63 57 64 59 65
REMARK SMILES IDX 65 66 58 67 60 68 61 69 62 70 63 71 6 72 7 73 8 74 9 76
REMARK SMILES IDX 10 77 13 78 14 79 15 81 16 82 19 83 20 84 21 86 22 87 23 88
REMARK SMILES IDX 28 89 24 90 27 91 25 92 26 93 17 94 18 95 11 97 12 98
REMARK H PARENT 3 6 85 24 53 35 7 75 13 80 19 85 18 96 12 99
REMARK Flexibility Score: inf
ROOT
ATOM      1  C   UNL     1      -0.057   9.759  -4.626  1.00  0.00     0.042 C 
ENDROOT
BRANCH   1   2
ATOM      2  C   UNL     1      -0.721  11.127  -4.653  1.00  0.00     0.118 C 
BRANCH   2   3
ATOM      3  N   UNL     1      -1.562  11.306  -5.825  1.00  0.00    -0.352 N 
ATOM      4  O   UNL     1      -3.478  11.327  -7.000  1.00  0.00    -0.269 OA
ATOM      5  C   UNL     1      -2.933  11.421  -5.908  1.00  0.00     0.251 C 
ATOM      6  H   UNL     1      -1.083  11.353  -6.683  1.00  0.00     0.163 HD
BRANCH   5   7
ATOM      7  C   UNL     1      -3.732  11.633  -4.679  1.00  0.00     0.039 A 
ATOM      8  C   UNL     1      -3.274  12.489  -3.677  1.00  0.00     0.014 A 
ATOM      9  C   UNL     1      -4.964  10.988  -4.534  1.00  0.00     0.014 A 
ATOM     10  C   UNL     1      -3.951  12.568  -2.469  1.00  0.00     0.010 A 
ATOM     11  C   UNL     1      -5.710  11.168  -3.363  1.00  0.00     0.010 A 
ATOM     12  C   UNL     1      -5.198  11.942  -2.311  1.00  0.00    -0.014 A 
BRANCH  12  13
ATOM     13  C   UNL     1      -5.986  12.232  -1.086  1.00  0.00     0.031 A 
ATOM     14  C   UNL     1      -6.381  11.155  -0.119  1.00  0.00     0.074 A 
ATOM     15  C   UNL     1      -6.331  13.514  -0.850  1.00  0.00     0.049 A 
ATOM     16  N   UNL     1      -7.014  11.274   1.020  1.00  0.00    -0.248 NA
ATOM     17  C   UNL     1      -6.035   9.769  -0.469  1.00  0.00     0.031 C 
ATOM     18  C   UNL     1      -6.041  14.636  -1.749  1.00  0.00     0.029 A 
ATOM     19  N   UNL     1      -6.978  14.099   0.208  1.00  0.00    -0.354 N 
ATOM     20  C   UNL     1      -7.180   9.983   1.504  1.00  0.00     0.074 A 
ATOM     21  C   UNL     1      -6.584   9.091   0.532  1.00  0.00     0.031 C 
ATOM     22  C   UNL     1      -6.457  15.774  -1.184  1.00  0.00     0.029 A 
ATOM     23  C   UNL     1      -7.113  15.462   0.080  1.00  0.00     0.049 A 
ATOM     24  H   UNL     1      -7.313  13.593   0.983  1.00  0.00     0.167 HD
ATOM     25  C   UNL     1      -7.769   9.584   2.657  1.00  0.00     0.034 A 
ATOM     26  C   UNL     1      -7.714  16.367   0.875  1.00  0.00     0.034 A 
ATOM     27  C   UNL     1      -8.335  10.488   3.625  1.00  0.00     0.049 A 
ATOM     28  C   UNL     1      -8.339  15.902   2.154  1.00  0.00     0.074 A 
ATOM     29  C   UNL     1      -8.890  10.185   4.856  1.00  0.00     0.029 A 
ATOM     30  N   UNL     1      -8.438  11.862   3.469  1.00  0.00    -0.354 N 
ATOM     31  N   UNL     1      -8.382  14.689   2.649  1.00  0.00    -0.248 NA
ATOM     32  C   UNL     1      -8.978  16.922   2.995  1.00  0.00     0.031 C 
ATOM     33  C   UNL     1      -9.365  11.369   5.425  1.00  0.00     0.029 A 
ATOM     34  C   UNL     1      -9.064  12.419   4.572  1.00  0.00     0.049 A 
ATOM     35  H   UNL     1      -8.113  12.368   2.689  1.00  0.00     0.167 HD
ATOM     36  C   UNL     1      -9.031  14.799   3.870  1.00  0.00     0.074 A 
ATOM     37  C   UNL     1      -9.350  16.203   4.048  1.00  0.00     0.031 C 
ATOM     38  C   UNL     1      -9.341  13.822   4.756  1.00  0.00     0.034 A 
BRANCH  25  39
ATOM     39  C   UNL     1      -7.814   8.108   2.962  1.00  0.00     0.023 A 
ATOM     40  C   UNL     1      -6.632   7.428   3.318  1.00  0.00     0.012 A 
ATOM     41  C   UNL     1      -9.043   7.416   2.990  1.00  0.00     0.148 A 
ATOM     42  C   UNL     1      -6.667   6.079   3.671  1.00  0.00     0.002 A 
ATOM     43  C   UNL     1      -9.075   6.084   3.388  1.00  0.00     0.091 A 
ATOM     44  F   UNL     1     -10.155   8.072   2.629  1.00  0.00    -0.205 F 
ATOM     45  C   UNL     1      -7.888   5.411   3.717  1.00  0.00     0.022 A 
BRANCH  43  46
ATOM     46  S   UNL     1     -10.608   5.163   3.567  1.00  0.00     0.127 S 
ATOM     47  O   UNL     1     -10.526   4.234   2.441  1.00  0.00    -0.237 OA
ATOM     48  O   UNL     1     -10.442   4.542   4.881  1.00  0.00    -0.237 OA
ATOM     49  O   UNL     1     -11.679   6.147   3.490  1.00  0.00    -0.744 OA
ENDBRANCH  43  46
ENDBRANCH  25  39
BRANCH  26  50
ATOM     50  C   UNL     1      -7.691  17.801   0.475  1.00  0.00     0.023 A 
ATOM     51  C   UNL     1      -6.867  18.704   1.172  1.00  0.00     0.012 A 
ATOM     52  C   UNL     1      -8.378  18.240  -0.675  1.00  0.00     0.148 A 
ATOM     53  C   UNL     1      -6.727  20.020   0.730  1.00  0.00     0.002 A 
ATOM     54  C   UNL     1      -8.182  19.531  -1.147  1.00  0.00     0.091 A 
ATOM     55  F   UNL     1      -9.160  17.362  -1.319  1.00  0.00    -0.205 F 
ATOM     56  C   UNL     1      -7.369  20.428  -0.438  1.00  0.00     0.022 A 
BRANCH  54  57
ATOM     57  S   UNL     1      -8.828  20.089  -2.728  1.00  0.00     0.127 S 
ATOM     58  O   UNL     1      -9.761  21.136  -2.316  1.00  0.00    -0.237 OA
ATOM     59  O   UNL     1      -7.615  20.569  -3.391  1.00  0.00    -0.237 OA
ATOM     60  O   UNL     1      -9.432  18.918  -3.346  1.00  0.00    -0.744 OA
ENDBRANCH  54  57
ENDBRANCH  26  50
BRANCH  38  61
ATOM     61  C   UNL     1     -10.042  14.219   6.028  1.00  0.00     0.023 A 
ATOM     62  C   UNL     1     -11.405  14.570   5.999  1.00  0.00     0.012 A 
ATOM     63  C   UNL     1      -9.377  14.114   7.267  1.00  0.00     0.148 A 
ATOM     64  C   UNL     1     -12.094  14.823   7.185  1.00  0.00     0.002 A 
ATOM     65  C   UNL     1     -10.083  14.315   8.445  1.00  0.00     0.091 A 
ATOM     66  F   UNL     1      -8.075  13.796   7.266  1.00  0.00    -0.205 F 
ATOM     67  C   UNL     1     -11.439  14.679   8.406  1.00  0.00     0.022 A 
BRANCH  65  68
ATOM     68  S   UNL     1      -9.355  14.044  10.065  1.00  0.00     0.127 S 
ATOM     69  O   UNL     1      -9.327  15.401  10.609  1.00  0.00    -0.237 OA
ATOM     70  O   UNL     1     -10.328  13.153  10.695  1.00  0.00    -0.237 OA
ATOM     71  O   UNL     1      -8.048  13.446   9.826  1.00  0.00    -0.744 OA
ENDBRANCH  65  68
ENDBRANCH  38  61
ENDBRANCH  12  13
ENDBRANCH   5   7
ENDBRANCH   2   3
ENDBRANCH   1   2
BRANCH   1  72
ATOM     72  C   UNL     1       1.073   9.612  -5.636  1.00  0.00     0.117 C 
BRANCH  72  73
ATOM     73  N   UNL     1       2.191  10.499  -5.350  1.00  0.00    -0.354 N 
ATOM     74  C   UNL     1       3.371  10.245  -4.705  1.00  0.00     0.244 C 
ATOM     75  H   UNL     1       2.082  11.424  -5.668  1.00  0.00     0.163 HD
ATOM     76  O   UNL     1       4.185  11.164  -4.607  1.00  0.00    -0.273 OA
BRANCH  74  77
ATOM     77  C   UNL     1       3.639   8.838  -4.140  1.00  0.00     0.197 C 
BRANCH  77  78
ATOM     78  N   UNL     1       5.047   8.680  -3.751  1.00  0.00    -0.340 N 
ATOM     79  C   UNL     1       5.961   7.755  -4.155  1.00  0.00     0.244 C 
ATOM     80  H   UNL     1       5.380   9.342  -3.102  1.00  0.00     0.164 HD
ATOM     81  O   UNL     1       6.977   7.591  -3.475  1.00  0.00    -0.273 OA
BRANCH  79  82
ATOM     82  C   UNL     1       5.732   6.961  -5.454  1.00  0.00     0.181 C 
BRANCH  82  83
ATOM     83  N   UNL     1       7.082   6.787  -6.035  1.00  0.00    -0.339 N 
ATOM     84  C   UNL     1       7.636   7.252  -7.190  1.00  0.00     0.251 C 
ATOM     85  H   UNL     1       7.688   6.236  -5.490  1.00  0.00     0.164 HD
ATOM     86  O   UNL     1       8.746   6.875  -7.549  1.00  0.00    -0.269 OA
BRANCH  84  87
ATOM     87  C   UNL     1       6.881   8.192  -8.034  1.00  0.00     0.040 A 
ATOM     88  C   UNL     1       6.438   9.417  -7.520  1.00  0.00     0.017 A 
ATOM     89  C   UNL     1       6.673   7.861  -9.377  1.00  0.00     0.017 A 
ATOM     90  C   UNL     1       5.734  10.291  -8.347  1.00  0.00     0.040 A 
ATOM     91  C   UNL     1       5.971   8.741 -10.199  1.00  0.00     0.040 A 
ATOM     92  C   UNL     1       5.503   9.943  -9.675  1.00  0.00     0.123 A 
ATOM     93  F   UNL     1       4.824  10.782 -10.467  1.00  0.00    -0.207 F 
ENDBRANCH  84  87
ENDBRANCH  82  83
BRANCH  82  94
ATOM     94  C   UNL     1       5.118   5.564  -5.274  1.00  0.00     0.101 C 
BRANCH  94  95
ATOM     95  S   UNL     1       3.665   5.371  -4.205  1.00  0.00    -0.177 SA
ATOM     96  H   UNL     1       4.005   5.661  -2.921  1.00  0.00     0.102 HD
ENDBRANCH  94  95
ENDBRANCH  82  94
ENDBRANCH  79  82
ENDBRANCH  77  78
BRANCH  77  97
ATOM     97  C   UNL     1       2.719   8.555  -2.932  1.00  0.00     0.191 C 
BRANCH  97  98
ATOM     98  O   UNL     1       3.356   7.734  -1.951  1.00  0.00    -0.394 OA
ATOM     99  H   UNL     1       3.582   6.877  -2.345  1.00  0.00     0.210 HD
ENDBRANCH  97  98
ENDBRANCH  77  97
ENDBRANCH  74  77
ENDBRANCH  72  73
ENDBRANCH   1  72
TORSDOF 21
