REMARK SMILES O=C(Cc1ccccc1Cl)Nc1ccc(C(=O)NCCCNC(=O)c2ccc(-c3c4nc(c(-c5cccc(S(=O)(=O)[O-])c5F)c5ccc([nH]5)c(-c5cccc(S(=O)(=O)[O-])c5F)c5nc(c(-c6cccc(S(=O)(=O)[O-])c6F)c6ccc3[nH]6)C=C5)C=C4)cc2)cc1
REMARK SMILES IDX 20 1 19 2 18 3 16 4 17 5 15 7 12 8 13 9 89 10 14 11 88 12
REMARK SMILES IDX 11 13 1 14 2 15 3 17 4 18 5 19 9 20 6 21 8 22 10 23 7 24
REMARK SMILES IDX 21 25 22 26 23 27 24 29 25 30 26 31 87 32 27 33 86 34 28 35
REMARK SMILES IDX 29 36 30 37 80 38 31 39 85 40 79 41 81 42 32 43 84 44 78 45
REMARK SMILES IDX 77 46 33 48 65 49 45 50 64 51 46 52 49 53 63 54 82 55 47 56
REMARK SMILES IDX 48 57 62 59 83 60 50 61 34 62 35 63 43 64 36 65 38 66 44 67
REMARK SMILES IDX 37 68 39 69 40 70 41 71 42 72 66 73 67 74 75 75 68 76 70 77
REMARK SMILES IDX 76 78 69 79 71 80 72 81 73 82 74 83 51 84 52 85 60 86 53 87
REMARK SMILES IDX 55 88 61 89 54 90 56 91 57 92 58 93 59 94
REMARK H PARENT 18 6 11 16 22 28 81 47 49 58
REMARK Flexibility Score: inf
ROOT
ATOM      1  C   UNL     1      -1.745   6.060   1.496  1.00  0.00     0.042 C 
ENDROOT
BRANCH   1   2
ATOM      2  C   UNL     1      -1.749   5.662   0.021  1.00  0.00     0.118 C 
BRANCH   2   3
ATOM      3  N   UNL     1      -0.750   6.410  -0.718  1.00  0.00    -0.352 N 
ATOM      4  C   UNL     1       0.524   6.098  -1.112  1.00  0.00     0.251 C 
ATOM      5  O   UNL     1       1.139   6.939  -1.769  1.00  0.00    -0.269 OA
ATOM      6  H   UNL     1      -1.042   7.311  -0.985  1.00  0.00     0.163 HD
BRANCH   4   7
ATOM      7  C   UNL     1       1.159   4.775  -0.853  1.00  0.00     0.039 A 
ATOM      8  C   UNL     1       2.381   2.247  -0.616  1.00  0.00     0.041 A 
ATOM      9  C   UNL     1       2.768   3.126  -1.631  1.00  0.00     0.027 A 
ATOM     10  C   UNL     1       1.435   2.659   0.318  1.00  0.00     0.027 A 
ATOM     11  C   UNL     1       2.146   4.368  -1.762  1.00  0.00     0.016 A 
ATOM     12  C   UNL     1       0.863   3.934   0.222  1.00  0.00     0.016 A 
BRANCH   8  13
ATOM     13  N   UNL     1       3.031   1.007  -0.556  1.00  0.00    -0.326 N 
ATOM     14  O   UNL     1       1.496  -0.304   0.580  1.00  0.00    -0.274 OA
ATOM     15  C   UNL     1       2.616  -0.131   0.103  1.00  0.00     0.228 C 
ATOM     16  H   UNL     1       3.885   0.941  -1.042  1.00  0.00     0.169 HD
BRANCH  15  17
ATOM     17  C   UNL     1       3.705  -1.186   0.266  1.00  0.00     0.137 C 
BRANCH  17  18
ATOM     18  C   UNL     1       4.341  -1.696  -1.014  1.00  0.00    -0.020 A 
ATOM     19  C   UNL     1       3.907  -2.926  -1.541  1.00  0.00     0.006 A 
ATOM     20  C   UNL     1       5.367  -1.015  -1.694  1.00  0.00     0.044 A 
ATOM     21  C   UNL     1       4.470  -3.448  -2.709  1.00  0.00     0.000 A 
ATOM     22  C   UNL     1       5.901  -1.520  -2.883  1.00  0.00     0.021 A 
ATOM     23  Cl  UNL     1       6.040   0.465  -1.107  1.00  0.00    -0.084 Cl
ATOM     24  C   UNL     1       5.456  -2.738  -3.389  1.00  0.00     0.002 A 
ENDBRANCH  17  18
ENDBRANCH  15  17
ENDBRANCH   8  13
ENDBRANCH   4   7
ENDBRANCH   2   3
ENDBRANCH   1   2
BRANCH   1  25
ATOM     25  C   UNL     1      -2.409   7.409   1.751  1.00  0.00     0.118 C 
BRANCH  25  26
ATOM     26  N   UNL     1      -3.841   7.353   1.501  1.00  0.00    -0.352 N 
ATOM     27  C   UNL     1      -4.893   7.676   2.317  1.00  0.00     0.251 C 
ATOM     28  H   UNL     1      -4.094   7.034   0.605  1.00  0.00     0.163 HD
ATOM     29  O   UNL     1      -6.023   7.317   1.997  1.00  0.00    -0.269 OA
BRANCH  27  30
ATOM     30  C   UNL     1      -4.686   8.450   3.562  1.00  0.00     0.039 A 
ATOM     31  C   UNL     1      -5.495   8.160   4.665  1.00  0.00     0.014 A 
ATOM     32  C   UNL     1      -3.771   9.505   3.627  1.00  0.00     0.014 A 
ATOM     33  C   UNL     1      -5.377   8.916   5.832  1.00  0.00     0.010 A 
ATOM     34  C   UNL     1      -3.604  10.212   4.817  1.00  0.00     0.010 A 
ATOM     35  C   UNL     1      -4.424   9.944   5.921  1.00  0.00    -0.014 A 
BRANCH  35  36
ATOM     36  C   UNL     1      -4.307  10.766   7.152  1.00  0.00     0.031 A 
ATOM     37  C   UNL     1      -4.634  12.237   7.114  1.00  0.00     0.074 A 
ATOM     38  C   UNL     1      -3.872  10.197   8.293  1.00  0.00     0.049 A 
ATOM     39  N   UNL     1      -4.585  13.117   8.081  1.00  0.00    -0.248 NA
ATOM     40  C   UNL     1      -5.052  12.798   5.818  1.00  0.00     0.031 C 
ATOM     41  C   UNL     1      -3.457   8.799   8.436  1.00  0.00     0.029 A 
ATOM     42  N   UNL     1      -3.690  10.726   9.546  1.00  0.00    -0.354 N 
ATOM     43  C   UNL     1      -4.944  14.332   7.508  1.00  0.00     0.074 A 
ATOM     44  C   UNL     1      -5.164  14.088   6.100  1.00  0.00     0.031 C 
ATOM     45  C   UNL     1      -3.077   8.581   9.705  1.00  0.00     0.029 A 
ATOM     46  C   UNL     1      -3.200   9.823  10.460  1.00  0.00     0.049 A 
ATOM     47  H   UNL     1      -3.890  11.664   9.768  1.00  0.00     0.167 HD
ATOM     48  C   UNL     1      -5.118  15.535   8.107  1.00  0.00     0.034 A 
ATOM     49  C   UNL     1      -2.889   9.981  11.762  1.00  0.00     0.034 A 
ATOM     50  C   UNL     1      -4.940  15.764   9.515  1.00  0.00     0.049 A 
ATOM     51  C   UNL     1      -3.125  11.321  12.407  1.00  0.00     0.074 A 
ATOM     52  C   UNL     1      -5.139  16.932  10.230  1.00  0.00     0.029 A 
ATOM     53  N   UNL     1      -4.529  14.803  10.425  1.00  0.00    -0.354 N 
ATOM     54  N   UNL     1      -3.604  12.420  11.877  1.00  0.00    -0.248 NA
ATOM     55  C   UNL     1      -2.817  11.431  13.841  1.00  0.00     0.031 C 
ATOM     56  C   UNL     1      -4.843  16.678  11.573  1.00  0.00     0.029 A 
ATOM     57  C   UNL     1      -4.474  15.348  11.696  1.00  0.00     0.049 A 
ATOM     58  H   UNL     1      -4.308  13.870  10.201  1.00  0.00     0.167 HD
ATOM     59  C   UNL     1      -3.691  13.338  12.917  1.00  0.00     0.074 A 
ATOM     60  C   UNL     1      -3.241  12.657  14.114  1.00  0.00     0.031 C 
ATOM     61  C   UNL     1      -4.087  14.634  12.885  1.00  0.00     0.034 A 
BRANCH  48  62
ATOM     62  C   UNL     1      -5.601  16.680   7.254  1.00  0.00     0.023 A 
ATOM     63  C   UNL     1      -6.938  16.683   6.806  1.00  0.00     0.012 A 
ATOM     64  C   UNL     1      -4.771  17.778   6.956  1.00  0.00     0.148 A 
ATOM     65  C   UNL     1      -7.434  17.744   6.050  1.00  0.00     0.002 A 
ATOM     66  C   UNL     1      -5.285  18.852   6.236  1.00  0.00     0.091 A 
ATOM     67  F   UNL     1      -3.499  17.751   7.377  1.00  0.00    -0.205 F 
ATOM     68  C   UNL     1      -6.612  18.832   5.774  1.00  0.00     0.022 A 
BRANCH  66  69
ATOM     69  S   UNL     1      -4.335  20.337   5.889  1.00  0.00     0.127 S 
ATOM     70  O   UNL     1      -4.171  20.251   4.438  1.00  0.00    -0.237 OA
ATOM     71  O   UNL     1      -5.241  21.394   6.338  1.00  0.00    -0.237 OA
ATOM     72  O   UNL     1      -3.105  20.219   6.661  1.00  0.00    -0.744 OA
ENDBRANCH  66  69
ENDBRANCH  48  62
BRANCH  49  73
ATOM     73  C   UNL     1      -2.392   8.826  12.563  1.00  0.00     0.023 A 
ATOM     74  C   UNL     1      -3.209   8.282  13.573  1.00  0.00     0.012 A 
ATOM     75  C   UNL     1      -1.123   8.262  12.332  1.00  0.00     0.148 A 
ATOM     76  C   UNL     1      -2.755   7.229  14.368  1.00  0.00     0.002 A 
ATOM     77  C   UNL     1      -0.698   7.176  13.089  1.00  0.00     0.091 A 
ATOM     78  F   UNL     1      -0.350   8.800  11.377  1.00  0.00    -0.205 F 
ATOM     79  C   UNL     1      -1.504   6.670  14.120  1.00  0.00     0.022 A 
BRANCH  77  80
ATOM     80  S   UNL     1       0.842   6.320  12.742  1.00  0.00     0.127 S 
ATOM     81  O   UNL     1       1.728   6.867  13.764  1.00  0.00    -0.237 OA
ATOM     82  O   UNL     1       0.468   4.918  12.935  1.00  0.00    -0.237 OA
ATOM     83  O   UNL     1       1.166   6.662  11.362  1.00  0.00    -0.744 OA
ENDBRANCH  77  80
ENDBRANCH  49  73
BRANCH  61  84
ATOM     84  C   UNL     1      -4.090  15.394  14.184  1.00  0.00     0.023 A 
ATOM     85  C   UNL     1      -2.868  15.789  14.764  1.00  0.00     0.012 A 
ATOM     86  C   UNL     1      -5.302  15.777  14.792  1.00  0.00     0.148 A 
ATOM     87  C   UNL     1      -2.852  16.523  15.948  1.00  0.00     0.002 A 
ATOM     88  C   UNL     1      -5.278  16.550  15.946  1.00  0.00     0.091 A 
ATOM     89  F   UNL     1      -6.453  15.375  14.234  1.00  0.00    -0.205 F 
ATOM     90  C   UNL     1      -4.054  16.914  16.532  1.00  0.00     0.022 A 
BRANCH  88  91
ATOM     91  S   UNL     1      -6.775  17.177  16.715  1.00  0.00     0.127 S 
ATOM     92  O   UNL     1      -6.877  16.331  17.903  1.00  0.00    -0.237 OA
ATOM     93  O   UNL     1      -6.425  18.572  16.987  1.00  0.00    -0.237 OA
ATOM     94  O   UNL     1      -7.834  17.002  15.730  1.00  0.00    -0.744 OA
ENDBRANCH  88  91
ENDBRANCH  61  84
ENDBRANCH  35  36
ENDBRANCH  27  30
ENDBRANCH  25  26
ENDBRANCH   1  25
TORSDOF 16
