REMARK SMILES C[C@@H]1CN(C(=O)NC(=O)CCCCC(=O)NCCCNC(=O)c2ccc(-c3c4nc(c(-c5cccc(S(=O)(=O)[O-])c5F)c5ccc([nH]5)c(-c5cccc(S(=O)(=O)[O-])c5F)c5nc(c(-c6cccc(S(=O)(=O)[O-])c6F)c6ccc3[nH]6)C=C5)C=C4)cc2)CCO1
REMARK SMILES IDX 17 1 16 2 14 3 15 4 13 6 12 7 11 8 10 9 8 10 5 11 6 12 7 13
REMARK SMILES IDX 9 15 4 16 1 17 2 18 3 19 88 20 87 21 86 22 18 23 19 24 20 25
REMARK SMILES IDX 21 26 22 28 23 29 24 30 85 31 25 32 84 33 26 34 27 35 28 36
REMARK SMILES IDX 78 37 29 38 83 39 77 40 79 41 30 42 82 43 76 44 75 45 31 47
REMARK SMILES IDX 63 48 43 49 62 50 44 51 47 52 61 53 80 54 45 55 46 56 60 58
REMARK SMILES IDX 81 59 48 60 32 61 33 62 41 63 34 64 36 65 42 66 35 67 37 68
REMARK SMILES IDX 38 69 39 70 40 71 64 72 65 73 73 74 66 75 68 76 74 77 67 78
REMARK SMILES IDX 69 79 70 80 71 81 72 82 49 83 50 84 58 85 51 86 53 87 59 88
REMARK SMILES IDX 52 89 54 90 55 91 56 92 57 93
REMARK H PARENT 16 5 7 14 20 27 79 46 47 57
REMARK Flexibility Score: inf
ROOT
ATOM      1  C   UNL     1       1.719  -0.890  -1.758  1.00  0.00     0.117 C 
ENDROOT
BRANCH   1   2
ATOM      2  N   UNL     1       0.742  -0.188  -2.558  1.00  0.00    -0.356 N 
ATOM      3  C   UNL     1      -0.600  -0.392  -2.662  1.00  0.00     0.219 C 
ATOM      4  O   UNL     1      -1.222   0.262  -3.500  1.00  0.00    -0.275 OA
ATOM      5  H   UNL     1       1.099   0.546  -3.108  1.00  0.00     0.163 HD
BRANCH   3   6
ATOM      6  C   UNL     1      -1.315  -1.300  -1.681  1.00  0.00     0.100 C 
BRANCH   6   7
ATOM      7  C   UNL     1      -1.442  -2.783  -1.996  1.00  0.00     0.010 C 
BRANCH   7   8
ATOM      8  C   UNL     1      -0.405  -3.747  -1.397  1.00  0.00     0.010 C 
BRANCH   8   9
ATOM      9  C   UNL     1      -0.015  -3.607   0.077  1.00  0.00     0.100 C 
BRANCH   9  10
ATOM     10  C   UNL     1      -1.065  -3.911   1.119  1.00  0.00     0.227 C 
ATOM     11  C   UNL     1      -2.033  -1.766   1.701  1.00  0.00     0.324 C 
ATOM     12  O   UNL     1      -3.253  -1.780   1.546  1.00  0.00    -0.248 OA
ATOM     13  N   UNL     1      -1.384  -2.925   2.031  1.00  0.00    -0.278 N 
ATOM     14  H   UNL     1      -1.130  -3.063   2.972  1.00  0.00     0.174 HD
ATOM     15  O   UNL     1      -1.544  -5.035   1.255  1.00  0.00    -0.275 OA
BRANCH  11  16
ATOM     16  N   UNL     1      -1.309  -0.582   1.740  1.00  0.00    -0.320 N 
ATOM     17  C   UNL     1       2.204   0.950   1.829  1.00  0.00     0.040 C 
ATOM     18  C   UNL     1       0.717   0.878   2.164  1.00  0.00     0.134 C 
ATOM     19  C   UNL     1       0.153  -0.502   1.797  1.00  0.00     0.153 C 
ATOM     20  O   UNL     1       0.071   1.910   1.404  1.00  0.00    -0.375 OA
ATOM     21  C   UNL     1      -1.328   1.939   1.696  1.00  0.00     0.182 C 
ATOM     22  C   UNL     1      -2.016   0.632   1.308  1.00  0.00     0.150 C 
ENDBRANCH  11  16
ENDBRANCH   9  10
ENDBRANCH   8   9
ENDBRANCH   7   8
ENDBRANCH   6   7
ENDBRANCH   3   6
ENDBRANCH   1   2
BRANCH   1  23
ATOM     23  C   UNL     1       2.700  -1.657  -2.619  1.00  0.00     0.042 C 
BRANCH  23  24
ATOM     24  C   UNL     1       3.742  -0.722  -3.206  1.00  0.00     0.118 C 
BRANCH  24  25
ATOM     25  N   UNL     1       4.808  -0.412  -2.253  1.00  0.00    -0.352 N 
ATOM     26  C   UNL     1       6.114  -0.863  -2.222  1.00  0.00     0.251 C 
ATOM     27  H   UNL     1       4.559   0.207  -1.530  1.00  0.00     0.163 HD
ATOM     28  O   UNL     1       6.821  -0.654  -1.252  1.00  0.00    -0.269 OA
BRANCH  26  29
ATOM     29  C   UNL     1       6.618  -1.640  -3.376  1.00  0.00     0.039 A 
ATOM     30  C   UNL     1       7.257  -2.863  -3.162  1.00  0.00     0.014 A 
ATOM     31  C   UNL     1       6.349  -1.201  -4.670  1.00  0.00     0.014 A 
ATOM     32  C   UNL     1       7.509  -3.702  -4.252  1.00  0.00     0.010 A 
ATOM     33  C   UNL     1       6.467  -2.092  -5.724  1.00  0.00     0.010 A 
ATOM     34  C   UNL     1       7.049  -3.354  -5.534  1.00  0.00    -0.014 A 
BRANCH  34  35
ATOM     35  C   UNL     1       7.132  -4.282  -6.695  1.00  0.00     0.031 A 
ATOM     36  C   UNL     1       7.777  -3.814  -7.976  1.00  0.00     0.074 A 
ATOM     37  C   UNL     1       6.493  -5.470  -6.659  1.00  0.00     0.049 A 
ATOM     38  N   UNL     1       7.783  -4.383  -9.153  1.00  0.00    -0.248 NA
ATOM     39  C   UNL     1       8.449  -2.502  -7.947  1.00  0.00     0.031 C 
ATOM     40  C   UNL     1       5.726  -5.993  -5.524  1.00  0.00     0.029 A 
ATOM     41  N   UNL     1       6.349  -6.439  -7.623  1.00  0.00    -0.354 N 
ATOM     42  C   UNL     1       8.379  -3.468 -10.013  1.00  0.00     0.074 A 
ATOM     43  C   UNL     1       8.694  -2.293  -9.232  1.00  0.00     0.031 C 
ATOM     44  C   UNL     1       5.201  -7.184  -5.854  1.00  0.00     0.029 A 
ATOM     45  C   UNL     1       5.559  -7.497  -7.233  1.00  0.00     0.049 A 
ATOM     46  H   UNL     1       6.772  -6.382  -8.510  1.00  0.00     0.167 HD
ATOM     47  C   UNL     1       8.674  -3.604 -11.326  1.00  0.00     0.034 A 
ATOM     48  C   UNL     1       5.157  -8.590  -7.912  1.00  0.00     0.034 A 
ATOM     49  C   UNL     1       8.475  -4.818 -12.066  1.00  0.00     0.049 A 
ATOM     50  C   UNL     1       5.620  -8.776  -9.332  1.00  0.00     0.074 A 
ATOM     51  C   UNL     1       8.894  -5.120 -13.349  1.00  0.00     0.029 A 
ATOM     52  N   UNL     1       7.812  -5.935 -11.585  1.00  0.00    -0.354 N 
ATOM     53  N   UNL     1       6.356  -7.979 -10.069  1.00  0.00    -0.248 NA
ATOM     54  C   UNL     1       5.229 -10.024 -10.005  1.00  0.00     0.031 C 
ATOM     55  C   UNL     1       8.478  -6.421 -13.646  1.00  0.00     0.029 A 
ATOM     56  C   UNL     1       7.806  -6.929 -12.545  1.00  0.00     0.049 A 
ATOM     57  H   UNL     1       7.405  -6.010 -10.691  1.00  0.00     0.167 HD
ATOM     58  C   UNL     1       6.538  -8.639 -11.279  1.00  0.00     0.074 A 
ATOM     59  C   UNL     1       5.861  -9.914 -11.166  1.00  0.00     0.031 C 
ATOM     60  C   UNL     1       7.185  -8.218 -12.392  1.00  0.00     0.034 A 
BRANCH  47  61
ATOM     61  C   UNL     1       9.323  -2.442 -12.030  1.00  0.00     0.023 A 
ATOM     62  C   UNL     1      10.665  -2.119 -11.746  1.00  0.00     0.012 A 
ATOM     63  C   UNL     1       8.629  -1.715 -13.017  1.00  0.00     0.148 A 
ATOM     64  C   UNL     1      11.298  -1.070 -12.409  1.00  0.00     0.002 A 
ATOM     65  C   UNL     1       9.281  -0.699 -13.705  1.00  0.00     0.091 A 
ATOM     66  F   UNL     1       7.347  -2.024 -13.257  1.00  0.00    -0.205 F 
ATOM     67  C   UNL     1      10.611  -0.368 -13.395  1.00  0.00     0.022 A 
BRANCH  65  68
ATOM     68  S   UNL     1       8.512   0.214 -15.048  1.00  0.00     0.127 S 
ATOM     69  O   UNL     1       8.343   1.536 -14.446  1.00  0.00    -0.237 OA
ATOM     70  O   UNL     1       9.536   0.146 -16.091  1.00  0.00    -0.237 OA
ATOM     71  O   UNL     1       7.277  -0.492 -15.360  1.00  0.00    -0.744 OA
ENDBRANCH  65  68
ENDBRANCH  47  61
BRANCH  48  72
ATOM     72  C   UNL     1       4.327  -9.630  -7.238  1.00  0.00     0.023 A 
ATOM     73  C   UNL     1       4.905 -10.877  -6.927  1.00  0.00     0.012 A 
ATOM     74  C   UNL     1       2.986  -9.390  -6.886  1.00  0.00     0.148 A 
ATOM     75  C   UNL     1       4.152 -11.878  -6.311  1.00  0.00     0.002 A 
ATOM     76  C   UNL     1       2.257 -10.373  -6.222  1.00  0.00     0.091 A 
ATOM     77  F   UNL     1       2.444  -8.206  -7.202  1.00  0.00    -0.205 F 
ATOM     78  C   UNL     1       2.833 -11.623  -5.950  1.00  0.00     0.022 A 
BRANCH  76  79
ATOM     79  S   UNL     1       0.600 -10.066  -5.600  1.00  0.00     0.127 S 
ATOM     80  O   UNL     1      -0.227 -10.691  -6.628  1.00  0.00    -0.237 OA
ATOM     81  O   UNL     1       0.619 -10.765  -4.314  1.00  0.00    -0.237 OA
ATOM     82  O   UNL     1       0.501  -8.617  -5.486  1.00  0.00    -0.744 OA
ENDBRANCH  76  79
ENDBRANCH  48  72
BRANCH  60  83
ATOM     83  C   UNL     1       7.221  -9.146 -13.575  1.00  0.00     0.023 A 
ATOM     84  C   UNL     1       6.064  -9.315 -14.360  1.00  0.00     0.012 A 
ATOM     85  C   UNL     1       8.421  -9.773 -13.963  1.00  0.00     0.148 A 
ATOM     86  C   UNL     1       6.095 -10.112 -15.502  1.00  0.00     0.002 A 
ATOM     87  C   UNL     1       8.456 -10.529 -15.128  1.00  0.00     0.091 A 
ATOM     88  F   UNL     1       9.506  -9.614 -13.190  1.00  0.00    -0.205 F 
ATOM     89  C   UNL     1       7.292 -10.708 -15.893  1.00  0.00     0.022 A 
BRANCH  87  90
ATOM     90  S   UNL     1       9.977 -11.250 -15.756  1.00  0.00     0.127 S 
ATOM     91  O   UNL     1       9.801 -12.661 -15.417  1.00  0.00    -0.237 OA
ATOM     92  O   UNL     1       9.897 -10.952 -17.187  1.00  0.00    -0.237 OA
ATOM     93  O   UNL     1      11.059 -10.566 -15.060  1.00  0.00    -0.744 OA
ENDBRANCH  87  90
ENDBRANCH  60  83
ENDBRANCH  34  35
ENDBRANCH  26  29
ENDBRANCH  24  25
ENDBRANCH  23  24
ENDBRANCH   1  23
TORSDOF 18
