REMARK SMILES CC[C@H](C)[C@@H](NC(=O)[C@@H]1CCCN1C(=O)C1CC1)C(=O)NCCCNC(=O)c1ccc(-c2c3nc(c(-c4cccc(S(=O)(=O)[O-])c4F)c4ccc([nH]4)c(-c4cccc(S(=O)(=O)[O-])c4F)c4nc(c(-c5cccc(S(=O)(=O)[O-])c5F)c5ccc2[nH]5)C=C4)C=C3)cc1
REMARK SMILES IDX 22 1 21 2 19 3 20 4 5 6 3 7 4 8 2 9 1 10 6 11 7 12 8 14 9 15
REMARK SMILES IDX 10 16 13 17 11 18 12 19 14 20 15 21 16 22 17 23 18 24 23 25
REMARK SMILES IDX 24 26 25 27 26 28 27 30 28 31 29 32 90 33 30 34 89 35 31 36
REMARK SMILES IDX 32 37 33 38 83 39 34 40 88 41 82 42 84 43 35 44 87 45 81 46
REMARK SMILES IDX 80 47 36 49 68 50 48 51 67 52 49 53 52 54 66 55 85 56 50 57
REMARK SMILES IDX 51 58 65 60 86 61 53 62 37 63 38 64 46 65 39 66 41 67 47 68
REMARK SMILES IDX 40 69 42 70 43 71 44 72 45 73 69 74 70 75 78 76 71 77 73 78
REMARK SMILES IDX 79 79 72 80 74 81 75 82 76 83 77 84 54 85 55 86 63 87 56 88
REMARK SMILES IDX 58 89 64 90 57 91 59 92 60 93 61 94 62 95
REMARK H PARENT 21 5 6 13 25 29 84 48 52 59
REMARK Flexibility Score: inf
ROOT
ATOM      1  C   UNL     1       3.110   0.392   5.462  1.00  0.00     0.117 C 
ENDROOT
BRANCH   1   2
ATOM      2  N   UNL     1       1.766   0.370   4.902  1.00  0.00    -0.354 N 
ATOM      3  C   UNL     1       0.849  -0.636   5.122  1.00  0.00     0.242 C 
ATOM      4  O   UNL     1       0.566  -1.004   6.264  1.00  0.00    -0.273 OA
ATOM      5  H   UNL     1       1.494   1.122   4.329  1.00  0.00     0.163 HD
BRANCH   3   6
ATOM      6  C   UNL     1       0.062  -1.173   3.883  1.00  0.00     0.174 C 
BRANCH   6   7
ATOM      7  C   UNL     1       0.360  -0.457   2.520  1.00  0.00     0.018 C 
ATOM      8  C   UNL     1      -0.086  -1.236   1.272  1.00  0.00     0.010 C 
BRANCH   7   9
ATOM      9  C   UNL     1      -0.270   0.971   2.442  1.00  0.00     0.002 C 
ATOM     10  C   UNL     1      -1.762   1.067   2.758  1.00  0.00     0.004 C 
ENDBRANCH   7   9
ENDBRANCH   6   7
BRANCH   6  11
ATOM     11  N   UNL     1      -0.326  -2.616   3.754  1.00  0.00    -0.342 N 
ATOM     12  C   UNL     1       0.180  -3.866   3.666  1.00  0.00     0.243 C 
ATOM     13  H   UNL     1      -1.309  -2.674   3.722  1.00  0.00     0.164 HD
ATOM     14  O   UNL     1      -0.585  -4.666   3.094  1.00  0.00    -0.273 OA
BRANCH  12  15
ATOM     15  C   UNL     1       1.394  -4.480   4.396  1.00  0.00     0.174 C 
ATOM     16  C   UNL     1       0.949  -4.927   5.803  1.00  0.00     0.037 C 
ATOM     17  N   UNL     1       2.546  -3.654   4.601  1.00  0.00    -0.330 N 
ATOM     18  C   UNL     1       1.911  -4.290   6.796  1.00  0.00     0.024 C 
ATOM     19  C   UNL     1       2.692  -3.281   5.991  1.00  0.00     0.120 C 
BRANCH  17  20
ATOM     20  C   UNL     1       3.252  -3.014   3.616  1.00  0.00     0.226 C 
ATOM     21  O   UNL     1       3.575  -1.850   3.766  1.00  0.00    -0.275 OA
BRANCH  20  22
ATOM     22  C   UNL     1       3.763  -3.659   2.386  1.00  0.00     0.079 C 
ATOM     23  C   UNL     1       3.652  -5.068   1.901  1.00  0.00     0.014 C 
ATOM     24  C   UNL     1       2.869  -3.978   1.222  1.00  0.00     0.014 C 
ENDBRANCH  20  22
ENDBRANCH  17  20
ENDBRANCH  12  15
ENDBRANCH   6  11
ENDBRANCH   3   6
ENDBRANCH   1   2
BRANCH   1  25
ATOM     25  C   UNL     1       4.141   0.812   4.405  1.00  0.00     0.042 C 
BRANCH  25  26
ATOM     26  C   UNL     1       5.570   0.729   4.918  1.00  0.00     0.118 C 
BRANCH  26  27
ATOM     27  N   UNL     1       6.104  -0.597   5.234  1.00  0.00    -0.352 N 
ATOM     28  C   UNL     1       7.428  -0.891   5.540  1.00  0.00     0.251 C 
ATOM     29  H   UNL     1       5.467  -1.348   5.229  1.00  0.00     0.163 HD
ATOM     30  O   UNL     1       7.818  -2.042   5.703  1.00  0.00    -0.269 OA
BRANCH  28  31
ATOM     31  C   UNL     1       8.386   0.243   5.594  1.00  0.00     0.039 A 
ATOM     32  C   UNL     1       9.502   0.262   4.753  1.00  0.00     0.014 A 
ATOM     33  C   UNL     1       8.046   1.375   6.328  1.00  0.00     0.014 A 
ATOM     34  C   UNL     1      10.186   1.468   4.546  1.00  0.00     0.010 A 
ATOM     35  C   UNL     1       8.620   2.593   5.999  1.00  0.00     0.010 A 
ATOM     36  C   UNL     1       9.701   2.662   5.107  1.00  0.00    -0.014 A 
BRANCH  36  37
ATOM     37  C   UNL     1      10.281   4.000   4.798  1.00  0.00     0.031 A 
ATOM     38  C   UNL     1      10.709   4.902   5.931  1.00  0.00     0.074 A 
ATOM     39  C   UNL     1      10.284   4.470   3.533  1.00  0.00     0.049 A 
ATOM     40  N   UNL     1      11.065   6.159   5.901  1.00  0.00    -0.248 NA
ATOM     41  C   UNL     1      10.663   4.330   7.289  1.00  0.00     0.031 C 
ATOM     42  C   UNL     1       9.788   3.755   2.353  1.00  0.00     0.029 A 
ATOM     43  N   UNL     1      10.692   5.683   3.029  1.00  0.00    -0.354 N 
ATOM     44  C   UNL     1      11.206   6.543   7.230  1.00  0.00     0.074 A 
ATOM     45  C   UNL     1      10.840   5.405   8.041  1.00  0.00     0.031 C 
ATOM     46  C   UNL     1       9.941   4.530   1.267  1.00  0.00     0.029 A 
ATOM     47  C   UNL     1      10.516   5.809   1.669  1.00  0.00     0.049 A 
ATOM     48  H   UNL     1      11.074   6.396   3.590  1.00  0.00     0.167 HD
ATOM     49  C   UNL     1      11.650   7.718   7.737  1.00  0.00     0.034 A 
ATOM     50  C   UNL     1      10.793   6.837   0.841  1.00  0.00     0.034 A 
ATOM     51  C   UNL     1      12.125   8.803   6.927  1.00  0.00     0.049 A 
ATOM     52  C   UNL     1      11.413   8.085   1.413  1.00  0.00     0.074 A 
ATOM     53  C   UNL     1      12.722   9.983   7.331  1.00  0.00     0.029 A 
ATOM     54  N   UNL     1      12.077   8.829   5.542  1.00  0.00    -0.354 N 
ATOM     55  N   UNL     1      11.693   8.367   2.663  1.00  0.00    -0.248 NA
ATOM     56  C   UNL     1      11.793   9.139   0.461  1.00  0.00     0.031 C 
ATOM     57  C   UNL     1      13.036  10.724   6.187  1.00  0.00     0.029 A 
ATOM     58  C   UNL     1      12.643   9.999   5.072  1.00  0.00     0.049 A 
ATOM     59  H   UNL     1      11.696   8.119   4.977  1.00  0.00     0.167 HD
ATOM     60  C   UNL     1      12.314   9.611   2.644  1.00  0.00     0.074 A 
ATOM     61  C   UNL     1      12.387  10.020   1.256  1.00  0.00     0.031 C 
ATOM     62  C   UNL     1      12.766  10.357   3.682  1.00  0.00     0.034 A 
BRANCH  49  63
ATOM     63  C   UNL     1      11.725   7.843   9.238  1.00  0.00     0.023 A 
ATOM     64  C   UNL     1      12.675   7.082   9.952  1.00  0.00     0.012 A 
ATOM     65  C   UNL     1      10.875   8.718   9.942  1.00  0.00     0.148 A 
ATOM     66  C   UNL     1      12.741   7.146  11.342  1.00  0.00     0.002 A 
ATOM     67  C   UNL     1      10.982   8.814  11.326  1.00  0.00     0.091 A 
ATOM     68  F   UNL     1       9.964   9.420   9.253  1.00  0.00    -0.205 F 
ATOM     69  C   UNL     1      11.901   8.017  12.028  1.00  0.00     0.022 A 
BRANCH  67  70
ATOM     70  S   UNL     1      10.002   9.969  12.293  1.00  0.00     0.127 S 
ATOM     71  O   UNL     1       9.039   9.075  12.934  1.00  0.00    -0.237 OA
ATOM     72  O   UNL     1      11.001  10.538  13.199  1.00  0.00    -0.237 OA
ATOM     73  O   UNL     1       9.444  10.915  11.338  1.00  0.00    -0.744 OA
ENDBRANCH  67  70
ENDBRANCH  49  63
BRANCH  50  74
ATOM     74  C   UNL     1      10.589   6.687  -0.630  1.00  0.00     0.023 A 
ATOM     75  C   UNL     1      11.716   6.557  -1.466  1.00  0.00     0.012 A 
ATOM     76  C   UNL     1       9.304   6.634  -1.204  1.00  0.00     0.148 A 
ATOM     77  C   UNL     1      11.571   6.407  -2.846  1.00  0.00     0.002 A 
ATOM     78  C   UNL     1       9.164   6.433  -2.574  1.00  0.00     0.091 A 
ATOM     79  F   UNL     1       8.242   6.769  -0.396  1.00  0.00    -0.205 F 
ATOM     80  C   UNL     1      10.296   6.335  -3.398  1.00  0.00     0.022 A 
BRANCH  78  81
ATOM     81  S   UNL     1       7.564   6.200  -3.358  1.00  0.00     0.127 S 
ATOM     82  O   UNL     1       7.410   7.448  -4.101  1.00  0.00    -0.237 OA
ATOM     83  O   UNL     1       7.801   5.016  -4.185  1.00  0.00    -0.237 OA
ATOM     84  O   UNL     1       6.620   5.991  -2.269  1.00  0.00    -0.744 OA
ENDBRANCH  78  81
ENDBRANCH  50  74
BRANCH  62  85
ATOM     85  C   UNL     1      13.417  11.676   3.368  1.00  0.00     0.023 A 
ATOM     86  C   UNL     1      12.620  12.772   2.985  1.00  0.00     0.012 A 
ATOM     87  C   UNL     1      14.802  11.855   3.552  1.00  0.00     0.148 A 
ATOM     88  C   UNL     1      13.196  14.023   2.768  1.00  0.00     0.002 A 
ATOM     89  C   UNL     1      15.362  13.114   3.378  1.00  0.00     0.091 A 
ATOM     90  F   UNL     1      15.544  10.793   3.898  1.00  0.00    -0.205 F 
ATOM     91  C   UNL     1      14.563  14.197   2.977  1.00  0.00     0.022 A 
BRANCH  89  92
ATOM     92  S   UNL     1      17.093  13.449   3.724  1.00  0.00     0.127 S 
ATOM     93  O   UNL     1      17.651  13.551   2.377  1.00  0.00    -0.237 OA
ATOM     94  O   UNL     1      17.027  14.716   4.454  1.00  0.00    -0.237 OA
ATOM     95  O   UNL     1      17.566  12.322   4.516  1.00  0.00    -0.744 OA
ENDBRANCH  89  92
ENDBRANCH  62  85
ENDBRANCH  36  37
ENDBRANCH  28  31
ENDBRANCH  26  27
ENDBRANCH  25  26
ENDBRANCH   1  25
TORSDOF 19
