REMARK SMILES O=C(NCCCNC(=O)c1ccc(C[NH2+][C@@H]2CCCc3sccc32)nc1)c1ccc(-c2c3nc(c(-c4cccc(S(=O)(=O)[O-])c4F)c4ccc([nH]4)c(-c4cccc(S(=O)(=O)[O-])c4F)c4nc(c(-c5cccc(S(=O)(=O)[O-])c5F)c5ccc2[nH]5)C=C4)C=C3)cc1
REMARK SMILES IDX 5 1 4 2 3 3 1 4 2 5 27 7 28 8 89 9 29 10 88 11 30 12 31 13
REMARK SMILES IDX 32 14 82 15 33 16 87 17 81 18 83 19 34 20 86 21 80 22 79 23
REMARK SMILES IDX 35 25 67 26 47 27 66 28 48 29 51 30 65 31 84 32 49 33 50 34
REMARK SMILES IDX 64 36 85 37 52 38 36 39 37 40 45 41 38 42 40 43 46 44 39 45
REMARK SMILES IDX 41 46 42 47 43 48 44 49 68 50 69 51 77 52 70 53 72 54 78 55
REMARK SMILES IDX 71 56 73 57 74 58 75 59 76 60 53 61 54 62 62 63 55 64 57 65
REMARK SMILES IDX 63 66 56 67 58 68 59 69 60 70 61 71 6 72 7 73 8 74 9 76
REMARK SMILES IDX 10 77 11 78 26 79 12 80 25 81 13 82 14 83 15 84 16 87 17 88
REMARK SMILES IDX 24 89 18 90 20 91 23 92 19 93 21 94 22 95
REMARK H PARENT 3 6 83 24 51 35 7 75 15 85 15 86
REMARK Flexibility Score: inf
ROOT
ATOM      1  C   UNL     1       4.968  -1.368   1.946  1.00  0.00     0.042 C 
ENDROOT
BRANCH   1   2
ATOM      2  C   UNL     1       4.587  -1.127   0.493  1.00  0.00     0.118 C 
BRANCH   2   3
ATOM      3  N   UNL     1       3.148  -1.026   0.298  1.00  0.00    -0.352 N 
ATOM      4  O   UNL     1       1.155  -0.030   0.008  1.00  0.00    -0.269 OA
ATOM      5  C   UNL     1       2.377   0.048  -0.081  1.00  0.00     0.251 C 
ATOM      6  H   UNL     1       2.647  -1.857   0.464  1.00  0.00     0.163 HD
BRANCH   5   7
ATOM      7  C   UNL     1       3.017   1.291  -0.563  1.00  0.00     0.039 A 
ATOM      8  C   UNL     1       4.114   1.243  -1.427  1.00  0.00     0.014 A 
ATOM      9  C   UNL     1       2.504   2.524  -0.155  1.00  0.00     0.014 A 
ATOM     10  C   UNL     1       4.800   2.410  -1.741  1.00  0.00     0.010 A 
ATOM     11  C   UNL     1       3.135   3.704  -0.557  1.00  0.00     0.010 A 
ATOM     12  C   UNL     1       4.311   3.655  -1.321  1.00  0.00    -0.014 A 
BRANCH  12  13
ATOM     13  C   UNL     1       5.007   4.899  -1.739  1.00  0.00     0.031 A 
ATOM     14  C   UNL     1       5.598   5.835  -0.722  1.00  0.00     0.074 A 
ATOM     15  C   UNL     1       5.080   5.192  -3.052  1.00  0.00     0.049 A 
ATOM     16  N   UNL     1       6.196   6.982  -0.911  1.00  0.00    -0.248 NA
ATOM     17  C   UNL     1       5.495   5.440   0.692  1.00  0.00     0.031 C 
ATOM     18  C   UNL     1       4.517   4.374  -4.129  1.00  0.00     0.029 A 
ATOM     19  N   UNL     1       5.639   6.260  -3.704  1.00  0.00    -0.354 N 
ATOM     20  C   UNL     1       6.500   7.470   0.354  1.00  0.00     0.074 A 
ATOM     21  C   UNL     1       6.013   6.494   1.307  1.00  0.00     0.031 C 
ATOM     22  C   UNL     1       4.764   4.965  -5.306  1.00  0.00     0.029 A 
ATOM     23  C   UNL     1       5.446   6.231  -5.065  1.00  0.00     0.049 A 
ATOM     24  H   UNL     1       6.131   6.978  -3.243  1.00  0.00     0.167 HD
ATOM     25  C   UNL     1       7.135   8.619   0.691  1.00  0.00     0.034 A 
ATOM     26  C   UNL     1       5.750   7.135  -6.014  1.00  0.00     0.034 A 
ATOM     27  C   UNL     1       7.636   9.572  -0.265  1.00  0.00     0.049 A 
ATOM     28  C   UNL     1       6.453   8.399  -5.616  1.00  0.00     0.074 A 
ATOM     29  C   UNL     1       8.348  10.734  -0.028  1.00  0.00     0.029 A 
ATOM     30  N   UNL     1       7.465   9.482  -1.639  1.00  0.00    -0.354 N 
ATOM     31  N   UNL     1       6.834   8.788  -4.423  1.00  0.00    -0.248 NA
ATOM     32  C   UNL     1       6.796   9.336  -6.694  1.00  0.00     0.031 C 
ATOM     33  C   UNL     1       8.576  11.365  -1.256  1.00  0.00     0.029 A 
ATOM     34  C   UNL     1       8.045  10.575  -2.262  1.00  0.00     0.049 A 
ATOM     35  H   UNL     1       7.000   8.749  -2.103  1.00  0.00     0.167 HD
ATOM     36  C   UNL     1       7.493   9.996  -4.610  1.00  0.00     0.074 A 
ATOM     37  C   UNL     1       7.471  10.267  -6.033  1.00  0.00     0.031 C 
ATOM     38  C   UNL     1       8.059  10.809  -3.684  1.00  0.00     0.034 A 
BRANCH  25  39
ATOM     39  C   UNL     1       7.337   8.906   2.158  1.00  0.00     0.023 A 
ATOM     40  C   UNL     1       8.259   8.143   2.903  1.00  0.00     0.012 A 
ATOM     41  C   UNL     1       6.650   9.963   2.788  1.00  0.00     0.148 A 
ATOM     42  C   UNL     1       8.464   8.399   4.259  1.00  0.00     0.002 A 
ATOM     43  C   UNL     1       6.894  10.242   4.128  1.00  0.00     0.091 A 
ATOM     44  F   UNL     1       5.763  10.668   2.071  1.00  0.00    -0.205 F 
ATOM     45  C   UNL     1       7.789   9.453   4.868  1.00  0.00     0.022 A 
BRANCH  43  46
ATOM     46  S   UNL     1       6.134  11.630   4.980  1.00  0.00     0.127 S 
ATOM     47  O   UNL     1       5.166  10.952   5.841  1.00  0.00    -0.237 OA
ATOM     48  O   UNL     1       7.272  12.218   5.688  1.00  0.00    -0.237 OA
ATOM     49  O   UNL     1       5.565  12.476   3.940  1.00  0.00    -0.744 OA
ENDBRANCH  43  46
ENDBRANCH  25  39
BRANCH  26  50
ATOM     50  C   UNL     1       5.410   6.847  -7.435  1.00  0.00     0.023 A 
ATOM     51  C   UNL     1       6.440   6.566  -8.352  1.00  0.00     0.012 A 
ATOM     52  C   UNL     1       4.069   6.789  -7.864  1.00  0.00     0.148 A 
ATOM     53  C   UNL     1       6.142   6.254  -9.679  1.00  0.00     0.002 A 
ATOM     54  C   UNL     1       3.777   6.420  -9.170  1.00  0.00     0.091 A 
ATOM     55  F   UNL     1       3.106   7.065  -6.973  1.00  0.00    -0.205 F 
ATOM     56  C   UNL     1       4.812   6.169 -10.084  1.00  0.00     0.022 A 
BRANCH  54  57
ATOM     57  S   UNL     1       2.097   6.149  -9.744  1.00  0.00     0.127 S 
ATOM     58  O   UNL     1       1.931   7.238 -10.704  1.00  0.00    -0.237 OA
ATOM     59  O   UNL     1       2.194   4.814 -10.336  1.00  0.00    -0.237 OA
ATOM     60  O   UNL     1       1.256   6.223  -8.558  1.00  0.00    -0.744 OA
ENDBRANCH  54  57
ENDBRANCH  26  50
BRANCH  38  61
ATOM     61  C   UNL     1       8.752  12.052  -4.178  1.00  0.00     0.023 A 
ATOM     62  C   UNL     1       7.998  13.140  -4.658  1.00  0.00     0.012 A 
ATOM     63  C   UNL     1      10.154  12.165  -4.088  1.00  0.00     0.148 A 
ATOM     64  C   UNL     1       8.632  14.312  -5.069  1.00  0.00     0.002 A 
ATOM     65  C   UNL     1      10.773  13.355  -4.449  1.00  0.00     0.091 A 
ATOM     66  F   UNL     1      10.854  11.110  -3.648  1.00  0.00    -0.205 F 
ATOM     67  C   UNL     1      10.016  14.425  -4.952  1.00  0.00     0.022 A 
BRANCH  65  68
ATOM     68  S   UNL     1      12.537  13.625  -4.239  1.00  0.00     0.127 S 
ATOM     69  O   UNL     1      13.003  13.641  -5.624  1.00  0.00    -0.237 OA
ATOM     70  O   UNL     1      12.572  14.925  -3.568  1.00  0.00    -0.237 OA
ATOM     71  O   UNL     1      13.021  12.514  -3.431  1.00  0.00    -0.744 OA
ENDBRANCH  65  68
ENDBRANCH  38  61
ENDBRANCH  12  13
ENDBRANCH   5   7
ENDBRANCH   2   3
ENDBRANCH   1   2
BRANCH   1  72
ATOM     72  C   UNL     1       4.414  -2.660   2.528  1.00  0.00     0.118 C 
BRANCH  72  73
ATOM     73  N   UNL     1       4.879  -3.841   1.811  1.00  0.00    -0.352 N 
ATOM     74  C   UNL     1       5.690  -4.861   2.239  1.00  0.00     0.252 C 
ATOM     75  H   UNL     1       4.564  -3.918   0.881  1.00  0.00     0.163 HD
ATOM     76  O   UNL     1       6.138  -5.679   1.441  1.00  0.00    -0.269 OA
BRANCH  74  77
ATOM     77  C   UNL     1       6.032  -4.971   3.662  1.00  0.00     0.058 A 
ATOM     78  C   UNL     1       5.059  -4.918   4.658  1.00  0.00     0.017 A 
ATOM     79  C   UNL     1       7.356  -5.124   4.035  1.00  0.00     0.125 A 
ATOM     80  C   UNL     1       5.457  -4.901   5.989  1.00  0.00     0.030 A 
ATOM     81  N   UNL     1       7.767  -5.129   5.326  1.00  0.00    -0.255 NA
ATOM     82  C   UNL     1       6.816  -4.984   6.288  1.00  0.00     0.094 A 
BRANCH  82  83
ATOM     83  C   UNL     1       7.272  -4.764   7.722  1.00  0.00     0.318 C 
BRANCH  83  84
ATOM     84  N   UNL     1       8.140  -5.819   8.243  1.00  0.00    -0.335 N 
ATOM     85  H   UNL     1       9.054  -5.706   7.806  1.00  0.00     0.347 HD
ATOM     86  H   UNL     1       7.657  -6.689   8.021  1.00  0.00     0.347 HD
BRANCH  84  87
ATOM     87  C   UNL     1       8.348  -5.863   9.697  1.00  0.00     0.215 C 
ATOM     88  C   UNL     1       7.496  -7.001  10.321  1.00  0.00     0.071 C 
ATOM     89  C   UNL     1       8.131  -4.550  10.422  1.00  0.00     0.023 A 
ATOM     90  C   UNL     1       7.528  -6.955  11.856  1.00  0.00     0.012 C 
ATOM     91  C   UNL     1       7.445  -4.484  11.625  1.00  0.00     0.014 A 
ATOM     92  C   UNL     1       8.643  -3.256  10.076  1.00  0.00     0.022 A 
ATOM     93  C   UNL     1       6.899  -5.656  12.379  1.00  0.00     0.047 C 
ATOM     94  S   UNL     1       7.241  -2.892  12.191  1.00  0.00    -0.148 S 
ATOM     95  C   UNL     1       8.175  -2.262  10.907  1.00  0.00     0.065 A 
ENDBRANCH  84  87
ENDBRANCH  83  84
ENDBRANCH  82  83
ENDBRANCH  74  77
ENDBRANCH  72  73
ENDBRANCH   1  72
TORSDOF 16
