REMARK SMILES CN1C(=O)C[C@@H](C(=O)NCCCNC(=O)c2ccc(-c3c4nc(c(-c5cccc(S(=O)(=O)[O-])c5F)c5ccc([nH]5)c(-c5cccc(S(=O)(=O)[O-])c5F)c5nc(c(-c6cccc(S(=O)(=O)[O-])c6F)c6ccc3[nH]6)C=C5)C=C4)cc2)C12CC[NH+](CCSc1ccccc1)CC2
REMARK SMILES IDX 10 1 9 2 7 3 8 4 6 6 1 7 2 8 3 9 79 10 4 11 5 12 80 13 93 14
REMARK SMILES IDX 81 15 92 16 82 17 83 19 84 20 85 21 86 22 87 23 91 24 88 25
REMARK SMILES IDX 90 26 89 27 11 28 12 29 13 30 14 31 15 33 16 34 17 35 78 36
REMARK SMILES IDX 18 37 77 38 19 39 20 40 21 41 71 42 22 43 76 44 70 45 72 46
REMARK SMILES IDX 23 47 75 48 69 49 68 50 24 52 56 53 36 54 55 55 37 56 40 57
REMARK SMILES IDX 54 58 73 59 38 60 39 61 53 63 74 64 41 65 25 66 26 67 34 68
REMARK SMILES IDX 27 69 29 70 35 71 28 72 30 73 31 74 32 75 33 76 57 77 58 78
REMARK SMILES IDX 66 79 59 80 61 81 67 82 60 83 62 84 63 85 64 86 65 87 42 88
REMARK SMILES IDX 43 89 51 90 44 91 46 92 52 93 45 94 47 95 48 96 49 97 50 98
REMARK H PARENT 9 5 82 18 13 32 72 51 40 62
REMARK Flexibility Score: inf
ROOT
ATOM      1  C   UNL     1      -2.187   0.669   2.109  1.00  0.00     0.117 C 
ENDROOT
BRANCH   1   2
ATOM      2  N   UNL     1      -3.179   0.209   1.157  1.00  0.00    -0.356 N 
ATOM      3  C   UNL     1      -3.073  -0.548   0.044  1.00  0.00     0.226 C 
ATOM      4  O   UNL     1      -4.044  -0.549  -0.721  1.00  0.00    -0.275 OA
ATOM      5  H   UNL     1      -4.098   0.500   1.360  1.00  0.00     0.163 HD
BRANCH   3   6
ATOM      6  C   UNL     1      -1.875  -1.410  -0.282  1.00  0.00     0.114 C 
ATOM      7  C   UNL     1       1.574   0.060   0.064  1.00  0.00     0.147 C 
ATOM      8  N   UNL     1       0.291  -0.627   0.134  1.00  0.00    -0.339 N 
ATOM      9  C   UNL     1       0.021  -1.514   1.168  1.00  0.00     0.223 C 
ATOM     10  C   UNL     1      -0.633  -0.812  -1.003  1.00  0.00     0.065 C 
ATOM     11  O   UNL     1       0.727  -1.735   2.149  1.00  0.00    -0.275 OA
ATOM     12  C   UNL     1      -1.296  -2.193   0.902  1.00  0.00     0.116 C 
ATOM     13  C   UNL     1      -0.800   0.440  -1.936  1.00  0.00     0.091 C 
ATOM     14  C   UNL     1      -0.108  -1.963  -1.853  1.00  0.00     0.091 C 
ATOM     15  C   UNL     1      -0.727   0.248  -3.502  1.00  0.00     0.264 C 
ATOM     16  C   UNL     1      -0.955  -2.047  -3.112  1.00  0.00     0.264 C 
ATOM     17  N   UNL     1      -0.454  -1.091  -4.043  1.00  0.00    -0.334 N 
ATOM     18  H   UNL     1      -0.943  -1.107  -4.938  1.00  0.00     0.348 HD
BRANCH  17  19
ATOM     19  C   UNL     1       0.911  -1.429  -4.523  1.00  0.00     0.273 C 
BRANCH  19  20
ATOM     20  C   UNL     1       1.615  -2.847  -4.218  1.00  0.00     0.136 C 
BRANCH  20  21
ATOM     21  S   UNL     1       0.822  -4.504  -4.675  1.00  0.00    -0.120 SA
BRANCH  21  22
ATOM     22  C   UNL     1       0.272  -5.296  -3.125  1.00  0.00     0.007 A 
ATOM     23  C   UNL     1      -1.067  -5.200  -2.697  1.00  0.00     0.015 A 
ATOM     24  C   UNL     1       1.082  -6.213  -2.445  1.00  0.00     0.015 A 
ATOM     25  C   UNL     1      -1.544  -5.858  -1.556  1.00  0.00     0.001 A 
ATOM     26  C   UNL     1       0.580  -6.949  -1.351  1.00  0.00     0.001 A 
ATOM     27  C   UNL     1      -0.721  -6.750  -0.889  1.00  0.00     0.000 A 
ENDBRANCH  21  22
ENDBRANCH  20  21
ENDBRANCH  19  20
ENDBRANCH  17  19
ENDBRANCH   3   6
ENDBRANCH   1   2
BRANCH   1  28
ATOM     28  C   UNL     1      -1.411   1.850   1.556  1.00  0.00     0.042 C 
BRANCH  28  29
ATOM     29  C   UNL     1      -2.329   3.020   1.249  1.00  0.00     0.118 C 
BRANCH  29  30
ATOM     30  N   UNL     1      -2.853   3.593   2.482  1.00  0.00    -0.352 N 
ATOM     31  C   UNL     1      -2.444   4.747   3.096  1.00  0.00     0.251 C 
ATOM     32  H   UNL     1      -3.580   3.096   2.921  1.00  0.00     0.163 HD
ATOM     33  O   UNL     1      -2.672   4.938   4.289  1.00  0.00    -0.269 OA
BRANCH  31  34
ATOM     34  C   UNL     1      -1.742   5.756   2.285  1.00  0.00     0.039 A 
ATOM     35  C   UNL     1      -0.605   6.396   2.782  1.00  0.00     0.014 A 
ATOM     36  C   UNL     1      -2.229   6.051   1.008  1.00  0.00     0.014 A 
ATOM     37  C   UNL     1       0.057   7.329   1.982  1.00  0.00     0.010 A 
ATOM     38  C   UNL     1      -1.512   6.894   0.181  1.00  0.00     0.010 A 
ATOM     39  C   UNL     1      -0.392   7.579   0.676  1.00  0.00    -0.014 A 
BRANCH  39  40
ATOM     40  C   UNL     1       0.194   8.627  -0.189  1.00  0.00     0.031 A 
ATOM     41  C   UNL     1      -0.700   9.752  -0.643  1.00  0.00     0.074 A 
ATOM     42  C   UNL     1       1.441   8.493  -0.676  1.00  0.00     0.049 A 
ATOM     43  N   UNL     1      -0.509  10.631  -1.588  1.00  0.00    -0.248 NA
ATOM     44  C   UNL     1      -2.016   9.856   0.016  1.00  0.00     0.031 C 
ATOM     45  C   UNL     1       2.368   7.407  -0.355  1.00  0.00     0.029 A 
ATOM     46  N   UNL     1       2.123   9.258  -1.587  1.00  0.00    -0.354 N 
ATOM     47  C   UNL     1      -1.704  11.334  -1.691  1.00  0.00     0.074 A 
ATOM     48  C   UNL     1      -2.624  10.760  -0.736  1.00  0.00     0.031 C 
ATOM     49  C   UNL     1       3.496   7.569  -1.066  1.00  0.00     0.029 A 
ATOM     50  C   UNL     1       3.356   8.746  -1.919  1.00  0.00     0.049 A 
ATOM     51  H   UNL     1       1.766  10.092  -1.967  1.00  0.00     0.167 HD
ATOM     52  C   UNL     1      -1.999  12.385  -2.490  1.00  0.00     0.034 A 
ATOM     53  C   UNL     1       4.260   9.175  -2.822  1.00  0.00     0.034 A 
ATOM     54  C   UNL     1      -1.038  13.008  -3.355  1.00  0.00     0.049 A 
ATOM     55  C   UNL     1       3.951  10.415  -3.620  1.00  0.00     0.074 A 
ATOM     56  C   UNL     1      -1.184  14.146  -4.125  1.00  0.00     0.029 A 
ATOM     57  N   UNL     1       0.257  12.553  -3.545  1.00  0.00    -0.354 N 
ATOM     58  N   UNL     1       2.861  11.146  -3.616  1.00  0.00    -0.248 NA
ATOM     59  C   UNL     1       5.003  10.912  -4.518  1.00  0.00     0.031 C 
ATOM     60  C   UNL     1       0.027  14.380  -4.782  1.00  0.00     0.029 A 
ATOM     61  C   UNL     1       0.929  13.395  -4.408  1.00  0.00     0.049 A 
ATOM     62  H   UNL     1       0.641  11.749  -3.126  1.00  0.00     0.167 HD
ATOM     63  C   UNL     1       3.113  12.212  -4.471  1.00  0.00     0.074 A 
ATOM     64  C   UNL     1       4.461  12.035  -4.973  1.00  0.00     0.031 C 
ATOM     65  C   UNL     1       2.300  13.238  -4.822  1.00  0.00     0.034 A 
BRANCH  52  66
ATOM     66  C   UNL     1      -3.385  12.966  -2.408  1.00  0.00     0.023 A 
ATOM     67  C   UNL     1      -3.779  13.672  -1.253  1.00  0.00     0.012 A 
ATOM     68  C   UNL     1      -4.284  12.855  -3.487  1.00  0.00     0.148 A 
ATOM     69  C   UNL     1      -5.056  14.220  -1.154  1.00  0.00     0.002 A 
ATOM     70  C   UNL     1      -5.539  13.447  -3.401  1.00  0.00     0.091 A 
ATOM     71  F   UNL     1      -3.903  12.161  -4.570  1.00  0.00    -0.205 F 
ATOM     72  C   UNL     1      -5.931  14.117  -2.231  1.00  0.00     0.022 A 
BRANCH  70  73
ATOM     73  S   UNL     1      -6.706  13.442  -4.767  1.00  0.00     0.127 S 
ATOM     74  O   UNL     1      -7.706  12.484  -4.297  1.00  0.00    -0.237 OA
ATOM     75  O   UNL     1      -7.159  14.834  -4.790  1.00  0.00    -0.237 OA
ATOM     76  O   UNL     1      -5.947  13.033  -5.940  1.00  0.00    -0.744 OA
ENDBRANCH  70  73
ENDBRANCH  52  66
BRANCH  53  77
ATOM     77  C   UNL     1       5.568   8.476  -2.952  1.00  0.00     0.023 A 
ATOM     78  C   UNL     1       6.731   9.104  -2.465  1.00  0.00     0.012 A 
ATOM     79  C   UNL     1       5.667   7.183  -3.502  1.00  0.00     0.148 A 
ATOM     80  C   UNL     1       7.972   8.472  -2.550  1.00  0.00     0.002 A 
ATOM     81  C   UNL     1       6.898   6.537  -3.536  1.00  0.00     0.091 A 
ATOM     82  F   UNL     1       4.552   6.603  -3.968  1.00  0.00    -0.205 F 
ATOM     83  C   UNL     1       8.055   7.186  -3.076  1.00  0.00     0.022 A 
BRANCH  81  84
ATOM     84  S   UNL     1       7.071   4.829  -4.069  1.00  0.00     0.127 S 
ATOM     85  O   UNL     1       7.689   4.986  -5.383  1.00  0.00    -0.237 OA
ATOM     86  O   UNL     1       7.949   4.274  -3.038  1.00  0.00    -0.237 OA
ATOM     87  O   UNL     1       5.722   4.279  -4.060  1.00  0.00    -0.744 OA
ENDBRANCH  81  84
ENDBRANCH  53  77
BRANCH  65  88
ATOM     88  C   UNL     1       2.849  14.295  -5.738  1.00  0.00     0.023 A 
ATOM     89  C   UNL     1       2.955  14.038  -7.118  1.00  0.00     0.012 A 
ATOM     90  C   UNL     1       3.124  15.586  -5.245  1.00  0.00     0.148 A 
ATOM     91  C   UNL     1       3.339  15.051  -7.995  1.00  0.00     0.002 A 
ATOM     92  C   UNL     1       3.461  16.601  -6.130  1.00  0.00     0.091 A 
ATOM     93  F   UNL     1       3.029  15.798  -3.924  1.00  0.00    -0.205 F 
ATOM     94  C   UNL     1       3.576  16.334  -7.504  1.00  0.00     0.022 A 
BRANCH  92  95
ATOM     95  S   UNL     1       3.684  18.304  -5.603  1.00  0.00     0.127 S 
ATOM     96  O   UNL     1       5.124  18.483  -5.780  1.00  0.00    -0.237 OA
ATOM     97  O   UNL     1       2.855  19.035  -6.561  1.00  0.00    -0.237 OA
ATOM     98  O   UNL     1       3.215  18.365  -4.225  1.00  0.00    -0.744 OA
ENDBRANCH  92  95
ENDBRANCH  65  88
ENDBRANCH  39  40
ENDBRANCH  31  34
ENDBRANCH  29  30
ENDBRANCH  28  29
ENDBRANCH   1  28
TORSDOF 17
