REMARK SMILES COc1ccc(C(=O)Nc2cc(C(=O)NCCCNC(=O)c3ccc(-c4c5nc(c(-c6cccc(S(=O)(=O)[O-])c6F)c6ccc([nH]6)c(-c6cccc(S(=O)(=O)[O-])c6F)c6nc(c(-c7cccc(S(=O)(=O)[O-])c7F)c7ccc4[nH]7)C=C6)C=C5)cc3)c(Cl)cc2Cl)cc1Cl
REMARK SMILES IDX 17 1 16 2 15 3 13 4 14 5 12 7 10 8 11 9 88 10 87 11 89 12
REMARK SMILES IDX 85 13 86 14 9 15 7 16 8 17 6 19 3 20 4 21 91 22 5 23 90 24
REMARK SMILES IDX 92 25 2 26 1 27 18 28 19 29 20 30 21 32 22 33 23 34 84 35
REMARK SMILES IDX 24 36 83 37 25 38 26 39 27 40 77 41 28 42 82 43 76 44 78 45
REMARK SMILES IDX 29 46 81 47 75 48 74 49 30 51 62 52 42 53 61 54 43 55 46 56
REMARK SMILES IDX 60 57 79 58 44 59 45 60 59 62 80 63 47 64 31 65 32 66 40 67
REMARK SMILES IDX 33 68 35 69 41 70 34 71 36 72 37 73 38 74 39 75 63 76 64 77
REMARK SMILES IDX 72 78 65 79 67 80 73 81 66 82 68 83 69 84 70 85 71 86 48 87
REMARK SMILES IDX 49 88 57 89 50 90 52 91 58 92 51 93 53 94 54 95 55 96 56 97
REMARK H PARENT 15 6 9 18 19 31 78 50 46 61
REMARK Flexibility Score: inf
ROOT
ATOM      1  C   UNL     1       7.627   0.020   0.478  1.00  0.00     0.042 C 
ENDROOT
BRANCH   1   2
ATOM      2  C   UNL     1       7.880   1.505   0.749  1.00  0.00     0.118 C 
BRANCH   2   3
ATOM      3  N   UNL     1       6.644   2.251   0.725  1.00  0.00    -0.352 N 
ATOM      4  C   UNL     1       5.774   2.746   1.645  1.00  0.00     0.252 C 
ATOM      5  O   UNL     1       4.847   3.389   1.133  1.00  0.00    -0.269 OA
ATOM      6  H   UNL     1       6.358   2.453  -0.195  1.00  0.00     0.163 HD
BRANCH   4   7
ATOM      7  C   UNL     1       5.811   2.660   3.147  1.00  0.00     0.060 A 
ATOM      8  C   UNL     1       4.539   3.477   5.109  1.00  0.00     0.061 A 
ATOM      9  C   UNL     1       4.840   3.509   3.744  1.00  0.00     0.043 A 
ATOM     10  C   UNL     1       5.398   2.802   5.967  1.00  0.00     0.066 A 
ATOM     11  C   UNL     1       6.372   1.973   5.427  1.00  0.00     0.044 A 
ATOM     12  Cl  UNL     1       5.171   2.817   7.678  1.00  0.00    -0.082 Cl
ATOM     13  C   UNL     1       6.518   1.830   4.030  1.00  0.00     0.055 A 
ATOM     14  Cl  UNL     1       7.467   0.456   3.628  1.00  0.00    -0.083 Cl
BRANCH   8  15
ATOM     15  N   UNL     1       3.343   4.016   5.614  1.00  0.00    -0.321 N 
ATOM     16  C   UNL     1       2.070   4.055   5.072  1.00  0.00     0.255 C 
ATOM     17  O   UNL     1       1.218   4.739   5.642  1.00  0.00    -0.269 OA
ATOM     18  H   UNL     1       3.424   4.436   6.500  1.00  0.00     0.170 HD
BRANCH  16  19
ATOM     19  C   UNL     1       1.650   3.237   3.888  1.00  0.00     0.041 A 
ATOM     20  C   UNL     1       0.829   1.823   1.562  1.00  0.00     0.137 A 
ATOM     21  C   UNL     1       0.147   2.968   2.005  1.00  0.00     0.049 A 
ATOM     22  C   UNL     1       1.906   1.366   2.327  1.00  0.00     0.083 A 
ATOM     23  C   UNL     1       0.555   3.675   3.142  1.00  0.00     0.018 A 
ATOM     24  C   UNL     1       2.253   2.030   3.518  1.00  0.00     0.038 A 
ATOM     25  Cl  UNL     1       2.957   0.060   1.899  1.00  0.00    -0.080 Cl
BRANCH  20  26
ATOM     26  O   UNL     1       0.305   1.344   0.394  1.00  0.00    -0.495 OA
ATOM     27  C   UNL     1       0.645   0.043  -0.059  1.00  0.00     0.278 C 
ENDBRANCH  20  26
ENDBRANCH  16  19
ENDBRANCH   8  15
ENDBRANCH   4   7
ENDBRANCH   2   3
ENDBRANCH   1   2
BRANCH   1  28
ATOM     28  C   UNL     1       7.610  -0.325  -1.007  1.00  0.00     0.118 C 
BRANCH  28  29
ATOM     29  N   UNL     1       8.925  -0.129  -1.613  1.00  0.00    -0.352 N 
ATOM     30  C   UNL     1       9.783  -1.041  -2.163  1.00  0.00     0.251 C 
ATOM     31  H   UNL     1       9.242   0.803  -1.626  1.00  0.00     0.163 HD
ATOM     32  O   UNL     1      10.961  -0.723  -2.355  1.00  0.00    -0.269 OA
BRANCH  30  33
ATOM     33  C   UNL     1       9.310  -2.386  -2.540  1.00  0.00     0.039 A 
ATOM     34  C   UNL     1      10.149  -3.488  -2.346  1.00  0.00     0.014 A 
ATOM     35  C   UNL     1       8.056  -2.556  -3.133  1.00  0.00     0.014 A 
ATOM     36  C   UNL     1       9.714  -4.763  -2.709  1.00  0.00     0.010 A 
ATOM     37  C   UNL     1       7.592  -3.834  -3.415  1.00  0.00     0.010 A 
ATOM     38  C   UNL     1       8.422  -4.948  -3.227  1.00  0.00    -0.014 A 
BRANCH  38  39
ATOM     39  C   UNL     1       7.916  -6.289  -3.611  1.00  0.00     0.031 A 
ATOM     40  C   UNL     1       7.522  -6.551  -5.041  1.00  0.00     0.074 A 
ATOM     41  C   UNL     1       7.710  -7.223  -2.663  1.00  0.00     0.049 A 
ATOM     42  N   UNL     1       6.929  -7.596  -5.555  1.00  0.00    -0.248 NA
ATOM     43  C   UNL     1       7.798  -5.480  -6.015  1.00  0.00     0.031 C 
ATOM     44  C   UNL     1       7.988  -7.056  -1.235  1.00  0.00     0.029 A 
ATOM     45  N   UNL     1       7.181  -8.486  -2.753  1.00  0.00    -0.354 N 
ATOM     46  C   UNL     1       6.720  -7.291  -6.896  1.00  0.00     0.074 A 
ATOM     47  C   UNL     1       7.216  -5.949  -7.108  1.00  0.00     0.031 C 
ATOM     48  C   UNL     1       7.618  -8.169  -0.582  1.00  0.00     0.029 A 
ATOM     49  C   UNL     1       7.045  -9.113  -1.536  1.00  0.00     0.049 A 
ATOM     50  H   UNL     1       6.923  -8.903  -3.606  1.00  0.00     0.167 HD
ATOM     51  C   UNL     1       6.191  -8.068  -7.869  1.00  0.00     0.034 A 
ATOM     52  C   UNL     1       6.501 -10.305  -1.224  1.00  0.00     0.034 A 
ATOM     53  C   UNL     1       5.748  -9.419  -7.658  1.00  0.00     0.049 A 
ATOM     54  C   UNL     1       5.962 -11.169  -2.332  1.00  0.00     0.074 A 
ATOM     55  C   UNL     1       5.268 -10.322  -8.589  1.00  0.00     0.029 A 
ATOM     56  N   UNL     1       5.732 -10.061  -6.430  1.00  0.00    -0.354 N 
ATOM     57  N   UNL     1       5.895 -10.916  -3.616  1.00  0.00    -0.248 NA
ATOM     58  C   UNL     1       5.459 -12.498  -1.956  1.00  0.00     0.031 C 
ATOM     59  C   UNL     1       4.943 -11.505  -7.919  1.00  0.00     0.029 A 
ATOM     60  C   UNL     1       5.253 -11.350  -6.577  1.00  0.00     0.049 A 
ATOM     61  H   UNL     1       6.020  -9.659  -5.578  1.00  0.00     0.167 HD
ATOM     62  C   UNL     1       5.389 -12.068  -4.207  1.00  0.00     0.074 A 
ATOM     63  C   UNL     1       5.177 -13.024  -3.140  1.00  0.00     0.031 C 
ATOM     64  C   UNL     1       5.115 -12.309  -5.512  1.00  0.00     0.034 A 
BRANCH  51  65
ATOM     65  C   UNL     1       6.115  -7.498  -9.262  1.00  0.00     0.023 A 
ATOM     66  C   UNL     1       7.302  -7.295  -9.997  1.00  0.00     0.012 A 
ATOM     67  C   UNL     1       4.874  -7.217  -9.866  1.00  0.00     0.148 A 
ATOM     68  C   UNL     1       7.258  -6.787 -11.294  1.00  0.00     0.002 A 
ATOM     69  C   UNL     1       4.835  -6.757 -11.177  1.00  0.00     0.091 A 
ATOM     70  F   UNL     1       3.757  -7.398  -9.146  1.00  0.00    -0.205 F 
ATOM     71  C   UNL     1       6.026  -6.529 -11.887  1.00  0.00     0.022 A 
BRANCH  69  72
ATOM     72  S   UNL     1       3.298  -6.473 -12.062  1.00  0.00     0.127 S 
ATOM     73  O   UNL     1       3.299  -5.016 -12.193  1.00  0.00    -0.237 OA
ATOM     74  O   UNL     1       3.526  -7.197 -13.312  1.00  0.00    -0.237 OA
ATOM     75  O   UNL     1       2.243  -7.022 -11.223  1.00  0.00    -0.744 OA
ENDBRANCH  69  72
ENDBRANCH  51  65
BRANCH  52  76
ATOM     76  C   UNL     1       6.489 -10.774   0.191  1.00  0.00     0.023 A 
ATOM     77  C   UNL     1       7.315 -11.851   0.571  1.00  0.00     0.012 A 
ATOM     78  C   UNL     1       5.684 -10.150   1.164  1.00  0.00     0.148 A 
ATOM     79  C   UNL     1       7.309 -12.323   1.884  1.00  0.00     0.002 A 
ATOM     80  C   UNL     1       5.726 -10.589   2.482  1.00  0.00     0.091 A 
ATOM     81  F   UNL     1       4.900  -9.132   0.782  1.00  0.00    -0.205 F 
ATOM     82  C   UNL     1       6.522 -11.688   2.841  1.00  0.00     0.022 A 
BRANCH  80  83
ATOM     83  S   UNL     1       4.848  -9.748   3.804  1.00  0.00     0.127 S 
ATOM     84  O   UNL     1       3.784 -10.701   4.111  1.00  0.00    -0.237 OA
ATOM     85  O   UNL     1       5.885  -9.630   4.830  1.00  0.00    -0.237 OA
ATOM     86  O   UNL     1       4.417  -8.476   3.241  1.00  0.00    -0.744 OA
ENDBRANCH  80  83
ENDBRANCH  52  76
BRANCH  64  87
ATOM     87  C   UNL     1       4.619 -13.681  -5.884  1.00  0.00     0.023 A 
ATOM     88  C   UNL     1       3.303 -14.067  -5.566  1.00  0.00     0.012 A 
ATOM     89  C   UNL     1       5.435 -14.547  -6.638  1.00  0.00     0.148 A 
ATOM     90  C   UNL     1       2.815 -15.309  -5.971  1.00  0.00     0.002 A 
ATOM     91  C   UNL     1       4.925 -15.760  -7.083  1.00  0.00     0.091 A 
ATOM     92  F   UNL     1       6.691 -14.165  -6.913  1.00  0.00    -0.205 F 
ATOM     93  C   UNL     1       3.619 -16.148  -6.740  1.00  0.00     0.022 A 
BRANCH  91  94
ATOM     94  S   UNL     1       5.851 -16.856  -8.163  1.00  0.00     0.127 S 
ATOM     95  O   UNL     1       6.145 -17.975  -7.269  1.00  0.00    -0.237 OA
ATOM     96  O   UNL     1       4.875 -17.153  -9.211  1.00  0.00    -0.237 OA
ATOM     97  O   UNL     1       7.009 -16.096  -8.612  1.00  0.00    -0.744 OA
ENDBRANCH  91  94
ENDBRANCH  64  87
ENDBRANCH  38  39
ENDBRANCH  30  33
ENDBRANCH  28  29
ENDBRANCH   1  28
TORSDOF 16
