REMARK SMILES CC(=O)/C=C(/C)NCC(=O)NCCCNC(=O)c1ccc(-c2c3nc(c(-c4cccc(S(=O)(=O)[O-])c4F)c4ccc([nH]4)c(-c4cccc(S(=O)(=O)[O-])c4F)c4nc(c(-c5cccc(S(=O)(=O)[O-])c5F)c5ccc2[nH]5)C=C4)C=C3)cc1
REMARK SMILES IDX 13 1 12 2 11 3 9 4 10 5 8 7 7 8 5 10 4 11 6 12 2 13 1 14
REMARK SMILES IDX 3 15 14 16 15 17 16 18 17 20 18 21 19 22 80 23 20 24 79 25
REMARK SMILES IDX 21 26 22 27 23 28 73 29 24 30 78 31 72 32 74 33 25 34 77 35
REMARK SMILES IDX 71 36 70 37 26 39 58 40 38 41 57 42 39 43 42 44 56 45 75 46
REMARK SMILES IDX 40 47 41 48 55 50 76 51 43 52 27 53 28 54 36 55 29 56 31 57
REMARK SMILES IDX 37 58 30 59 32 60 33 61 34 62 35 63 59 64 60 65 68 66 61 67
REMARK SMILES IDX 63 68 69 69 62 70 64 71 65 72 66 73 67 74 44 75 45 76 53 77
REMARK SMILES IDX 46 78 48 79 54 80 47 81 49 82 50 83 51 84 52 85
REMARK H PARENT 11 6 7 9 15 19 74 38 42 49
REMARK Flexibility Score: inf
ROOT
ATOM      1  C   UNL     1       4.744   0.065   2.167  1.00  0.00     0.042 C 
ENDROOT
BRANCH   1   2
ATOM      2  C   UNL     1       3.812   0.626   1.102  1.00  0.00     0.117 C 
BRANCH   2   3
ATOM      3  N   UNL     1       4.093   0.106  -0.221  1.00  0.00    -0.355 N 
ATOM      4  C   UNL     1       3.519  -0.916  -0.914  1.00  0.00     0.239 C 
ATOM      5  O   UNL     1       3.947  -1.119  -2.058  1.00  0.00    -0.273 OA
ATOM      6  H   UNL     1       4.819   0.569  -0.698  1.00  0.00     0.163 HD
BRANCH   4   7
ATOM      7  C   UNL     1       2.337  -1.742  -0.384  1.00  0.00     0.213 C 
BRANCH   7   8
ATOM      8  N   UNL     1       2.375  -2.049   1.031  1.00  0.00    -0.380 N 
ATOM      9  H   UNL     1       3.164  -2.578   1.289  1.00  0.00     0.160 HD
BRANCH   8  10
ATOM     10  C   UNL     1       1.543  -1.761   2.098  1.00  0.00     0.011 C 
ATOM     11  C   UNL     1       0.602  -0.819   2.318  1.00  0.00     0.067 C 
ATOM     12  C   UNL     1       1.847  -2.664   3.299  1.00  0.00     0.064 C 
BRANCH  11  13
ATOM     13  C   UNL     1      -0.018   0.352   1.627  1.00  0.00     0.154 C 
ATOM     14  C   UNL     1       0.142   0.624   0.165  1.00  0.00     0.093 C 
ATOM     15  O   UNL     1      -0.710   1.113   2.312  1.00  0.00    -0.295 OA
ENDBRANCH  11  13
ENDBRANCH   8  10
ENDBRANCH   7   8
ENDBRANCH   4   7
ENDBRANCH   2   3
ENDBRANCH   1   2
BRANCH   1  16
ATOM     16  C   UNL     1       6.173   0.579   2.045  1.00  0.00     0.118 C 
BRANCH  16  17
ATOM     17  N   UNL     1       6.268   2.019   2.246  1.00  0.00    -0.352 N 
ATOM     18  C   UNL     1       7.087   2.745   3.074  1.00  0.00     0.251 C 
ATOM     19  H   UNL     1       5.647   2.556   1.702  1.00  0.00     0.163 HD
ATOM     20  O   UNL     1       6.886   3.948   3.211  1.00  0.00    -0.269 OA
BRANCH  18  21
ATOM     21  C   UNL     1       8.188   2.088   3.810  1.00  0.00     0.039 A 
ATOM     22  C   UNL     1       8.437   2.479   5.128  1.00  0.00     0.014 A 
ATOM     23  C   UNL     1       8.986   1.110   3.210  1.00  0.00     0.014 A 
ATOM     24  C   UNL     1       9.446   1.850   5.859  1.00  0.00     0.010 A 
ATOM     25  C   UNL     1       9.932   0.424   3.966  1.00  0.00     0.010 A 
ATOM     26  C   UNL     1      10.178   0.791   5.297  1.00  0.00    -0.014 A 
BRANCH  26  27
ATOM     27  C   UNL     1      11.181   0.049   6.103  1.00  0.00     0.031 A 
ATOM     28  C   UNL     1      12.632   0.034   5.703  1.00  0.00     0.074 A 
ATOM     29  C   UNL     1      10.768  -0.669   7.166  1.00  0.00     0.049 A 
ATOM     30  N   UNL     1      13.639  -0.563   6.287  1.00  0.00    -0.248 NA
ATOM     31  C   UNL     1      13.000   0.761   4.476  1.00  0.00     0.031 C 
ATOM     32  C   UNL     1       9.376  -0.808   7.603  1.00  0.00     0.029 A 
ATOM     33  N   UNL     1      11.473  -1.434   8.062  1.00  0.00    -0.354 N 
ATOM     34  C   UNL     1      14.748  -0.313   5.488  1.00  0.00     0.074 A 
ATOM     35  C   UNL     1      14.286   0.462   4.358  1.00  0.00     0.031 C 
ATOM     36  C   UNL     1       9.331  -1.596   8.688  1.00  0.00     0.029 A 
ATOM     37  C   UNL     1      10.682  -2.046   9.006  1.00  0.00     0.049 A 
ATOM     38  H   UNL     1      12.452  -1.534   8.032  1.00  0.00     0.167 HD
ATOM     39  C   UNL     1      16.039  -0.671   5.690  1.00  0.00     0.034 A 
ATOM     40  C   UNL     1      11.005  -2.883  10.011  1.00  0.00     0.034 A 
ATOM     41  C   UNL     1      16.500  -1.412   6.833  1.00  0.00     0.049 A 
ATOM     42  C   UNL     1      12.452  -3.228  10.236  1.00  0.00     0.074 A 
ATOM     43  C   UNL     1      17.799  -1.743   7.176  1.00  0.00     0.029 A 
ATOM     44  N   UNL     1      15.680  -1.951   7.812  1.00  0.00    -0.354 N 
ATOM     45  N   UNL     1      13.508  -2.837   9.564  1.00  0.00    -0.248 NA
ATOM     46  C   UNL     1      12.756  -4.097  11.382  1.00  0.00     0.031 C 
ATOM     47  C   UNL     1      17.762  -2.514   8.342  1.00  0.00     0.029 A 
ATOM     48  C   UNL     1      16.443  -2.627   8.750  1.00  0.00     0.049 A 
ATOM     49  H   UNL     1      14.700  -1.866   7.838  1.00  0.00     0.167 HD
ATOM     50  C   UNL     1      14.602  -3.385  10.223  1.00  0.00     0.074 A 
ATOM     51  C   UNL     1      14.081  -4.109  11.365  1.00  0.00     0.031 C 
ATOM     52  C   UNL     1      15.918  -3.310   9.904  1.00  0.00     0.034 A 
BRANCH  39  53
ATOM     53  C   UNL     1      17.060  -0.229   4.673  1.00  0.00     0.023 A 
ATOM     54  C   UNL     1      17.414   1.133   4.584  1.00  0.00     0.012 A 
ATOM     55  C   UNL     1      17.723  -1.168   3.859  1.00  0.00     0.148 A 
ATOM     56  C   UNL     1      18.388   1.558   3.681  1.00  0.00     0.002 A 
ATOM     57  C   UNL     1      18.726  -0.744   2.996  1.00  0.00     0.091 A 
ATOM     58  F   UNL     1      17.360  -2.456   3.944  1.00  0.00    -0.205 F 
ATOM     59  C   UNL     1      19.051   0.619   2.896  1.00  0.00     0.022 A 
BRANCH  57  60
ATOM     60  S   UNL     1      19.699  -1.883   2.003  1.00  0.00     0.127 S 
ATOM     61  O   UNL     1      19.256  -1.546   0.650  1.00  0.00    -0.237 OA
ATOM     62  O   UNL     1      21.067  -1.470   2.317  1.00  0.00    -0.237 OA
ATOM     63  O   UNL     1      19.345  -3.219   2.458  1.00  0.00    -0.744 OA
ENDBRANCH  57  60
ENDBRANCH  39  53
BRANCH  40  64
ATOM     64  C   UNL     1       9.944  -3.413  10.913  1.00  0.00     0.023 A 
ATOM     65  C   UNL     1       9.896  -2.993  12.257  1.00  0.00     0.012 A 
ATOM     66  C   UNL     1       8.973  -4.319  10.443  1.00  0.00     0.148 A 
ATOM     67  C   UNL     1       8.927  -3.496  13.125  1.00  0.00     0.002 A 
ATOM     68  C   UNL     1       7.974  -4.769  11.297  1.00  0.00     0.091 A 
ATOM     69  F   UNL     1       9.041  -4.714   9.163  1.00  0.00    -0.205 F 
ATOM     70  C   UNL     1       7.961  -4.376  12.644  1.00  0.00     0.022 A 
BRANCH  68  71
ATOM     71  S   UNL     1       6.614  -5.793  10.727  1.00  0.00     0.127 S 
ATOM     72  O   UNL     1       6.921  -7.076  11.353  1.00  0.00    -0.237 OA
ATOM     73  O   UNL     1       5.455  -5.095  11.287  1.00  0.00    -0.237 OA
ATOM     74  O   UNL     1       6.682  -5.765   9.272  1.00  0.00    -0.744 OA
ENDBRANCH  68  71
ENDBRANCH  40  64
BRANCH  52  75
ATOM     75  C   UNL     1      16.895  -4.001  10.820  1.00  0.00     0.023 A 
ATOM     76  C   UNL     1      16.944  -5.409  10.867  1.00  0.00     0.012 A 
ATOM     77  C   UNL     1      17.799  -3.254  11.601  1.00  0.00     0.148 A 
ATOM     78  C   UNL     1      17.844  -6.061  11.709  1.00  0.00     0.002 A 
ATOM     79  C   UNL     1      18.730  -3.910  12.396  1.00  0.00     0.091 A 
ATOM     80  F   UNL     1      17.728  -1.915  11.557  1.00  0.00    -0.205 F 
ATOM     81  C   UNL     1      18.743  -5.313  12.465  1.00  0.00     0.022 A 
BRANCH  79  82
ATOM     82  S   UNL     1      19.991  -3.032  13.327  1.00  0.00     0.127 S 
ATOM     83  O   UNL     1      19.511  -3.188  14.699  1.00  0.00    -0.237 OA
ATOM     84  O   UNL     1      21.198  -3.796  13.011  1.00  0.00    -0.237 OA
ATOM     85  O   UNL     1      19.990  -1.668  12.815  1.00  0.00    -0.744 OA
ENDBRANCH  79  82
ENDBRANCH  52  75
ENDBRANCH  26  27
ENDBRANCH  18  21
ENDBRANCH  16  17
ENDBRANCH   1  16
TORSDOF 16
