REMARK SMILES O=C(C[C@H](NS(=O)(=O)c1cccs1)c1ccccc1Cl)NCCCNC(=O)c1ccc(-c2c3nc(c(-c4cccc(S(=O)(=O)[O-])c4F)c4ccc([nH]4)c(-c4cccc(S(=O)(=O)[O-])c4F)c4nc(c(-c5cccc(S(=O)(=O)[O-])c5F)c5ccc2[nH]5)C=C4)C=C3)cc1
REMARK SMILES IDX 22 1 21 2 1 3 2 4 3 6 4 7 14 8 15 9 19 10 16 11 18 12 20 13
REMARK SMILES IDX 17 14 5 15 6 17 7 18 8 19 9 20 10 21 13 22 11 23 12 24 23 25
REMARK SMILES IDX 24 26 25 27 26 28 27 30 28 31 29 32 90 33 30 34 89 35 31 36
REMARK SMILES IDX 32 37 33 38 83 39 34 40 88 41 82 42 84 43 35 44 87 45 81 46
REMARK SMILES IDX 80 47 36 49 68 50 48 51 67 52 49 53 52 54 66 55 85 56 50 57
REMARK SMILES IDX 51 58 65 60 86 61 53 62 37 63 38 64 46 65 39 66 41 67 47 68
REMARK SMILES IDX 40 69 42 70 43 71 44 72 45 73 69 74 70 75 78 76 71 77 73 78
REMARK SMILES IDX 79 79 72 80 74 81 75 82 76 83 77 84 54 85 55 86 63 87 56 88
REMARK SMILES IDX 58 89 64 90 57 91 59 92 60 93 61 94 62 95
REMARK H PARENT 21 5 5 16 25 29 84 48 52 59
REMARK Flexibility Score: inf
ROOT
ATOM      1  C   UNL     1       2.371   1.070   2.836  1.00  0.00     0.117 C 
ENDROOT
BRANCH   1   2
ATOM      2  N   UNL     1       3.273   1.469   1.770  1.00  0.00    -0.356 N 
ATOM      3  O   UNL     1       4.048  -0.647   1.335  1.00  0.00    -0.275 OA
ATOM      4  C   UNL     1       4.047   0.557   1.096  1.00  0.00     0.221 C 
ATOM      5  H   UNL     1       3.332   2.420   1.523  1.00  0.00     0.163 HD
BRANCH   4   6
ATOM      6  C   UNL     1       4.865   1.113  -0.043  1.00  0.00     0.125 C 
BRANCH   6   7
ATOM      7  C   UNL     1       3.985   1.560  -1.219  1.00  0.00     0.111 C 
BRANCH   7   8
ATOM      8  C   UNL     1       4.884   1.979  -2.375  1.00  0.00    -0.011 A 
ATOM      9  C   UNL     1       5.345   1.007  -3.286  1.00  0.00     0.007 A 
ATOM     10  C   UNL     1       5.291   3.311  -2.571  1.00  0.00     0.045 A 
ATOM     11  C   UNL     1       6.138   1.357  -4.379  1.00  0.00     0.000 A 
ATOM     12  C   UNL     1       6.082   3.659  -3.671  1.00  0.00     0.021 A 
ATOM     13  Cl  UNL     1       4.839   4.577  -1.487  1.00  0.00    -0.084 Cl
ATOM     14  C   UNL     1       6.499   2.686  -4.578  1.00  0.00     0.002 A 
ENDBRANCH   7   8
BRANCH   7  15
ATOM     15  N   UNL     1       3.044   0.475  -1.627  1.00  0.00    -0.202 NA
ATOM     16  H   UNL     1       2.891  -0.120  -0.814  1.00  0.00     0.142 HD
BRANCH  15  17
ATOM     17  S   UNL     1       1.527   0.948  -2.207  1.00  0.00     0.250 S 
ATOM     18  O   UNL     1       0.758  -0.274  -2.325  1.00  0.00    -0.206 OA
ATOM     19  O   UNL     1       1.056   2.057  -1.410  1.00  0.00    -0.206 OA
BRANCH  17  20
ATOM     20  C   UNL     1       1.716   1.510  -3.884  1.00  0.00     0.134 A 
ATOM     21  C   UNL     1       1.660   0.823  -5.084  1.00  0.00     0.033 A 
ATOM     22  S   UNL     1       2.026   3.172  -4.136  1.00  0.00    -0.131 S 
ATOM     23  C   UNL     1       1.944   1.655  -6.205  1.00  0.00     0.013 A 
ATOM     24  C   UNL     1       2.195   2.955  -5.825  1.00  0.00     0.066 A 
ENDBRANCH  17  20
ENDBRANCH  15  17
ENDBRANCH   7  15
ENDBRANCH   6   7
ENDBRANCH   4   6
ENDBRANCH   1   2
BRANCH   1  25
ATOM     25  C   UNL     1       2.570   1.884   4.108  1.00  0.00     0.042 C 
BRANCH  25  26
ATOM     26  C   UNL     1       2.263   3.373   3.973  1.00  0.00     0.118 C 
BRANCH  26  27
ATOM     27  N   UNL     1       0.875   3.648   3.628  1.00  0.00    -0.352 N 
ATOM     28  C   UNL     1      -0.022   4.513   4.208  1.00  0.00     0.251 C 
ATOM     29  H   UNL     1       0.526   3.135   2.864  1.00  0.00     0.163 HD
ATOM     30  O   UNL     1      -1.196   4.496   3.845  1.00  0.00    -0.269 OA
BRANCH  28  31
ATOM     31  C   UNL     1       0.402   5.444   5.280  1.00  0.00     0.039 A 
ATOM     32  C   UNL     1      -0.436   5.614   6.387  1.00  0.00     0.014 A 
ATOM     33  C   UNL     1       1.598   6.161   5.196  1.00  0.00     0.014 A 
ATOM     34  C   UNL     1      -0.042   6.447   7.439  1.00  0.00     0.010 A 
ATOM     35  C   UNL     1       2.020   6.939   6.274  1.00  0.00     0.010 A 
ATOM     36  C   UNL     1       1.207   7.088   7.408  1.00  0.00    -0.014 A 
BRANCH  36  37
ATOM     37  C   UNL     1       1.694   7.881   8.567  1.00  0.00     0.031 A 
ATOM     38  C   UNL     1       1.946   9.359   8.436  1.00  0.00     0.074 A 
ATOM     39  C   UNL     1       2.000   7.249   9.717  1.00  0.00     0.049 A 
ATOM     40  N   UNL     1       2.418  10.195   9.325  1.00  0.00    -0.248 NA
ATOM     41  C   UNL     1       1.652   9.974   7.132  1.00  0.00     0.031 C 
ATOM     42  C   UNL     1       1.884   5.807   9.946  1.00  0.00     0.029 A 
ATOM     43  N   UNL     1       2.499   7.732  10.902  1.00  0.00    -0.354 N 
ATOM     44  C   UNL     1       2.514  11.422   8.681  1.00  0.00     0.074 A 
ATOM     45  C   UNL     1       2.074  11.217   7.317  1.00  0.00     0.031 C 
ATOM     46  C   UNL     1       2.299   5.523  11.191  1.00  0.00     0.029 A 
ATOM     47  C   UNL     1       2.730   6.756  11.843  1.00  0.00     0.049 A 
ATOM     48  H   UNL     1       2.675   8.688  11.062  1.00  0.00     0.167 HD
ATOM     49  C   UNL     1       2.902  12.618   9.185  1.00  0.00     0.034 A 
ATOM     50  C   UNL     1       3.233   6.841  13.090  1.00  0.00     0.034 A 
ATOM     51  C   UNL     1       3.285  12.834  10.555  1.00  0.00     0.049 A 
ATOM     52  C   UNL     1       3.598   8.191  13.645  1.00  0.00     0.074 A 
ATOM     53  C   UNL     1       3.600  14.027  11.182  1.00  0.00     0.029 A 
ATOM     54  N   UNL     1       3.408  11.837  11.509  1.00  0.00    -0.354 N 
ATOM     55  N   UNL     1       3.516   9.366  13.071  1.00  0.00    -0.248 NA
ATOM     56  C   UNL     1       4.086   8.231  15.031  1.00  0.00     0.031 C 
ATOM     57  C   UNL     1       3.920  13.749  12.516  1.00  0.00     0.029 A 
ATOM     58  C   UNL     1       3.797  12.384  12.720  1.00  0.00     0.049 A 
ATOM     59  H   UNL     1       3.242  10.879  11.350  1.00  0.00     0.167 HD
ATOM     60  C   UNL     1       3.912  10.288  14.034  1.00  0.00     0.074 A 
ATOM     61  C   UNL     1       4.211   9.536  15.235  1.00  0.00     0.031 C 
ATOM     62  C   UNL     1       4.035  11.634  13.926  1.00  0.00     0.034 A 
BRANCH  49  63
ATOM     63  C   UNL     1       2.862  13.810   8.265  1.00  0.00     0.023 A 
ATOM     64  C   UNL     1       1.615  14.368   7.916  1.00  0.00     0.012 A 
ATOM     65  C   UNL     1       4.045  14.417   7.801  1.00  0.00     0.148 A 
ATOM     66  C   UNL     1       1.544  15.493   7.096  1.00  0.00     0.002 A 
ATOM     67  C   UNL     1       3.968  15.562   7.015  1.00  0.00     0.091 A 
ATOM     68  F   UNL     1       5.221  13.859   8.123  1.00  0.00    -0.205 F 
ATOM     69  C   UNL     1       2.719  16.095   6.655  1.00  0.00     0.022 A 
BRANCH  67  70
ATOM     70  S   UNL     1       5.427  16.450   6.458  1.00  0.00     0.127 S 
ATOM     71  O   UNL     1       5.491  16.060   5.050  1.00  0.00    -0.237 OA
ATOM     72  O   UNL     1       5.050  17.845   6.687  1.00  0.00    -0.237 OA
ATOM     73  O   UNL     1       6.523  15.976   7.292  1.00  0.00    -0.744 OA
ENDBRANCH  67  70
ENDBRANCH  49  63
BRANCH  50  74
ATOM     74  C   UNL     1       3.339   5.614  13.929  1.00  0.00     0.023 A 
ATOM     75  C   UNL     1       2.450   5.442  15.008  1.00  0.00     0.012 A 
ATOM     76  C   UNL     1       4.279   4.606  13.645  1.00  0.00     0.148 A 
ATOM     77  C   UNL     1       2.511   4.299  15.804  1.00  0.00     0.002 A 
ATOM     78  C   UNL     1       4.301   3.445  14.411  1.00  0.00     0.091 A 
ATOM     79  F   UNL     1       5.128   4.795  12.625  1.00  0.00    -0.205 F 
ATOM     80  C   UNL     1       3.428   3.296  15.500  1.00  0.00     0.022 A 
BRANCH  78  81
ATOM     81  S   UNL     1       5.359   2.051  14.004  1.00  0.00     0.127 S 
ATOM     82  O   UNL     1       6.414   2.173  15.005  1.00  0.00    -0.237 OA
ATOM     83  O   UNL     1       4.457   0.915  14.194  1.00  0.00    -0.237 OA
ATOM     84  O   UNL     1       5.763   2.265  12.620  1.00  0.00    -0.744 OA
ENDBRANCH  78  81
ENDBRANCH  50  74
BRANCH  62  85
ATOM     85  C   UNL     1       4.493  12.392  15.143  1.00  0.00     0.023 A 
ATOM     86  C   UNL     1       5.846  12.329  15.532  1.00  0.00     0.012 A 
ATOM     87  C   UNL     1       3.607  13.222  15.856  1.00  0.00     0.148 A 
ATOM     88  C   UNL     1       6.303  13.058  16.628  1.00  0.00     0.002 A 
ATOM     89  C   UNL     1       4.079  13.979  16.923  1.00  0.00     0.091 A 
ATOM     90  F   UNL     1       2.318  13.253  15.486  1.00  0.00    -0.205 F 
ATOM     91  C   UNL     1       5.424  13.891  17.316  1.00  0.00     0.022 A 
BRANCH  89  92
ATOM     92  S   UNL     1       3.033  15.144  17.805  1.00  0.00     0.127 S 
ATOM     93  O   UNL     1       2.716  14.400  19.022  1.00  0.00    -0.237 OA
ATOM     94  O   UNL     1       3.928  16.285  18.003  1.00  0.00    -0.237 OA
ATOM     95  O   UNL     1       1.908  15.413  16.919  1.00  0.00    -0.744 OA
ENDBRANCH  89  92
ENDBRANCH  62  85
ENDBRANCH  36  37
ENDBRANCH  28  31
ENDBRANCH  26  27
ENDBRANCH  25  26
ENDBRANCH   1  25
TORSDOF 18
