REMARK SMILES O=C(CCn1cc(/C=C\C(=O)c2ccc(F)cc2)c(-c2cccc(Cl)c2)n1)NCCCNC(=O)c1ccc(-c2c3nc(c(-c4cccc(S(=O)(=O)[O-])c4F)c4ccc([nH]4)c(-c4cccc(S(=O)(=O)[O-])c4F)c4nc(c(-c5cccc(S(=O)(=O)[O-])c5F)c5ccc2[nH]5)C=C4)C=C3)cc1
REMARK SMILES IDX 29 1 28 2 1 3 2 4 3 6 4 7 5 8 6 9 27 10 7 11 19 12 8 13 9 14
REMARK SMILES IDX 10 15 11 16 12 17 13 18 18 19 14 20 17 21 15 22 16 23 20 24
REMARK SMILES IDX 21 25 26 26 22 27 24 28 23 29 25 30 30 31 31 32 32 33 33 34
REMARK SMILES IDX 34 36 35 37 36 38 97 39 37 40 96 41 38 42 39 43 40 44 90 45
REMARK SMILES IDX 41 46 95 47 89 48 91 49 42 50 94 51 88 52 87 53 43 55 75 56
REMARK SMILES IDX 55 57 74 58 56 59 59 60 73 61 92 62 57 63 58 64 72 66 93 67
REMARK SMILES IDX 60 68 44 69 45 70 53 71 46 72 48 73 54 74 47 75 49 76 50 77
REMARK SMILES IDX 51 78 52 79 76 80 77 81 85 82 78 83 80 84 86 85 79 86 81 87
REMARK SMILES IDX 82 88 83 89 84 90 61 91 62 92 70 93 63 94 65 95 71 96 64 97
REMARK SMILES IDX 66 98 67 99 68 100 69 101
REMARK H PARENT 28 5 32 35 91 54 59 65
REMARK Flexibility Score: inf
ROOT
ATOM      1  C   UNL     1       1.789   0.311   2.304  1.00  0.00     0.117 C 
ENDROOT
BRANCH   1   2
ATOM      2  N   UNL     1       2.256  -0.094   0.976  1.00  0.00    -0.356 N 
ATOM      3  O   UNL     1       0.461   0.630  -0.281  1.00  0.00    -0.275 OA
ATOM      4  C   UNL     1       1.637   0.273  -0.219  1.00  0.00     0.221 C 
ATOM      5  H   UNL     1       3.059  -0.661   0.923  1.00  0.00     0.163 HD
BRANCH   4   6
ATOM      6  C   UNL     1       2.524   0.281  -1.493  1.00  0.00     0.123 C 
BRANCH   6   7
ATOM      7  C   UNL     1       3.207   1.663  -1.813  1.00  0.00     0.154 C 
BRANCH   7   8
ATOM      8  N   UNL     1       4.027   2.165  -0.727  1.00  0.00    -0.271 N 
ATOM      9  C   UNL     1       4.798   3.286  -0.475  1.00  0.00     0.117 A 
ATOM     10  N   UNL     1       4.183   1.272   0.211  1.00  0.00    -0.172 NA
ATOM     11  C   UNL     1       5.679   2.931   0.547  1.00  0.00     0.021 A 
ATOM     12  C   UNL     1       5.334   1.583   0.715  1.00  0.00     0.100 A 
BRANCH  11  13
ATOM     13  C   UNL     1       6.698   3.689   1.258  1.00  0.00     0.016 C 
ATOM     14  C   UNL     1       7.843   3.330   1.905  1.00  0.00     0.053 C 
BRANCH  14  15
ATOM     15  C   UNL     1       8.602   2.027   2.136  1.00  0.00     0.185 C 
ATOM     16  O   UNL     1       9.768   2.039   2.512  1.00  0.00    -0.289 OA
BRANCH  15  17
ATOM     17  C   UNL     1       7.856   0.743   1.806  1.00  0.00     0.022 A 
ATOM     18  C   UNL     1       7.750   0.876  -0.001  1.00  0.00     0.015 A 
ATOM     19  C   UNL     1       6.624  -0.620   2.708  1.00  0.00     0.015 A 
ATOM     20  C   UNL     1       6.552  -0.094  -0.863  1.00  0.00     0.040 A 
ATOM     21  C   UNL     1       5.489  -1.568   1.663  1.00  0.00     0.040 A 
ATOM     22  C   UNL     1       5.478  -1.250  -0.051  1.00  0.00     0.123 A 
ATOM     23  F   UNL     1       4.775  -2.097  -0.817  1.00  0.00    -0.207 F 
ENDBRANCH  15  17
ENDBRANCH  14  15
ENDBRANCH  11  13
BRANCH  12  24
ATOM     24  C   UNL     1       6.016   0.589   1.444  1.00  0.00     0.004 A 
ATOM     25  C   UNL     1       7.329  -0.876   0.997  1.00  0.00     0.010 A 
ATOM     26  C   UNL     1       6.179   1.361   3.098  1.00  0.00     0.031 A 
ATOM     27  C   UNL     1       8.479  -1.256   2.181  1.00  0.00     0.002 A 
ATOM     28  C   UNL     1       7.512   0.895   4.119  1.00  0.00     0.041 A 
ATOM     29  C   UNL     1       8.631  -0.337   3.660  1.00  0.00     0.020 A 
ATOM     30  Cl  UNL     1       7.807   1.735   5.593  1.00  0.00    -0.084 Cl
ENDBRANCH  12  24
ENDBRANCH   7   8
ENDBRANCH   6   7
ENDBRANCH   4   6
ENDBRANCH   1   2
BRANCH   1  31
ATOM     31  C   UNL     1       1.936  -0.727   3.434  1.00  0.00     0.042 C 
BRANCH  31  32
ATOM     32  C   UNL     1       3.326  -1.023   4.022  1.00  0.00     0.118 C 
BRANCH  32  33
ATOM     33  N   UNL     1       3.839  -0.283   5.174  1.00  0.00    -0.352 N 
ATOM     34  C   UNL     1       4.878  -0.567   6.081  1.00  0.00     0.251 C 
ATOM     35  H   UNL     1       3.373   0.566   5.347  1.00  0.00     0.163 HD
ATOM     36  O   UNL     1       5.061   0.268   6.971  1.00  0.00    -0.269 OA
BRANCH  34  37
ATOM     37  C   UNL     1       5.887  -1.710   5.935  1.00  0.00     0.039 A 
ATOM     38  C   UNL     1       7.178  -1.597   6.503  1.00  0.00     0.014 A 
ATOM     39  C   UNL     1       5.741  -2.724   5.009  1.00  0.00     0.014 A 
ATOM     40  C   UNL     1       8.321  -2.238   5.916  1.00  0.00     0.010 A 
ATOM     41  C   UNL     1       6.875  -3.211   4.331  1.00  0.00     0.010 A 
ATOM     42  C   UNL     1       8.210  -2.891   4.676  1.00  0.00    -0.014 A 
BRANCH  42  43
ATOM     43  C   UNL     1       9.313  -3.616   3.829  1.00  0.00     0.031 A 
ATOM     44  C   UNL     1       9.267  -4.931   4.519  1.00  0.00     0.074 A 
ATOM     45  C   UNL     1      10.155  -3.362   2.711  1.00  0.00     0.049 A 
ATOM     46  N   UNL     1       9.973  -5.087   5.603  1.00  0.00    -0.248 NA
ATOM     47  C   UNL     1       8.101  -5.850   4.497  1.00  0.00     0.031 C 
ATOM     48  C   UNL     1      10.632  -2.133   1.933  1.00  0.00     0.029 A 
ATOM     49  N   UNL     1      10.522  -4.282   1.714  1.00  0.00    -0.354 N 
ATOM     50  C   UNL     1       9.678  -6.376   5.971  1.00  0.00     0.074 A 
ATOM     51  C   UNL     1       8.303  -6.545   5.625  1.00  0.00     0.031 C 
ATOM     52  C   UNL     1      10.736  -2.341   0.589  1.00  0.00     0.029 A 
ATOM     53  C   UNL     1      10.650  -3.767   0.344  1.00  0.00     0.049 A 
ATOM     54  H   UNL     1      10.687  -5.229   1.924  1.00  0.00     0.167 HD
ATOM     55  C   UNL     1      10.691  -7.278   5.860  1.00  0.00     0.034 A 
ATOM     56  C   UNL     1      11.369  -4.272  -0.729  1.00  0.00     0.034 A 
ATOM     57  C   UNL     1      11.969  -6.576   5.758  1.00  0.00     0.049 A 
ATOM     58  C   UNL     1      12.360  -5.208  -0.132  1.00  0.00     0.074 A 
ATOM     59  C   UNL     1      12.554  -5.554   6.487  1.00  0.00     0.029 A 
ATOM     60  N   UNL     1      12.524  -6.520   4.499  1.00  0.00    -0.354 N 
ATOM     61  N   UNL     1      13.371  -4.765   0.573  1.00  0.00    -0.248 NA
ATOM     62  C   UNL     1      11.825  -6.512   0.243  1.00  0.00     0.031 C 
ATOM     63  C   UNL     1      13.156  -4.691   5.526  1.00  0.00     0.029 A 
ATOM     64  C   UNL     1      13.130  -5.307   4.275  1.00  0.00     0.049 A 
ATOM     65  H   UNL     1      12.492  -7.255   3.844  1.00  0.00     0.167 HD
ATOM     66  C   UNL     1      13.270  -5.453   1.777  1.00  0.00     0.074 A 
ATOM     67  C   UNL     1      12.305  -6.548   1.495  1.00  0.00     0.031 C 
ATOM     68  C   UNL     1      13.582  -4.841   2.970  1.00  0.00     0.034 A 
BRANCH  55  69
ATOM     69  C   UNL     1      10.500  -8.691   5.358  1.00  0.00     0.023 A 
ATOM     70  C   UNL     1      11.587  -9.555   5.569  1.00  0.00     0.012 A 
ATOM     71  C   UNL     1       9.445  -9.178   4.539  1.00  0.00     0.148 A 
ATOM     72  C   UNL     1      11.630 -10.825   4.992  1.00  0.00     0.002 A 
ATOM     73  C   UNL     1       9.455 -10.468   4.030  1.00  0.00     0.091 A 
ATOM     74  F   UNL     1       8.461  -8.380   4.132  1.00  0.00    -0.205 F 
ATOM     75  C   UNL     1      10.560 -11.289   4.236  1.00  0.00     0.022 A 
BRANCH  73  76
ATOM     76  S   UNL     1       8.076 -11.132   3.078  1.00  0.00     0.127 S 
ATOM     77  O   UNL     1       8.692 -11.338   1.770  1.00  0.00    -0.237 OA
ATOM     78  O   UNL     1       7.773 -12.355   3.821  1.00  0.00    -0.237 OA
ATOM     79  O   UNL     1       7.023 -10.125   3.128  1.00  0.00    -0.744 OA
ENDBRANCH  73  76
ENDBRANCH  55  69
BRANCH  56  80
ATOM     80  C   UNL     1      10.926  -4.418  -2.175  1.00  0.00     0.023 A 
ATOM     81  C   UNL     1      11.784  -4.920  -3.194  1.00  0.00     0.012 A 
ATOM     82  C   UNL     1       9.574  -4.239  -2.529  1.00  0.00     0.148 A 
ATOM     83  C   UNL     1      11.295  -5.295  -4.468  1.00  0.00     0.002 A 
ATOM     84  C   UNL     1       9.086  -4.644  -3.779  1.00  0.00     0.091 A 
ATOM     85  F   UNL     1       8.752  -3.708  -1.616  1.00  0.00    -0.205 F 
ATOM     86  C   UNL     1       9.938  -5.185  -4.749  1.00  0.00     0.022 A 
BRANCH  84  87
ATOM     87  S   UNL     1       7.332  -4.571  -4.181  1.00  0.00     0.127 S 
ATOM     88  O   UNL     1       7.340  -3.883  -5.473  1.00  0.00    -0.237 OA
ATOM     89  O   UNL     1       6.981  -5.987  -4.242  1.00  0.00    -0.237 OA
ATOM     90  O   UNL     1       6.717  -3.811  -3.101  1.00  0.00    -0.744 OA
ENDBRANCH  84  87
ENDBRANCH  56  80
BRANCH  68  91
ATOM     91  C   UNL     1      14.315  -3.491   2.985  1.00  0.00     0.023 A 
ATOM     92  C   UNL     1      13.715  -2.254   2.679  1.00  0.00     0.012 A 
ATOM     93  C   UNL     1      15.567  -3.424   3.591  1.00  0.00     0.148 A 
ATOM     94  C   UNL     1      14.301  -1.004   2.925  1.00  0.00     0.002 A 
ATOM     95  C   UNL     1      16.156  -2.188   3.872  1.00  0.00     0.091 A 
ATOM     96  F   UNL     1      16.139  -4.581   3.948  1.00  0.00    -0.205 F 
ATOM     97  C   UNL     1      15.540  -0.974   3.526  1.00  0.00     0.022 A 
BRANCH  95  98
ATOM     98  S   UNL     1      17.670  -2.078   4.814  1.00  0.00     0.127 S 
ATOM     99  O   UNL     1      18.620  -1.636   3.796  1.00  0.00    -0.237 OA
ATOM    100  O   UNL     1      17.335  -1.071   5.822  1.00  0.00    -0.237 OA
ATOM    101  O   UNL     1      17.900  -3.412   5.353  1.00  0.00    -0.744 OA
ENDBRANCH  95  98
ENDBRANCH  68  91
ENDBRANCH  42  43
ENDBRANCH  34  37
ENDBRANCH  32  33
ENDBRANCH  31  32
ENDBRANCH   1  31
TORSDOF 19
