REMARK SMILES C[C@@H](C(=O)NCCCNC(=O)c1ccc(-c2c3nc(c(-c4cccc(S(=O)(=O)[O-])c4F)c4ccc([nH]4)c(-c4cccc(S(=O)(=O)[O-])c4F)c4nc(c(-c5cccc(S(=O)(=O)[O-])c5F)c5ccc2[nH]5)C=C4)C=C3)cc1)N1C(=O)/C(=C/c2ccc(-c3ccc([N+](=O)[O-])cc3Cl)o2)SC1=S
REMARK SMILES IDX 6 1 5 2 3 3 4 4 2 6 1 7 75 8 76 9 96 10 77 11 78 12 95 13
REMARK SMILES IDX 97 14 79 15 80 16 81 17 94 18 82 19 83 20 84 21 85 22 92 23
REMARK SMILES IDX 86 24 91 25 93 26 87 27 88 28 89 29 90 30 7 31 8 32 9 33
REMARK SMILES IDX 10 34 11 36 12 37 13 38 74 39 14 40 73 41 15 42 16 43 17 44
REMARK SMILES IDX 67 45 18 46 72 47 66 48 68 49 19 50 71 51 65 52 64 53 20 55
REMARK SMILES IDX 52 56 32 57 51 58 33 59 36 60 50 61 69 62 34 63 35 64 49 66
REMARK SMILES IDX 70 67 37 68 21 69 22 70 30 71 23 72 25 73 31 74 24 75 26 76
REMARK SMILES IDX 27 77 28 78 29 79 53 80 54 81 62 82 55 83 57 84 63 85 56 86
REMARK SMILES IDX 58 87 59 88 60 89 61 90 38 91 39 92 47 93 40 94 42 95 48 96
REMARK SMILES IDX 41 97 43 98 44 99 45 100 46 101
REMARK H PARENT 5 5 9 35 68 54 36 65
REMARK Flexibility Score: inf
ROOT
ATOM      1  C   UNL     1       3.403   0.805   1.572  1.00  0.00     0.117 C 
ENDROOT
BRANCH   1   2
ATOM      2  N   UNL     1       2.371   1.769   1.902  1.00  0.00    -0.354 N 
ATOM      3  C   UNL     1       1.015   1.625   1.907  1.00  0.00     0.242 C 
ATOM      4  O   UNL     1       0.385   2.398   2.636  1.00  0.00    -0.273 OA
ATOM      5  H   UNL     1       2.698   2.661   2.161  1.00  0.00     0.163 HD
BRANCH   3   6
ATOM      6  C   UNL     1       0.318   0.485   1.128  1.00  0.00     0.178 C 
ATOM      7  C   UNL     1       0.736   0.257  -0.323  1.00  0.00     0.042 C 
BRANCH   6   8
ATOM      8  N   UNL     1      -1.157   0.607   1.205  1.00  0.00    -0.281 N 
ATOM      9  C   UNL     1      -1.879  -0.513   1.581  1.00  0.00     0.267 C 
ATOM     10  C   UNL     1      -1.901   1.685   0.751  1.00  0.00     0.149 C 
ATOM     11  O   UNL     1      -1.413  -1.599   1.919  1.00  0.00    -0.268 OA
ATOM     12  C   UNL     1      -3.334  -0.279   1.409  1.00  0.00     0.084 C 
ATOM     13  S   UNL     1      -3.611   1.366   1.008  1.00  0.00    -0.054 SA
ATOM     14  S   UNL     1      -1.417   3.099   0.007  1.00  0.00    -0.052 S 
ATOM     15  C   UNL     1      -4.229  -1.270   1.511  1.00  0.00     0.068 C 
BRANCH  15  16
ATOM     16  C   UNL     1      -5.616  -1.081   1.266  1.00  0.00     0.128 A 
ATOM     17  C   UNL     1      -6.260  -0.537   0.159  1.00  0.00     0.051 A 
ATOM     18  O   UNL     1      -6.585  -1.441   2.174  1.00  0.00    -0.457 OA
ATOM     19  C   UNL     1      -7.642  -0.490   0.441  1.00  0.00     0.051 A 
ATOM     20  C   UNL     1      -7.790  -1.025   1.699  1.00  0.00     0.136 A 
BRANCH  20  21
ATOM     21  C   UNL     1      -8.940  -1.228   2.564  1.00  0.00     0.036 A 
ATOM     22  C   UNL     1     -10.078  -1.847   2.018  1.00  0.00     0.020 A 
ATOM     23  C   UNL     1      -8.989  -0.774   3.896  1.00  0.00     0.058 A 
ATOM     24  C   UNL     1     -11.245  -1.999   2.769  1.00  0.00     0.086 A 
ATOM     25  C   UNL     1     -10.155  -0.922   4.656  1.00  0.00     0.106 A 
ATOM     26  Cl  UNL     1      -7.667   0.049   4.654  1.00  0.00    -0.083 Cl
ATOM     27  C   UNL     1     -11.281  -1.525   4.085  1.00  0.00     0.270 A 
BRANCH  27  28
ATOM     28  N   UNL     1     -12.519  -1.639   4.864  1.00  0.00     0.062 N 
ATOM     29  O   UNL     1     -13.500  -2.159   4.313  1.00  0.00    -0.258 OA
ATOM     30  O   UNL     1     -12.514  -1.202   6.023  1.00  0.00    -0.258 OA
ENDBRANCH  27  28
ENDBRANCH  20  21
ENDBRANCH  15  16
ENDBRANCH   6   8
ENDBRANCH   3   6
ENDBRANCH   1   2
BRANCH   1  31
ATOM     31  C   UNL     1       4.225   1.187   0.346  1.00  0.00     0.042 C 
BRANCH  31  32
ATOM     32  C   UNL     1       4.945   2.528   0.443  1.00  0.00     0.118 C 
BRANCH  32  33
ATOM     33  N   UNL     1       5.916   2.581   1.527  1.00  0.00    -0.352 N 
ATOM     34  C   UNL     1       7.275   2.780   1.492  1.00  0.00     0.251 C 
ATOM     35  H   UNL     1       5.539   2.454   2.428  1.00  0.00     0.163 HD
ATOM     36  O   UNL     1       7.932   2.632   2.519  1.00  0.00    -0.269 OA
BRANCH  34  37
ATOM     37  C   UNL     1       7.954   3.145   0.228  1.00  0.00     0.039 A 
ATOM     38  C   UNL     1       9.162   2.519  -0.094  1.00  0.00     0.014 A 
ATOM     39  C   UNL     1       7.418   4.108  -0.631  1.00  0.00     0.014 A 
ATOM     40  C   UNL     1       9.791   2.803  -1.310  1.00  0.00     0.010 A 
ATOM     41  C   UNL     1       8.002   4.329  -1.876  1.00  0.00     0.010 A 
ATOM     42  C   UNL     1       9.196   3.681  -2.230  1.00  0.00    -0.014 A 
BRANCH  42  43
ATOM     43  C   UNL     1       9.788   3.920  -3.572  1.00  0.00     0.031 A 
ATOM     44  C   UNL     1      10.229   5.301  -3.975  1.00  0.00     0.074 A 
ATOM     45  C   UNL     1       9.831   2.914  -4.469  1.00  0.00     0.049 A 
ATOM     46  N   UNL     1      10.680   5.719  -5.130  1.00  0.00    -0.248 NA
ATOM     47  C   UNL     1      10.120   6.358  -2.956  1.00  0.00     0.031 C 
ATOM     48  C   UNL     1       9.358   1.548  -4.230  1.00  0.00     0.029 A 
ATOM     49  N   UNL     1      10.256   2.893  -5.775  1.00  0.00    -0.354 N 
ATOM     50  C   UNL     1      10.869   7.089  -4.991  1.00  0.00     0.074 A 
ATOM     51  C   UNL     1      10.454   7.437  -3.649  1.00  0.00     0.031 C 
ATOM     52  C   UNL     1       9.509   0.828  -5.353  1.00  0.00     0.029 A 
ATOM     53  C   UNL     1      10.055   1.685  -6.401  1.00  0.00     0.049 A 
ATOM     54  H   UNL     1      10.665   3.670  -6.221  1.00  0.00     0.167 HD
ATOM     55  C   UNL     1      11.367   7.974  -5.887  1.00  0.00     0.034 A 
ATOM     56  C   UNL     1      10.264   1.310  -7.678  1.00  0.00     0.034 A 
ATOM     57  C   UNL     1      11.813   7.618  -7.208  1.00  0.00     0.049 A 
ATOM     58  C   UNL     1      10.853   2.300  -8.646  1.00  0.00     0.074 A 
ATOM     59  C   UNL     1      12.423   8.422  -8.155  1.00  0.00     0.029 A 
ATOM     60  N   UNL     1      11.685   6.360  -7.775  1.00  0.00    -0.354 N 
ATOM     61  N   UNL     1      11.182   3.553  -8.444  1.00  0.00    -0.248 NA
ATOM     62  C   UNL     1      11.135   1.818 -10.006  1.00  0.00     0.031 C 
ATOM     63  C   UNL     1      12.634   7.657  -9.306  1.00  0.00     0.029 A 
ATOM     64  C   UNL     1      12.189   6.367  -9.064  1.00  0.00     0.049 A 
ATOM     65  H   UNL     1      11.293   5.576  -7.326  1.00  0.00     0.167 HD
ATOM     66  C   UNL     1      11.738   3.999  -9.638  1.00  0.00     0.074 A 
ATOM     67  C   UNL     1      11.720   2.876 -10.552  1.00  0.00     0.031 C 
ATOM     68  C   UNL     1      12.211   5.231  -9.950  1.00  0.00     0.034 A 
BRANCH  55  69
ATOM     69  C   UNL     1      11.496   9.412  -5.452  1.00  0.00     0.023 A 
ATOM     70  C   UNL     1      12.457   9.764  -4.482  1.00  0.00     0.012 A 
ATOM     71  C   UNL     1      10.701  10.420  -6.032  1.00  0.00     0.148 A 
ATOM     72  C   UNL     1      12.595  11.087  -4.063  1.00  0.00     0.002 A 
ATOM     73  C   UNL     1      10.878  11.743  -5.645  1.00  0.00     0.091 A 
ATOM     74  F   UNL     1       9.779  10.066  -6.939  1.00  0.00    -0.205 F 
ATOM     75  C   UNL     1      11.812  12.077  -4.652  1.00  0.00     0.022 A 
BRANCH  73  76
ATOM     76  S   UNL     1       9.978  13.101  -6.404  1.00  0.00     0.127 S 
ATOM     77  O   UNL     1       9.052  13.473  -5.336  1.00  0.00    -0.237 OA
ATOM     78  O   UNL     1      11.042  14.074  -6.654  1.00  0.00    -0.237 OA
ATOM     79  O   UNL     1       9.364  12.553  -7.605  1.00  0.00    -0.744 OA
ENDBRANCH  73  76
ENDBRANCH  55  69
BRANCH  56  80
ATOM     80  C   UNL     1       9.954  -0.085  -8.099  1.00  0.00     0.023 A 
ATOM     81  C   UNL     1      11.005  -0.974  -8.394  1.00  0.00     0.012 A 
ATOM     82  C   UNL     1       8.624  -0.547  -8.165  1.00  0.00     0.148 A 
ATOM     83  C   UNL     1      10.738  -2.290  -8.775  1.00  0.00     0.002 A 
ATOM     84  C   UNL     1       8.368  -1.874  -8.488  1.00  0.00     0.091 A 
ATOM     85  F   UNL     1       7.638   0.318  -7.890  1.00  0.00    -0.205 F 
ATOM     86  C   UNL     1       9.422  -2.743  -8.811  1.00  0.00     0.022 A 
BRANCH  84  87
ATOM     87  S   UNL     1       6.717  -2.580  -8.423  1.00  0.00     0.127 S 
ATOM     88  O   UNL     1       6.441  -2.828  -9.836  1.00  0.00    -0.237 OA
ATOM     89  O   UNL     1       6.935  -3.781  -7.617  1.00  0.00    -0.237 OA
ATOM     90  O   UNL     1       5.882  -1.573  -7.783  1.00  0.00    -0.744 OA
ENDBRANCH  84  87
ENDBRANCH  56  80
BRANCH  68  91
ATOM     91  C   UNL     1      12.787   5.435 -11.328  1.00  0.00     0.023 A 
ATOM     92  C   UNL     1      11.934   5.491 -12.447  1.00  0.00     0.012 A 
ATOM     93  C   UNL     1      14.168   5.658 -11.498  1.00  0.00     0.148 A 
ATOM     94  C   UNL     1      12.449   5.739 -13.719  1.00  0.00     0.002 A 
ATOM     95  C   UNL     1      14.667   5.956 -12.761  1.00  0.00     0.091 A 
ATOM     96  F   UNL     1      14.965   5.583 -10.423  1.00  0.00    -0.205 F 
ATOM     97  C   UNL     1      13.812   5.985 -13.873  1.00  0.00     0.022 A 
BRANCH  95  98
ATOM     98  S   UNL     1      16.390   6.382 -13.041  1.00  0.00     0.127 S 
ATOM     99  O   UNL     1      16.869   5.214 -13.779  1.00  0.00    -0.237 OA
ATOM    100  O   UNL     1      16.280   7.604 -13.838  1.00  0.00    -0.237 OA
ATOM    101  O   UNL     1      16.979   6.570 -11.723  1.00  0.00    -0.744 OA
ENDBRANCH  95  98
ENDBRANCH  68  91
ENDBRANCH  42  43
ENDBRANCH  34  37
ENDBRANCH  32  33
ENDBRANCH  31  32
ENDBRANCH   1  31
TORSDOF 17
