REMARK SMILES Cc1c(F)cc(C(=O)NCCCNC(=O)c2ccc(-c3c4nc(c(-c5cccc(S(=O)(=O)[O-])c5F)c5ccc([nH]5)c(-c5cccc(S(=O)(=O)[O-])c5F)c5nc(c(-c6cccc(S(=O)(=O)[O-])c6F)c6ccc3[nH]6)C=C5)C=C4)cc2)cc1S(=O)(=O)NC#N
REMARK SMILES IDX 11 1 10 2 9 3 7 4 8 5 6 7 1 8 2 9 3 10 80 11 4 12 5 13 79 14
REMARK SMILES IDX 81 15 82 16 83 17 84 18 85 20 86 21 12 22 13 23 14 24 15 26
REMARK SMILES IDX 16 27 17 28 78 29 18 30 77 31 19 32 20 33 21 34 71 35 22 36
REMARK SMILES IDX 76 37 70 38 72 39 23 40 75 41 69 42 68 43 24 45 56 46 36 47
REMARK SMILES IDX 55 48 37 49 40 50 54 51 73 52 38 53 39 54 53 56 74 57 41 58
REMARK SMILES IDX 25 59 26 60 34 61 27 62 29 63 35 64 28 65 30 66 31 67 32 68
REMARK SMILES IDX 33 69 57 70 58 71 66 72 59 73 61 74 67 75 60 76 62 77 63 78
REMARK SMILES IDX 64 79 65 80 42 81 43 82 51 83 44 84 46 85 52 86 45 87 47 88
REMARK SMILES IDX 48 89 49 90 50 91
REMARK H PARENT 9 6 84 19 13 25 72 44 40 55
REMARK Flexibility Score: inf
ROOT
ATOM      1  C   UNL     1      -4.665   0.941  -0.427  1.00  0.00     0.042 C 
ENDROOT
BRANCH   1   2
ATOM      2  C   UNL     1      -4.375   0.132   0.841  1.00  0.00     0.118 C 
BRANCH   2   3
ATOM      3  N   UNL     1      -3.966  -1.220   0.486  1.00  0.00    -0.352 N 
ATOM      4  C   UNL     1      -2.761  -1.712   0.062  1.00  0.00     0.251 C 
ATOM      5  O   UNL     1      -2.665  -2.904  -0.230  1.00  0.00    -0.269 OA
ATOM      6  H   UNL     1      -4.678  -1.895   0.565  1.00  0.00     0.163 HD
BRANCH   4   7
ATOM      7  C   UNL     1      -1.534  -0.865  -0.026  1.00  0.00     0.044 A 
ATOM      8  C   UNL     1       2.219   1.291  -0.233  1.00  0.00     0.049 C 
ATOM      9  C   UNL     1       0.876   0.656  -0.150  1.00  0.00     0.005 A 
ATOM     10  C   UNL     1       0.860  -0.753  -0.026  1.00  0.00     0.128 A 
ATOM     11  C   UNL     1      -0.350   1.312  -0.150  1.00  0.00     0.095 A 
ATOM     12  F   UNL     1       2.024  -1.417   0.052  1.00  0.00    -0.207 F 
ATOM     13  C   UNL     1      -0.308  -1.505   0.040  1.00  0.00     0.053 A 
ATOM     14  C   UNL     1      -1.516   0.523  -0.152  1.00  0.00     0.036 A 
BRANCH  11  15
ATOM     15  S   UNL     1      -0.754   3.050   0.002  1.00  0.00     0.270 S 
ATOM     16  O   UNL     1      -1.717   3.308  -1.054  1.00  0.00    -0.201 OA
ATOM     17  O   UNL     1      -1.132   3.275   1.380  1.00  0.00    -0.201 OA
BRANCH  15  18
ATOM     18  N   UNL     1       0.471   4.105  -0.372  1.00  0.00    -0.215 NA
ATOM     19  H   UNL     1       0.448   4.654  -1.189  1.00  0.00     0.193 HD
BRANCH  18  20
ATOM     20  C   UNL     1       1.485   4.173   0.483  1.00  0.00     0.191 C 
ATOM     21  N   UNL     1       2.442   4.261   1.113  1.00  0.00    -0.172 NA
ENDBRANCH  18  20
ENDBRANCH  15  18
ENDBRANCH  11  15
ENDBRANCH   4   7
ENDBRANCH   2   3
ENDBRANCH   1   2
BRANCH   1  22
ATOM     22  C   UNL     1      -6.079   0.730  -0.827  1.00  0.00     0.118 C 
BRANCH  22  23
ATOM     23  N   UNL     1      -7.018   1.576  -0.114  1.00  0.00    -0.352 N 
ATOM     24  C   UNL     1      -8.237   2.053  -0.547  1.00  0.00     0.251 C 
ATOM     25  H   UNL     1      -6.750   1.844   0.795  1.00  0.00     0.163 HD
ATOM     26  O   UNL     1      -8.798   2.968   0.048  1.00  0.00    -0.269 OA
BRANCH  24  27
ATOM     27  C   UNL     1      -8.934   1.355  -1.653  1.00  0.00     0.039 A 
ATOM     28  C   UNL     1     -10.190   1.772  -2.110  1.00  0.00     0.014 A 
ATOM     29  C   UNL     1      -8.461   0.114  -2.053  1.00  0.00     0.014 A 
ATOM     30  C   UNL     1     -10.990   0.845  -2.778  1.00  0.00     0.010 A 
ATOM     31  C   UNL     1      -9.096  -0.665  -2.933  1.00  0.00     0.010 A 
ATOM     32  C   UNL     1     -10.429  -0.393  -3.087  1.00  0.00    -0.014 A 
BRANCH  32  33
ATOM     33  C   UNL     1     -11.057  -1.578  -3.610  1.00  0.00     0.031 A 
ATOM     34  C   UNL     1     -11.294  -1.458  -5.043  1.00  0.00     0.074 A 
ATOM     35  C   UNL     1     -11.029  -2.657  -2.782  1.00  0.00     0.049 A 
ATOM     36  N   UNL     1     -12.424  -1.585  -5.640  1.00  0.00    -0.248 NA
ATOM     37  C   UNL     1     -10.250  -0.901  -5.931  1.00  0.00     0.031 C 
ATOM     38  C   UNL     1     -11.257  -4.073  -3.003  1.00  0.00     0.029 A 
ATOM     39  N   UNL     1     -10.838  -2.593  -1.391  1.00  0.00    -0.354 N 
ATOM     40  C   UNL     1     -12.056  -1.753  -6.957  1.00  0.00     0.074 A 
ATOM     41  C   UNL     1     -10.857  -0.971  -7.117  1.00  0.00     0.031 C 
ATOM     42  C   UNL     1     -11.588  -4.649  -1.824  1.00  0.00     0.029 A 
ATOM     43  C   UNL     1     -11.591  -3.620  -0.793  1.00  0.00     0.049 A 
ATOM     44  H   UNL     1     -10.274  -1.941  -0.917  1.00  0.00     0.167 HD
ATOM     45  C   UNL     1     -12.422  -2.906  -7.595  1.00  0.00     0.034 A 
ATOM     46  C   UNL     1     -12.657  -3.237  -0.023  1.00  0.00     0.034 A 
ATOM     47  C   UNL     1     -13.079  -3.818  -6.642  1.00  0.00     0.049 A 
ATOM     48  C   UNL     1     -13.925  -3.282  -0.866  1.00  0.00     0.074 A 
ATOM     49  C   UNL     1     -12.698  -5.015  -6.056  1.00  0.00     0.029 A 
ATOM     50  N   UNL     1     -14.134  -3.356  -5.869  1.00  0.00    -0.354 N 
ATOM     51  N   UNL     1     -13.941  -3.466  -2.161  1.00  0.00    -0.248 NA
ATOM     52  C   UNL     1     -15.264  -3.097  -0.324  1.00  0.00     0.031 C 
ATOM     53  C   UNL     1     -13.543  -5.253  -4.928  1.00  0.00     0.029 A 
ATOM     54  C   UNL     1     -14.424  -4.195  -4.813  1.00  0.00     0.049 A 
ATOM     55  H   UNL     1     -14.621  -2.521  -6.054  1.00  0.00     0.167 HD
ATOM     56  C   UNL     1     -15.226  -3.514  -2.623  1.00  0.00     0.074 A 
ATOM     57  C   UNL     1     -16.011  -3.174  -1.441  1.00  0.00     0.031 C 
ATOM     58  C   UNL     1     -15.528  -3.851  -3.920  1.00  0.00     0.034 A 
BRANCH  45  59
ATOM     59  C   UNL     1     -11.905  -3.331  -8.956  1.00  0.00     0.023 A 
ATOM     60  C   UNL     1     -11.238  -2.457  -9.849  1.00  0.00     0.012 A 
ATOM     61  C   UNL     1     -12.129  -4.637  -9.434  1.00  0.00     0.148 A 
ATOM     62  C   UNL     1     -10.755  -2.872 -11.099  1.00  0.00     0.002 A 
ATOM     63  C   UNL     1     -11.665  -5.045 -10.685  1.00  0.00     0.091 A 
ATOM     64  F   UNL     1     -12.825  -5.512  -8.699  1.00  0.00    -0.205 F 
ATOM     65  C   UNL     1     -10.969  -4.173 -11.521  1.00  0.00     0.022 A 
BRANCH  63  66
ATOM     66  S   UNL     1     -12.001  -6.725 -11.215  1.00  0.00     0.127 S 
ATOM     67  O   UNL     1     -11.248  -7.519 -10.249  1.00  0.00    -0.237 OA
ATOM     68  O   UNL     1     -13.456  -6.808 -11.150  1.00  0.00    -0.237 OA
ATOM     69  O   UNL     1     -11.459  -6.760 -12.575  1.00  0.00    -0.744 OA
ENDBRANCH  63  66
ENDBRANCH  45  59
BRANCH  46  70
ATOM     70  C   UNL     1     -12.233  -2.110   0.900  1.00  0.00     0.023 A 
ATOM     71  C   UNL     1     -12.402  -0.787   0.459  1.00  0.00     0.012 A 
ATOM     72  C   UNL     1     -11.154  -2.396   1.785  1.00  0.00     0.148 A 
ATOM     73  C   UNL     1     -11.382   0.145   0.677  1.00  0.00     0.002 A 
ATOM     74  C   UNL     1     -10.113  -1.480   1.931  1.00  0.00     0.091 A 
ATOM     75  F   UNL     1     -11.076  -3.618   2.336  1.00  0.00    -0.205 F 
ATOM     76  C   UNL     1     -10.209  -0.225   1.335  1.00  0.00     0.022 A 
BRANCH  74  77
ATOM     77  S   UNL     1      -8.542  -1.981   2.656  1.00  0.00     0.127 S 
ATOM     78  O   UNL     1      -8.862  -2.111   4.073  1.00  0.00    -0.237 OA
ATOM     79  O   UNL     1      -8.214  -3.209   1.940  1.00  0.00    -0.237 OA
ATOM     80  O   UNL     1      -7.638  -0.870   2.336  1.00  0.00    -0.744 OA
ENDBRANCH  74  77
ENDBRANCH  46  70
BRANCH  58  81
ATOM     81  C   UNL     1     -16.920  -3.854  -4.515  1.00  0.00     0.023 A 
ATOM     82  C   UNL     1     -17.095  -3.704  -5.917  1.00  0.00     0.012 A 
ATOM     83  C   UNL     1     -18.087  -4.015  -3.773  1.00  0.00     0.148 A 
ATOM     84  C   UNL     1     -18.344  -3.549  -6.516  1.00  0.00     0.002 A 
ATOM     85  C   UNL     1     -19.329  -3.759  -4.347  1.00  0.00     0.091 A 
ATOM     86  F   UNL     1     -18.027  -4.500  -2.527  1.00  0.00    -0.205 F 
ATOM     87  C   UNL     1     -19.468  -3.518  -5.715  1.00  0.00     0.022 A 
BRANCH  85  88
ATOM     88  S   UNL     1     -20.732  -3.589  -3.252  1.00  0.00     0.127 S 
ATOM     89  O   UNL     1     -20.792  -4.874  -2.566  1.00  0.00    -0.237 OA
ATOM     90  O   UNL     1     -20.347  -2.438  -2.437  1.00  0.00    -0.237 OA
ATOM     91  O   UNL     1     -21.846  -3.336  -4.166  1.00  0.00    -0.744 OA
ENDBRANCH  85  88
ENDBRANCH  58  81
ENDBRANCH  32  33
ENDBRANCH  24  27
ENDBRANCH  22  23
ENDBRANCH   1  22
TORSDOF 16
