REMARK SMILES C[C@H]1CCC[C@H](S[C@@H]2CCC[C@]([NH3+])(C(=O)NCCCNC(=O)c3ccc(-c4c5nc(c(-c6cccc(S(=O)(=O)[O-])c6F)c6ccc([nH]6)c(-c6cccc(S(=O)(=O)[O-])c6F)c6nc(c(-c7cccc(S(=O)(=O)[O-])c7F)c7ccc4[nH]7)C=C6)C=C5)cc3)C2)C1
REMARK SMILES IDX 18 1 17 2 16 3 14 4 15 5 12 7 8 8 9 9 86 10 10 11 11 12 7 13
REMARK SMILES IDX 6 14 1 15 2 16 3 17 87 18 4 19 5 20 13 21 19 25 20 26 21 27
REMARK SMILES IDX 22 29 23 30 24 31 85 32 25 33 84 34 26 35 27 36 28 37 78 38
REMARK SMILES IDX 29 39 83 40 77 41 79 42 30 43 82 44 76 45 75 46 31 48 63 49
REMARK SMILES IDX 43 50 62 51 44 52 47 53 61 54 80 55 45 56 46 57 60 59 81 60
REMARK SMILES IDX 48 61 32 62 33 63 41 64 34 65 36 66 42 67 35 68 37 69 38 70
REMARK SMILES IDX 39 71 40 72 64 73 65 74 73 75 66 76 68 77 74 78 67 79 69 80
REMARK SMILES IDX 70 81 71 82 72 83 49 84 50 85 58 86 51 87 53 88 59 89 52 90
REMARK SMILES IDX 54 91 55 92 56 93 57 94
REMARK H PARENT 16 6 13 22 13 23 13 24 20 28 79 47 47 58
REMARK Flexibility Score: inf
ROOT
ATOM      1  C   UNL     1       4.601   3.975   4.820  1.00  0.00     0.042 C 
ENDROOT
BRANCH   1   2
ATOM      2  C   UNL     1       3.623   4.022   3.657  1.00  0.00     0.118 C 
BRANCH   2   3
ATOM      3  N   UNL     1       3.717   2.837   2.832  1.00  0.00    -0.351 N 
ATOM      4  C   UNL     1       2.869   1.800   2.624  1.00  0.00     0.281 C 
ATOM      5  O   UNL     1       3.333   0.872   1.951  1.00  0.00    -0.268 OA
ATOM      6  H   UNL     1       4.558   2.772   2.323  1.00  0.00     0.163 HD
BRANCH   4   7
ATOM      7  C   UNL     1       1.421   1.750   3.226  1.00  0.00     0.175 C 
ATOM      8  C   UNL     1      -0.712   0.273   2.983  1.00  0.00     0.053 C 
ATOM      9  C   UNL     1      -1.596   1.521   2.866  1.00  0.00     0.015 C 
ATOM     10  C   UNL     1       0.731   0.519   2.611  1.00  0.00     0.093 C 
ATOM     11  C   UNL     1      -0.896   2.819   3.297  1.00  0.00     0.008 C 
ATOM     12  C   UNL     1       0.552   2.954   2.816  1.00  0.00     0.079 C 
BRANCH   8  13
ATOM     13  S   UNL     1      -1.396  -1.250   2.140  1.00  0.00    -0.155 SA
BRANCH  13  14
ATOM     14  C   UNL     1      -1.119  -1.211   0.285  1.00  0.00     0.047 C 
ATOM     15  C   UNL     1       2.476  -0.797  -1.337  1.00  0.00     0.007 C 
ATOM     16  C   UNL     1       1.207  -0.424  -0.575  1.00  0.00    -0.013 C 
ATOM     17  C   UNL     1       0.519   0.780  -1.236  1.00  0.00     0.003 C 
ATOM     18  C   UNL     1       0.254  -1.595  -0.319  1.00  0.00     0.017 C 
ATOM     19  C   UNL     1      -0.871   1.127  -0.706  1.00  0.00     0.001 C 
ATOM     20  C   UNL     1      -1.775  -0.075  -0.494  1.00  0.00     0.014 C 
ENDBRANCH  13  14
ENDBRANCH   8  13
BRANCH   7  21
ATOM     21  N   UNL     1       1.504   1.582   4.688  1.00  0.00    -0.345 N 
ATOM     22  H   UNL     1       1.962   2.396   5.098  1.00  0.00     0.345 HD
ATOM     23  H   UNL     1       2.044   0.744   4.904  1.00  0.00     0.345 HD
ATOM     24  H   UNL     1       0.564   1.490   5.073  1.00  0.00     0.345 HD
ENDBRANCH   7  21
ENDBRANCH   4   7
ENDBRANCH   2   3
ENDBRANCH   1   2
BRANCH   1  25
ATOM     25  C   UNL     1       6.060   3.954   4.388  1.00  0.00     0.118 C 
BRANCH  25  26
ATOM     26  N   UNL     1       6.442   5.157   3.658  1.00  0.00    -0.352 N 
ATOM     27  C   UNL     1       7.172   6.248   4.067  1.00  0.00     0.251 C 
ATOM     28  H   UNL     1       6.129   5.193   2.725  1.00  0.00     0.163 HD
ATOM     29  O   UNL     1       7.176   7.266   3.385  1.00  0.00    -0.269 OA
BRANCH  27  30
ATOM     30  C   UNL     1       7.935   6.193   5.333  1.00  0.00     0.039 A 
ATOM     31  C   UNL     1       7.945   7.307   6.176  1.00  0.00     0.014 A 
ATOM     32  C   UNL     1       8.646   5.045   5.684  1.00  0.00     0.014 A 
ATOM     33  C   UNL     1       8.611   7.238   7.402  1.00  0.00     0.010 A 
ATOM     34  C   UNL     1       9.206   4.938   6.950  1.00  0.00     0.010 A 
ATOM     35  C   UNL     1       9.213   6.038   7.817  1.00  0.00    -0.014 A 
BRANCH  35  36
ATOM     36  C   UNL     1       9.865   5.912   9.145  1.00  0.00     0.031 A 
ATOM     37  C   UNL     1      11.325   5.550   9.238  1.00  0.00     0.074 A 
ATOM     38  C   UNL     1       9.125   6.032  10.266  1.00  0.00     0.049 A 
ATOM     39  N   UNL     1      12.053   5.328  10.300  1.00  0.00    -0.248 NA
ATOM     40  C   UNL     1      12.055   5.380   7.969  1.00  0.00     0.031 C 
ATOM     41  C   UNL     1       7.684   6.294  10.307  1.00  0.00     0.029 A 
ATOM     42  N   UNL     1       9.478   5.923  11.588  1.00  0.00    -0.354 N 
ATOM     43  C   UNL     1      13.307   4.955   9.831  1.00  0.00     0.074 A 
ATOM     44  C   UNL     1      13.231   4.936   8.388  1.00  0.00     0.031 C 
ATOM     45  C   UNL     1       7.280   6.339  11.586  1.00  0.00     0.029 A 
ATOM     46  C   UNL     1       8.421   6.073  12.456  1.00  0.00     0.049 A 
ATOM     47  H   UNL     1      10.401   5.754  11.887  1.00  0.00     0.167 HD
ATOM     48  C   UNL     1      14.432   4.686  10.534  1.00  0.00     0.034 A 
ATOM     49  C   UNL     1       8.375   5.996  13.800  1.00  0.00     0.034 A 
ATOM     50  C   UNL     1      14.516   4.753  11.967  1.00  0.00     0.049 A 
ATOM     51  C   UNL     1       9.649   5.737  14.558  1.00  0.00     0.074 A 
ATOM     52  C   UNL     1      15.629   4.590  12.772  1.00  0.00     0.029 A 
ATOM     53  N   UNL     1      13.443   4.994  12.811  1.00  0.00    -0.354 N 
ATOM     54  N   UNL     1      10.860   5.545  14.095  1.00  0.00    -0.248 NA
ATOM     55  C   UNL     1       9.556   5.721  16.025  1.00  0.00     0.031 C 
ATOM     56  C   UNL     1      15.222   4.703  14.105  1.00  0.00     0.029 A 
ATOM     57  C   UNL     1      13.864   4.973  14.129  1.00  0.00     0.049 A 
ATOM     58  H   UNL     1      12.518   5.156  12.516  1.00  0.00     0.167 HD
ATOM     59  C   UNL     1      11.680   5.424  15.211  1.00  0.00     0.074 A 
ATOM     60  C   UNL     1      10.829   5.586  16.372  1.00  0.00     0.031 C 
ATOM     61  C   UNL     1      13.013   5.188  15.271  1.00  0.00     0.034 A 
BRANCH  48  62
ATOM     62  C   UNL     1      15.680   4.345   9.759  1.00  0.00     0.023 A 
ATOM     63  C   UNL     1      16.325   5.343   9.000  1.00  0.00     0.012 A 
ATOM     64  C   UNL     1      16.243   3.056   9.826  1.00  0.00     0.148 A 
ATOM     65  C   UNL     1      17.489   5.055   8.289  1.00  0.00     0.002 A 
ATOM     66  C   UNL     1      17.431   2.790   9.154  1.00  0.00     0.091 A 
ATOM     67  F   UNL     1      15.605   2.115  10.535  1.00  0.00    -0.205 F 
ATOM     68  C   UNL     1      18.047   3.783   8.375  1.00  0.00     0.022 A 
BRANCH  66  69
ATOM     69  S   UNL     1      18.276   1.209   9.268  1.00  0.00     0.127 S 
ATOM     70  O   UNL     1      18.100   0.683   7.915  1.00  0.00    -0.237 OA
ATOM     71  O   UNL     1      19.644   1.616   9.590  1.00  0.00    -0.237 OA
ATOM     72  O   UNL     1      17.599   0.464  10.320  1.00  0.00    -0.744 OA
ENDBRANCH  66  69
ENDBRANCH  48  62
BRANCH  49  73
ATOM     73  C   UNL     1       7.090   6.229  14.518  1.00  0.00     0.023 A 
ATOM     74  C   UNL     1       6.930   7.394  15.294  1.00  0.00     0.012 A 
ATOM     75  C   UNL     1       6.021   5.317  14.422  1.00  0.00     0.148 A 
ATOM     76  C   UNL     1       5.744   7.628  15.991  1.00  0.00     0.002 A 
ATOM     77  C   UNL     1       4.822   5.585  15.072  1.00  0.00     0.091 A 
ATOM     78  F   UNL     1       6.196   4.211  13.686  1.00  0.00    -0.205 F 
ATOM     79  C   UNL     1       4.688   6.729  15.873  1.00  0.00     0.022 A 
BRANCH  77  80
ATOM     80  S   UNL     1       3.366   4.553  14.869  1.00  0.00     0.127 S 
ATOM     81  O   UNL     1       3.251   3.936  16.188  1.00  0.00    -0.237 OA
ATOM     82  O   UNL     1       2.336   5.545  14.560  1.00  0.00    -0.237 OA
ATOM     83  O   UNL     1       3.675   3.648  13.771  1.00  0.00    -0.744 OA
ENDBRANCH  77  80
ENDBRANCH  49  73
BRANCH  61  84
ATOM     84  C   UNL     1      13.653   5.134  16.634  1.00  0.00     0.023 A 
ATOM     85  C   UNL     1      13.410   4.038  17.485  1.00  0.00     0.012 A 
ATOM     86  C   UNL     1      14.554   6.139  17.039  1.00  0.00     0.148 A 
ATOM     87  C   UNL     1      14.025   3.962  18.734  1.00  0.00     0.002 A 
ATOM     88  C   UNL     1      15.205   6.029  18.261  1.00  0.00     0.091 A 
ATOM     89  F   UNL     1      14.758   7.182  16.221  1.00  0.00    -0.205 F 
ATOM     90  C   UNL     1      14.931   4.949  19.116  1.00  0.00     0.022 A 
BRANCH  88  91
ATOM     91  S   UNL     1      16.461   7.198  18.791  1.00  0.00     0.127 S 
ATOM     92  O   UNL     1      15.771   7.909  19.866  1.00  0.00    -0.237 OA
ATOM     93  O   UNL     1      17.538   6.313  19.237  1.00  0.00    -0.237 OA
ATOM     94  O   UNL     1      16.785   8.001  17.619  1.00  0.00    -0.744 OA
ENDBRANCH  88  91
ENDBRANCH  61  84
ENDBRANCH  35  36
ENDBRANCH  27  30
ENDBRANCH  25  26
ENDBRANCH   1  25
TORSDOF 16
