REMARK SMILES COc1ccc(N2C(=O)/C(=C/c3c(C(=O)NCCCNC(=O)c4ccc(-c5c6nc(c(-c7cccc(S(=O)(=O)[O-])c7F)c7ccc([nH]7)c(-c7cccc(S(=O)(=O)[O-])c7F)c7nc(c(-c8cccc(S(=O)(=O)[O-])c8F)c8ccc5[nH]8)C=C7)C=C6)cc4)[nH]c4cc(OC)ccc34)SC2=S)cc1
REMARK SMILES IDX 18 1 17 2 16 3 14 4 15 5 13 7 12 8 94 9 86 10 87 11 93 12
REMARK SMILES IDX 88 14 92 15 89 16 11 17 7 18 8 19 96 20 9 21 10 22 95 23
REMARK SMILES IDX 97 24 6 25 3 26 4 27 99 28 5 29 98 30 2 31 1 32 90 33 91 34
REMARK SMILES IDX 19 35 20 36 21 37 22 39 23 40 24 41 85 42 25 43 84 44 26 45
REMARK SMILES IDX 27 46 28 47 78 48 29 49 83 50 77 51 79 52 30 53 82 54 76 55
REMARK SMILES IDX 75 56 31 58 63 59 43 60 62 61 44 62 47 63 61 64 80 65 45 66
REMARK SMILES IDX 46 67 60 69 81 70 48 71 32 72 33 73 41 74 34 75 36 76 42 77
REMARK SMILES IDX 35 78 37 79 38 80 39 81 40 82 64 83 65 84 73 85 66 86 68 87
REMARK SMILES IDX 74 88 67 89 69 90 70 91 71 92 72 93 49 94 50 95 58 96 51 97
REMARK SMILES IDX 53 98 59 99 52 100 54 101 55 102 56 103 57 104
REMARK H PARENT 16 6 86 13 20 38 79 57 47 68
REMARK Flexibility Score: inf
ROOT
ATOM      1  C   UNL     1      -1.013  -5.707  -6.704  1.00  0.00     0.042 C 
ENDROOT
BRANCH   1   2
ATOM      2  C   UNL     1       0.220  -5.644  -7.585  1.00  0.00     0.118 C 
BRANCH   2   3
ATOM      3  N   UNL     1       1.366  -6.392  -7.090  1.00  0.00    -0.351 N 
ATOM      4  C   UNL     1       2.450  -6.842  -7.817  1.00  0.00     0.268 C 
ATOM      5  O   UNL     1       3.223  -7.631  -7.306  1.00  0.00    -0.268 OA
ATOM      6  H   UNL     1       1.368  -6.602  -6.128  1.00  0.00     0.163 HD
BRANCH   4   7
ATOM      7  C   UNL     1       2.553  -6.431  -9.200  1.00  0.00     0.112 A 
ATOM      8  C   UNL     1       2.434  -5.207  -9.862  1.00  0.00     0.014 A 
ATOM      9  C   UNL     1       2.046  -5.554 -11.212  1.00  0.00     0.008 A 
ATOM     10  N   UNL     1       2.816  -7.365 -10.166  1.00  0.00    -0.350 N 
ATOM     11  C   UNL     1       2.281  -6.926 -11.346  1.00  0.00     0.050 A 
ATOM     12  C   UNL     1       1.464  -4.905 -12.329  1.00  0.00     0.015 A 
ATOM     13  H   UNL     1       3.306  -8.208 -10.033  1.00  0.00     0.167 HD
ATOM     14  C   UNL     1       1.960  -7.673 -12.479  1.00  0.00     0.073 A 
ATOM     15  C   UNL     1       1.090  -5.661 -13.474  1.00  0.00     0.047 A 
ATOM     16  C   UNL     1       1.331  -7.033 -13.541  1.00  0.00     0.120 A 
BRANCH   8  17
ATOM     17  C   UNL     1       2.393  -3.947  -9.143  1.00  0.00     0.032 C 
ATOM     18  N   UNL     1       3.389  -3.115  -5.783  1.00  0.00    -0.261 N 
ATOM     19  C   UNL     1       2.708  -2.758  -6.955  1.00  0.00     0.270 C 
ATOM     20  C   UNL     1       4.421  -4.032  -5.920  1.00  0.00     0.152 C 
ATOM     21  O   UNL     1       1.774  -1.979  -7.080  1.00  0.00    -0.268 OA
ATOM     22  C   UNL     1       3.181  -3.630  -8.088  1.00  0.00     0.081 C 
ATOM     23  S   UNL     1       4.651  -4.402  -7.623  1.00  0.00    -0.054 SA
ATOM     24  S   UNL     1       5.413  -4.705  -4.753  1.00  0.00    -0.051 S 
BRANCH  18  25
ATOM     25  C   UNL     1       2.985  -2.628  -4.504  1.00  0.00     0.051 A 
ATOM     26  C   UNL     1       2.409  -1.764  -1.881  1.00  0.00     0.119 A 
ATOM     27  C   UNL     1       2.120  -3.068  -2.272  1.00  0.00     0.048 A 
ATOM     28  C   UNL     1       3.026  -0.902  -2.787  1.00  0.00     0.048 A 
ATOM     29  C   UNL     1       2.400  -3.499  -3.574  1.00  0.00     0.030 A 
ATOM     30  C   UNL     1       3.302  -1.327  -4.100  1.00  0.00     0.030 A 
BRANCH  26  31
ATOM     31  O   UNL     1       2.096  -1.458  -0.586  1.00  0.00    -0.497 OA
ATOM     32  C   UNL     1       1.688  -0.112  -0.360  1.00  0.00     0.278 C 
ENDBRANCH  26  31
ENDBRANCH  18  25
ENDBRANCH   8  17
BRANCH  16  33
ATOM     33  O   UNL     1       0.982  -7.898 -14.540  1.00  0.00    -0.497 OA
ATOM     34  C   UNL     1       0.559  -7.361 -15.780  1.00  0.00     0.278 C 
ENDBRANCH  16  33
ENDBRANCH   4   7
ENDBRANCH   2   3
ENDBRANCH   1   2
BRANCH   1  35
ATOM     35  C   UNL     1      -0.839  -5.026  -5.354  1.00  0.00     0.118 C 
BRANCH  35  36
ATOM     36  N   UNL     1      -0.582  -3.593  -5.391  1.00  0.00    -0.352 N 
ATOM     37  C   UNL     1      -0.737  -2.642  -4.403  1.00  0.00     0.251 C 
ATOM     38  H   UNL     1      -0.246  -3.252  -6.251  1.00  0.00     0.163 HD
ATOM     39  O   UNL     1      -0.501  -1.465  -4.676  1.00  0.00    -0.269 OA
BRANCH  37  40
ATOM     40  C   UNL     1      -1.239  -2.983  -3.043  1.00  0.00     0.039 A 
ATOM     41  C   UNL     1      -1.911  -1.983  -2.325  1.00  0.00     0.014 A 
ATOM     42  C   UNL     1      -1.115  -4.252  -2.476  1.00  0.00     0.014 A 
ATOM     43  C   UNL     1      -2.591  -2.300  -1.148  1.00  0.00     0.010 A 
ATOM     44  C   UNL     1      -1.854  -4.595  -1.355  1.00  0.00     0.010 A 
ATOM     45  C   UNL     1      -2.647  -3.634  -0.725  1.00  0.00    -0.014 A 
BRANCH  45  46
ATOM     46  C   UNL     1      -3.706  -4.113   0.188  1.00  0.00     0.031 A 
ATOM     47  C   UNL     1      -3.370  -4.757   1.496  1.00  0.00     0.074 A 
ATOM     48  C   UNL     1      -4.957  -4.152  -0.315  1.00  0.00     0.049 A 
ATOM     49  N   UNL     1      -4.172  -5.306   2.367  1.00  0.00    -0.248 NA
ATOM     50  C   UNL     1      -1.944  -4.836   1.855  1.00  0.00     0.031 C 
ATOM     51  C   UNL     1      -5.337  -3.704  -1.662  1.00  0.00     0.029 A 
ATOM     52  N   UNL     1      -6.128  -4.631   0.209  1.00  0.00    -0.354 N 
ATOM     53  C   UNL     1      -3.354  -5.819   3.366  1.00  0.00     0.074 A 
ATOM     54  C   UNL     1      -1.988  -5.547   2.974  1.00  0.00     0.031 C 
ATOM     55  C   UNL     1      -6.644  -3.925  -1.855  1.00  0.00     0.029 A 
ATOM     56  C   UNL     1      -7.192  -4.546  -0.659  1.00  0.00     0.049 A 
ATOM     57  H   UNL     1      -6.201  -5.000   1.118  1.00  0.00     0.167 HD
ATOM     58  C   UNL     1      -3.723  -6.438   4.514  1.00  0.00     0.034 A 
ATOM     59  C   UNL     1      -8.475  -4.920  -0.503  1.00  0.00     0.034 A 
ATOM     60  C   UNL     1      -5.097  -6.681   4.868  1.00  0.00     0.049 A 
ATOM     61  C   UNL     1      -8.875  -5.489   0.825  1.00  0.00     0.074 A 
ATOM     62  C   UNL     1      -5.612  -7.197   6.043  1.00  0.00     0.029 A 
ATOM     63  N   UNL     1      -6.180  -6.430   4.034  1.00  0.00    -0.354 N 
ATOM     64  N   UNL     1      -8.114  -5.780   1.853  1.00  0.00    -0.248 NA
ATOM     65  C   UNL     1     -10.305  -5.728   1.042  1.00  0.00     0.031 C 
ATOM     66  C   UNL     1      -7.004  -7.274   5.911  1.00  0.00     0.029 A 
ATOM     67  C   UNL     1      -7.361  -6.781   4.665  1.00  0.00     0.049 A 
ATOM     68  H   UNL     1      -6.117  -6.058   3.125  1.00  0.00     0.167 HD
ATOM     69  C   UNL     1      -8.973  -6.204   2.855  1.00  0.00     0.074 A 
ATOM     70  C   UNL     1     -10.316  -6.111   2.312  1.00  0.00     0.031 C 
ATOM     71  C   UNL     1      -8.682  -6.642   4.105  1.00  0.00     0.034 A 
BRANCH  58  72
ATOM     72  C   UNL     1      -2.635  -6.831   5.484  1.00  0.00     0.023 A 
ATOM     73  C   UNL     1      -1.904  -5.823   6.148  1.00  0.00     0.012 A 
ATOM     74  C   UNL     1      -2.360  -8.182   5.778  1.00  0.00     0.148 A 
ATOM     75  C   UNL     1      -0.893  -6.148   7.053  1.00  0.00     0.002 A 
ATOM     76  C   UNL     1      -1.380  -8.499   6.715  1.00  0.00     0.091 A 
ATOM     77  F   UNL     1      -3.048  -9.131   5.129  1.00  0.00    -0.205 F 
ATOM     78  C   UNL     1      -0.637  -7.485   7.342  1.00  0.00     0.022 A 
BRANCH  76  79
ATOM     79  S   UNL     1      -1.023 -10.187   7.219  1.00  0.00     0.127 S 
ATOM     80  O   UNL     1       0.295 -10.400   6.624  1.00  0.00    -0.237 OA
ATOM     81  O   UNL     1      -1.022 -10.078   8.679  1.00  0.00    -0.237 OA
ATOM     82  O   UNL     1      -2.096 -11.005   6.672  1.00  0.00    -0.744 OA
ENDBRANCH  76  79
ENDBRANCH  58  72
BRANCH  59  83
ATOM     83  C   UNL     1      -9.461  -4.630  -1.581  1.00  0.00     0.023 A 
ATOM     84  C   UNL     1     -10.373  -3.571  -1.405  1.00  0.00     0.012 A 
ATOM     85  C   UNL     1      -9.438  -5.316  -2.812  1.00  0.00     0.148 A 
ATOM     86  C   UNL     1     -11.259  -3.215  -2.422  1.00  0.00     0.002 A 
ATOM     87  C   UNL     1     -10.289  -4.923  -3.840  1.00  0.00     0.091 A 
ATOM     88  F   UNL     1      -8.561  -6.319  -2.964  1.00  0.00    -0.205 F 
ATOM     89  C   UNL     1     -11.210  -3.883  -3.642  1.00  0.00     0.022 A 
BRANCH  87  90
ATOM     90  S   UNL     1     -10.194  -5.629  -5.491  1.00  0.00     0.127 S 
ATOM     91  O   UNL     1     -11.393  -6.462  -5.529  1.00  0.00    -0.237 OA
ATOM     92  O   UNL     1     -10.246  -4.437  -6.338  1.00  0.00    -0.237 OA
ATOM     93  O   UNL     1      -8.924  -6.341  -5.539  1.00  0.00    -0.744 OA
ENDBRANCH  87  90
ENDBRANCH  59  83
BRANCH  71  94
ATOM     94  C   UNL     1      -9.846  -7.030   4.974  1.00  0.00     0.023 A 
ATOM     95  C   UNL     1     -10.543  -8.226   4.716  1.00  0.00     0.012 A 
ATOM     96  C   UNL     1     -10.209  -6.234   6.077  1.00  0.00     0.148 A 
ATOM     97  C   UNL     1     -11.611  -8.608   5.525  1.00  0.00     0.002 A 
ATOM     98  C   UNL     1     -11.242  -6.647   6.908  1.00  0.00     0.091 A 
ATOM     99  F   UNL     1      -9.546  -5.088   6.286  1.00  0.00    -0.205 F 
ATOM    100  C   UNL     1     -11.952  -7.826   6.627  1.00  0.00     0.022 A 
BRANCH  98 101
ATOM    101  S   UNL     1     -11.682  -5.752   8.400  1.00  0.00     0.127 S 
ATOM    102  O   UNL     1     -12.927  -5.098   7.999  1.00  0.00    -0.237 OA
ATOM    103  O   UNL     1     -11.846  -6.832   9.374  1.00  0.00    -0.237 OA
ATOM    104  O   UNL     1     -10.565  -4.859   8.675  1.00  0.00    -0.744 OA
ENDBRANCH  98 101
ENDBRANCH  71  94
ENDBRANCH  45  46
ENDBRANCH  37  40
ENDBRANCH  35  36
ENDBRANCH   1  35
TORSDOF 17
