REMARK SMILES COC(=O)[C@@H]1CN(C(=O)OC(C)(C)C)C[C@@H]1C(=O)NCCCNC(=O)c1ccc(-c2c3nc(c(-c4cccc(S(=O)(=O)[O-])c4F)c4ccc([nH]4)c(-c4cccc(S(=O)(=O)[O-])c4F)c4nc(c(-c5cccc(S(=O)(=O)[O-])c5F)c5ccc2[nH]5)C=C4)C=C3)cc1
REMARK SMILES IDX 21 1 20 2 19 3 17 4 18 5 16 7 5 8 6 9 7 10 15 11 3 12 4 13
REMARK SMILES IDX 2 14 1 15 8 16 9 17 10 18 11 19 12 20 13 21 14 22 22 23
REMARK SMILES IDX 23 24 24 25 25 27 26 28 27 29 88 30 28 31 87 32 29 33 30 34
REMARK SMILES IDX 31 35 81 36 32 37 86 38 80 39 82 40 33 41 85 42 79 43 78 44
REMARK SMILES IDX 34 46 66 47 46 48 65 49 47 50 50 51 64 52 83 53 48 54 49 55
REMARK SMILES IDX 63 57 84 58 51 59 35 60 36 61 44 62 37 63 39 64 45 65 38 66
REMARK SMILES IDX 40 67 41 68 42 69 43 70 67 71 68 72 76 73 69 74 71 75 77 76
REMARK SMILES IDX 70 77 72 78 73 79 74 80 75 81 52 82 53 83 61 84 54 85 56 86
REMARK SMILES IDX 62 87 55 88 57 89 58 90 59 91 60 92
REMARK H PARENT 19 6 23 26 82 45 50 56
REMARK Flexibility Score: inf
ROOT
ATOM      1  C   UNL     1      -4.220  -0.836   2.237  1.00  0.00     0.042 C 
ENDROOT
BRANCH   1   2
ATOM      2  C   UNL     1      -3.864  -2.319   2.258  1.00  0.00     0.117 C 
BRANCH   2   3
ATOM      3  N   UNL     1      -3.079  -2.718   1.101  1.00  0.00    -0.356 N 
ATOM      4  C   UNL     1      -1.761  -3.061   1.020  1.00  0.00     0.225 C 
ATOM      5  O   UNL     1      -1.299  -3.373  -0.076  1.00  0.00    -0.275 OA
ATOM      6  H   UNL     1      -3.572  -2.744   0.249  1.00  0.00     0.163 HD
BRANCH   4   7
ATOM      7  C   UNL     1      -0.934  -3.095   2.293  1.00  0.00     0.114 C 
ATOM      8  C   UNL     1       0.590  -3.091   2.083  1.00  0.00     0.133 C 
ATOM      9  C   UNL     1       0.939  -4.565   1.940  1.00  0.00     0.139 C 
ATOM     10  N   UNL     1       0.002  -5.210   2.843  1.00  0.00    -0.306 N 
ATOM     11  C   UNL     1      -1.195  -4.412   3.025  1.00  0.00     0.137 C 
BRANCH   8  12
ATOM     12  C   UNL     1       1.105  -2.256   0.939  1.00  0.00     0.311 C 
ATOM     13  O   UNL     1       1.994  -2.599   0.171  1.00  0.00    -0.252 OA
BRANCH  12  14
ATOM     14  O   UNL     1       0.533  -1.019   0.982  1.00  0.00    -0.469 OA
ATOM     15  C   UNL     1       1.013  -0.112  -0.011  1.00  0.00     0.282 C 
ENDBRANCH  12  14
ENDBRANCH   8  12
BRANCH  10  16
ATOM     16  C   UNL     1       0.180  -6.395   3.509  1.00  0.00     0.410 C 
ATOM     17  O   UNL     1      -0.664  -6.865   4.263  1.00  0.00    -0.224 OA
BRANCH  16  18
ATOM     18  O   UNL     1       1.395  -6.949   3.263  1.00  0.00    -0.444 OA
BRANCH  18  19
ATOM     19  C   UNL     1       1.804  -8.157   3.957  1.00  0.00     0.106 C 
ATOM     20  C   UNL     1       1.893  -7.927   5.471  1.00  0.00     0.056 C 
ATOM     21  C   UNL     1       0.895  -9.342   3.610  1.00  0.00     0.056 C 
ATOM     22  C   UNL     1       3.217  -8.460   3.433  1.00  0.00     0.056 C 
ENDBRANCH  18  19
ENDBRANCH  16  18
ENDBRANCH  10  16
ENDBRANCH   4   7
ENDBRANCH   2   3
ENDBRANCH   1   2
BRANCH   1  23
ATOM     23  C   UNL     1      -5.114  -0.417   1.072  1.00  0.00     0.118 C 
BRANCH  23  24
ATOM     24  N   UNL     1      -6.410  -1.083   1.078  1.00  0.00    -0.352 N 
ATOM     25  C   UNL     1      -7.680  -0.559   1.079  1.00  0.00     0.251 C 
ATOM     26  H   UNL     1      -6.369  -2.067   1.082  1.00  0.00     0.163 HD
ATOM     27  O   UNL     1      -8.638  -1.311   1.242  1.00  0.00    -0.269 OA
BRANCH  25  28
ATOM     28  C   UNL     1      -7.904   0.895   0.910  1.00  0.00     0.039 A 
ATOM     29  C   UNL     1      -8.873   1.523   1.699  1.00  0.00     0.014 A 
ATOM     30  C   UNL     1      -7.188   1.637  -0.032  1.00  0.00     0.014 A 
ATOM     31  C   UNL     1      -9.071   2.902   1.593  1.00  0.00     0.010 A 
ATOM     32  C   UNL     1      -7.330   3.022  -0.079  1.00  0.00     0.010 A 
ATOM     33  C   UNL     1      -8.274   3.671   0.731  1.00  0.00    -0.014 A 
BRANCH  33  34
ATOM     34  C   UNL     1      -8.398   5.153   0.678  1.00  0.00     0.031 A 
ATOM     35  C   UNL     1      -8.803   5.843  -0.597  1.00  0.00     0.074 A 
ATOM     36  C   UNL     1      -8.066   5.886   1.760  1.00  0.00     0.049 A 
ATOM     37  N   UNL     1      -8.915   7.123  -0.843  1.00  0.00    -0.248 NA
ATOM     38  C   UNL     1      -9.098   4.983  -1.754  1.00  0.00     0.031 C 
ATOM     39  C   UNL     1      -7.598   5.344   3.038  1.00  0.00     0.029 A 
ATOM     40  N   UNL     1      -8.053   7.245   1.953  1.00  0.00    -0.354 N 
ATOM     41  C   UNL     1      -9.263   7.225  -2.184  1.00  0.00     0.074 A 
ATOM     42  C   UNL     1      -9.301   5.877  -2.711  1.00  0.00     0.031 C 
ATOM     43  C   UNL     1      -7.360   6.357   3.885  1.00  0.00     0.029 A 
ATOM     44  C   UNL     1      -7.618   7.620   3.203  1.00  0.00     0.049 A 
ATOM     45  H   UNL     1      -8.328   7.890   1.262  1.00  0.00     0.167 HD
ATOM     46  C   UNL     1      -9.554   8.333  -2.909  1.00  0.00     0.034 A 
ATOM     47  C   UNL     1      -7.441   8.844   3.739  1.00  0.00     0.034 A 
ATOM     48  C   UNL     1      -9.535   9.670  -2.378  1.00  0.00     0.049 A 
ATOM     49  C   UNL     1      -7.765  10.060   2.914  1.00  0.00     0.074 A 
ATOM     50  C   UNL     1      -9.879  10.853  -3.010  1.00  0.00     0.029 A 
ATOM     51  N   UNL     1      -9.137  10.008  -1.093  1.00  0.00    -0.354 N 
ATOM     52  N   UNL     1      -8.229  10.128   1.690  1.00  0.00    -0.248 NA
ATOM     53  C   UNL     1      -7.571  11.368   3.557  1.00  0.00     0.031 C 
ATOM     54  C   UNL     1      -9.653  11.907  -2.119  1.00  0.00     0.029 A 
ATOM     55  C   UNL     1      -9.210  11.379  -0.917  1.00  0.00     0.049 A 
ATOM     56  H   UNL     1      -8.844   9.365  -0.406  1.00  0.00     0.167 HD
ATOM     57  C   UNL     1      -8.424  11.480   1.431  1.00  0.00     0.074 A 
ATOM     58  C   UNL     1      -8.042  12.194   2.632  1.00  0.00     0.031 C 
ATOM     59  C   UNL     1      -8.871  12.077   0.298  1.00  0.00     0.034 A 
BRANCH  46  60
ATOM     60  C   UNL     1      -9.956   8.136  -4.350  1.00  0.00     0.023 A 
ATOM     61  C   UNL     1     -11.186   7.513  -4.652  1.00  0.00     0.012 A 
ATOM     62  C   UNL     1      -9.139   8.591  -5.403  1.00  0.00     0.148 A 
ATOM     63  C   UNL     1     -11.570   7.299  -5.975  1.00  0.00     0.002 A 
ATOM     64  C   UNL     1      -9.553   8.420  -6.719  1.00  0.00     0.091 A 
ATOM     65  F   UNL     1      -7.966   9.166  -5.101  1.00  0.00    -0.205 F 
ATOM     66  C   UNL     1     -10.759   7.760  -7.007  1.00  0.00     0.022 A 
BRANCH  64  67
ATOM     67  S   UNL     1      -8.620   9.052  -8.118  1.00  0.00     0.127 S 
ATOM     68  O   UNL     1      -8.097   7.819  -8.705  1.00  0.00    -0.237 OA
ATOM     69  O   UNL     1      -9.661   9.710  -8.910  1.00  0.00    -0.237 OA
ATOM     70  O   UNL     1      -7.622   9.953  -7.561  1.00  0.00    -0.744 OA
ENDBRANCH  64  67
ENDBRANCH  46  60
BRANCH  47  71
ATOM     71  C   UNL     1      -6.996   8.981   5.156  1.00  0.00     0.023 A 
ATOM     72  C   UNL     1      -7.903   9.471   6.117  1.00  0.00     0.012 A 
ATOM     73  C   UNL     1      -5.699   8.611   5.561  1.00  0.00     0.148 A 
ATOM     74  C   UNL     1      -7.516   9.622   7.448  1.00  0.00     0.002 A 
ATOM     75  C   UNL     1      -5.338   8.711   6.899  1.00  0.00     0.091 A 
ATOM     76  F   UNL     1      -4.851   8.153   4.630  1.00  0.00    -0.205 F 
ATOM     77  C   UNL     1      -6.238   9.234   7.841  1.00  0.00     0.022 A 
BRANCH  75  78
ATOM     78  S   UNL     1      -3.760   8.120   7.521  1.00  0.00     0.127 S 
ATOM     79  O   UNL     1      -3.118   9.364   7.939  1.00  0.00    -0.237 OA
ATOM     80  O   UNL     1      -4.179   7.244   8.616  1.00  0.00    -0.237 OA
ATOM     81  O   UNL     1      -3.128   7.430   6.406  1.00  0.00    -0.744 OA
ENDBRANCH  75  78
ENDBRANCH  47  71
BRANCH  59  82
ATOM     82  C   UNL     1      -9.020  13.578   0.310  1.00  0.00     0.023 A 
ATOM     83  C   UNL     1      -7.878  14.402   0.317  1.00  0.00     0.012 A 
ATOM     84  C   UNL     1     -10.298  14.169   0.247  1.00  0.00     0.148 A 
ATOM     85  C   UNL     1      -8.005  15.791   0.299  1.00  0.00     0.002 A 
ATOM     86  C   UNL     1     -10.416  15.552   0.175  1.00  0.00     0.091 A 
ATOM     87  F   UNL     1     -11.374  13.369   0.259  1.00  0.00    -0.205 F 
ATOM     88  C   UNL     1      -9.272  16.365   0.216  1.00  0.00     0.022 A 
BRANCH  86  89
ATOM     89  S   UNL     1     -11.998  16.376  -0.035  1.00  0.00     0.127 S 
ATOM     90  O   UNL     1     -12.171  17.024   1.264  1.00  0.00    -0.237 OA
ATOM     91  O   UNL     1     -11.724  17.292  -1.142  1.00  0.00    -0.237 OA
ATOM     92  O   UNL     1     -12.962  15.327  -0.341  1.00  0.00    -0.744 OA
ENDBRANCH  86  89
ENDBRANCH  59  82
ENDBRANCH  33  34
ENDBRANCH  25  28
ENDBRANCH  23  24
ENDBRANCH   1  23
TORSDOF 18
