REMARK SMILES NC(=O)c1ccc(C[N@H+]2CCC[C@@H](C(=O)NCCCNC(=O)c3ccc(-c4c5nc(c(-c6cccc(S(=O)(=O)[O-])c6F)c6ccc([nH]6)c(-c6cccc(S(=O)(=O)[O-])c6F)c6nc(c(-c7cccc(S(=O)(=O)[O-])c7F)c7ccc4[nH]7)C=C6)C=C5)cc3)C2)cc1
REMARK SMILES IDX 18 1 17 2 16 3 14 4 15 5 13 7 9 8 10 9 86 10 11 12 12 13
REMARK SMILES IDX 8 14 7 15 4 16 5 17 88 18 6 19 87 20 2 21 1 22 3 25 19 26
REMARK SMILES IDX 20 27 21 28 22 30 23 31 24 32 85 33 25 34 84 35 26 36 27 37
REMARK SMILES IDX 28 38 78 39 29 40 83 41 77 42 79 43 30 44 82 45 76 46 75 47
REMARK SMILES IDX 31 49 63 50 43 51 62 52 44 53 47 54 61 55 80 56 45 57 46 58
REMARK SMILES IDX 60 60 81 61 48 62 32 63 33 64 41 65 34 66 36 67 42 68 35 69
REMARK SMILES IDX 37 70 38 71 39 72 40 73 64 74 65 75 73 76 66 77 68 78 74 79
REMARK SMILES IDX 67 80 69 81 70 82 71 83 72 84 49 85 50 86 58 87 51 88 53 89
REMARK SMILES IDX 59 90 52 91 54 92 55 93 56 94 57 95
REMARK H PARENT 16 6 9 11 1 23 1 24 20 29 79 48 47 59
REMARK Flexibility Score: inf
ROOT
ATOM      1  C   UNL     1      -1.596  -1.601  -5.040  1.00  0.00     0.042 C 
ENDROOT
BRANCH   1   2
ATOM      2  C   UNL     1      -1.831  -3.001  -5.596  1.00  0.00     0.117 C 
BRANCH   2   3
ATOM      3  N   UNL     1      -1.814  -3.030  -7.054  1.00  0.00    -0.356 N 
ATOM      4  C   UNL     1      -0.935  -3.581  -7.940  1.00  0.00     0.228 C 
ATOM      5  O   UNL     1      -1.191  -3.456  -9.141  1.00  0.00    -0.275 OA
ATOM      6  H   UNL     1      -2.575  -2.569  -7.476  1.00  0.00     0.163 HD
BRANCH   4   7
ATOM      7  C   UNL     1       0.305  -4.350  -7.495  1.00  0.00     0.133 C 
ATOM      8  N   UNL     1       2.361  -4.150  -6.042  1.00  0.00    -0.331 N 
ATOM      9  C   UNL     1       1.859  -5.243  -5.209  1.00  0.00     0.262 C 
ATOM     10  C   UNL     1       1.275  -3.438  -6.729  1.00  0.00     0.276 C 
ATOM     11  H   UNL     1       2.934  -4.583  -6.767  1.00  0.00     0.348 HD
ATOM     12  C   UNL     1       1.126  -6.270  -6.070  1.00  0.00     0.062 C 
ATOM     13  C   UNL     1      -0.071  -5.650  -6.778  1.00  0.00     0.025 C 
BRANCH   8  14
ATOM     14  C   UNL     1       3.268  -3.235  -5.311  1.00  0.00     0.299 C 
BRANCH  14  15
ATOM     15  C   UNL     1       2.672  -2.489  -4.129  1.00  0.00     0.006 A 
ATOM     16  C   UNL     1       1.394  -1.206  -1.991  1.00  0.00     0.039 A 
ATOM     17  C   UNL     1       1.362  -0.629  -3.259  1.00  0.00     0.014 A 
ATOM     18  C   UNL     1       2.098  -2.390  -1.764  1.00  0.00     0.014 A 
ATOM     19  C   UNL     1       2.017  -1.260  -4.318  1.00  0.00     0.010 A 
ATOM     20  C   UNL     1       2.732  -3.030  -2.833  1.00  0.00     0.010 A 
BRANCH  16  21
ATOM     21  C   UNL     1       0.609  -0.589  -0.910  1.00  0.00     0.248 C 
ATOM     22  N   UNL     1       1.322  -0.092   0.136  1.00  0.00    -0.366 N 
ATOM     23  H   UNL     1       0.857   0.334   0.892  1.00  0.00     0.159 HD
ATOM     24  H   UNL     1       2.305  -0.158   0.137  1.00  0.00     0.159 HD
ATOM     25  O   UNL     1      -0.615  -0.530  -0.975  1.00  0.00    -0.270 OA
ENDBRANCH  16  21
ENDBRANCH  14  15
ENDBRANCH   8  14
ENDBRANCH   4   7
ENDBRANCH   2   3
ENDBRANCH   1   2
BRANCH   1  26
ATOM     26  C   UNL     1      -2.779  -0.657  -5.196  1.00  0.00     0.118 C 
BRANCH  26  27
ATOM     27  N   UNL     1      -3.888  -1.015  -4.324  1.00  0.00    -0.352 N 
ATOM     28  C   UNL     1      -4.394  -0.369  -3.221  1.00  0.00     0.251 C 
ATOM     29  H   UNL     1      -4.347  -1.852  -4.561  1.00  0.00     0.163 HD
ATOM     30  O   UNL     1      -5.203  -0.961  -2.508  1.00  0.00    -0.269 OA
BRANCH  28  31
ATOM     31  C   UNL     1      -4.003   1.023  -2.894  1.00  0.00     0.039 A 
ATOM     32  C   UNL     1      -3.844   1.383  -1.552  1.00  0.00     0.014 A 
ATOM     33  C   UNL     1      -3.871   1.996  -3.889  1.00  0.00     0.014 A 
ATOM     34  C   UNL     1      -3.519   2.702  -1.214  1.00  0.00     0.010 A 
ATOM     35  C   UNL     1      -3.464   3.287  -3.556  1.00  0.00     0.010 A 
ATOM     36  C   UNL     1      -3.306   3.663  -2.214  1.00  0.00    -0.014 A 
BRANCH  36  37
ATOM     37  C   UNL     1      -2.936   5.067  -1.885  1.00  0.00     0.031 A 
ATOM     38  C   UNL     1      -3.840   6.205  -2.289  1.00  0.00     0.074 A 
ATOM     39  C   UNL     1      -1.748   5.331  -1.305  1.00  0.00     0.049 A 
ATOM     40  N   UNL     1      -3.647   7.494  -2.176  1.00  0.00    -0.248 NA
ATOM     41  C   UNL     1      -5.116   5.848  -2.933  1.00  0.00     0.031 C 
ATOM     42  C   UNL     1      -0.748   4.329  -0.929  1.00  0.00     0.029 A 
ATOM     43  N   UNL     1      -1.167   6.526  -0.958  1.00  0.00    -0.354 N 
ATOM     44  C   UNL     1      -4.748   8.099  -2.772  1.00  0.00     0.074 A 
ATOM     45  C   UNL     1      -5.593   7.037  -3.272  1.00  0.00     0.031 C 
ATOM     46  C   UNL     1       0.321   4.951  -0.405  1.00  0.00     0.029 A 
ATOM     47  C   UNL     1       0.097   6.394  -0.431  1.00  0.00     0.049 A 
ATOM     48  H   UNL     1      -1.613   7.396  -1.074  1.00  0.00     0.167 HD
ATOM     49  C   UNL     1      -5.050   9.417  -2.866  1.00  0.00     0.034 A 
ATOM     50  C   UNL     1       0.980   7.327  -0.022  1.00  0.00     0.034 A 
ATOM     51  C   UNL     1      -4.247  10.470  -2.306  1.00  0.00     0.049 A 
ATOM     52  C   UNL     1       0.593   8.781  -0.084  1.00  0.00     0.074 A 
ATOM     53  C   UNL     1      -4.517  11.827  -2.264  1.00  0.00     0.029 A 
ATOM     54  N   UNL     1      -3.022  10.287  -1.685  1.00  0.00    -0.354 N 
ATOM     55  N   UNL     1      -0.523   9.321  -0.508  1.00  0.00    -0.248 NA
ATOM     56  C   UNL     1       1.574   9.753   0.424  1.00  0.00     0.031 C 
ATOM     57  C   UNL     1      -3.449  12.466  -1.624  1.00  0.00     0.029 A 
ATOM     58  C   UNL     1      -2.521  11.504  -1.258  1.00  0.00     0.049 A 
ATOM     59  H   UNL     1      -2.575   9.418  -1.565  1.00  0.00     0.167 HD
ATOM     60  C   UNL     1      -0.394  10.688  -0.287  1.00  0.00     0.074 A 
ATOM     61  C   UNL     1       0.900  10.892   0.330  1.00  0.00     0.031 C 
ATOM     62  C   UNL     1      -1.261  11.687  -0.587  1.00  0.00     0.034 A 
BRANCH  49  63
ATOM     63  C   UNL     1      -6.343   9.796  -3.541  1.00  0.00     0.023 A 
ATOM     64  C   UNL     1      -7.564   9.559  -2.876  1.00  0.00     0.012 A 
ATOM     65  C   UNL     1      -6.352  10.444  -4.791  1.00  0.00     0.148 A 
ATOM     66  C   UNL     1      -8.774   9.932  -3.457  1.00  0.00     0.002 A 
ATOM     67  C   UNL     1      -7.561  10.850  -5.346  1.00  0.00     0.091 A 
ATOM     68  F   UNL     1      -5.184  10.643  -5.418  1.00  0.00    -0.205 F 
ATOM     69  C   UNL     1      -8.772  10.586  -4.686  1.00  0.00     0.022 A 
BRANCH  67  70
ATOM     70  S   UNL     1      -7.660  11.768  -6.888  1.00  0.00     0.127 S 
ATOM     71  O   UNL     1      -8.195  10.758  -7.799  1.00  0.00    -0.237 OA
ATOM     72  O   UNL     1      -8.596  12.841  -6.550  1.00  0.00    -0.237 OA
ATOM     73  O   UNL     1      -6.304  12.216  -7.175  1.00  0.00    -0.744 OA
ENDBRANCH  67  70
ENDBRANCH  49  63
BRANCH  50  74
ATOM     74  C   UNL     1       2.288   6.909   0.557  1.00  0.00     0.023 A 
ATOM     75  C   UNL     1       2.516   7.083   1.936  1.00  0.00     0.012 A 
ATOM     76  C   UNL     1       3.289   6.313  -0.234  1.00  0.00     0.148 A 
ATOM     77  C   UNL     1       3.728   6.702   2.512  1.00  0.00     0.002 A 
ATOM     78  C   UNL     1       4.471   5.880   0.357  1.00  0.00     0.091 A 
ATOM     79  F   UNL     1       3.062   6.169  -1.547  1.00  0.00    -0.205 F 
ATOM     80  C   UNL     1       4.701   6.091   1.726  1.00  0.00     0.022 A 
BRANCH  78  81
ATOM     81  S   UNL     1       5.710   4.947  -0.550  1.00  0.00     0.127 S 
ATOM     82  O   UNL     1       6.763   5.940  -0.731  1.00  0.00    -0.237 OA
ATOM     83  O   UNL     1       6.029   3.871   0.390  1.00  0.00    -0.237 OA
ATOM     84  O   UNL     1       5.043   4.493  -1.763  1.00  0.00    -0.744 OA
ENDBRANCH  78  81
ENDBRANCH  50  74
BRANCH  62  85
ATOM     85  C   UNL     1      -0.861  13.093  -0.227  1.00  0.00     0.023 A 
ATOM     86  C   UNL     1       0.118  13.756  -0.993  1.00  0.00     0.012 A 
ATOM     87  C   UNL     1      -1.512  13.786   0.814  1.00  0.00     0.148 A 
ATOM     88  C   UNL     1       0.464  15.077  -0.711  1.00  0.00     0.002 A 
ATOM     89  C   UNL     1      -1.193  15.116   1.060  1.00  0.00     0.091 A 
ATOM     90  F   UNL     1      -2.427  13.132   1.545  1.00  0.00    -0.205 F 
ATOM     91  C   UNL     1      -0.199  15.760   0.306  1.00  0.00     0.022 A 
BRANCH  89  92
ATOM     92  S   UNL     1      -2.060  16.099   2.290  1.00  0.00     0.127 S 
ATOM     93  O   UNL     1      -1.076  16.162   3.369  1.00  0.00    -0.237 OA
ATOM     94  O   UNL     1      -2.275  17.363   1.585  1.00  0.00    -0.237 OA
ATOM     95  O   UNL     1      -3.281  15.366   2.596  1.00  0.00    -0.744 OA
ENDBRANCH  89  92
ENDBRANCH  62  85
ENDBRANCH  36  37
ENDBRANCH  28  31
ENDBRANCH  26  27
ENDBRANCH   1  26
TORSDOF 16
