REMARK SMILES CCC[C@]1(C(=O)NCCCNC(=O)c2ccc(-c3c4nc(c(-c5cccc(S(=O)(=O)[O-])c5F)c5ccc([nH]5)c(-c5cccc(S(=O)(=O)[O-])c5F)c5nc(c(-c6cccc(S(=O)(=O)[O-])c6F)c6ccc3[nH]6)C=C5)C=C4)cc2)CCCN(C(=O)c2ccc(NS(=O)(=O)CC)cc2)C1
REMARK SMILES IDX 8 1 7 2 5 3 6 4 4 6 77 7 95 8 78 9 80 10 79 11 3 12 2 13
REMARK SMILES IDX 1 14 81 15 82 16 83 17 84 18 94 19 85 20 93 21 86 22 87 23
REMARK SMILES IDX 88 25 89 26 90 27 91 28 92 29 9 30 10 31 11 32 12 33 13 35
REMARK SMILES IDX 14 36 15 37 76 38 16 39 75 40 17 41 18 42 19 43 69 44 20 45
REMARK SMILES IDX 74 46 68 47 70 48 21 49 73 50 67 51 66 52 22 54 54 55 34 56
REMARK SMILES IDX 53 57 35 58 38 59 52 60 71 61 36 62 37 63 51 65 72 66 39 67
REMARK SMILES IDX 23 68 24 69 32 70 25 71 27 72 33 73 26 74 28 75 29 76 30 77
REMARK SMILES IDX 31 78 55 79 56 80 64 81 57 82 59 83 65 84 58 85 60 86 61 87
REMARK SMILES IDX 62 88 63 89 40 90 41 91 49 92 42 93 44 94 50 95 43 96 45 97
REMARK SMILES IDX 46 98 47 99 48 100
REMARK H PARENT 7 5 87 24 11 34 70 53 38 64
REMARK Flexibility Score: inf
ROOT
ATOM      1  C   UNL     1      -1.055  -1.123   4.869  1.00  0.00     0.117 C 
ENDROOT
BRANCH   1   2
ATOM      2  N   UNL     1      -1.466  -1.842   3.671  1.00  0.00    -0.355 N 
ATOM      3  C   UNL     1      -0.854  -2.071   2.475  1.00  0.00     0.228 C 
ATOM      4  O   UNL     1      -1.502  -2.725   1.654  1.00  0.00    -0.274 OA
ATOM      5  H   UNL     1      -2.363  -2.243   3.739  1.00  0.00     0.163 HD
BRANCH   3   6
ATOM      6  C   UNL     1       0.579  -1.585   2.182  1.00  0.00     0.067 C 
ATOM      7  C   UNL     1       0.692  -0.052   2.319  1.00  0.00     0.020 C 
ATOM      8  C   UNL     1       1.506  -2.331   3.180  1.00  0.00     0.136 C 
ATOM      9  C   UNL     1       2.137   0.431   2.343  1.00  0.00     0.023 C 
ATOM     10  N   UNL     1       2.833  -1.733   3.269  1.00  0.00    -0.338 N 
ATOM     11  C   UNL     1       2.893  -0.281   3.452  1.00  0.00     0.120 C 
BRANCH   6  12
ATOM     12  C   UNL     1       1.021  -2.052   0.745  1.00  0.00     0.018 C 
BRANCH  12  13
ATOM     13  C   UNL     1       0.370  -1.378  -0.475  1.00  0.00    -0.002 C 
ATOM     14  C   UNL     1       1.098  -0.140  -0.987  1.00  0.00     0.004 C 
ENDBRANCH  12  13
ENDBRANCH   6  12
BRANCH  10  15
ATOM     15  C   UNL     1       3.926  -2.579   3.236  1.00  0.00     0.253 C 
ATOM     16  O   UNL     1       3.868  -3.805   3.244  1.00  0.00    -0.269 OA
BRANCH  15  17
ATOM     17  C   UNL     1       5.248  -1.975   3.072  1.00  0.00     0.040 A 
ATOM     18  C   UNL     1       5.777  -1.940   1.785  1.00  0.00     0.016 A 
ATOM     19  C   UNL     1       5.972  -1.510   4.166  1.00  0.00     0.016 A 
ATOM     20  C   UNL     1       7.074  -1.477   1.595  1.00  0.00     0.027 A 
ATOM     21  C   UNL     1       7.282  -1.075   3.966  1.00  0.00     0.027 A 
ATOM     22  C   UNL     1       7.859  -1.096   2.685  1.00  0.00     0.049 A 
BRANCH  22  23
ATOM     23  N   UNL     1       9.284  -1.054   2.639  1.00  0.00    -0.284 N 
ATOM     24  H   UNL     1       9.761  -1.191   3.490  1.00  0.00     0.180 HD
BRANCH  23  25
ATOM     25  S   UNL     1      10.217  -0.797   1.290  1.00  0.00     0.232 S 
ATOM     26  O   UNL     1       9.747   0.402   0.635  1.00  0.00    -0.207 OA
ATOM     27  O   UNL     1      11.583  -0.880   1.773  1.00  0.00    -0.207 OA
BRANCH  25  28
ATOM     28  C   UNL     1       9.963  -2.188   0.182  1.00  0.00     0.156 C 
ATOM     29  C   UNL     1       9.735  -3.532   0.841  1.00  0.00     0.023 C 
ENDBRANCH  25  28
ENDBRANCH  23  25
ENDBRANCH  22  23
ENDBRANCH  15  17
ENDBRANCH  10  15
ENDBRANCH   3   6
ENDBRANCH   1   2
BRANCH   1  30
ATOM     30  C   UNL     1      -1.786   0.203   5.017  1.00  0.00     0.042 C 
BRANCH  30  31
ATOM     31  C   UNL     1      -3.261   0.035   5.331  1.00  0.00     0.118 C 
BRANCH  31  32
ATOM     32  N   UNL     1      -3.474  -0.618   6.616  1.00  0.00    -0.352 N 
ATOM     33  C   UNL     1      -4.014  -0.119   7.774  1.00  0.00     0.251 C 
ATOM     34  H   UNL     1      -3.186  -1.559   6.660  1.00  0.00     0.163 HD
ATOM     35  O   UNL     1      -3.876  -0.740   8.824  1.00  0.00    -0.269 OA
BRANCH  33  36
ATOM     36  C   UNL     1      -4.749   1.163   7.753  1.00  0.00     0.039 A 
ATOM     37  C   UNL     1      -4.588   2.058   8.812  1.00  0.00     0.014 A 
ATOM     38  C   UNL     1      -5.604   1.476   6.693  1.00  0.00     0.014 A 
ATOM     39  C   UNL     1      -5.239   3.292   8.776  1.00  0.00     0.010 A 
ATOM     40  C   UNL     1      -6.164   2.744   6.608  1.00  0.00     0.010 A 
ATOM     41  C   UNL     1      -6.003   3.659   7.656  1.00  0.00    -0.014 A 
BRANCH  41  42
ATOM     42  C   UNL     1      -6.646   4.993   7.562  1.00  0.00     0.031 A 
ATOM     43  C   UNL     1      -8.142   5.103   7.434  1.00  0.00     0.074 A 
ATOM     44  C   UNL     1      -5.877   6.098   7.503  1.00  0.00     0.049 A 
ATOM     45  N   UNL     1      -8.879   6.173   7.282  1.00  0.00    -0.248 NA
ATOM     46  C   UNL     1      -8.911   3.847   7.450  1.00  0.00     0.031 C 
ATOM     47  C   UNL     1      -4.412   6.112   7.535  1.00  0.00     0.029 A 
ATOM     48  N   UNL     1      -6.218   7.421   7.379  1.00  0.00    -0.354 N 
ATOM     49  C   UNL     1     -10.185   5.719   7.147  1.00  0.00     0.074 A 
ATOM     50  C   UNL     1     -10.138   4.275   7.194  1.00  0.00     0.031 C 
ATOM     51  C   UNL     1      -3.982   7.380   7.444  1.00  0.00     0.029 A 
ATOM     52  C   UNL     1      -5.134   8.265   7.309  1.00  0.00     0.049 A 
ATOM     53  H   UNL     1      -7.150   7.736   7.344  1.00  0.00     0.167 HD
ATOM     54  C   UNL     1     -11.325   6.438   7.025  1.00  0.00     0.034 A 
ATOM     55  C   UNL     1      -5.075   9.600   7.141  1.00  0.00     0.034 A 
ATOM     56  C   UNL     1     -11.368   7.875   7.014  1.00  0.00     0.049 A 
ATOM     57  C   UNL     1      -6.358  10.379   7.036  1.00  0.00     0.074 A 
ATOM     58  C   UNL     1     -12.477   8.701   6.982  1.00  0.00     0.029 A 
ATOM     59  N   UNL     1     -10.254   8.700   7.023  1.00  0.00    -0.354 N 
ATOM     60  N   UNL     1      -7.593   9.941   7.066  1.00  0.00    -0.248 NA
ATOM     61  C   UNL     1      -6.241  11.838   6.911  1.00  0.00     0.031 C 
ATOM     62  C   UNL     1     -12.033  10.026   6.934  1.00  0.00     0.029 A 
ATOM     63  C   UNL     1     -10.648  10.026   6.981  1.00  0.00     0.049 A 
ATOM     64  H   UNL     1      -9.321   8.388   7.053  1.00  0.00     0.167 HD
ATOM     65  C   UNL     1      -8.400  11.071   7.005  1.00  0.00     0.074 A 
ATOM     66  C   UNL     1      -7.512  12.214   6.954  1.00  0.00     0.031 C 
ATOM     67  C   UNL     1      -9.753  11.155   6.981  1.00  0.00     0.034 A 
BRANCH  54  68
ATOM     68  C   UNL     1     -12.626   5.683   6.934  1.00  0.00     0.023 A 
ATOM     69  C   UNL     1     -13.115   4.992   8.062  1.00  0.00     0.012 A 
ATOM     70  C   UNL     1     -13.392   5.702   5.752  1.00  0.00     0.148 A 
ATOM     71  C   UNL     1     -14.325   4.301   8.005  1.00  0.00     0.002 A 
ATOM     72  C   UNL     1     -14.621   5.053   5.718  1.00  0.00     0.091 A 
ATOM     73  F   UNL     1     -12.902   6.346   4.683  1.00  0.00    -0.205 F 
ATOM     74  C   UNL     1     -15.082   4.342   6.837  1.00  0.00     0.022 A 
BRANCH  72  75
ATOM     75  S   UNL     1     -15.710   5.115   4.291  1.00  0.00     0.127 S 
ATOM     76  O   UNL     1     -15.654   3.732   3.818  1.00  0.00    -0.237 OA
ATOM     77  O   UNL     1     -16.985   5.500   4.897  1.00  0.00    -0.237 OA
ATOM     78  O   UNL     1     -15.140   6.106   3.390  1.00  0.00    -0.744 OA
ENDBRANCH  72  75
ENDBRANCH  54  68
BRANCH  55  79
ATOM     79  C   UNL     1      -3.755  10.291   7.117  1.00  0.00     0.023 A 
ATOM     80  C   UNL     1      -3.392  11.133   8.186  1.00  0.00     0.012 A 
ATOM     81  C   UNL     1      -2.849  10.100   6.056  1.00  0.00     0.148 A 
ATOM     82  C   UNL     1      -2.168  11.803   8.180  1.00  0.00     0.002 A 
ATOM     83  C   UNL     1      -1.607  10.723   6.085  1.00  0.00     0.091 A 
ATOM     84  F   UNL     1      -3.216   9.300   5.045  1.00  0.00    -0.205 F 
ATOM     85  C   UNL     1      -1.272  11.591   7.136  1.00  0.00     0.022 A 
BRANCH  83  86
ATOM     86  S   UNL     1      -0.340  10.402   4.853  1.00  0.00     0.127 S 
ATOM     87  O   UNL     1      -0.273  11.682   4.152  1.00  0.00    -0.237 OA
ATOM     88  O   UNL     1       0.821  10.095   5.690  1.00  0.00    -0.237 OA
ATOM     89  O   UNL     1      -0.827   9.276   4.069  1.00  0.00    -0.744 OA
ENDBRANCH  83  86
ENDBRANCH  55  79
BRANCH  67  90
ATOM     90  C   UNL     1     -10.367  12.530   6.948  1.00  0.00     0.023 A 
ATOM     91  C   UNL     1     -10.287  13.313   5.780  1.00  0.00     0.012 A 
ATOM     92  C   UNL     1     -11.090  13.013   8.057  1.00  0.00     0.148 A 
ATOM     93  C   UNL     1     -10.885  14.572   5.729  1.00  0.00     0.002 A 
ATOM     94  C   UNL     1     -11.730  14.243   7.980  1.00  0.00     0.091 A 
ATOM     95  F   UNL     1     -11.141  12.259   9.165  1.00  0.00    -0.205 F 
ATOM     96  C   UNL     1     -11.617  15.030   6.822  1.00  0.00     0.022 A 
BRANCH  94  97
ATOM     97  S   UNL     1     -12.777  14.870   9.298  1.00  0.00     0.127 S 
ATOM     98  O   UNL     1     -11.976  15.980   9.811  1.00  0.00    -0.237 OA
ATOM     99  O   UNL     1     -13.981  15.271   8.571  1.00  0.00    -0.237 OA
ATOM    100  O   UNL     1     -12.969  13.760  10.222  1.00  0.00    -0.744 OA
ENDBRANCH  94  97
ENDBRANCH  67  90
ENDBRANCH  41  42
ENDBRANCH  33  36
ENDBRANCH  31  32
ENDBRANCH  30  31
ENDBRANCH   1  30
TORSDOF 20
