REMARK SMILES Cc1ccc(C)c(S(=O)(=O)N[C@H](CC2=c3ccccc3=NC2)C(=O)NCCCNC(=O)c2ccc(-c3c4nc(c(-c5cccc(S(=O)(=O)[O-])c5F)c5ccc([nH]5)c(-c5cccc(S(=O)(=O)[O-])c5F)c5nc(c(-c6cccc(S(=O)(=O)[O-])c6F)c6ccc3[nH]6)C=C5)C=C4)cc2)c1
REMARK SMILES IDX 27 1 26 2 25 3 23 4 24 5 12 7 11 8 8 10 9 11 10 12 7 13 1 14
REMARK SMILES IDX 2 15 3 16 95 17 4 18 5 19 6 20 13 21 14 22 15 23 22 24 16 25
REMARK SMILES IDX 20 26 21 27 17 28 19 29 18 30 28 31 29 32 30 33 31 35 32 36
REMARK SMILES IDX 33 37 94 38 34 39 93 40 35 41 36 42 37 43 87 44 38 45 92 46
REMARK SMILES IDX 86 47 88 48 39 49 91 50 85 51 84 52 40 54 72 55 52 56 71 57
REMARK SMILES IDX 53 58 56 59 70 60 89 61 54 62 55 63 69 65 90 66 57 67 41 68
REMARK SMILES IDX 42 69 50 70 43 71 45 72 51 73 44 74 46 75 47 76 48 77 49 78
REMARK SMILES IDX 73 79 74 80 82 81 75 82 77 83 83 84 76 85 78 86 79 87 80 88
REMARK SMILES IDX 81 89 58 90 59 91 67 92 60 93 62 94 68 95 61 96 63 97 64 98
REMARK SMILES IDX 65 99 66 100
REMARK H PARENT 25 6 11 9 29 34 88 53 56 64
REMARK Flexibility Score: inf
ROOT
ATOM      1  C   UNL     1      -1.865   7.861  -1.613  1.00  0.00     0.042 C 
ENDROOT
BRANCH   1   2
ATOM      2  C   UNL     1      -1.115   6.767  -2.375  1.00  0.00     0.117 C 
BRANCH   2   3
ATOM      3  N   UNL     1       0.300   6.566  -2.090  1.00  0.00    -0.355 N 
ATOM      4  C   UNL     1       1.091   5.536  -1.653  1.00  0.00     0.238 C 
ATOM      5  O   UNL     1       2.303   5.770  -1.640  1.00  0.00    -0.273 OA
ATOM      6  H   UNL     1       0.825   7.383  -2.255  1.00  0.00     0.163 HD
BRANCH   4   7
ATOM      7  C   UNL     1       0.553   4.172  -1.188  1.00  0.00     0.163 C 
BRANCH   7   8
ATOM      8  N   UNL     1      -0.447   3.705  -2.207  1.00  0.00    -0.198 NA
ATOM      9  H   UNL     1      -1.227   3.306  -1.685  1.00  0.00     0.142 HD
BRANCH   8  10
ATOM     10  S   UNL     1      -0.031   2.578  -3.379  1.00  0.00     0.241 S 
ATOM     11  O   UNL     1       1.393   2.668  -3.623  1.00  0.00    -0.207 OA
ATOM     12  O   UNL     1      -0.998   2.798  -4.429  1.00  0.00    -0.207 OA
BRANCH  10  13
ATOM     13  C   UNL     1      -0.411   1.006  -2.659  1.00  0.00     0.085 A 
ATOM     14  C   UNL     1      -1.690  -0.219   0.705  1.00  0.00     0.044 C 
ATOM     15  C   UNL     1      -1.173  -0.223  -0.702  1.00  0.00    -0.050 A 
ATOM     16  C   UNL     1      -0.831  -1.413  -1.344  1.00  0.00     0.004 A 
ATOM     17  C   UNL     1      -0.992   0.979  -1.384  1.00  0.00     0.025 A 
ATOM     18  C   UNL     1      -0.320  -1.396  -2.647  1.00  0.00     0.005 A 
ATOM     19  C   UNL     1      -0.101  -0.187  -3.329  1.00  0.00    -0.031 A 
ATOM     20  C   UNL     1       0.445  -0.257  -4.728  1.00  0.00     0.046 C 
ENDBRANCH  10  13
ENDBRANCH   8  10
ENDBRANCH   7   8
BRANCH   7  21
ATOM     21  C   UNL     1      -0.068   4.101   0.251  1.00  0.00     0.063 C 
BRANCH  21  22
ATOM     22  C   UNL     1       0.197   5.147   1.310  1.00  0.00    -0.037 C 
ATOM     23  C   UNL     1       0.634   5.056   2.571  1.00  0.00     0.001 A 
ATOM     24  C   UNL     1      -0.220   6.554   1.052  1.00  0.00     0.174 C 
ATOM     25  C   UNL     1       1.070   4.020   3.455  1.00  0.00     0.010 A 
ATOM     26  C   UNL     1       0.508   6.447   3.070  1.00  0.00     0.065 A 
ATOM     27  N   UNL     1      -0.030   7.329   2.284  1.00  0.00    -0.280 NA
ATOM     28  C   UNL     1       1.422   4.344   4.714  1.00  0.00     0.001 A 
ATOM     29  C   UNL     1       0.969   6.736   4.438  1.00  0.00     0.028 A 
ATOM     30  C   UNL     1       1.402   5.716   5.193  1.00  0.00     0.002 A 
ENDBRANCH  21  22
ENDBRANCH   7  21
ENDBRANCH   4   7
ENDBRANCH   2   3
ENDBRANCH   1   2
BRANCH   1  31
ATOM     31  C   UNL     1      -1.061   9.013  -1.043  1.00  0.00     0.118 C 
BRANCH  31  32
ATOM     32  N   UNL     1      -1.402  10.306  -1.611  1.00  0.00    -0.352 N 
ATOM     33  C   UNL     1      -0.913  11.545  -1.249  1.00  0.00     0.251 C 
ATOM     34  H   UNL     1      -2.060  10.297  -2.343  1.00  0.00     0.163 HD
ATOM     35  O   UNL     1      -1.371  12.559  -1.768  1.00  0.00    -0.269 OA
BRANCH  33  36
ATOM     36  C   UNL     1       0.285  11.612  -0.383  1.00  0.00     0.039 A 
ATOM     37  C   UNL     1       1.361  12.359  -0.869  1.00  0.00     0.014 A 
ATOM     38  C   UNL     1       0.444  10.772   0.720  1.00  0.00     0.014 A 
ATOM     39  C   UNL     1       2.636  12.078  -0.405  1.00  0.00     0.010 A 
ATOM     40  C   UNL     1       1.718  10.420   1.113  1.00  0.00     0.010 A 
ATOM     41  C   UNL     1       2.812  11.033   0.506  1.00  0.00    -0.014 A 
BRANCH  41  42
ATOM     42  C   UNL     1       4.142  10.748   1.015  1.00  0.00     0.031 A 
ATOM     43  C   UNL     1       4.444  11.567   2.211  1.00  0.00     0.074 A 
ATOM     44  C   UNL     1       4.947   9.757   0.588  1.00  0.00     0.049 A 
ATOM     45  N   UNL     1       5.042  12.714   2.244  1.00  0.00    -0.248 NA
ATOM     46  C   UNL     1       3.781  11.196   3.472  1.00  0.00     0.031 C 
ATOM     47  C   UNL     1       4.626   8.649  -0.312  1.00  0.00     0.029 A 
ATOM     48  N   UNL     1       6.221   9.473   0.982  1.00  0.00    -0.354 N 
ATOM     49  C   UNL     1       5.039  13.061   3.590  1.00  0.00     0.074 A 
ATOM     50  C   UNL     1       4.003  12.282   4.213  1.00  0.00     0.031 C 
ATOM     51  C   UNL     1       5.591   7.701  -0.212  1.00  0.00     0.029 A 
ATOM     52  C   UNL     1       6.657   8.194   0.645  1.00  0.00     0.049 A 
ATOM     53  H   UNL     1       6.785  10.119   1.464  1.00  0.00     0.167 HD
ATOM     54  C   UNL     1       6.117  13.648   4.177  1.00  0.00     0.034 A 
ATOM     55  C   UNL     1       7.778   7.594   1.123  1.00  0.00     0.034 A 
ATOM     56  C   UNL     1       7.105  14.032   3.208  1.00  0.00     0.049 A 
ATOM     57  C   UNL     1       8.668   8.682   1.596  1.00  0.00     0.074 A 
ATOM     58  C   UNL     1       7.204  14.949   2.186  1.00  0.00     0.029 A 
ATOM     59  N   UNL     1       8.049  13.062   2.984  1.00  0.00    -0.354 N 
ATOM     60  N   UNL     1       9.202   9.578   0.814  1.00  0.00    -0.248 NA
ATOM     61  C   UNL     1       8.712   8.989   3.020  1.00  0.00     0.031 C 
ATOM     62  C   UNL     1       8.051  14.346   1.209  1.00  0.00     0.029 A 
ATOM     63  C   UNL     1       8.473  13.104   1.685  1.00  0.00     0.049 A 
ATOM     64  H   UNL     1       8.374  12.427   3.662  1.00  0.00     0.167 HD
ATOM     65  C   UNL     1       9.230  10.727   1.587  1.00  0.00     0.074 A 
ATOM     66  C   UNL     1       9.096  10.266   2.962  1.00  0.00     0.031 C 
ATOM     67  C   UNL     1       9.036  11.950   1.016  1.00  0.00     0.034 A 
BRANCH  54  68
ATOM     68  C   UNL     1       6.491  13.435   5.623  1.00  0.00     0.023 A 
ATOM     69  C   UNL     1       7.359  14.361   6.229  1.00  0.00     0.012 A 
ATOM     70  C   UNL     1       6.218  12.245   6.340  1.00  0.00     0.148 A 
ATOM     71  C   UNL     1       7.891  14.131   7.504  1.00  0.00     0.002 A 
ATOM     72  C   UNL     1       6.659  12.069   7.643  1.00  0.00     0.091 A 
ATOM     73  F   UNL     1       5.655  11.206   5.713  1.00  0.00    -0.205 F 
ATOM     74  C   UNL     1       7.516  13.002   8.226  1.00  0.00     0.022 A 
BRANCH  72  75
ATOM     75  S   UNL     1       6.139  10.655   8.620  1.00  0.00     0.127 S 
ATOM     76  O   UNL     1       7.349   9.839   8.626  1.00  0.00    -0.237 OA
ATOM     77  O   UNL     1       5.804  11.281   9.899  1.00  0.00    -0.237 OA
ATOM     78  O   UNL     1       4.990  10.101   7.912  1.00  0.00    -0.744 OA
ENDBRANCH  72  75
ENDBRANCH  54  68
BRANCH  55  79
ATOM     79  C   UNL     1       8.072   6.178   1.476  1.00  0.00     0.023 A 
ATOM     80  C   UNL     1       9.406   5.819   1.784  1.00  0.00     0.012 A 
ATOM     81  C   UNL     1       7.047   5.281   1.850  1.00  0.00     0.148 A 
ATOM     82  C   UNL     1       9.700   4.665   2.520  1.00  0.00     0.002 A 
ATOM     83  C   UNL     1       7.346   4.127   2.575  1.00  0.00     0.091 A 
ATOM     84  F   UNL     1       5.775   5.605   1.590  1.00  0.00    -0.205 F 
ATOM     85  C   UNL     1       8.668   3.829   2.932  1.00  0.00     0.022 A 
BRANCH  83  86
ATOM     86  S   UNL     1       6.066   3.004   3.158  1.00  0.00     0.127 S 
ATOM     87  O   UNL     1       6.640   1.694   2.845  1.00  0.00    -0.237 OA
ATOM     88  O   UNL     1       6.010   3.316   4.584  1.00  0.00    -0.237 OA
ATOM     89  O   UNL     1       4.867   3.325   2.394  1.00  0.00    -0.744 OA
ENDBRANCH  83  86
ENDBRANCH  55  79
BRANCH  67  90
ATOM     90  C   UNL     1       9.250  12.060  -0.467  1.00  0.00     0.023 A 
ATOM     91  C   UNL     1       8.366  11.509  -1.416  1.00  0.00     0.012 A 
ATOM     92  C   UNL     1      10.314  12.865  -0.904  1.00  0.00     0.148 A 
ATOM     93  C   UNL     1       8.547  11.758  -2.780  1.00  0.00     0.002 A 
ATOM     94  C   UNL     1      10.468  13.140  -2.255  1.00  0.00     0.091 A 
ATOM     95  F   UNL     1      11.140  13.374   0.022  1.00  0.00    -0.205 F 
ATOM     96  C   UNL     1       9.589  12.585  -3.198  1.00  0.00     0.022 A 
BRANCH  94  97
ATOM     97  S   UNL     1      11.729  14.270  -2.846  1.00  0.00     0.127 S 
ATOM     98  O   UNL     1      12.623  13.374  -3.578  1.00  0.00    -0.237 OA
ATOM     99  O   UNL     1      10.955  15.184  -3.687  1.00  0.00    -0.237 OA
ATOM    100  O   UNL     1      12.307  14.891  -1.661  1.00  0.00    -0.744 OA
ENDBRANCH  94  97
ENDBRANCH  67  90
ENDBRANCH  41  42
ENDBRANCH  33  36
ENDBRANCH  31  32
ENDBRANCH   1  31
TORSDOF 18
