REMARK SMILES O=C(NCCCNC(=O)c1c(S(=O)(=O)N2CCO[C@@H](CCO)C2)sc2c1CC[NH2+]C2)c1ccc(-c2c3nc(c(-c4cccc(S(=O)(=O)[O-])c4F)c4ccc([nH]4)c(-c4cccc(S(=O)(=O)[O-])c4F)c4nc(c(-c5cccc(S(=O)(=O)[O-])c5F)c5ccc2[nH]5)C=C4)C=C3)cc1
REMARK SMILES IDX 6 1 5 2 4 3 3 4 1 5 2 6 31 8 32 9 93 10 33 11 92 12 34 13
REMARK SMILES IDX 35 14 36 15 86 16 37 17 91 18 85 19 87 20 38 21 90 22 84 23
REMARK SMILES IDX 83 24 39 26 71 27 51 28 70 29 52 30 55 31 69 32 88 33 53 34
REMARK SMILES IDX 54 35 68 37 89 38 56 39 40 40 41 41 49 42 42 43 44 44 50 45
REMARK SMILES IDX 43 46 45 47 46 48 47 49 48 50 72 51 73 52 81 53 74 54 76 55
REMARK SMILES IDX 82 56 75 57 77 58 78 59 79 60 80 61 57 62 58 63 66 64 59 65
REMARK SMILES IDX 61 66 67 67 60 68 62 69 63 70 64 71 65 72 7 73 8 74 9 76
REMARK SMILES IDX 10 77 11 78 26 79 24 80 25 81 27 82 30 83 28 84 29 85 12 88
REMARK SMILES IDX 13 89 14 90 15 91 16 92 23 93 17 94 19 95 18 96 20 97 21 98
REMARK SMILES IDX 22 99
REMARK H PARENT 3 7 87 25 55 36 7 75 29 86 29 87 22 100
REMARK Flexibility Score: inf
ROOT
ATOM      1  C   UNL     1       4.702   2.611  -1.986  1.00  0.00     0.118 C 
ENDROOT
BRANCH   1   2
ATOM      2  C   UNL     1       5.236   1.367  -1.294  1.00  0.00     0.042 C 
BRANCH   2   3
ATOM      3  C   UNL     1       4.658   1.047   0.082  1.00  0.00     0.118 C 
BRANCH   3   4
ATOM      4  N   UNL     1       3.223   1.201   0.213  1.00  0.00    -0.352 N 
ATOM      5  O   UNL     1       1.058   0.881   0.407  1.00  0.00    -0.269 OA
ATOM      6  C   UNL     1       2.124   0.413  -0.004  1.00  0.00     0.251 C 
ATOM      7  H   UNL     1       2.976   2.096   0.539  1.00  0.00     0.163 HD
BRANCH   6   8
ATOM      8  C   UNL     1       2.109  -0.909  -0.696  1.00  0.00     0.039 A 
ATOM      9  C   UNL     1       3.212  -1.545  -1.264  1.00  0.00     0.014 A 
ATOM     10  C   UNL     1       0.854  -1.540  -0.813  1.00  0.00     0.014 A 
ATOM     11  C   UNL     1       3.061  -2.739  -1.978  1.00  0.00     0.010 A 
ATOM     12  C   UNL     1       0.703  -2.746  -1.502  1.00  0.00     0.010 A 
ATOM     13  C   UNL     1       1.806  -3.338  -2.114  1.00  0.00    -0.014 A 
BRANCH  13  14
ATOM     14  C   UNL     1       1.717  -4.607  -2.848  1.00  0.00     0.031 A 
ATOM     15  C   UNL     1       2.398  -5.799  -2.256  1.00  0.00     0.074 A 
ATOM     16  C   UNL     1       0.919  -4.823  -3.914  1.00  0.00     0.049 A 
ATOM     17  N   UNL     1       3.288  -6.572  -2.798  1.00  0.00    -0.248 NA
ATOM     18  C   UNL     1       2.025  -6.179  -0.888  1.00  0.00     0.031 C 
ATOM     19  C   UNL     1      -0.131  -3.946  -4.434  1.00  0.00     0.029 A 
ATOM     20  N   UNL     1       0.789  -5.960  -4.666  1.00  0.00    -0.354 N 
ATOM     21  C   UNL     1       3.466  -7.634  -1.909  1.00  0.00     0.074 A 
ATOM     22  C   UNL     1       2.729  -7.298  -0.716  1.00  0.00     0.031 C 
ATOM     23  C   UNL     1      -0.946  -4.671  -5.232  1.00  0.00     0.029 A 
ATOM     24  C   UNL     1      -0.393  -6.006  -5.388  1.00  0.00     0.049 A 
ATOM     25  H   UNL     1       1.467  -6.674  -4.691  1.00  0.00     0.167 HD
ATOM     26  C   UNL     1       4.085  -8.798  -2.248  1.00  0.00     0.034 A 
ATOM     27  C   UNL     1      -0.925  -7.079  -6.015  1.00  0.00     0.034 A 
ATOM     28  C   UNL     1       4.795  -8.720  -3.492  1.00  0.00     0.049 A 
ATOM     29  C   UNL     1       0.134  -8.088  -6.231  1.00  0.00     0.074 A 
ATOM     30  C   UNL     1       5.859  -8.000  -3.991  1.00  0.00     0.029 A 
ATOM     31  N   UNL     1       4.248  -9.380  -4.562  1.00  0.00    -0.354 N 
ATOM     32  N   UNL     1       1.121  -7.961  -7.074  1.00  0.00    -0.248 NA
ATOM     33  C   UNL     1       0.233  -9.216  -5.317  1.00  0.00     0.031 C 
ATOM     34  C   UNL     1       5.652  -7.943  -5.400  1.00  0.00     0.029 A 
ATOM     35  C   UNL     1       4.449  -8.601  -5.668  1.00  0.00     0.049 A 
ATOM     36  H   UNL     1       3.794 -10.254  -4.538  1.00  0.00     0.167 HD
ATOM     37  C   UNL     1       2.139  -8.738  -6.542  1.00  0.00     0.074 A 
ATOM     38  C   UNL     1       1.480  -9.610  -5.580  1.00  0.00     0.031 C 
ATOM     39  C   UNL     1       3.452  -8.393  -6.700  1.00  0.00     0.034 A 
BRANCH  26  40
ATOM     40  C   UNL     1       3.871 -10.136  -1.582  1.00  0.00     0.023 A 
ATOM     41  C   UNL     1       4.840 -11.144  -1.795  1.00  0.00     0.012 A 
ATOM     42  C   UNL     1       2.661 -10.528  -0.972  1.00  0.00     0.148 A 
ATOM     43  C   UNL     1       4.611 -12.476  -1.436  1.00  0.00     0.002 A 
ATOM     44  C   UNL     1       2.471 -11.841  -0.544  1.00  0.00     0.091 A 
ATOM     45  F   UNL     1       1.638  -9.666  -0.907  1.00  0.00    -0.205 F 
ATOM     46  C   UNL     1       3.430 -12.824  -0.795  1.00  0.00     0.022 A 
BRANCH  44  47
ATOM     47  S   UNL     1       0.991 -12.292   0.368  1.00  0.00     0.127 S 
ATOM     48  O   UNL     1       0.071 -12.644  -0.708  1.00  0.00    -0.237 OA
ATOM     49  O   UNL     1       1.451 -13.420   1.181  1.00  0.00    -0.237 OA
ATOM     50  O   UNL     1       0.675 -11.097   1.142  1.00  0.00    -0.744 OA
ENDBRANCH  44  47
ENDBRANCH  26  40
BRANCH  27  51
ATOM     51  C   UNL     1      -2.342  -7.362  -6.331  1.00  0.00     0.023 A 
ATOM     52  C   UNL     1      -2.663  -8.189  -7.424  1.00  0.00     0.012 A 
ATOM     53  C   UNL     1      -3.376  -7.005  -5.436  1.00  0.00     0.148 A 
ATOM     54  C   UNL     1      -3.969  -8.652  -7.617  1.00  0.00     0.002 A 
ATOM     55  C   UNL     1      -4.677  -7.452  -5.643  1.00  0.00     0.091 A 
ATOM     56  F   UNL     1      -3.066  -6.304  -4.337  1.00  0.00    -0.205 F 
ATOM     57  C   UNL     1      -4.976  -8.284  -6.729  1.00  0.00     0.022 A 
BRANCH  55  58
ATOM     58  S   UNL     1      -6.022  -6.996  -4.541  1.00  0.00     0.127 S 
ATOM     59  O   UNL     1      -7.120  -6.751  -5.478  1.00  0.00    -0.237 OA
ATOM     60  O   UNL     1      -6.170  -8.198  -3.727  1.00  0.00    -0.237 OA
ATOM     61  O   UNL     1      -5.563  -5.801  -3.844  1.00  0.00    -0.744 OA
ENDBRANCH  55  58
ENDBRANCH  27  51
BRANCH  39  62
ATOM     62  C   UNL     1       3.818  -7.406  -7.781  1.00  0.00     0.023 A 
ATOM     63  C   UNL     1       3.308  -6.092  -7.773  1.00  0.00     0.012 A 
ATOM     64  C   UNL     1       4.840  -7.732  -8.692  1.00  0.00     0.148 A 
ATOM     65  C   UNL     1       3.781  -5.133  -8.670  1.00  0.00     0.002 A 
ATOM     66  C   UNL     1       5.346  -6.759  -9.549  1.00  0.00     0.091 A 
ATOM     67  F   UNL     1       5.329  -8.982  -8.683  1.00  0.00    -0.205 F 
ATOM     68  C   UNL     1       4.810  -5.462  -9.547  1.00  0.00     0.022 A 
BRANCH  66  69
ATOM     69  S   UNL     1       6.774  -7.068 -10.594  1.00  0.00     0.127 S 
ATOM     70  O   UNL     1       6.160  -7.264 -11.905  1.00  0.00    -0.237 OA
ATOM     71  O   UNL     1       7.540  -5.826 -10.459  1.00  0.00    -0.237 OA
ATOM     72  O   UNL     1       7.437  -8.235 -10.025  1.00  0.00    -0.744 OA
ENDBRANCH  66  69
ENDBRANCH  39  62
ENDBRANCH  13  14
ENDBRANCH   6   8
ENDBRANCH   3   4
ENDBRANCH   2   3
ENDBRANCH   1   2
BRANCH   1  73
ATOM     73  N   UNL     1       5.087   3.880  -1.395  1.00  0.00    -0.352 N 
ATOM     74  C   UNL     1       5.695   4.971  -1.969  1.00  0.00     0.253 C 
ATOM     75  H   UNL     1       4.880   3.973  -0.437  1.00  0.00     0.163 HD
ATOM     76  O   UNL     1       5.920   5.954  -1.264  1.00  0.00    -0.269 OA
BRANCH  74  77
ATOM     77  C   UNL     1       6.186   4.894  -3.343  1.00  0.00     0.074 A 
ATOM     78  C   UNL     1       5.408   4.618  -4.471  1.00  0.00     0.148 A 
ATOM     79  C   UNL     1       7.529   5.259  -3.755  1.00  0.00    -0.009 A 
ATOM     80  S   UNL     1       6.420   4.238  -5.794  1.00  0.00    -0.120 S 
ATOM     81  C   UNL     1       7.728   5.041  -5.102  1.00  0.00     0.064 A 
ATOM     82  C   UNL     1       8.653   5.808  -2.921  1.00  0.00     0.099 C 
ATOM     83  C   UNL     1       8.943   5.439  -5.879  1.00  0.00     0.308 C 
ATOM     84  C   UNL     1       9.771   6.405  -3.815  1.00  0.00     0.265 C 
ATOM     85  N   UNL     1      10.110   5.571  -4.988  1.00  0.00    -0.342 N 
ATOM     86  H   UNL     1      10.397   4.645  -4.670  1.00  0.00     0.346 HD
ATOM     87  H   UNL     1      10.870   6.016  -5.502  1.00  0.00     0.346 HD
BRANCH  78  88
ATOM     88  S   UNL     1       3.645   4.523  -4.765  1.00  0.00     0.253 S 
ATOM     89  O   UNL     1       3.291   3.144  -4.462  1.00  0.00    -0.206 OA
ATOM     90  O   UNL     1       3.120   5.618  -3.994  1.00  0.00    -0.206 OA
BRANCH  88  91
ATOM     91  N   UNL     1       3.243   4.779  -6.375  1.00  0.00    -0.192 NA
ATOM     92  C   UNL     1       3.357   3.716  -7.400  1.00  0.00     0.131 C 
ATOM     93  C   UNL     1       3.173   6.138  -6.934  1.00  0.00     0.134 C 
ATOM     94  C   UNL     1       4.338   4.078  -8.534  1.00  0.00     0.177 C 
ATOM     95  C   UNL     1       4.374   6.365  -7.857  1.00  0.00     0.135 C 
ATOM     96  O   UNL     1       4.277   5.449  -8.967  1.00  0.00    -0.375 OA
BRANCH  95  97
ATOM     97  C   UNL     1       4.483   7.789  -8.410  1.00  0.00     0.061 C 
BRANCH  97  98
ATOM     98  C   UNL     1       4.289   8.878  -7.362  1.00  0.00     0.159 C 
BRANCH  98  99
ATOM     99  O   UNL     1       5.020   8.559  -6.186  1.00  0.00    -0.396 OA
ATOM    100  H   UNL     1       4.703   7.716  -5.826  1.00  0.00     0.210 HD
ENDBRANCH  98  99
ENDBRANCH  97  98
ENDBRANCH  95  97
ENDBRANCH  88  91
ENDBRANCH  78  88
ENDBRANCH  74  77
ENDBRANCH   1  73
TORSDOF 18
