REMARK SMILES O=C(NCCCNC(=O)[C@@H]1CC=CC[C@H]1C(=O)N1CC[NH+](Cc2ccc3c(c2)OCO3)CC1)c1ccc(-c2c3nc(c(-c4cccc(S(=O)(=O)[O-])c4F)c4ccc([nH]4)c(-c4cccc(S(=O)(=O)[O-])c4F)c4nc(c(-c5cccc(S(=O)(=O)[O-])c5F)c5ccc2[nH]5)C=C4)C=C3)cc1
REMARK SMILES IDX 5 1 4 2 3 3 1 4 2 5 34 7 35 8 96 9 36 10 95 11 37 12 38 13
REMARK SMILES IDX 39 14 89 15 40 16 94 17 88 18 90 19 41 20 93 21 87 22 86 23
REMARK SMILES IDX 42 25 74 26 54 27 73 28 55 29 58 30 72 31 91 32 56 33 57 34
REMARK SMILES IDX 71 36 92 37 59 38 43 39 44 40 52 41 45 42 47 43 53 44 46 45
REMARK SMILES IDX 48 46 49 47 50 48 51 49 75 50 76 51 84 52 77 53 79 54 85 55
REMARK SMILES IDX 78 56 80 57 81 58 82 59 83 60 60 61 61 62 69 63 62 64 64 65
REMARK SMILES IDX 70 66 63 67 65 68 66 69 67 70 68 71 6 72 7 73 8 74 9 76
REMARK SMILES IDX 10 77 11 78 15 79 12 80 14 81 13 82 16 83 17 84 18 85 19 86
REMARK SMILES IDX 33 87 20 88 32 89 21 90 22 92 23 93 24 94 28 95 25 96 27 97
REMARK SMILES IDX 26 98 29 99 31 100 30 101
REMARK H PARENT 3 6 90 24 58 35 7 75 21 91
REMARK Flexibility Score: inf
ROOT
ATOM      1  C   UNL     1       7.925   7.003  -1.383  1.00  0.00     0.042 C 
ENDROOT
BRANCH   1   2
ATOM      2  C   UNL     1       9.334   7.314  -0.904  1.00  0.00     0.118 C 
BRANCH   2   3
ATOM      3  N   UNL     1       9.583   8.743  -0.751  1.00  0.00    -0.352 N 
ATOM      4  O   UNL     1      10.028  10.694   0.276  1.00  0.00    -0.269 OA
ATOM      5  C   UNL     1      10.006   9.465   0.341  1.00  0.00     0.251 C 
ATOM      6  H   UNL     1       9.422   9.278  -1.562  1.00  0.00     0.163 HD
BRANCH   5   7
ATOM      7  C   UNL     1      10.429   8.777   1.584  1.00  0.00     0.039 A 
ATOM      8  C   UNL     1      11.184   7.607   1.520  1.00  0.00     0.014 A 
ATOM      9  C   UNL     1      10.117   9.333   2.831  1.00  0.00     0.014 A 
ATOM     10  C   UNL     1      11.504   6.919   2.683  1.00  0.00     0.010 A 
ATOM     11  C   UNL     1      10.534   8.695   4.007  1.00  0.00     0.010 A 
ATOM     12  C   UNL     1      11.219   7.473   3.942  1.00  0.00    -0.014 A 
BRANCH  12  13
ATOM     13  C   UNL     1      11.783   6.804   5.144  1.00  0.00     0.031 A 
ATOM     14  C   UNL     1      10.910   6.195   6.202  1.00  0.00     0.074 A 
ATOM     15  C   UNL     1      13.126   6.716   5.237  1.00  0.00     0.049 A 
ATOM     16  N   UNL     1      11.264   5.484   7.243  1.00  0.00    -0.248 NA
ATOM     17  C   UNL     1       9.459   6.409   6.091  1.00  0.00     0.031 C 
ATOM     18  C   UNL     1      14.073   7.325   4.297  1.00  0.00     0.029 A 
ATOM     19  N   UNL     1      13.930   6.073   6.142  1.00  0.00    -0.354 N 
ATOM     20  C   UNL     1      10.091   5.186   7.924  1.00  0.00     0.074 A 
ATOM     21  C   UNL     1       9.010   5.803   7.184  1.00  0.00     0.031 C 
ATOM     22  C   UNL     1      15.322   6.989   4.646  1.00  0.00     0.029 A 
ATOM     23  C   UNL     1      15.272   6.188   5.862  1.00  0.00     0.049 A 
ATOM     24  H   UNL     1      13.580   5.576   6.917  1.00  0.00     0.167 HD
ATOM     25  C   UNL     1       9.932   4.451   9.052  1.00  0.00     0.034 A 
ATOM     26  C   UNL     1      16.348   5.712   6.515  1.00  0.00     0.034 A 
ATOM     27  C   UNL     1      11.013   3.824   9.768  1.00  0.00     0.049 A 
ATOM     28  C   UNL     1      16.133   4.872   7.740  1.00  0.00     0.074 A 
ATOM     29  C   UNL     1      10.947   3.022  10.895  1.00  0.00     0.029 A 
ATOM     30  N   UNL     1      12.355   3.930   9.435  1.00  0.00    -0.354 N 
ATOM     31  N   UNL     1      15.005   4.491   8.289  1.00  0.00    -0.248 NA
ATOM     32  C   UNL     1      17.335   4.374   8.420  1.00  0.00     0.031 C 
ATOM     33  C   UNL     1      12.250   2.657  11.252  1.00  0.00     0.029 A 
ATOM     34  C   UNL     1      13.127   3.215  10.336  1.00  0.00     0.049 A 
ATOM     35  H   UNL     1      12.708   4.440   8.670  1.00  0.00     0.167 HD
ATOM     36  C   UNL     1      15.360   3.697   9.371  1.00  0.00     0.074 A 
ATOM     37  C   UNL     1      16.807   3.616   9.371  1.00  0.00     0.031 C 
ATOM     38  C   UNL     1      14.563   3.111  10.298  1.00  0.00     0.034 A 
BRANCH  25  39
ATOM     39  C   UNL     1       8.531   4.236   9.566  1.00  0.00     0.023 A 
ATOM     40  C   UNL     1       7.681   3.333   8.896  1.00  0.00     0.012 A 
ATOM     41  C   UNL     1       8.089   4.846  10.757  1.00  0.00     0.148 A 
ATOM     42  C   UNL     1       6.408   3.053   9.391  1.00  0.00     0.002 A 
ATOM     43  C   UNL     1       6.832   4.535  11.265  1.00  0.00     0.091 A 
ATOM     44  F   UNL     1       8.905   5.714  11.371  1.00  0.00    -0.205 F 
ATOM     45  C   UNL     1       5.988   3.645  10.580  1.00  0.00     0.022 A 
BRANCH  43  46
ATOM     46  S   UNL     1       6.222   5.185  12.825  1.00  0.00     0.127 S 
ATOM     47  O   UNL     1       5.142   6.062  12.375  1.00  0.00    -0.237 OA
ATOM     48  O   UNL     1       5.777   3.972  13.510  1.00  0.00    -0.237 OA
ATOM     49  O   UNL     1       7.352   5.859  13.450  1.00  0.00    -0.744 OA
ENDBRANCH  43  46
ENDBRANCH  25  39
BRANCH  26  50
ATOM     50  C   UNL     1      17.717   5.991   5.997  1.00  0.00     0.023 A 
ATOM     51  C   UNL     1      18.499   4.940   5.484  1.00  0.00     0.012 A 
ATOM     52  C   UNL     1      18.232   7.302   5.979  1.00  0.00     0.148 A 
ATOM     53  C   UNL     1      19.782   5.185   4.991  1.00  0.00     0.002 A 
ATOM     54  C   UNL     1      19.483   7.548   5.428  1.00  0.00     0.091 A 
ATOM     55  F   UNL     1      17.483   8.289   6.491  1.00  0.00    -0.205 F 
ATOM     56  C   UNL     1      20.269   6.489   4.950  1.00  0.00     0.022 A 
BRANCH  54  57
ATOM     57  S   UNL     1      20.102   9.219   5.202  1.00  0.00     0.127 S 
ATOM     58  O   UNL     1      21.013   9.357   6.335  1.00  0.00    -0.237 OA
ATOM     59  O   UNL     1      20.753   9.134   3.894  1.00  0.00    -0.237 OA
ATOM     60  O   UNL     1      18.919  10.069   5.221  1.00  0.00    -0.744 OA
ENDBRANCH  54  57
ENDBRANCH  26  50
BRANCH  38  61
ATOM     61  C   UNL     1      15.246   2.324  11.384  1.00  0.00     0.023 A 
ATOM     62  C   UNL     1      15.958   3.003  12.393  1.00  0.00     0.012 A 
ATOM     63  C   UNL     1      15.154   0.920  11.427  1.00  0.00     0.148 A 
ATOM     64  C   UNL     1      16.604   2.295  13.404  1.00  0.00     0.002 A 
ATOM     65  C   UNL     1      15.760   0.223  12.466  1.00  0.00     0.091 A 
ATOM     66  F   UNL     1      14.491   0.290  10.446  1.00  0.00    -0.205 F 
ATOM     67  C   UNL     1      16.496   0.907  13.447  1.00  0.00     0.022 A 
BRANCH  65  68
ATOM     68  S   UNL     1      15.598  -1.556  12.647  1.00  0.00     0.127 S 
ATOM     69  O   UNL     1      16.905  -2.023  12.189  1.00  0.00    -0.237 OA
ATOM     70  O   UNL     1      15.366  -1.705  14.085  1.00  0.00    -0.237 OA
ATOM     71  O   UNL     1      14.465  -1.939  11.814  1.00  0.00    -0.744 OA
ENDBRANCH  65  68
ENDBRANCH  38  61
ENDBRANCH  12  13
ENDBRANCH   5   7
ENDBRANCH   2   3
ENDBRANCH   1   2
BRANCH   1  72
ATOM     72  C   UNL     1       7.630   7.441  -2.809  1.00  0.00     0.117 C 
BRANCH  72  73
ATOM     73  N   UNL     1       8.196   6.583  -3.828  1.00  0.00    -0.356 N 
ATOM     74  C   UNL     1       7.699   5.488  -4.467  1.00  0.00     0.224 C 
ATOM     75  H   UNL     1       9.104   6.836  -4.111  1.00  0.00     0.163 HD
ATOM     76  O   UNL     1       8.288   5.159  -5.501  1.00  0.00    -0.275 OA
BRANCH  74  77
ATOM     77  C   UNL     1       6.516   4.672  -3.912  1.00  0.00     0.095 C 
ATOM     78  C   UNL     1       6.830   3.186  -4.257  1.00  0.00     0.041 C 
ATOM     79  C   UNL     1       5.161   5.119  -4.499  1.00  0.00     0.095 C 
ATOM     80  C   UNL     1       5.673   2.242  -4.260  1.00  0.00    -0.030 C 
ATOM     81  C   UNL     1       4.015   4.077  -4.461  1.00  0.00     0.041 C 
ATOM     82  C   UNL     1       4.407   2.645  -4.371  1.00  0.00    -0.030 C 
BRANCH  79  83
ATOM     83  C   UNL     1       4.545   6.419  -3.966  1.00  0.00     0.227 C 
ATOM     84  O   UNL     1       4.490   7.409  -4.701  1.00  0.00    -0.275 OA
ATOM     85  N   UNL     1       3.879   6.395  -2.737  1.00  0.00    -0.331 N 
ATOM     86  C   UNL     1       2.687   7.233  -2.646  1.00  0.00     0.181 C 
ATOM     87  C   UNL     1       4.605   6.242  -1.478  1.00  0.00     0.181 C 
ATOM     88  C   UNL     1       1.847   6.997  -1.373  1.00  0.00     0.284 C 
ATOM     89  C   UNL     1       3.731   6.002  -0.241  1.00  0.00     0.284 C 
ATOM     90  N   UNL     1       2.587   6.904  -0.111  1.00  0.00    -0.328 N 
ATOM     91  H   UNL     1       1.944   6.469   0.550  1.00  0.00     0.348 HD
BRANCH  90  92
ATOM     92  C   UNL     1       2.829   8.156   0.616  1.00  0.00     0.299 C 
BRANCH  92  93
ATOM     93  C   UNL     1       3.657   9.230  -0.057  1.00  0.00     0.010 A 
ATOM     94  C   UNL     1       3.070  10.099  -1.007  1.00  0.00     0.013 A 
ATOM     95  C   UNL     1       5.014   9.393   0.263  1.00  0.00     0.060 A 
ATOM     96  C   UNL     1       3.830  11.049  -1.697  1.00  0.00     0.051 A 
ATOM     97  C   UNL     1       5.732  10.358  -0.414  1.00  0.00     0.166 A 
ATOM     98  C   UNL     1       5.163  11.153  -1.378  1.00  0.00     0.165 A 
ATOM     99  O   UNL     1       7.049  10.629  -0.236  1.00  0.00    -0.454 OA
ATOM    100  O   UNL     1       6.054  12.015  -1.936  1.00  0.00    -0.454 OA
ATOM    101  C   UNL     1       7.241  11.715  -1.166  1.00  0.00     0.468 C 
ENDBRANCH  92  93
ENDBRANCH  90  92
ENDBRANCH  79  83
ENDBRANCH  74  77
ENDBRANCH  72  73
ENDBRANCH   1  72
TORSDOF 16
