REMARK SMILES Cc1ccc(NC(=O)[C@H]2CC=CC[C@H]2C(=O)NCCCNC(=O)c2ccc(-c3c4nc(c(-c5cccc(S(=O)(=O)[O-])c5F)c5ccc([nH]5)c(-c5cccc(S(=O)(=O)[O-])c5F)c5nc(c(-c6cccc(S(=O)(=O)[O-])c6F)c6ccc3[nH]6)C=C5)C=C4)cc2)cc1F
REMARK SMILES IDX 19 1 18 2 17 3 15 4 16 5 14 7 9 8 10 9 11 10 13 11 12 12
REMARK SMILES IDX 7 13 6 14 8 16 5 17 1 18 2 19 3 20 88 21 4 22 87 23 89 24
REMARK SMILES IDX 20 25 21 26 22 27 23 29 24 30 25 31 86 32 26 33 85 34 27 35
REMARK SMILES IDX 28 36 29 37 79 38 30 39 84 40 78 41 80 42 31 43 83 44 77 45
REMARK SMILES IDX 76 46 32 48 64 49 44 50 63 51 45 52 48 53 62 54 81 55 46 56
REMARK SMILES IDX 47 57 61 59 82 60 49 61 33 62 34 63 42 64 35 65 37 66 43 67
REMARK SMILES IDX 36 68 38 69 39 70 40 71 41 72 65 73 66 74 74 75 67 76 69 77
REMARK SMILES IDX 75 78 68 79 70 80 71 81 72 82 73 83 50 84 51 85 59 86 52 87
REMARK SMILES IDX 54 88 60 89 53 90 55 91 56 92 57 93 58 94
REMARK H PARENT 17 6 6 15 21 28 80 47 48 58
REMARK Flexibility Score: inf
ROOT
ATOM      1  C   UNL     1      -4.921  -3.394  -0.878  1.00  0.00     0.042 C 
ENDROOT
BRANCH   1   2
ATOM      2  C   UNL     1      -3.865  -3.718  -1.924  1.00  0.00     0.117 C 
BRANCH   2   3
ATOM      3  N   UNL     1      -2.883  -2.662  -2.120  1.00  0.00    -0.356 N 
ATOM      4  C   UNL     1      -1.531  -2.667  -2.000  1.00  0.00     0.224 C 
ATOM      5  O   UNL     1      -0.915  -1.679  -2.407  1.00  0.00    -0.275 OA
ATOM      6  H   UNL     1      -3.265  -1.794  -2.384  1.00  0.00     0.163 HD
BRANCH   4   7
ATOM      7  C   UNL     1      -0.769  -3.859  -1.438  1.00  0.00     0.095 C 
ATOM      8  C   UNL     1      -0.876  -4.110   0.094  1.00  0.00     0.095 C 
ATOM      9  C   UNL     1      -0.894  -5.600   0.526  1.00  0.00     0.041 C 
ATOM     10  C   UNL     1      -1.175  -6.626  -0.517  1.00  0.00    -0.030 C 
ATOM     11  C   UNL     1      -0.935  -5.039  -2.420  1.00  0.00     0.041 C 
ATOM     12  C   UNL     1      -1.188  -6.380  -1.827  1.00  0.00    -0.030 C 
BRANCH   8  13
ATOM     13  C   UNL     1      -1.925  -3.309   0.882  1.00  0.00     0.228 C 
ATOM     14  N   UNL     1      -1.964  -1.948   0.941  1.00  0.00    -0.326 N 
ATOM     15  H   UNL     1      -2.834  -1.605   1.250  1.00  0.00     0.169 HD
ATOM     16  O   UNL     1      -2.822  -3.895   1.503  1.00  0.00    -0.274 OA
BRANCH  14  17
ATOM     17  C   UNL     1      -1.047  -0.922   0.660  1.00  0.00     0.044 A 
ATOM     18  C   UNL     1       1.576   2.416  -0.147  1.00  0.00     0.047 C 
ATOM     19  C   UNL     1       0.647   1.278   0.139  1.00  0.00    -0.015 A 
ATOM     20  C   UNL     1      -0.735   1.460   0.219  1.00  0.00     0.008 A 
ATOM     21  C   UNL     1       1.158  -0.003   0.336  1.00  0.00     0.128 A 
ATOM     22  C   UNL     1      -1.572   0.370   0.491  1.00  0.00     0.026 A 
ATOM     23  C   UNL     1       0.330  -1.092   0.602  1.00  0.00     0.065 A 
ATOM     24  F   UNL     1       2.484  -0.205   0.297  1.00  0.00    -0.207 F 
ENDBRANCH  14  17
ENDBRANCH   8  13
ENDBRANCH   4   7
ENDBRANCH   2   3
ENDBRANCH   1   2
BRANCH   1  25
ATOM     25  C   UNL     1      -5.666  -2.112  -1.152  1.00  0.00     0.118 C 
BRANCH  25  26
ATOM     26  N   UNL     1      -6.687  -2.305  -2.164  1.00  0.00    -0.352 N 
ATOM     27  C   UNL     1      -7.959  -1.777  -2.139  1.00  0.00     0.251 C 
ATOM     28  H   UNL     1      -6.450  -2.865  -2.938  1.00  0.00     0.163 HD
ATOM     29  O   UNL     1      -8.887  -2.381  -2.660  1.00  0.00    -0.269 OA
BRANCH  27  30
ATOM     30  C   UNL     1      -8.166  -0.483  -1.454  1.00  0.00     0.039 A 
ATOM     31  C   UNL     1      -9.420  -0.140  -0.930  1.00  0.00     0.014 A 
ATOM     32  C   UNL     1      -7.099   0.413  -1.385  1.00  0.00     0.014 A 
ATOM     33  C   UNL     1      -9.597   1.105  -0.328  1.00  0.00     0.010 A 
ATOM     34  C   UNL     1      -7.233   1.577  -0.687  1.00  0.00     0.010 A 
ATOM     35  C   UNL     1      -8.496   1.952  -0.224  1.00  0.00    -0.014 A 
BRANCH  35  36
ATOM     36  C   UNL     1      -8.517   3.320   0.253  1.00  0.00     0.031 A 
ATOM     37  C   UNL     1      -8.496   3.636   1.682  1.00  0.00     0.074 A 
ATOM     38  C   UNL     1      -8.217   4.241  -0.687  1.00  0.00     0.049 A 
ATOM     39  N   UNL     1      -8.738   4.808   2.151  1.00  0.00    -0.248 NA
ATOM     40  C   UNL     1      -8.217   2.648   2.719  1.00  0.00     0.031 C 
ATOM     41  C   UNL     1      -7.630   5.561  -0.529  1.00  0.00     0.029 A 
ATOM     42  N   UNL     1      -8.490   4.151  -2.047  1.00  0.00    -0.354 N 
ATOM     43  C   UNL     1      -8.295   4.823   3.452  1.00  0.00     0.074 A 
ATOM     44  C   UNL     1      -8.126   3.429   3.804  1.00  0.00     0.031 C 
ATOM     45  C   UNL     1      -7.792   6.242  -1.679  1.00  0.00     0.029 A 
ATOM     46  C   UNL     1      -8.674   5.453  -2.529  1.00  0.00     0.049 A 
ATOM     47  H   UNL     1      -8.544   3.322  -2.576  1.00  0.00     0.167 HD
ATOM     48  C   UNL     1      -7.957   6.018   4.019  1.00  0.00     0.034 A 
ATOM     49  C   UNL     1      -9.934   5.826  -2.919  1.00  0.00     0.034 A 
ATOM     50  C   UNL     1      -8.113   7.112   3.061  1.00  0.00     0.049 A 
ATOM     51  C   UNL     1     -10.549   6.889  -2.030  1.00  0.00     0.074 A 
ATOM     52  C   UNL     1      -7.221   7.853   2.301  1.00  0.00     0.029 A 
ATOM     53  N   UNL     1      -9.364   7.378   2.537  1.00  0.00    -0.354 N 
ATOM     54  N   UNL     1     -10.031   7.287  -0.901  1.00  0.00    -0.248 NA
ATOM     55  C   UNL     1     -11.837   7.522  -2.293  1.00  0.00     0.031 C 
ATOM     56  C   UNL     1      -7.961   8.594   1.338  1.00  0.00     0.029 A 
ATOM     57  C   UNL     1      -9.301   8.310   1.522  1.00  0.00     0.049 A 
ATOM     58  H   UNL     1     -10.196   6.955   2.850  1.00  0.00     0.167 HD
ATOM     59  C   UNL     1     -10.859   8.191  -0.294  1.00  0.00     0.074 A 
ATOM     60  C   UNL     1     -11.995   8.283  -1.194  1.00  0.00     0.031 C 
ATOM     61  C   UNL     1     -10.547   8.750   0.913  1.00  0.00     0.034 A 
BRANCH  48  62
ATOM     62  C   UNL     1      -7.255   6.183   5.352  1.00  0.00     0.023 A 
ATOM     63  C   UNL     1      -7.284   5.197   6.361  1.00  0.00     0.012 A 
ATOM     64  C   UNL     1      -6.530   7.358   5.660  1.00  0.00     0.148 A 
ATOM     65  C   UNL     1      -6.545   5.313   7.549  1.00  0.00     0.002 A 
ATOM     66  C   UNL     1      -5.816   7.484   6.853  1.00  0.00     0.091 A 
ATOM     67  F   UNL     1      -6.521   8.391   4.810  1.00  0.00    -0.205 F 
ATOM     68  C   UNL     1      -5.799   6.455   7.792  1.00  0.00     0.022 A 
BRANCH  66  69
ATOM     69  S   UNL     1      -4.906   9.000   7.164  1.00  0.00     0.127 S 
ATOM     70  O   UNL     1      -3.934   9.024   6.076  1.00  0.00    -0.237 OA
ATOM     71  O   UNL     1      -5.949  10.020   7.142  1.00  0.00    -0.237 OA
ATOM     72  O   UNL     1      -4.320   8.772   8.486  1.00  0.00    -0.744 OA
ENDBRANCH  66  69
ENDBRANCH  48  62
BRANCH  49  73
ATOM     73  C   UNL     1     -10.687   4.674  -3.525  1.00  0.00     0.023 A 
ATOM     74  C   UNL     1     -11.515   3.881  -2.706  1.00  0.00     0.012 A 
ATOM     75  C   UNL     1     -10.169   4.108  -4.712  1.00  0.00     0.148 A 
ATOM     76  C   UNL     1     -11.711   2.524  -3.001  1.00  0.00     0.002 A 
ATOM     77  C   UNL     1     -10.326   2.747  -4.968  1.00  0.00     0.091 A 
ATOM     78  F   UNL     1      -9.407   4.875  -5.510  1.00  0.00    -0.205 F 
ATOM     79  C   UNL     1     -11.082   1.946  -4.105  1.00  0.00     0.022 A 
BRANCH  77  80
ATOM     80  S   UNL     1      -9.347   1.984  -6.272  1.00  0.00     0.127 S 
ATOM     81  O   UNL     1     -10.020   2.440  -7.484  1.00  0.00    -0.237 OA
ATOM     82  O   UNL     1      -8.003   2.505  -6.036  1.00  0.00    -0.237 OA
ATOM     83  O   UNL     1      -9.478   0.552  -6.006  1.00  0.00    -0.744 OA
ENDBRANCH  77  80
ENDBRANCH  49  73
BRANCH  61  84
ATOM     84  C   UNL     1     -11.426   9.692   1.699  1.00  0.00     0.023 A 
ATOM     85  C   UNL     1     -11.335   9.697   3.116  1.00  0.00     0.012 A 
ATOM     86  C   UNL     1     -12.310  10.613   1.129  1.00  0.00     0.148 A 
ATOM     87  C   UNL     1     -12.150  10.488   3.924  1.00  0.00     0.002 A 
ATOM     88  C   UNL     1     -13.169  11.360   1.937  1.00  0.00     0.091 A 
ATOM     89  F   UNL     1     -12.299  10.819  -0.196  1.00  0.00    -0.205 F 
ATOM     90  C   UNL     1     -13.099  11.300   3.332  1.00  0.00     0.022 A 
BRANCH  88  91
ATOM     91  S   UNL     1     -14.456  12.326   1.152  1.00  0.00     0.127 S 
ATOM     92  O   UNL     1     -13.711  13.322   0.390  1.00  0.00    -0.237 OA
ATOM     93  O   UNL     1     -15.178  11.321   0.377  1.00  0.00    -0.237 OA
ATOM     94  O   UNL     1     -15.212  12.868   2.281  1.00  0.00    -0.744 OA
ENDBRANCH  88  91
ENDBRANCH  61  84
ENDBRANCH  35  36
ENDBRANCH  27  30
ENDBRANCH  25  26
ENDBRANCH   1  25
TORSDOF 15
