REMARK SMILES CC(C)(O)C[C@]1(C(=O)NCCCNC(=O)c2ccc(-c3c4nc(c(-c5cccc(S(=O)(=O)[O-])c5F)c5ccc([nH]5)c(-c5cccc(S(=O)(=O)[O-])c5F)c5nc(c(-c6cccc(S(=O)(=O)[O-])c6F)c6ccc3[nH]6)C=C5)C=C4)cc2)CCc2ccccc2C1
REMARK SMILES IDX 11 1 10 2 9 3 7 4 8 5 6 7 79 8 87 9 80 10 86 11 81 12 85 13
REMARK SMILES IDX 82 14 84 15 83 16 5 17 2 18 1 19 3 20 4 21 12 23 13 24 14 25
REMARK SMILES IDX 15 27 16 28 17 29 78 30 18 31 77 32 19 33 20 34 21 35 71 36
REMARK SMILES IDX 22 37 76 38 70 39 72 40 23 41 75 42 69 43 68 44 24 46 56 47
REMARK SMILES IDX 36 48 55 49 37 50 40 51 54 52 73 53 38 54 39 55 53 57 74 58
REMARK SMILES IDX 41 59 25 60 26 61 34 62 27 63 29 64 35 65 28 66 30 67 31 68
REMARK SMILES IDX 32 69 33 70 57 71 58 72 66 73 59 74 61 75 67 76 60 77 62 78
REMARK SMILES IDX 63 79 64 80 65 81 42 82 43 83 51 84 44 85 46 86 52 87 45 88
REMARK SMILES IDX 47 89 48 90 49 91 50 92
REMARK H PARENT 9 6 4 22 13 26 72 45 40 56
REMARK Flexibility Score: inf
ROOT
ATOM      1  C   UNL     1       1.069   1.238  -6.264  1.00  0.00     0.042 C 
ENDROOT
BRANCH   1   2
ATOM      2  C   UNL     1       0.537  -0.152  -5.967  1.00  0.00     0.117 C 
BRANCH   2   3
ATOM      3  N   UNL     1       1.425  -0.885  -5.100  1.00  0.00    -0.356 N 
ATOM      4  C   UNL     1       1.448  -1.210  -3.794  1.00  0.00     0.226 C 
ATOM      5  O   UNL     1       2.396  -1.973  -3.544  1.00  0.00    -0.274 OA
ATOM      6  H   UNL     1       2.208  -1.234  -5.583  1.00  0.00     0.163 HD
BRANCH   4   7
ATOM      7  C   UNL     1       0.452  -0.762  -2.657  1.00  0.00     0.056 C 
ATOM      8  C   UNL     1       0.562   0.713  -2.248  1.00  0.00     0.022 C 
ATOM      9  C   UNL     1      -1.016  -1.117  -3.012  1.00  0.00     0.052 C 
ATOM     10  C   UNL     1      -0.126   1.760  -3.101  1.00  0.00     0.037 C 
ATOM     11  C   UNL     1      -1.835  -0.030  -3.685  1.00  0.00    -0.044 A 
ATOM     12  C   UNL     1      -1.421   1.313  -3.711  1.00  0.00    -0.045 A 
ATOM     13  C   UNL     1      -2.998  -0.393  -4.389  1.00  0.00     0.004 A 
ATOM     14  C   UNL     1      -2.158   2.256  -4.449  1.00  0.00     0.004 A 
ATOM     15  C   UNL     1      -3.702   0.547  -5.146  1.00  0.00     0.000 A 
ATOM     16  C   UNL     1      -3.281   1.872  -5.177  1.00  0.00     0.000 A 
BRANCH   7  17
ATOM     17  C   UNL     1       0.935  -1.655  -1.417  1.00  0.00     0.052 C 
BRANCH  17  18
ATOM     18  C   UNL     1       0.550  -1.385   0.061  1.00  0.00     0.060 C 
ATOM     19  C   UNL     1       1.302  -0.205   0.705  1.00  0.00     0.042 C 
ATOM     20  C   UNL     1       0.913  -2.641   0.877  1.00  0.00     0.042 C 
BRANCH  18  21
ATOM     21  O   UNL     1      -0.852  -1.185   0.171  1.00  0.00    -0.390 OA
ATOM     22  H   UNL     1      -1.083  -1.017   1.098  1.00  0.00     0.211 HD
ENDBRANCH  18  21
ENDBRANCH  17  18
ENDBRANCH   7  17
ENDBRANCH   4   7
ENDBRANCH   2   3
ENDBRANCH   1   2
BRANCH   1  23
ATOM     23  C   UNL     1       1.794   1.302  -7.592  1.00  0.00     0.118 C 
BRANCH  23  24
ATOM     24  N   UNL     1       0.882   1.122  -8.716  1.00  0.00    -0.352 N 
ATOM     25  C   UNL     1       0.516   1.994  -9.711  1.00  0.00     0.251 C 
ATOM     26  H   UNL     1       0.461   0.233  -8.770  1.00  0.00     0.163 HD
ATOM     27  O   UNL     1      -0.439   1.723 -10.431  1.00  0.00    -0.269 OA
BRANCH  25  28
ATOM     28  C   UNL     1       1.260   3.258  -9.903  1.00  0.00     0.039 A 
ATOM     29  C   UNL     1       0.564   4.406 -10.286  1.00  0.00     0.014 A 
ATOM     30  C   UNL     1       2.642   3.311  -9.716  1.00  0.00     0.014 A 
ATOM     31  C   UNL     1       1.249   5.614 -10.426  1.00  0.00     0.010 A 
ATOM     32  C   UNL     1       3.296   4.534  -9.724  1.00  0.00     0.010 A 
ATOM     33  C   UNL     1       2.615   5.695 -10.111  1.00  0.00    -0.014 A 
BRANCH  33  34
ATOM     34  C   UNL     1       3.369   6.969 -10.218  1.00  0.00     0.031 A 
ATOM     35  C   UNL     1       4.565   7.053 -11.132  1.00  0.00     0.074 A 
ATOM     36  C   UNL     1       3.028   8.015  -9.441  1.00  0.00     0.049 A 
ATOM     37  N   UNL     1       5.403   8.042 -11.303  1.00  0.00    -0.248 NA
ATOM     38  C   UNL     1       4.886   5.857 -11.932  1.00  0.00     0.031 C 
ATOM     39  C   UNL     1       1.938   8.027  -8.461  1.00  0.00     0.029 A 
ATOM     40  N   UNL     1       3.579   9.267  -9.335  1.00  0.00    -0.354 N 
ATOM     41  C   UNL     1       6.363   7.575 -12.194  1.00  0.00     0.074 A 
ATOM     42  C   UNL     1       6.039   6.199 -12.488  1.00  0.00     0.031 C 
ATOM     43  C   UNL     1       1.890   9.231  -7.868  1.00  0.00     0.029 A 
ATOM     44  C   UNL     1       2.967  10.062  -8.393  1.00  0.00     0.049 A 
ATOM     45  H   UNL     1       4.341   9.568  -9.881  1.00  0.00     0.167 HD
ATOM     46  C   UNL     1       7.400   8.243 -12.752  1.00  0.00     0.034 A 
ATOM     47  C   UNL     1       3.252  11.317  -7.994  1.00  0.00     0.034 A 
ATOM     48  C   UNL     1       7.685   9.627 -12.497  1.00  0.00     0.049 A 
ATOM     49  C   UNL     1       4.392  12.045  -8.653  1.00  0.00     0.074 A 
ATOM     50  C   UNL     1       8.664  10.422 -13.066  1.00  0.00     0.029 A 
ATOM     51  N   UNL     1       6.992  10.423 -11.600  1.00  0.00    -0.354 N 
ATOM     52  N   UNL     1       5.202  11.630  -9.598  1.00  0.00    -0.248 NA
ATOM     53  C   UNL     1       4.637  13.427  -8.218  1.00  0.00     0.031 C 
ATOM     54  C   UNL     1       8.577  11.694 -12.493  1.00  0.00     0.029 A 
ATOM     55  C   UNL     1       7.522  11.700 -11.594  1.00  0.00     0.049 A 
ATOM     56  H   UNL     1       6.233  10.124 -11.047  1.00  0.00     0.167 HD
ATOM     57  C   UNL     1       6.020  12.712  -9.900  1.00  0.00     0.074 A 
ATOM     58  C   UNL     1       5.594  13.806  -9.053  1.00  0.00     0.031 C 
ATOM     59  C   UNL     1       7.042  12.791 -10.787  1.00  0.00     0.034 A 
BRANCH  46  60
ATOM     60  C   UNL     1       8.263   7.503 -13.741  1.00  0.00     0.023 A 
ATOM     61  C   UNL     1       7.737   7.160 -15.004  1.00  0.00     0.012 A 
ATOM     62  C   UNL     1       9.609   7.206 -13.450  1.00  0.00     0.148 A 
ATOM     63  C   UNL     1       8.524   6.503 -15.948  1.00  0.00     0.002 A 
ATOM     64  C   UNL     1      10.402   6.596 -14.415  1.00  0.00     0.091 A 
ATOM     65  F   UNL     1      10.086   7.523 -12.238  1.00  0.00    -0.205 F 
ATOM     66  C   UNL     1       9.858   6.232 -15.659  1.00  0.00     0.022 A 
BRANCH  64  67
ATOM     67  S   UNL     1      12.153   6.277 -14.176  1.00  0.00     0.127 S 
ATOM     68  O   UNL     1      12.187   4.814 -14.164  1.00  0.00    -0.237 OA
ATOM     69  O   UNL     1      12.740   6.891 -15.366  1.00  0.00    -0.237 OA
ATOM     70  O   UNL     1      12.512   6.915 -12.918  1.00  0.00    -0.744 OA
ENDBRANCH  64  67
ENDBRANCH  46  60
BRANCH  47  71
ATOM     71  C   UNL     1       2.414  11.989  -6.960  1.00  0.00     0.023 A 
ATOM     72  C   UNL     1       1.610  13.087  -7.326  1.00  0.00     0.012 A 
ATOM     73  C   UNL     1       2.410  11.555  -5.620  1.00  0.00     0.148 A 
ATOM     74  C   UNL     1       0.857  13.770  -6.371  1.00  0.00     0.002 A 
ATOM     75  C   UNL     1       1.612  12.204  -4.684  1.00  0.00     0.091 A 
ATOM     76  F   UNL     1       3.186  10.515  -5.287  1.00  0.00    -0.205 F 
ATOM     77  C   UNL     1       0.852  13.325  -5.052  1.00  0.00     0.022 A 
BRANCH  75  78
ATOM     78  S   UNL     1       1.445  11.619  -2.994  1.00  0.00     0.127 S 
ATOM     79  O   UNL     1       2.184  12.636  -2.251  1.00  0.00    -0.237 OA
ATOM     80  O   UNL     1      -0.005  11.648  -2.806  1.00  0.00    -0.237 OA
ATOM     81  O   UNL     1       2.022  10.281  -2.984  1.00  0.00    -0.744 OA
ENDBRANCH  75  78
ENDBRANCH  47  71
BRANCH  59  82
ATOM     82  C   UNL     1       7.737  14.119 -10.933  1.00  0.00     0.023 A 
ATOM     83  C   UNL     1       8.580  14.591  -9.908  1.00  0.00     0.012 A 
ATOM     84  C   UNL     1       7.611  14.860 -12.124  1.00  0.00     0.148 A 
ATOM     85  C   UNL     1       9.257  15.801 -10.051  1.00  0.00     0.002 A 
ATOM     86  C   UNL     1       8.332  16.037 -12.282  1.00  0.00     0.091 A 
ATOM     87  F   UNL     1       6.792  14.400 -13.081  1.00  0.00    -0.205 F 
ATOM     88  C   UNL     1       9.143  16.517 -11.241  1.00  0.00     0.022 A 
BRANCH  86  89
ATOM     89  S   UNL     1       8.328  16.971 -13.816  1.00  0.00     0.127 S 
ATOM     90  O   UNL     1       7.578  18.166 -13.434  1.00  0.00    -0.237 OA
ATOM     91  O   UNL     1       9.756  17.192 -14.045  1.00  0.00    -0.237 OA
ATOM     92  O   UNL     1       7.681  16.119 -14.805  1.00  0.00    -0.744 OA
ENDBRANCH  86  89
ENDBRANCH  59  82
ENDBRANCH  33  34
ENDBRANCH  25  28
ENDBRANCH  23  24
ENDBRANCH   1  23
TORSDOF 16
