REMARK SMILES Cc1ccc(NC(=O)C[C@H]([NH2+]Cc2cccnc2)C(=O)NCCCNC(=O)c2ccc(-c3c4nc(c(-c5cccc(S(=O)(=O)[O-])c5F)c5ccc([nH]5)c(-c5cccc(S(=O)(=O)[O-])c5F)c5nc(c(-c6cccc(S(=O)(=O)[O-])c6F)c6ccc3[nH]6)C=C5)C=C4)cc2)cc1Cl
REMARK SMILES IDX 23 1 22 2 21 3 19 4 20 5 10 7 9 8 7 9 6 10 8 12 5 13 1 14
REMARK SMILES IDX 2 15 3 16 92 17 4 18 91 19 93 20 11 21 12 24 13 25 14 26
REMARK SMILES IDX 18 27 15 28 17 29 16 30 24 31 25 32 26 33 27 35 28 36 29 37
REMARK SMILES IDX 90 38 30 39 89 40 31 41 32 42 33 43 83 44 34 45 88 46 82 47
REMARK SMILES IDX 84 48 35 49 87 50 81 51 80 52 36 54 68 55 48 56 67 57 49 58
REMARK SMILES IDX 52 59 66 60 85 61 50 62 51 63 65 65 86 66 53 67 37 68 38 69
REMARK SMILES IDX 46 70 39 71 41 72 47 73 40 74 42 75 43 76 44 77 45 78 69 79
REMARK SMILES IDX 70 80 78 81 71 82 73 83 79 84 72 85 74 86 75 87 76 88 77 89
REMARK SMILES IDX 54 90 55 91 63 92 56 93 58 94 64 95 57 96 59 97 60 98 61 99
REMARK SMILES IDX 62 100
REMARK H PARENT 21 6 6 11 11 22 11 23 25 34 84 53 52 64
REMARK Flexibility Score: inf
ROOT
ATOM      1  C   UNL     1       2.814  -2.583   1.440  1.00  0.00     0.042 C 
ENDROOT
BRANCH   1   2
ATOM      2  C   UNL     1       2.581  -1.973   0.056  1.00  0.00     0.118 C 
BRANCH   2   3
ATOM      3  N   UNL     1       2.181  -2.973  -0.945  1.00  0.00    -0.351 N 
ATOM      4  C   UNL     1       1.035  -3.367  -1.569  1.00  0.00     0.278 C 
ATOM      5  O   UNL     1       1.178  -4.320  -2.355  1.00  0.00    -0.268 OA
ATOM      6  H   UNL     1       2.953  -3.504  -1.247  1.00  0.00     0.163 HD
BRANCH   4   7
ATOM      7  C   UNL     1      -0.419  -2.807  -1.357  1.00  0.00     0.282 C 
BRANCH   7   8
ATOM      8  C   UNL     1      -0.525  -1.397  -0.822  1.00  0.00     0.175 C 
BRANCH   8   9
ATOM      9  C   UNL     1      -0.684  -0.892   0.609  1.00  0.00     0.230 C 
ATOM     10  N   UNL     1      -0.610  -1.486   1.817  1.00  0.00    -0.326 N 
ATOM     11  H   UNL     1      -0.788  -0.826   2.526  1.00  0.00     0.169 HD
ATOM     12  O   UNL     1      -0.918   0.333   0.688  1.00  0.00    -0.274 OA
BRANCH  10  13
ATOM     13  C   UNL     1      -0.361  -2.747   2.391  1.00  0.00     0.042 A 
ATOM     14  C   UNL     1       0.260  -6.587   4.338  1.00  0.00     0.046 C 
ATOM     15  C   UNL     1       0.079  -5.257   3.674  1.00  0.00    -0.032 A 
ATOM     16  C   UNL     1      -0.283  -4.120   4.408  1.00  0.00     0.007 A 
ATOM     17  C   UNL     1       0.243  -5.114   2.305  1.00  0.00     0.046 A 
ATOM     18  C   UNL     1      -0.505  -2.883   3.773  1.00  0.00     0.026 A 
ATOM     19  C   UNL     1       0.061  -3.867   1.709  1.00  0.00     0.047 A 
ATOM     20  Cl  UNL     1       0.699  -6.429   1.276  1.00  0.00    -0.084 Cl
ENDBRANCH  10  13
ENDBRANCH   8   9
ENDBRANCH   7   8
BRANCH   7  21
ATOM     21  N   UNL     1      -1.286  -3.852  -0.787  1.00  0.00    -0.332 N 
ATOM     22  H   UNL     1      -0.879  -4.112   0.112  1.00  0.00     0.347 HD
ATOM     23  H   UNL     1      -1.306  -4.561  -1.520  1.00  0.00     0.347 HD
BRANCH  21  24
ATOM     24  C   UNL     1      -2.695  -3.587  -0.546  1.00  0.00     0.299 C 
BRANCH  24  25
ATOM     25  C   UNL     1      -3.148  -4.222   0.750  1.00  0.00     0.024 A 
ATOM     26  C   UNL     1      -3.088  -5.602   0.975  1.00  0.00     0.013 A 
ATOM     27  C   UNL     1      -3.587  -3.437   1.816  1.00  0.00     0.120 A 
ATOM     28  C   UNL     1      -3.415  -6.121   2.228  1.00  0.00     0.021 A 
ATOM     29  N   UNL     1      -3.934  -3.912   3.036  1.00  0.00    -0.264 NA
ATOM     30  C   UNL     1      -3.817  -5.243   3.222  1.00  0.00     0.111 A 
ENDBRANCH  24  25
ENDBRANCH  21  24
ENDBRANCH   7  21
ENDBRANCH   4   7
ENDBRANCH   2   3
ENDBRANCH   1   2
BRANCH   1  31
ATOM     31  C   UNL     1       4.228  -2.572   1.995  1.00  0.00     0.118 C 
BRANCH  31  32
ATOM     32  N   UNL     1       4.635  -1.270   2.488  1.00  0.00    -0.352 N 
ATOM     33  C   UNL     1       4.984  -0.831   3.745  1.00  0.00     0.251 C 
ATOM     34  H   UNL     1       4.668  -0.571   1.796  1.00  0.00     0.163 HD
ATOM     35  O   UNL     1       5.133   0.383   3.896  1.00  0.00    -0.269 OA
BRANCH  33  36
ATOM     36  C   UNL     1       5.182  -1.736   4.915  1.00  0.00     0.039 A 
ATOM     37  C   UNL     1       5.012  -1.195   6.199  1.00  0.00     0.014 A 
ATOM     38  C   UNL     1       5.608  -3.061   4.809  1.00  0.00     0.014 A 
ATOM     39  C   UNL     1       5.248  -1.972   7.342  1.00  0.00     0.010 A 
ATOM     40  C   UNL     1       5.731  -3.868   5.946  1.00  0.00     0.010 A 
ATOM     41  C   UNL     1       5.592  -3.328   7.230  1.00  0.00    -0.014 A 
BRANCH  41  42
ATOM     42  C   UNL     1       5.842  -4.163   8.441  1.00  0.00     0.031 A 
ATOM     43  C   UNL     1       7.182  -4.827   8.662  1.00  0.00     0.074 A 
ATOM     44  C   UNL     1       4.851  -4.362   9.335  1.00  0.00     0.049 A 
ATOM     45  N   UNL     1       7.583  -5.566   9.667  1.00  0.00    -0.248 NA
ATOM     46  C   UNL     1       8.196  -4.666   7.607  1.00  0.00     0.031 C 
ATOM     47  C   UNL     1       3.481  -3.860   9.203  1.00  0.00     0.029 A 
ATOM     48  N   UNL     1       4.837  -5.048  10.525  1.00  0.00    -0.354 N 
ATOM     49  C   UNL     1       8.871  -5.985   9.348  1.00  0.00     0.074 A 
ATOM     50  C   UNL     1       9.169  -5.456   8.036  1.00  0.00     0.031 C 
ATOM     51  C   UNL     1       2.770  -4.231  10.279  1.00  0.00     0.029 A 
ATOM     52  C   UNL     1       3.620  -5.019  11.166  1.00  0.00     0.049 A 
ATOM     53  H   UNL     1       5.625  -5.515  10.886  1.00  0.00     0.167 HD
ATOM     54  C   UNL     1       9.744  -6.712  10.088  1.00  0.00     0.034 A 
ATOM     55  C   UNL     1       3.230  -5.560  12.338  1.00  0.00     0.034 A 
ATOM     56  C   UNL     1       9.467  -7.198  11.413  1.00  0.00     0.049 A 
ATOM     57  C   UNL     1       4.238  -6.302  13.173  1.00  0.00     0.074 A 
ATOM     58  C   UNL     1      10.313  -7.867  12.280  1.00  0.00     0.029 A 
ATOM     59  N   UNL     1       8.250  -7.070  12.064  1.00  0.00    -0.354 N 
ATOM     60  N   UNL     1       5.501  -6.548  12.920  1.00  0.00    -0.248 NA
ATOM     61  C   UNL     1       3.780  -6.800  14.478  1.00  0.00     0.031 C 
ATOM     62  C   UNL     1       9.599  -8.166  13.446  1.00  0.00     0.029 A 
ATOM     63  C   UNL     1       8.320  -7.651  13.319  1.00  0.00     0.049 A 
ATOM     64  H   UNL     1       7.453  -6.630  11.690  1.00  0.00     0.167 HD
ATOM     65  C   UNL     1       5.997  -7.194  14.046  1.00  0.00     0.074 A 
ATOM     66  C   UNL     1       4.904  -7.276  14.994  1.00  0.00     0.031 C 
ATOM     67  C   UNL     1       7.240  -7.687  14.272  1.00  0.00     0.034 A 
BRANCH  54  68
ATOM     68  C   UNL     1      11.109  -6.982   9.501  1.00  0.00     0.023 A 
ATOM     69  C   UNL     1      12.028  -5.921   9.354  1.00  0.00     0.012 A 
ATOM     70  C   UNL     1      11.506  -8.288   9.150  1.00  0.00     0.148 A 
ATOM     71  C   UNL     1      13.300  -6.147   8.829  1.00  0.00     0.002 A 
ATOM     72  C   UNL     1      12.794  -8.513   8.675  1.00  0.00     0.091 A 
ATOM     73  F   UNL     1      10.617  -9.283   9.280  1.00  0.00    -0.205 F 
ATOM     74  C   UNL     1      13.686  -7.443   8.501  1.00  0.00     0.022 A 
BRANCH  72  75
ATOM     75  S   UNL     1      13.418 -10.156   8.302  1.00  0.00     0.127 S 
ATOM     76  O   UNL     1      13.526 -10.106   6.844  1.00  0.00    -0.237 OA
ATOM     77  O   UNL     1      14.701 -10.164   9.007  1.00  0.00    -0.237 OA
ATOM     78  O   UNL     1      12.432 -11.090   8.823  1.00  0.00    -0.744 OA
ENDBRANCH  72  75
ENDBRANCH  54  68
BRANCH  55  79
ATOM     79  C   UNL     1       1.838  -5.350  12.829  1.00  0.00     0.023 A 
ATOM     80  C   UNL     1       1.611  -4.523  13.947  1.00  0.00     0.012 A 
ATOM     81  C   UNL     1       0.738  -5.944  12.181  1.00  0.00     0.148 A 
ATOM     82  C   UNL     1       0.319  -4.321  14.433  1.00  0.00     0.002 A 
ATOM     83  C   UNL     1      -0.552  -5.690  12.634  1.00  0.00     0.091 A 
ATOM     84  F   UNL     1       0.974  -6.736  11.127  1.00  0.00    -0.205 F 
ATOM     85  C   UNL     1      -0.762  -4.895  13.771  1.00  0.00     0.022 A 
BRANCH  83  86
ATOM     86  S   UNL     1      -2.006  -6.274  11.757  1.00  0.00     0.127 S 
ATOM     87  O   UNL     1      -2.508  -7.305  12.664  1.00  0.00    -0.237 OA
ATOM     88  O   UNL     1      -2.825  -5.061  11.691  1.00  0.00    -0.237 OA
ATOM     89  O   UNL     1      -1.527  -6.743  10.467  1.00  0.00    -0.744 OA
ENDBRANCH  83  86
ENDBRANCH  55  79
BRANCH  67  90
ATOM     90  C   UNL     1       7.502  -8.323  15.613  1.00  0.00     0.023 A 
ATOM     91  C   UNL     1       6.907  -9.559  15.938  1.00  0.00     0.012 A 
ATOM     92  C   UNL     1       8.371  -7.712  16.538  1.00  0.00     0.148 A 
ATOM     93  C   UNL     1       7.132 -10.150  17.180  1.00  0.00     0.002 A 
ATOM     94  C   UNL     1       8.634  -8.334  17.753  1.00  0.00     0.091 A 
ATOM     95  F   UNL     1       8.915  -6.527  16.222  1.00  0.00    -0.205 F 
ATOM     96  C   UNL     1       8.002  -9.543  18.083  1.00  0.00     0.022 A 
BRANCH  94  97
ATOM     97  S   UNL     1       9.818  -7.672  18.930  1.00  0.00     0.127 S 
ATOM     98  O   UNL     1       8.940  -7.095  19.945  1.00  0.00    -0.237 OA
ATOM     99  O   UNL     1      10.537  -8.873  19.358  1.00  0.00    -0.237 OA
ATOM    100  O   UNL     1      10.630  -6.720  18.184  1.00  0.00    -0.744 OA
ENDBRANCH  94  97
ENDBRANCH  67  90
ENDBRANCH  41  42
ENDBRANCH  33  36
ENDBRANCH  31  32
ENDBRANCH   1  31
TORSDOF 19
