REMARK SMILES O=C(NCCCNC(=O)[C@H](NC(=O)[C@H]1CC[C@@H](CNC(=O)[C@@H]2Cc3ccccc3C[NH2+]2)CC1)c1ccccc1)c1ccc(-c2c3nc(c(-c4cccc(S(=O)(=O)[O-])c4F)c4ccc([nH]4)c(-c4cccc(S(=O)(=O)[O-])c4F)c4nc(c(-c5cccc(S(=O)(=O)[O-])c5F)c5ccc2[nH]5)C=C4)C=C3)cc1
REMARK SMILES IDX 6 1 5 2 4 3 3 4 1 5 2 6 40 8 41 9 102 10 42 11 101 12 43 13
REMARK SMILES IDX 44 14 45 15 95 16 46 17 100 18 94 19 96 20 47 21 99 22 93 23
REMARK SMILES IDX 92 24 48 26 80 27 60 28 79 29 61 30 64 31 78 32 97 33 62 34
REMARK SMILES IDX 63 35 77 37 98 38 65 39 49 40 50 41 58 42 51 43 53 44 59 45
REMARK SMILES IDX 52 46 54 47 55 48 56 49 57 50 81 51 82 52 90 53 83 54 85 55
REMARK SMILES IDX 91 56 84 57 86 58 87 59 88 60 89 61 66 62 67 63 75 64 68 65
REMARK SMILES IDX 70 66 76 67 69 68 71 69 72 70 73 71 74 72 7 73 8 74 9 76
REMARK SMILES IDX 10 77 34 78 35 79 39 80 36 81 38 82 37 83 11 84 12 85 13 87
REMARK SMILES IDX 14 88 33 89 15 90 32 91 16 92 17 93 18 94 19 95 20 96 21 98
REMARK SMILES IDX 22 99 23 100 31 101 24 102 30 103 25 106 29 107 26 108
REMARK SMILES IDX 28 109 27 110
REMARK H PARENT 3 7 96 25 64 36 7 75 11 86 19 97 31 104 31 105
REMARK Flexibility Score: inf
ROOT
ATOM      1  C   UNL     1       8.167  12.779  -0.810  1.00  0.00     0.117 C 
ENDROOT
BRANCH   1   2
ATOM      2  C   UNL     1       8.162  12.635  -2.333  1.00  0.00     0.042 C 
BRANCH   2   3
ATOM      3  C   UNL     1       8.319  13.939  -3.110  1.00  0.00     0.118 C 
BRANCH   3   4
ATOM      4  N   UNL     1       9.660  14.499  -3.026  1.00  0.00    -0.352 N 
ATOM      5  O   UNL     1      11.761  15.039  -3.535  1.00  0.00    -0.269 OA
ATOM      6  C   UNL     1      10.666  14.662  -3.955  1.00  0.00     0.251 C 
ATOM      7  H   UNL     1       9.896  14.826  -2.128  1.00  0.00     0.163 HD
BRANCH   6   8
ATOM      8  C   UNL     1      10.491  14.410  -5.415  1.00  0.00     0.039 A 
ATOM      9  C   UNL     1       9.289  14.627  -6.073  1.00  0.00     0.014 A 
ATOM     10  C   UNL     1      11.610  14.050  -6.187  1.00  0.00     0.014 A 
ATOM     11  C   UNL     1       9.176  14.344  -7.438  1.00  0.00     0.010 A 
ATOM     12  C   UNL     1      11.518  13.873  -7.586  1.00  0.00     0.010 A 
ATOM     13  C   UNL     1      10.292  13.994  -8.240  1.00  0.00    -0.014 A 
BRANCH  13  14
ATOM     14  C   UNL     1      10.101  13.918  -9.739  1.00  0.00     0.031 A 
ATOM     15  C   UNL     1      10.386  12.661 -10.578  1.00  0.00     0.074 A 
ATOM     16  C   UNL     1       9.511  14.996 -10.305  1.00  0.00     0.049 A 
ATOM     17  N   UNL     1       9.842  12.280 -11.714  1.00  0.00    -0.248 NA
ATOM     18  C   UNL     1      11.348  11.669 -10.061  1.00  0.00     0.031 C 
ATOM     19  C   UNL     1       9.315  16.299  -9.640  1.00  0.00     0.029 A 
ATOM     20  N   UNL     1       8.953  15.186 -11.540  1.00  0.00    -0.354 N 
ATOM     21  C   UNL     1      10.313  10.981 -11.990  1.00  0.00     0.074 A 
ATOM     22  C   UNL     1      11.254  10.670 -10.940  1.00  0.00     0.031 C 
ATOM     23  C   UNL     1       8.674  17.136 -10.466  1.00  0.00     0.029 A 
ATOM     24  C   UNL     1       8.459  16.458 -11.732  1.00  0.00     0.049 A 
ATOM     25  H   UNL     1       8.908  14.480 -12.225  1.00  0.00     0.167 HD
ATOM     26  C   UNL     1       9.926  10.130 -12.989  1.00  0.00     0.034 A 
ATOM     27  C   UNL     1       7.926  17.027 -12.828  1.00  0.00     0.034 A 
ATOM     28  C   UNL     1       9.032  10.574 -14.041  1.00  0.00     0.049 A 
ATOM     29  C   UNL     1       7.693  16.132 -14.008  1.00  0.00     0.074 A 
ATOM     30  C   UNL     1       8.486   9.849 -15.083  1.00  0.00     0.029 A 
ATOM     31  N   UNL     1       8.613  11.893 -14.216  1.00  0.00    -0.354 N 
ATOM     32  N   UNL     1       7.861  14.832 -14.098  1.00  0.00    -0.248 NA
ATOM     33  C   UNL     1       7.170  16.763 -15.222  1.00  0.00     0.031 C 
ATOM     34  C   UNL     1       7.822  10.744 -15.935  1.00  0.00     0.029 A 
ATOM     35  C   UNL     1       7.921  12.025 -15.409  1.00  0.00     0.049 A 
ATOM     36  H   UNL     1       8.785  12.626 -13.581  1.00  0.00     0.167 HD
ATOM     37  C   UNL     1       7.446  14.481 -15.372  1.00  0.00     0.074 A 
ATOM     38  C   UNL     1       6.979  15.707 -15.999  1.00  0.00     0.031 C 
ATOM     39  C   UNL     1       7.461  13.269 -15.984  1.00  0.00     0.034 A 
BRANCH  26  40
ATOM     40  C   UNL     1      10.388   8.653 -13.034  1.00  0.00     0.023 A 
ATOM     41  C   UNL     1       9.662   7.634 -12.368  1.00  0.00     0.012 A 
ATOM     42  C   UNL     1      11.415   8.209 -13.887  1.00  0.00     0.148 A 
ATOM     43  C   UNL     1       9.977   6.274 -12.429  1.00  0.00     0.002 A 
ATOM     44  C   UNL     1      11.690   6.835 -14.010  1.00  0.00     0.091 A 
ATOM     45  F   UNL     1      12.084   9.124 -14.600  1.00  0.00    -0.205 F 
ATOM     46  C   UNL     1      10.996   5.873 -13.260  1.00  0.00     0.022 A 
BRANCH  44  47
ATOM     47  S   UNL     1      12.872   6.150 -15.175  1.00  0.00     0.127 S 
ATOM     48  O   UNL     1      13.844   5.530 -14.277  1.00  0.00    -0.237 OA
ATOM     49  O   UNL     1      12.048   5.206 -15.926  1.00  0.00    -0.237 OA
ATOM     50  O   UNL     1      13.373   7.283 -15.946  1.00  0.00    -0.744 OA
ENDBRANCH  44  47
ENDBRANCH  26  40
BRANCH  27  51
ATOM     51  C   UNL     1       7.644  18.495 -12.865  1.00  0.00     0.023 A 
ATOM     52  C   UNL     1       6.340  18.984 -13.067  1.00  0.00     0.012 A 
ATOM     53  C   UNL     1       8.697  19.422 -12.703  1.00  0.00     0.148 A 
ATOM     54  C   UNL     1       6.099  20.360 -13.143  1.00  0.00     0.002 A 
ATOM     55  C   UNL     1       8.442  20.788 -12.716  1.00  0.00     0.091 A 
ATOM     56  F   UNL     1       9.941  18.949 -12.537  1.00  0.00    -0.205 F 
ATOM     57  C   UNL     1       7.145  21.261 -12.957  1.00  0.00     0.022 A 
BRANCH  55  58
ATOM     58  S   UNL     1       9.716  22.002 -12.354  1.00  0.00     0.127 S 
ATOM     59  O   UNL     1       9.987  22.555 -13.677  1.00  0.00    -0.237 OA
ATOM     60  O   UNL     1       9.021  22.908 -11.437  1.00  0.00    -0.237 OA
ATOM     61  O   UNL     1      10.805  21.254 -11.740  1.00  0.00    -0.744 OA
ENDBRANCH  55  58
ENDBRANCH  27  51
BRANCH  39  62
ATOM     62  C   UNL     1       6.958  13.253 -17.405  1.00  0.00     0.023 A 
ATOM     63  C   UNL     1       7.719  13.871 -18.419  1.00  0.00     0.012 A 
ATOM     64  C   UNL     1       5.732  12.647 -17.732  1.00  0.00     0.148 A 
ATOM     65  C   UNL     1       7.239  13.936 -19.726  1.00  0.00     0.002 A 
ATOM     66  C   UNL     1       5.290  12.658 -19.048  1.00  0.00     0.091 A 
ATOM     67  F   UNL     1       5.010  12.089 -16.749  1.00  0.00    -0.205 F 
ATOM     68  C   UNL     1       6.031  13.321 -20.042  1.00  0.00     0.022 A 
BRANCH  66  69
ATOM     69  S   UNL     1       3.801  11.803 -19.568  1.00  0.00     0.127 S 
ATOM     70  O   UNL     1       2.898  12.918 -19.849  1.00  0.00    -0.237 OA
ATOM     71  O   UNL     1       4.260  11.076 -20.752  1.00  0.00    -0.237 OA
ATOM     72  O   UNL     1       3.415  10.954 -18.449  1.00  0.00    -0.744 OA
ENDBRANCH  66  69
ENDBRANCH  39  62
ENDBRANCH  13  14
ENDBRANCH   6   8
ENDBRANCH   3   4
ENDBRANCH   2   3
ENDBRANCH   1   2
BRANCH   1  73
ATOM     73  N   UNL     1       6.909  13.289  -0.260  1.00  0.00    -0.354 N 
ATOM     74  C   UNL     1       5.805  12.579   0.177  1.00  0.00     0.247 C 
ATOM     75  H   UNL     1       6.840  14.268  -0.192  1.00  0.00     0.163 HD
ATOM     76  O   UNL     1       4.870  13.189   0.699  1.00  0.00    -0.272 OA
BRANCH  74  77
ATOM     77  C   UNL     1       5.787  11.041  -0.020  1.00  0.00     0.202 C 
BRANCH  77  78
ATOM     78  C   UNL     1       6.404  10.212   1.109  1.00  0.00    -0.016 A 
ATOM     79  C   UNL     1       6.571   8.821   0.964  1.00  0.00     0.006 A 
ATOM     80  C   UNL     1       7.008  10.802   2.226  1.00  0.00     0.006 A 
ATOM     81  C   UNL     1       7.459   8.089   1.750  1.00  0.00     0.000 A 
ATOM     82  C   UNL     1       7.849  10.057   3.063  1.00  0.00     0.000 A 
ATOM     83  C   UNL     1       8.115   8.716   2.794  1.00  0.00     0.000 A 
ENDBRANCH  77  78
BRANCH  77  84
ATOM     84  N   UNL     1       4.483  10.574  -0.475  1.00  0.00    -0.340 N 
ATOM     85  C   UNL     1       4.140   9.779  -1.530  1.00  0.00     0.224 C 
ATOM     86  H   UNL     1       3.724  10.884   0.070  1.00  0.00     0.164 HD
ATOM     87  O   UNL     1       2.950   9.806  -1.865  1.00  0.00    -0.275 OA
BRANCH  85  88
ATOM     88  C   UNL     1       5.108   8.759  -2.184  1.00  0.00     0.078 C 
ATOM     89  C   UNL     1       4.571   8.322  -3.570  1.00  0.00     0.014 C 
ATOM     90  C   UNL     1       6.585   9.152  -2.299  1.00  0.00     0.014 C 
ATOM     91  C   UNL     1       5.507   7.342  -4.296  1.00  0.00     0.006 C 
ATOM     92  C   UNL     1       7.442   8.076  -2.927  1.00  0.00     0.006 C 
ATOM     93  C   UNL     1       6.964   7.824  -4.336  1.00  0.00     0.008 C 
BRANCH  93  94
ATOM     94  C   UNL     1       7.048   9.082  -5.185  1.00  0.00     0.119 C 
BRANCH  94  95
ATOM     95  N   UNL     1       8.370   9.673  -5.248  1.00  0.00    -0.351 N 
ATOM     96  C   UNL     1       8.771  10.513  -6.252  1.00  0.00     0.278 C 
ATOM     97  H   UNL     1       9.011   9.460  -4.532  1.00  0.00     0.163 HD
ATOM     98  O   UNL     1       9.861  11.082  -6.173  1.00  0.00    -0.268 OA
BRANCH  96  99
ATOM     99  C   UNL     1       7.782  10.685  -7.393  1.00  0.00     0.277 C 
ATOM    100  C   UNL     1       8.458  10.853  -8.719  1.00  0.00     0.111 C 
ATOM    101  N   UNL     1       6.772  11.736  -7.084  1.00  0.00    -0.332 N 
ATOM    102  C   UNL     1       7.344  10.591  -9.685  1.00  0.00    -0.033 A 
ATOM    103  C   UNL     1       6.017  12.151  -8.302  1.00  0.00     0.298 C 
ATOM    104  H   UNL     1       7.250  12.550  -6.698  1.00  0.00     0.347 HD
ATOM    105  H   UNL     1       6.107  11.350  -6.414  1.00  0.00     0.347 HD
ATOM    106  C   UNL     1       7.486   9.634 -10.661  1.00  0.00     0.004 A 
ATOM    107  C   UNL     1       6.106  11.191  -9.458  1.00  0.00     0.010 A 
ATOM    108  C   UNL     1       6.433   9.300 -11.497  1.00  0.00     0.000 A 
ATOM    109  C   UNL     1       5.039  10.875 -10.302  1.00  0.00     0.010 A 
ATOM    110  C   UNL     1       5.207   9.932 -11.323  1.00  0.00     0.001 A 
ENDBRANCH  96  99
ENDBRANCH  94  95
ENDBRANCH  93  94
ENDBRANCH  85  88
ENDBRANCH  77  84
ENDBRANCH  74  77
ENDBRANCH   1  73
TORSDOF 19
