REMARK SMILES CCc1cc(N2CCC[C@H](C(=O)NCCCNC(=O)c3ccc(-c4c5nc(c(-c6cccc(S(=O)(=O)[O-])c6F)c6ccc([nH]6)c(-c6cccc(S(=O)(=O)[O-])c6F)c6nc(c(-c7cccc(S(=O)(=O)[O-])c7F)c7ccc4[nH]7)C=C6)C=C5)cc3)C2)nc(-c2ccc(Cl)cc2)n1
REMARK SMILES IDX 15 1 14 2 13 3 11 4 12 5 10 7 6 8 7 9 83 10 8 11 9 12 5 13
REMARK SMILES IDX 3 14 4 15 93 16 85 17 84 18 2 19 1 20 86 21 87 22 92 23
REMARK SMILES IDX 88 24 91 25 89 26 90 27 16 28 17 29 18 30 19 32 20 33 21 34
REMARK SMILES IDX 82 35 22 36 81 37 23 38 24 39 25 40 75 41 26 42 80 43 74 44
REMARK SMILES IDX 76 45 27 46 79 47 73 48 72 49 28 51 60 52 40 53 59 54 41 55
REMARK SMILES IDX 44 56 58 57 77 58 42 59 43 60 57 62 78 63 45 64 29 65 30 66
REMARK SMILES IDX 38 67 31 68 33 69 39 70 32 71 34 72 35 73 36 74 37 75 61 76
REMARK SMILES IDX 62 77 70 78 63 79 65 80 71 81 64 82 66 83 67 84 68 85 69 86
REMARK SMILES IDX 46 87 47 88 55 89 48 90 50 91 56 92 49 93 51 94 52 95 53 96
REMARK SMILES IDX 54 97
REMARK H PARENT 13 6 17 31 76 50 44 61
REMARK Flexibility Score: inf
ROOT
ATOM      1  C   UNL     1       2.252  -5.570   6.391  1.00  0.00     0.042 C 
ENDROOT
BRANCH   1   2
ATOM      2  C   UNL     1       1.372  -4.501   5.771  1.00  0.00     0.117 C 
BRANCH   2   3
ATOM      3  N   UNL     1       0.611  -3.720   6.715  1.00  0.00    -0.356 N 
ATOM      4  C   UNL     1       0.509  -2.372   6.825  1.00  0.00     0.224 C 
ATOM      5  O   UNL     1      -0.524  -1.936   7.348  1.00  0.00    -0.275 OA
ATOM      6  H   UNL     1       0.092  -4.239   7.372  1.00  0.00     0.163 HD
BRANCH   4   7
ATOM      7  C   UNL     1       1.586  -1.389   6.362  1.00  0.00     0.098 C 
ATOM      8  N   UNL     1       2.366  -1.909   4.096  1.00  0.00    -0.356 N 
ATOM      9  C   UNL     1       3.782  -1.982   4.417  1.00  0.00     0.118 C 
ATOM     10  C   UNL     1       1.513  -1.038   4.882  1.00  0.00     0.131 C 
ATOM     11  C   UNL     1       4.000  -2.269   5.907  1.00  0.00     0.022 C 
ATOM     12  C   UNL     1       3.001  -1.647   6.886  1.00  0.00     0.017 C 
BRANCH   8  13
ATOM     13  C   UNL     1       1.905  -2.344   2.868  1.00  0.00     0.132 A 
ATOM     14  C   UNL     1       1.037  -1.919   0.707  1.00  0.00     0.046 A 
ATOM     15  C   UNL     1       1.634  -1.439   1.858  1.00  0.00     0.070 A 
ATOM     16  N   UNL     1       0.729  -3.221   0.561  1.00  0.00    -0.233 NA
ATOM     17  C   UNL     1       1.017  -4.034   1.590  1.00  0.00     0.161 A 
ATOM     18  N   UNL     1       1.600  -3.647   2.740  1.00  0.00    -0.211 NA
BRANCH  14  19
ATOM     19  C   UNL     1       0.595  -1.040  -0.433  1.00  0.00     0.053 C 
ATOM     20  C   UNL     1       1.048   0.411  -0.400  1.00  0.00     0.011 C 
ENDBRANCH  14  19
BRANCH  17  21
ATOM     21  C   UNL     1       0.551  -5.420   1.484  1.00  0.00     0.019 A 
ATOM     22  C   UNL     1       0.969  -6.245   0.426  1.00  0.00     0.013 A 
ATOM     23  C   UNL     1      -0.324  -5.969   2.441  1.00  0.00     0.013 A 
ATOM     24  C   UNL     1       0.574  -7.586   0.356  1.00  0.00     0.021 A 
ATOM     25  C   UNL     1      -0.725  -7.308   2.372  1.00  0.00     0.021 A 
ATOM     26  C   UNL     1      -0.261  -8.114   1.336  1.00  0.00     0.041 A 
ATOM     27  Cl  UNL     1      -0.713  -9.773   1.277  1.00  0.00    -0.084 Cl
ENDBRANCH  17  21
ENDBRANCH   8  13
ENDBRANCH   4   7
ENDBRANCH   2   3
ENDBRANCH   1   2
BRANCH   1  28
ATOM     28  C   UNL     1       2.174  -6.871   5.611  1.00  0.00     0.118 C 
BRANCH  28  29
ATOM     29  N   UNL     1       2.494  -6.760   4.196  1.00  0.00    -0.352 N 
ATOM     30  C   UNL     1       2.892  -7.728   3.296  1.00  0.00     0.251 C 
ATOM     31  H   UNL     1       2.414  -5.853   3.822  1.00  0.00     0.163 HD
ATOM     32  O   UNL     1       3.187  -7.393   2.157  1.00  0.00    -0.269 OA
BRANCH  30  33
ATOM     33  C   UNL     1       3.081  -9.145   3.708  1.00  0.00     0.039 A 
ATOM     34  C   UNL     1       4.022  -9.895   2.994  1.00  0.00     0.014 A 
ATOM     35  C   UNL     1       2.472  -9.710   4.826  1.00  0.00     0.014 A 
ATOM     36  C   UNL     1       4.475 -11.108   3.505  1.00  0.00     0.010 A 
ATOM     37  C   UNL     1       3.025 -10.838   5.415  1.00  0.00     0.010 A 
ATOM     38  C   UNL     1       4.058 -11.527   4.776  1.00  0.00    -0.014 A 
BRANCH  38  39
ATOM     39  C   UNL     1       4.782 -12.609   5.479  1.00  0.00     0.031 A 
ATOM     40  C   UNL     1       4.069 -13.849   5.928  1.00  0.00     0.074 A 
ATOM     41  C   UNL     1       6.083 -12.413   5.776  1.00  0.00     0.049 A 
ATOM     42  N   UNL     1       4.566 -14.915   6.496  1.00  0.00    -0.248 NA
ATOM     43  C   UNL     1       2.607 -13.890   5.755  1.00  0.00     0.031 C 
ATOM     44  C   UNL     1       6.833 -11.178   5.516  1.00  0.00     0.029 A 
ATOM     45  N   UNL     1       7.010 -13.238   6.357  1.00  0.00    -0.354 N 
ATOM     46  C   UNL     1       3.482 -15.739   6.768  1.00  0.00     0.074 A 
ATOM     47  C   UNL     1       2.294 -15.027   6.357  1.00  0.00     0.031 C 
ATOM     48  C   UNL     1       8.112 -11.347   5.883  1.00  0.00     0.029 A 
ATOM     49  C   UNL     1       8.270 -12.688   6.431  1.00  0.00     0.049 A 
ATOM     50  H   UNL     1       6.795 -14.139   6.691  1.00  0.00     0.167 HD
ATOM     51  C   UNL     1       3.484 -16.993   7.276  1.00  0.00     0.034 A 
ATOM     52  C   UNL     1       9.427 -13.217   6.871  1.00  0.00     0.034 A 
ATOM     53  C   UNL     1       4.684 -17.696   7.640  1.00  0.00     0.049 A 
ATOM     54  C   UNL     1       9.416 -14.645   7.338  1.00  0.00     0.074 A 
ATOM     55  C   UNL     1       4.821 -19.001   8.074  1.00  0.00     0.029 A 
ATOM     56  N   UNL     1       5.957 -17.144   7.615  1.00  0.00    -0.354 N 
ATOM     57  N   UNL     1       8.407 -15.481   7.409  1.00  0.00    -0.248 NA
ATOM     58  C   UNL     1      10.704 -15.218   7.747  1.00  0.00     0.031 C 
ATOM     59  C   UNL     1       6.177 -19.231   8.332  1.00  0.00     0.029 A 
ATOM     60  C   UNL     1       6.887 -18.078   8.035  1.00  0.00     0.049 A 
ATOM     61  H   UNL     1       6.167 -16.223   7.339  1.00  0.00     0.167 HD
ATOM     62  C   UNL     1       8.939 -16.685   7.850  1.00  0.00     0.074 A 
ATOM     63  C   UNL     1      10.368 -16.477   7.992  1.00  0.00     0.031 C 
ATOM     64  C   UNL     1       8.307 -17.850   8.134  1.00  0.00     0.034 A 
BRANCH  51  65
ATOM     65  C   UNL     1       2.157 -17.693   7.404  1.00  0.00     0.023 A 
ATOM     66  C   UNL     1       1.466 -18.091   6.240  1.00  0.00     0.012 A 
ATOM     67  C   UNL     1       1.604 -17.983   8.666  1.00  0.00     0.148 A 
ATOM     68  C   UNL     1       0.229 -18.728   6.327  1.00  0.00     0.002 A 
ATOM     69  C   UNL     1       0.391 -18.660   8.746  1.00  0.00     0.091 A 
ATOM     70  F   UNL     1       2.261 -17.577   9.761  1.00  0.00    -0.205 F 
ATOM     71  C   UNL     1      -0.303 -19.020   7.579  1.00  0.00     0.022 A 
BRANCH  69  72
ATOM     72  S   UNL     1      -0.346 -19.150  10.309  1.00  0.00     0.127 S 
ATOM     73  O   UNL     1      -1.513 -18.270  10.373  1.00  0.00    -0.237 OA
ATOM     74  O   UNL     1      -0.658 -20.560  10.072  1.00  0.00    -0.237 OA
ATOM     75  O   UNL     1       0.670 -18.914  11.324  1.00  0.00    -0.744 OA
ENDBRANCH  69  72
ENDBRANCH  51  65
BRANCH  52  76
ATOM     76  C   UNL     1      10.690 -12.428   6.792  1.00  0.00     0.023 A 
ATOM     77  C   UNL     1      11.683 -12.801   5.864  1.00  0.00     0.012 A 
ATOM     78  C   UNL     1      10.897 -11.289   7.594  1.00  0.00     0.148 A 
ATOM     79  C   UNL     1      12.871 -12.075   5.760  1.00  0.00     0.002 A 
ATOM     80  C   UNL     1      12.059 -10.538   7.446  1.00  0.00     0.091 A 
ATOM     81  F   UNL     1       9.947 -10.953   8.477  1.00  0.00    -0.205 F 
ATOM     82  C   UNL     1      13.055 -10.939   6.543  1.00  0.00     0.022 A 
BRANCH  80  83
ATOM     83  S   UNL     1      12.316  -8.986   8.315  1.00  0.00     0.127 S 
ATOM     84  O   UNL     1      13.319  -9.361   9.307  1.00  0.00    -0.237 OA
ATOM     85  O   UNL     1      12.802  -8.114   7.245  1.00  0.00    -0.237 OA
ATOM     86  O   UNL     1      11.010  -8.613   8.842  1.00  0.00    -0.744 OA
ENDBRANCH  80  83
ENDBRANCH  52  76
BRANCH  64  87
ATOM     87  C   UNL     1       9.160 -18.988   8.622  1.00  0.00     0.023 A 
ATOM     88  C   UNL     1       9.709 -18.940   9.919  1.00  0.00     0.012 A 
ATOM     89  C   UNL     1       9.370 -20.127   7.821  1.00  0.00     0.148 A 
ATOM     90  C   UNL     1      10.488 -19.991  10.397  1.00  0.00     0.002 A 
ATOM     91  C   UNL     1      10.104 -21.193   8.324  1.00  0.00     0.091 A 
ATOM     92  F   UNL     1       8.856 -20.143   6.582  1.00  0.00    -0.205 F 
ATOM     93  C   UNL     1      10.676 -21.122   9.605  1.00  0.00     0.022 A 
BRANCH  91  94
ATOM     94  S   UNL     1      10.310 -22.726   7.412  1.00  0.00     0.127 S 
ATOM     95  O   UNL     1      11.693 -22.616   6.953  1.00  0.00    -0.237 OA
ATOM     96  O   UNL     1      10.088 -23.737   8.447  1.00  0.00    -0.237 OA
ATOM     97  O   UNL     1       9.297 -22.706   6.365  1.00  0.00    -0.744 OA
ENDBRANCH  91  94
ENDBRANCH  64  87
ENDBRANCH  38  39
ENDBRANCH  30  33
ENDBRANCH  28  29
ENDBRANCH   1  28
TORSDOF 16
