REMARK SMILES CC(C)C[C@H](C(=O)NCCCNC(=O)c1ccc(-c2c3nc(c(-c4cccc(S(=O)(=O)[O-])c4F)c4ccc([nH]4)c(-c4cccc(S(=O)(=O)[O-])c4F)c4nc(c(-c5cccc(S(=O)(=O)[O-])c5F)c5ccc2[nH]5)C=C4)C=C3)cc1)N1C(=O)/C(=C2\C(=O)Nc3ccc(Br)cc32)SC1=S
REMARK SMILES IDX 10 1 9 2 8 3 6 4 7 5 5 7 4 8 2 9 1 10 3 11 78 12 79 13 94 14
REMARK SMILES IDX 80 15 81 16 93 17 95 18 82 19 83 20 92 21 84 22 85 23 86 24
REMARK SMILES IDX 91 25 87 27 89 28 88 29 90 30 11 31 12 32 13 33 14 35 15 36
REMARK SMILES IDX 16 37 77 38 17 39 76 40 18 41 19 42 20 43 70 44 21 45 75 46
REMARK SMILES IDX 69 47 71 48 22 49 74 50 68 51 67 52 23 54 55 55 35 56 54 57
REMARK SMILES IDX 36 58 39 59 53 60 72 61 37 62 38 63 52 65 73 66 40 67 24 68
REMARK SMILES IDX 25 69 33 70 26 71 28 72 34 73 27 74 29 75 30 76 31 77 32 78
REMARK SMILES IDX 56 79 57 80 65 81 58 82 60 83 66 84 59 85 61 86 62 87 63 88
REMARK SMILES IDX 64 89 41 90 42 91 50 92 43 93 45 94 51 95 44 96 46 97 47 98
REMARK SMILES IDX 48 99 49 100
REMARK H PARENT 8 6 85 26 12 34 71 53 39 64
REMARK Flexibility Score: inf
ROOT
ATOM      1  C   UNL     1      -0.602  -2.713  -3.946  1.00  0.00     0.042 C 
ENDROOT
BRANCH   1   2
ATOM      2  C   UNL     1      -1.635  -2.607  -2.835  1.00  0.00     0.117 C 
BRANCH   2   3
ATOM      3  N   UNL     1      -1.120  -2.116  -1.564  1.00  0.00    -0.354 N 
ATOM      4  C   UNL     1      -1.395  -0.958  -0.882  1.00  0.00     0.243 C 
ATOM      5  O   UNL     1      -1.012  -0.873   0.289  1.00  0.00    -0.273 OA
ATOM      6  H   UNL     1      -0.471  -2.711  -1.124  1.00  0.00     0.163 HD
BRANCH   4   7
ATOM      7  C   UNL     1      -2.087   0.252  -1.570  1.00  0.00     0.181 C 
BRANCH   7   8
ATOM      8  C   UNL     1      -1.279   0.588  -2.859  1.00  0.00     0.038 C 
BRANCH   8   9
ATOM      9  C   UNL     1      -1.019   2.074  -3.173  1.00  0.00    -0.015 C 
ATOM     10  C   UNL     1      -0.087   2.731  -2.153  1.00  0.00     0.007 C 
ATOM     11  C   UNL     1      -0.416   2.202  -4.576  1.00  0.00     0.007 C 
ENDBRANCH   8   9
ENDBRANCH   7   8
BRANCH   7  12
ATOM     12  N   UNL     1      -3.547   0.133  -1.838  1.00  0.00    -0.280 N 
ATOM     13  C   UNL     1      -4.209  -1.075  -1.774  1.00  0.00     0.267 C 
ATOM     14  C   UNL     1      -4.405   1.178  -2.075  1.00  0.00     0.149 C 
ATOM     15  O   UNL     1      -4.006  -1.941  -0.940  1.00  0.00    -0.268 OA
ATOM     16  C   UNL     1      -5.369  -1.073  -2.710  1.00  0.00     0.093 C 
ATOM     17  S   UNL     1      -5.826   0.577  -2.931  1.00  0.00    -0.053 SA
ATOM     18  S   UNL     1      -4.271   2.775  -1.619  1.00  0.00    -0.052 S 
ATOM     19  C   UNL     1      -5.935  -2.154  -3.271  1.00  0.00     0.069 C 
ATOM     20  C   UNL     1      -5.501  -3.576  -2.988  1.00  0.00     0.257 C 
ATOM     21  C   UNL     1      -7.083  -2.263  -4.197  1.00  0.00     0.013 A 
ATOM     22  O   UNL     1      -4.483  -3.986  -2.476  1.00  0.00    -0.269 OA
ATOM     23  N   UNL     1      -6.486  -4.375  -3.535  1.00  0.00    -0.321 N 
ATOM     24  C   UNL     1      -7.398  -3.627  -4.262  1.00  0.00     0.049 A 
ATOM     25  C   UNL     1      -7.773  -1.372  -5.002  1.00  0.00     0.026 A 
ATOM     26  H   UNL     1      -6.535  -5.352  -3.422  1.00  0.00     0.170 HD
ATOM     27  C   UNL     1      -8.425  -4.136  -5.030  1.00  0.00     0.028 A 
ATOM     28  C   UNL     1      -8.803  -1.871  -5.812  1.00  0.00     0.018 A 
ATOM     29  C   UNL     1      -9.143  -3.235  -5.814  1.00  0.00     0.018 A 
ATOM     30  Br  UNL     1      -9.739  -0.691  -6.958  1.00  0.00    -0.051 Br
ENDBRANCH   7  12
ENDBRANCH   4   7
ENDBRANCH   2   3
ENDBRANCH   1   2
BRANCH   1  31
ATOM     31  C   UNL     1       0.394  -3.848  -3.765  1.00  0.00     0.118 C 
BRANCH  31  32
ATOM     32  N   UNL     1      -0.230  -5.165  -3.829  1.00  0.00    -0.352 N 
ATOM     33  C   UNL     1      -0.095  -6.186  -4.739  1.00  0.00     0.251 C 
ATOM     34  H   UNL     1      -0.856  -5.355  -3.093  1.00  0.00     0.163 HD
ATOM     35  O   UNL     1      -0.856  -7.149  -4.676  1.00  0.00    -0.269 OA
BRANCH  33  36
ATOM     36  C   UNL     1       0.931  -6.133  -5.806  1.00  0.00     0.039 A 
ATOM     37  C   UNL     1       0.601  -6.617  -7.077  1.00  0.00     0.014 A 
ATOM     38  C   UNL     1       2.216  -5.646  -5.567  1.00  0.00     0.014 A 
ATOM     39  C   UNL     1       1.530  -6.538  -8.119  1.00  0.00     0.010 A 
ATOM     40  C   UNL     1       3.109  -5.484  -6.625  1.00  0.00     0.010 A 
ATOM     41  C   UNL     1       2.778  -5.930  -7.912  1.00  0.00    -0.014 A 
BRANCH  41  42
ATOM     42  C   UNL     1       3.740  -5.732  -9.029  1.00  0.00     0.031 A 
ATOM     43  C   UNL     1       5.103  -6.371  -8.985  1.00  0.00     0.074 A 
ATOM     44  C   UNL     1       3.422  -4.894 -10.037  1.00  0.00     0.049 A 
ATOM     45  N   UNL     1       6.097  -6.250  -9.826  1.00  0.00    -0.248 NA
ATOM     46  C   UNL     1       5.400  -7.237  -7.831  1.00  0.00     0.031 C 
ATOM     47  C   UNL     1       2.167  -4.147 -10.153  1.00  0.00     0.029 A 
ATOM     48  N   UNL     1       4.140  -4.504 -11.140  1.00  0.00    -0.354 N 
ATOM     49  C   UNL     1       7.145  -6.986  -9.288  1.00  0.00     0.074 A 
ATOM     50  C   UNL     1       6.678  -7.529  -8.032  1.00  0.00     0.031 C 
ATOM     51  C   UNL     1       2.203  -3.393 -11.263  1.00  0.00     0.029 A 
ATOM     52  C   UNL     1       3.492  -3.575 -11.922  1.00  0.00     0.049 A 
ATOM     53  H   UNL     1       5.035  -4.855 -11.352  1.00  0.00     0.167 HD
ATOM     54  C   UNL     1       8.376  -7.214  -9.805  1.00  0.00     0.034 A 
ATOM     55  C   UNL     1       3.892  -2.935 -13.038  1.00  0.00     0.034 A 
ATOM     56  C   UNL     1       8.819  -6.720 -11.080  1.00  0.00     0.049 A 
ATOM     57  C   UNL     1       5.245  -3.250 -13.616  1.00  0.00     0.074 A 
ATOM     58  C   UNL     1      10.010  -6.981 -11.736  1.00  0.00     0.029 A 
ATOM     59  N   UNL     1       8.095  -5.863 -11.893  1.00  0.00    -0.354 N 
ATOM     60  N   UNL     1       6.156  -4.084 -13.177  1.00  0.00    -0.248 NA
ATOM     61  C   UNL     1       5.612  -2.564 -14.864  1.00  0.00     0.031 C 
ATOM     62  C   UNL     1      10.013  -6.266 -12.938  1.00  0.00     0.029 A 
ATOM     63  C   UNL     1       8.815  -5.577 -13.040  1.00  0.00     0.049 A 
ATOM     64  H   UNL     1       7.200  -5.509 -11.685  1.00  0.00     0.167 HD
ATOM     65  C   UNL     1       7.185  -4.051 -14.111  1.00  0.00     0.074 A 
ATOM     66  C   UNL     1       6.775  -3.132 -15.152  1.00  0.00     0.031 C 
ATOM     67  C   UNL     1       8.370  -4.708 -14.098  1.00  0.00     0.034 A 
BRANCH  54  68
ATOM     68  C   UNL     1       9.319  -8.090  -9.022  1.00  0.00     0.023 A 
ATOM     69  C   UNL     1       9.083  -9.478  -8.958  1.00  0.00     0.012 A 
ATOM     70  C   UNL     1      10.477  -7.557  -8.422  1.00  0.00     0.148 A 
ATOM     71  C   UNL     1       9.970 -10.320  -8.288  1.00  0.00     0.002 A 
ATOM     72  C   UNL     1      11.378  -8.408  -7.792  1.00  0.00     0.091 A 
ATOM     73  F   UNL     1      10.674  -6.232  -8.476  1.00  0.00    -0.205 F 
ATOM     74  C   UNL     1      11.121  -9.787  -7.715  1.00  0.00     0.022 A 
BRANCH  72  75
ATOM     75  S   UNL     1      12.930  -7.833  -7.092  1.00  0.00     0.127 S 
ATOM     76  O   UNL     1      12.686  -7.998  -5.660  1.00  0.00    -0.237 OA
ATOM     77  O   UNL     1      13.892  -8.779  -7.659  1.00  0.00    -0.237 OA
ATOM     78  O   UNL     1      13.090  -6.458  -7.543  1.00  0.00    -0.744 OA
ENDBRANCH  72  75
ENDBRANCH  54  68
BRANCH  55  79
ATOM     79  C   UNL     1       2.974  -1.980 -13.722  1.00  0.00     0.023 A 
ATOM     80  C   UNL     1       2.421  -2.329 -14.970  1.00  0.00     0.012 A 
ATOM     81  C   UNL     1       2.629  -0.745 -13.141  1.00  0.00     0.148 A 
ATOM     82  C   UNL     1       1.572  -1.450 -15.643  1.00  0.00     0.002 A 
ATOM     83  C   UNL     1       1.737   0.101 -13.790  1.00  0.00     0.091 A 
ATOM     84  F   UNL     1       3.175  -0.422 -11.960  1.00  0.00    -0.205 F 
ATOM     85  C   UNL     1       1.222  -0.240 -15.050  1.00  0.00     0.022 A 
BRANCH  83  86
ATOM     86  S   UNL     1       1.126   1.611 -13.030  1.00  0.00     0.127 S 
ATOM     87  O   UNL     1       1.873   2.635 -13.755  1.00  0.00    -0.237 OA
ATOM     88  O   UNL     1      -0.303   1.553 -13.341  1.00  0.00    -0.237 OA
ATOM     89  O   UNL     1       1.431   1.481 -11.611  1.00  0.00    -0.744 OA
ENDBRANCH  83  86
ENDBRANCH  55  79
BRANCH  67  90
ATOM     90  C   UNL     1       9.303  -4.492 -15.261  1.00  0.00     0.023 A 
ATOM     91  C   UNL     1       9.994  -3.270 -15.385  1.00  0.00     0.012 A 
ATOM     92  C   UNL     1       9.551  -5.525 -16.186  1.00  0.00     0.148 A 
ATOM     93  C   UNL     1      10.894  -3.069 -16.430  1.00  0.00     0.002 A 
ATOM     94  C   UNL     1      10.485  -5.334 -17.197  1.00  0.00     0.091 A 
ATOM     95  F   UNL     1       8.868  -6.673 -16.062  1.00  0.00    -0.205 F 
ATOM     96  C   UNL     1      11.148  -4.103 -17.328  1.00  0.00     0.022 A 
BRANCH  94  97
ATOM     97  S   UNL     1      10.945  -6.642 -18.339  1.00  0.00     0.127 S 
ATOM     98  O   UNL     1      10.283  -6.211 -19.569  1.00  0.00    -0.237 OA
ATOM     99  O   UNL     1      12.404  -6.536 -18.363  1.00  0.00    -0.237 OA
ATOM    100  O   UNL     1      10.441  -7.878 -17.756  1.00  0.00    -0.744 OA
ENDBRANCH  94  97
ENDBRANCH  67  90
ENDBRANCH  41  42
ENDBRANCH  33  36
ENDBRANCH  31  32
ENDBRANCH   1  31
TORSDOF 16
