REMARK SMILES O=C(CSc1nnc(Cc2ccncc2)n1-c1ccccc1Cl)NCCCNC(=O)c1ccc(-c2c3nc(c(-c4cccc(S(=O)(=O)[O-])c4F)c4ccc([nH]4)c(-c4cccc(S(=O)(=O)[O-])c4F)c4nc(c(-c5cccc(S(=O)(=O)[O-])c5F)c5ccc2[nH]5)C=C4)C=C3)cc1
REMARK SMILES IDX 25 1 24 2 1 3 2 4 3 6 4 7 5 8 6 9 16 10 7 11 8 12 17 13
REMARK SMILES IDX 18 14 22 15 19 16 21 17 23 18 20 19 9 20 10 21 11 22 15 23
REMARK SMILES IDX 12 24 14 25 13 26 26 27 27 28 28 29 29 30 30 32 31 33 32 34
REMARK SMILES IDX 93 35 33 36 92 37 34 38 35 39 36 40 86 41 37 42 91 43 85 44
REMARK SMILES IDX 87 45 38 46 90 47 84 48 83 49 39 51 71 52 51 53 70 54 52 55
REMARK SMILES IDX 55 56 69 57 88 58 53 59 54 60 68 62 89 63 56 64 40 65 41 66
REMARK SMILES IDX 49 67 42 68 44 69 50 70 43 71 45 72 46 73 47 74 48 75 72 76
REMARK SMILES IDX 73 77 81 78 74 79 76 80 82 81 75 82 77 83 78 84 79 85 80 86
REMARK SMILES IDX 57 87 58 88 66 89 59 90 61 91 67 92 60 93 62 94 63 95 64 96
REMARK SMILES IDX 65 97
REMARK H PARENT 24 5 28 31 87 50 55 61
REMARK Flexibility Score: inf
ROOT
ATOM      1  C   UNL     1       1.904   2.089   1.218  1.00  0.00     0.117 C 
ENDROOT
BRANCH   1   2
ATOM      2  N   UNL     1       2.586   0.978   0.571  1.00  0.00    -0.355 N 
ATOM      3  O   UNL     1       0.678   0.042  -0.282  1.00  0.00    -0.274 OA
ATOM      4  C   UNL     1       1.905   0.043  -0.192  1.00  0.00     0.230 C 
ATOM      5  H   UNL     1       3.561   0.888   0.678  1.00  0.00     0.163 HD
BRANCH   4   6
ATOM      6  C   UNL     1       2.769  -1.006  -0.880  1.00  0.00     0.178 C 
BRANCH   6   7
ATOM      7  S   UNL     1       4.013  -0.261  -1.961  1.00  0.00    -0.076 SA
BRANCH   7   8
ATOM      8  C   UNL     1       3.081   0.702  -3.059  1.00  0.00     0.196 A 
ATOM      9  N   UNL     1       2.051   0.301  -3.769  1.00  0.00    -0.123 NA
ATOM     10  N   UNL     1       3.287   2.056  -3.253  1.00  0.00    -0.272 N 
ATOM     11  N   UNL     1       1.564   1.388  -4.459  1.00  0.00    -0.134 NA
ATOM     12  C   UNL     1       2.301   2.439  -4.151  1.00  0.00     0.142 A 
BRANCH  10  13
ATOM     13  C   UNL     1       4.155   2.907  -2.534  1.00  0.00     0.068 A 
ATOM     14  C   UNL     1       3.582   3.893  -1.714  1.00  0.00     0.028 A 
ATOM     15  C   UNL     1       5.545   2.759  -2.595  1.00  0.00     0.065 A 
ATOM     16  C   UNL     1       4.400   4.714  -0.941  1.00  0.00     0.002 A 
ATOM     17  C   UNL     1       6.353   3.571  -1.795  1.00  0.00     0.023 A 
ATOM     18  Cl  UNL     1       6.332   1.720  -3.728  1.00  0.00    -0.082 Cl
ATOM     19  C   UNL     1       5.783   4.543  -0.970  1.00  0.00     0.002 A 
ENDBRANCH  10  13
BRANCH  12  20
ATOM     20  C   UNL     1       2.117   3.820  -4.689  1.00  0.00     0.113 C 
BRANCH  20  21
ATOM     21  C   UNL     1       2.641   4.023  -6.092  1.00  0.00    -0.037 A 
ATOM     22  C   UNL     1       1.973   3.470  -7.189  1.00  0.00     0.024 A 
ATOM     23  C   UNL     1       3.776   4.804  -6.334  1.00  0.00     0.024 A 
ATOM     24  C   UNL     1       2.442   3.745  -8.464  1.00  0.00     0.111 A 
ATOM     25  C   UNL     1       4.166   5.023  -7.648  1.00  0.00     0.111 A 
ATOM     26  N   UNL     1       3.516   4.524  -8.721  1.00  0.00    -0.265 NA
ENDBRANCH  20  21
ENDBRANCH  12  20
ENDBRANCH   7   8
ENDBRANCH   6   7
ENDBRANCH   4   6
ENDBRANCH   1   2
BRANCH   1  27
ATOM     27  C   UNL     1       2.061   2.133   2.739  1.00  0.00     0.042 C 
BRANCH  27  28
ATOM     28  C   UNL     1       3.456   2.541   3.175  1.00  0.00     0.118 C 
BRANCH  28  29
ATOM     29  N   UNL     1       3.797   3.943   2.866  1.00  0.00    -0.352 N 
ATOM     30  C   UNL     1       4.935   4.666   3.217  1.00  0.00     0.251 C 
ATOM     31  H   UNL     1       3.128   4.436   2.338  1.00  0.00     0.163 HD
ATOM     32  O   UNL     1       4.962   5.881   3.118  1.00  0.00    -0.269 OA
BRANCH  30  33
ATOM     33  C   UNL     1       6.122   3.921   3.684  1.00  0.00     0.039 A 
ATOM     34  C   UNL     1       7.003   4.381   4.672  1.00  0.00     0.014 A 
ATOM     35  C   UNL     1       6.319   2.683   3.099  1.00  0.00     0.014 A 
ATOM     36  C   UNL     1       8.054   3.549   5.067  1.00  0.00     0.010 A 
ATOM     37  C   UNL     1       7.105   1.769   3.718  1.00  0.00     0.010 A 
ATOM     38  C   UNL     1       8.089   2.244   4.567  1.00  0.00    -0.014 A 
BRANCH  38  39
ATOM     39  C   UNL     1       9.104   1.254   4.883  1.00  0.00     0.031 A 
ATOM     40  C   UNL     1       8.999   0.712   6.257  1.00  0.00     0.074 A 
ATOM     41  C   UNL     1       9.776   0.650   3.872  1.00  0.00     0.049 A 
ATOM     42  N   UNL     1       9.846   0.857   7.219  1.00  0.00    -0.248 NA
ATOM     43  C   UNL     1       7.725   0.100   6.676  1.00  0.00     0.031 C 
ATOM     44  C   UNL     1       9.650   0.905   2.425  1.00  0.00     0.029 A 
ATOM     45  N   UNL     1      10.561  -0.459   3.900  1.00  0.00    -0.354 N 
ATOM     46  C   UNL     1       9.322   0.118   8.277  1.00  0.00     0.074 A 
ATOM     47  C   UNL     1       7.927  -0.053   7.987  1.00  0.00     0.031 C 
ATOM     48  C   UNL     1      10.108  -0.162   1.735  1.00  0.00     0.029 A 
ATOM     49  C   UNL     1      10.678  -1.111   2.671  1.00  0.00     0.049 A 
ATOM     50  H   UNL     1      11.008  -0.776   4.718  1.00  0.00     0.167 HD
ATOM     51  C   UNL     1      10.136  -0.567   9.129  1.00  0.00     0.034 A 
ATOM     52  C   UNL     1      11.139  -2.371   2.456  1.00  0.00     0.034 A 
ATOM     53  C   UNL     1      11.517  -0.197   8.922  1.00  0.00     0.049 A 
ATOM     54  C   UNL     1      11.913  -2.759   3.660  1.00  0.00     0.074 A 
ATOM     55  C   UNL     1      12.220   0.990   8.954  1.00  0.00     0.029 A 
ATOM     56  N   UNL     1      12.286  -1.081   8.199  1.00  0.00    -0.354 N 
ATOM     57  N   UNL     1      13.021  -2.167   4.010  1.00  0.00    -0.248 NA
ATOM     58  C   UNL     1      11.205  -3.444   4.731  1.00  0.00     0.031 C 
ATOM     59  C   UNL     1      13.124   0.905   7.855  1.00  0.00     0.029 A 
ATOM     60  C   UNL     1      12.998  -0.361   7.277  1.00  0.00     0.049 A 
ATOM     61  H   UNL     1      12.318  -2.057   8.322  1.00  0.00     0.167 HD
ATOM     62  C   UNL     1      12.887  -1.981   5.380  1.00  0.00     0.074 A 
ATOM     63  C   UNL     1      11.812  -2.889   5.785  1.00  0.00     0.031 C 
ATOM     64  C   UNL     1      13.421  -0.884   5.996  1.00  0.00     0.034 A 
BRANCH  51  65
ATOM     65  C   UNL     1       9.783  -1.841   9.866  1.00  0.00     0.023 A 
ATOM     66  C   UNL     1      10.729  -2.308  10.808  1.00  0.00     0.012 A 
ATOM     67  C   UNL     1       8.742  -2.733   9.517  1.00  0.00     0.148 A 
ATOM     68  C   UNL     1      10.685  -3.610  11.315  1.00  0.00     0.002 A 
ATOM     69  C   UNL     1       8.659  -4.001  10.082  1.00  0.00     0.091 A 
ATOM     70  F   UNL     1       7.891  -2.429   8.537  1.00  0.00    -0.205 F 
ATOM     71  C   UNL     1       9.647  -4.457  10.955  1.00  0.00     0.022 A 
BRANCH  69  72
ATOM     72  S   UNL     1       7.314  -5.125   9.678  1.00  0.00     0.127 S 
ATOM     73  O   UNL     1       7.994  -6.102   8.833  1.00  0.00    -0.237 OA
ATOM     74  O   UNL     1       6.924  -5.611  11.002  1.00  0.00    -0.237 OA
ATOM     75  O   UNL     1       6.302  -4.307   9.021  1.00  0.00    -0.744 OA
ENDBRANCH  69  72
ENDBRANCH  51  65
BRANCH  52  76
ATOM     76  C   UNL     1      10.747  -3.355   1.413  1.00  0.00     0.023 A 
ATOM     77  C   UNL     1      11.581  -4.452   1.112  1.00  0.00     0.012 A 
ATOM     78  C   UNL     1       9.432  -3.367   0.895  1.00  0.00     0.148 A 
ATOM     79  C   UNL     1      11.114  -5.527   0.340  1.00  0.00     0.002 A 
ATOM     80  C   UNL     1       8.975  -4.430   0.122  1.00  0.00     0.091 A 
ATOM     81  F   UNL     1       8.594  -2.381   1.242  1.00  0.00    -0.205 F 
ATOM     82  C   UNL     1       9.811  -5.519  -0.152  1.00  0.00     0.022 A 
BRANCH  80  83
ATOM     83  S   UNL     1       7.290  -4.488  -0.507  1.00  0.00     0.127 S 
ATOM     84  O   UNL     1       7.501  -4.864  -1.905  1.00  0.00    -0.237 OA
ATOM     85  O   UNL     1       6.694  -5.527   0.327  1.00  0.00    -0.237 OA
ATOM     86  O   UNL     1       6.750  -3.146  -0.319  1.00  0.00    -0.744 OA
ENDBRANCH  80  83
ENDBRANCH  52  76
BRANCH  64  87
ATOM     87  C   UNL     1      14.338   0.011   5.194  1.00  0.00     0.023 A 
ATOM     88  C   UNL     1      13.896   0.741   4.069  1.00  0.00     0.012 A 
ATOM     89  C   UNL     1      15.610   0.286   5.716  1.00  0.00     0.148 A 
ATOM     90  C   UNL     1      14.707   1.710   3.473  1.00  0.00     0.002 A 
ATOM     91  C   UNL     1      16.394   1.286   5.154  1.00  0.00     0.091 A 
ATOM     92  F   UNL     1      16.017  -0.411   6.788  1.00  0.00    -0.205 F 
ATOM     93  C   UNL     1      15.951   1.994   4.026  1.00  0.00     0.022 A 
BRANCH  91  94
ATOM     94  S   UNL     1      17.937   1.795   5.912  1.00  0.00     0.127 S 
ATOM     95  O   UNL     1      18.925   1.196   5.018  1.00  0.00    -0.237 OA
ATOM     96  O   UNL     1      17.854   3.255   5.844  1.00  0.00    -0.237 OA
ATOM     97  O   UNL     1      17.910   1.262   7.268  1.00  0.00    -0.744 OA
ENDBRANCH  91  94
ENDBRANCH  64  87
ENDBRANCH  38  39
ENDBRANCH  30  33
ENDBRANCH  28  29
ENDBRANCH  27  28
ENDBRANCH   1  27
TORSDOF 18
