REMARK SMILES CC1(C)[C@H](C#N)C(SCC(=O)NCCCNC(=O)c2ccc(-c3c4nc(c(-c5cccc(S(=O)(=O)[O-])c5F)c5ccc([nH]5)c(-c5cccc(S(=O)(=O)[O-])c5F)c5nc(c(-c6cccc(S(=O)(=O)[O-])c6F)c6ccc3[nH]6)C=C5)C=C4)cc2)=NC(=O)[C@@H]1C#N
REMARK SMILES IDX 14 1 13 2 12 3 10 4 11 5 9 7 8 8 7 9 1 10 2 11 3 12 4 13
REMARK SMILES IDX 85 14 83 15 82 16 84 17 5 18 6 19 86 20 87 21 15 22 16 23
REMARK SMILES IDX 17 24 18 26 19 27 20 28 81 29 21 30 80 31 22 32 23 33 24 34
REMARK SMILES IDX 74 35 25 36 79 37 73 38 75 39 26 40 78 41 72 42 71 43 27 45
REMARK SMILES IDX 59 46 39 47 58 48 40 49 43 50 57 51 76 52 41 53 42 54 56 56
REMARK SMILES IDX 77 57 44 58 28 59 29 60 37 61 30 62 32 63 38 64 31 65 33 66
REMARK SMILES IDX 34 67 35 68 36 69 60 70 61 71 69 72 62 73 64 74 70 75 63 76
REMARK SMILES IDX 65 77 66 78 67 79 68 80 45 81 46 82 54 83 47 84 49 85 55 86
REMARK SMILES IDX 48 87 50 88 51 89 52 90 53 91
REMARK H PARENT 12 6 16 25 75 44 43 55
REMARK Flexibility Score: inf
ROOT
ATOM      1  C   UNL     1       2.151   3.355   4.618  1.00  0.00     0.042 C 
ENDROOT
BRANCH   1   2
ATOM      2  C   UNL     1       1.742   4.826   4.588  1.00  0.00     0.117 C 
BRANCH   2   3
ATOM      3  N   UNL     1       2.247   5.500   3.405  1.00  0.00    -0.355 N 
ATOM      4  C   UNL     1       1.592   5.962   2.302  1.00  0.00     0.230 C 
ATOM      5  O   UNL     1       2.265   6.568   1.464  1.00  0.00    -0.274 OA
ATOM      6  H   UNL     1       3.220   5.649   3.399  1.00  0.00     0.163 HD
BRANCH   4   7
ATOM      7  C   UNL     1       0.085   5.857   2.173  1.00  0.00     0.176 C 
BRANCH   7   8
ATOM      8  S   UNL     1      -0.567   4.173   2.244  1.00  0.00    -0.099 SA
BRANCH   8   9
ATOM      9  C   UNL     1       0.006   3.423   0.749  1.00  0.00     0.095 C 
ATOM     10  C   UNL     1       0.909   0.007  -0.322  1.00  0.00     0.015 C 
ATOM     11  C   UNL     1       0.145   1.298  -0.752  1.00  0.00     0.012 C 
ATOM     12  C   UNL     1      -1.024   0.787  -1.646  1.00  0.00     0.015 C 
ATOM     13  C   UNL     1      -0.377   1.970   0.567  1.00  0.00     0.156 C 
ATOM     14  C   UNL     1       1.161   2.184  -1.557  1.00  0.00     0.191 C 
ATOM     15  C   UNL     1       1.301   3.647  -1.172  1.00  0.00     0.264 C 
ATOM     16  N   UNL     1       0.736   4.130  -0.029  1.00  0.00    -0.209 NA
ATOM     17  O   UNL     1       2.000   4.389  -1.860  1.00  0.00    -0.271 OA
BRANCH  13  18
ATOM     18  C   UNL     1      -1.843   1.853   0.735  1.00  0.00     0.073 C 
ATOM     19  N   UNL     1      -3.001   1.799   0.844  1.00  0.00    -0.198 NA
ENDBRANCH  13  18
BRANCH  14  20
ATOM     20  C   UNL     1       0.942   2.155  -3.019  1.00  0.00     0.076 C 
ATOM     21  N   UNL     1       0.727   2.118  -4.162  1.00  0.00    -0.197 NA
ENDBRANCH  14  20
ENDBRANCH   8   9
ENDBRANCH   7   8
ENDBRANCH   4   7
ENDBRANCH   2   3
ENDBRANCH   1   2
BRANCH   1  22
ATOM     22  C   UNL     1       3.659   3.131   4.713  1.00  0.00     0.118 C 
BRANCH  22  23
ATOM     23  N   UNL     1       4.231   3.669   5.939  1.00  0.00    -0.352 N 
ATOM     24  C   UNL     1       4.952   3.047   6.928  1.00  0.00     0.251 C 
ATOM     25  H   UNL     1       4.077   4.631   6.081  1.00  0.00     0.163 HD
ATOM     26  O   UNL     1       5.182   3.652   7.973  1.00  0.00    -0.269 OA
BRANCH  24  27
ATOM     27  C   UNL     1       5.432   1.659   6.756  1.00  0.00     0.039 A 
ATOM     28  C   UNL     1       5.341   0.780   7.839  1.00  0.00     0.014 A 
ATOM     29  C   UNL     1       5.987   1.223   5.550  1.00  0.00     0.014 A 
ATOM     30  C   UNL     1       5.741  -0.550   7.690  1.00  0.00     0.010 A 
ATOM     31  C   UNL     1       6.310  -0.122   5.379  1.00  0.00     0.010 A 
ATOM     32  C   UNL     1       6.187  -1.025   6.446  1.00  0.00    -0.014 A 
BRANCH  32  33
ATOM     33  C   UNL     1       6.485  -2.467   6.238  1.00  0.00     0.031 A 
ATOM     34  C   UNL     1       7.864  -2.922   5.845  1.00  0.00     0.074 A 
ATOM     35  C   UNL     1       5.484  -3.365   6.330  1.00  0.00     0.049 A 
ATOM     36  N   UNL     1       8.287  -4.131   5.580  1.00  0.00    -0.248 NA
ATOM     37  C   UNL     1       8.899  -1.883   5.710  1.00  0.00     0.031 C 
ATOM     38  C   UNL     1       4.087  -3.046   6.634  1.00  0.00     0.029 A 
ATOM     39  N   UNL     1       5.479  -4.727   6.151  1.00  0.00    -0.354 N 
ATOM     40  C   UNL     1       9.622  -3.999   5.219  1.00  0.00     0.074 A 
ATOM     41  C   UNL     1       9.932  -2.586   5.267  1.00  0.00     0.031 C 
ATOM     42  C   UNL     1       3.365  -4.176   6.630  1.00  0.00     0.029 A 
ATOM     43  C   UNL     1       4.233  -5.295   6.280  1.00  0.00     0.049 A 
ATOM     44  H   UNL     1       6.291  -5.247   5.950  1.00  0.00     0.167 HD
ATOM     45  C   UNL     1      10.515  -4.966   4.898  1.00  0.00     0.034 A 
ATOM     46  C   UNL     1       3.827  -6.569   6.116  1.00  0.00     0.034 A 
ATOM     47  C   UNL     1      10.210  -6.372   4.870  1.00  0.00     0.049 A 
ATOM     48  C   UNL     1       4.840  -7.623   5.765  1.00  0.00     0.074 A 
ATOM     49  C   UNL     1      11.069  -7.432   4.636  1.00  0.00     0.029 A 
ATOM     50  N   UNL     1       8.950  -6.915   5.061  1.00  0.00    -0.354 N 
ATOM     51  N   UNL     1       6.130  -7.495   5.574  1.00  0.00    -0.248 NA
ATOM     52  C   UNL     1       4.348  -9.002   5.637  1.00  0.00     0.031 C 
ATOM     53  C   UNL     1      10.318  -8.612   4.638  1.00  0.00     0.029 A 
ATOM     54  C   UNL     1       9.002  -8.293   4.926  1.00  0.00     0.049 A 
ATOM     55  H   UNL     1       8.137  -6.398   5.263  1.00  0.00     0.167 HD
ATOM     56  C   UNL     1       6.609  -8.779   5.340  1.00  0.00     0.074 A 
ATOM     57  C   UNL     1       5.474  -9.672   5.436  1.00  0.00     0.031 C 
ATOM     58  C   UNL     1       7.874  -9.180   5.060  1.00  0.00     0.034 A 
BRANCH  45  59
ATOM     59  C   UNL     1      11.925  -4.540   4.573  1.00  0.00     0.023 A 
ATOM     60  C   UNL     1      12.760  -4.038   5.592  1.00  0.00     0.012 A 
ATOM     61  C   UNL     1      12.444  -4.699   3.273  1.00  0.00     0.148 A 
ATOM     62  C   UNL     1      14.075  -3.666   5.316  1.00  0.00     0.002 A 
ATOM     63  C   UNL     1      13.771  -4.374   3.016  1.00  0.00     0.091 A 
ATOM     64  F   UNL     1      11.631  -5.161   2.312  1.00  0.00    -0.205 F 
ATOM     65  C   UNL     1      14.583  -3.844   4.032  1.00  0.00     0.022 A 
BRANCH  63  66
ATOM     66  S   UNL     1      14.544  -4.643   1.417  1.00  0.00     0.127 S 
ATOM     67  O   UNL     1      14.768  -3.271   0.964  1.00  0.00    -0.237 OA
ATOM     68  O   UNL     1      15.759  -5.371   1.784  1.00  0.00    -0.237 OA
ATOM     69  O   UNL     1      13.588  -5.410   0.631  1.00  0.00    -0.744 OA
ENDBRANCH  63  66
ENDBRANCH  45  59
BRANCH  46  70
ATOM     70  C   UNL     1       2.393  -6.925   6.311  1.00  0.00     0.023 A 
ATOM     71  C   UNL     1       2.014  -7.726   7.406  1.00  0.00     0.012 A 
ATOM     72  C   UNL     1       1.403  -6.457   5.426  1.00  0.00     0.148 A 
ATOM     73  C   UNL     1       0.679  -8.086   7.593  1.00  0.00     0.002 A 
ATOM     74  C   UNL     1       0.068  -6.768   5.654  1.00  0.00     0.091 A 
ATOM     75  F   UNL     1       1.786  -5.703   4.387  1.00  0.00    -0.205 F 
ATOM     76  C   UNL     1      -0.295  -7.599   6.724  1.00  0.00     0.022 A 
BRANCH  74  77
ATOM     77  S   UNL     1      -1.260  -6.071   4.667  1.00  0.00     0.127 S 
ATOM     78  O   UNL     1      -1.763  -7.250   3.967  1.00  0.00    -0.237 OA
ATOM     79  O   UNL     1      -2.150  -5.537   5.698  1.00  0.00    -0.237 OA
ATOM     80  O   UNL     1      -0.639  -5.056   3.827  1.00  0.00    -0.744 OA
ENDBRANCH  74  77
ENDBRANCH  46  70
BRANCH  58  81
ATOM     81  C   UNL     1       8.114 -10.656   4.876  1.00  0.00     0.023 A 
ATOM     82  C   UNL     1       7.619 -11.319   3.736  1.00  0.00     0.012 A 
ATOM     83  C   UNL     1       8.887 -11.375   5.810  1.00  0.00     0.148 A 
ATOM     84  C   UNL     1       7.854 -12.681   3.548  1.00  0.00     0.002 A 
ATOM     85  C   UNL     1       9.165 -12.718   5.589  1.00  0.00     0.091 A 
ATOM     86  F   UNL     1       9.337 -10.731   6.897  1.00  0.00    -0.205 F 
ATOM     87  C   UNL     1       8.636 -13.377   4.467  1.00  0.00     0.022 A 
BRANCH  85  88
ATOM     88  S   UNL     1      10.242 -13.671   6.664  1.00  0.00     0.127 S 
ATOM     89  O   UNL     1       9.298 -14.599   7.284  1.00  0.00    -0.237 OA
ATOM     90  O   UNL     1      11.164 -14.286   5.709  1.00  0.00    -0.237 OA
ATOM     91  O   UNL     1      10.859 -12.713   7.571  1.00  0.00    -0.744 OA
ENDBRANCH  85  88
ENDBRANCH  58  81
ENDBRANCH  32  33
ENDBRANCH  24  27
ENDBRANCH  22  23
ENDBRANCH   1  22
TORSDOF 17
