REMARK SMILES COc1cccc([C@H]2CC(c3ccc(S(C)(=O)=O)cc3)=NN2c2ccc(C(=O)NCCCNC(=O)c3ccc(-c4c5nc(c(-c6cccc(S(=O)(=O)[O-])c6F)c6ccc([nH]6)c(-c6cccc(S(=O)(=O)[O-])c6F)c6nc(c(-c7cccc(S(=O)(=O)[O-])c7F)c7ccc4[nH]7)C=C6)C=C5)cc3)cc2)c1
REMARK SMILES IDX 31 1 30 2 29 3 27 4 28 5 26 7 23 8 24 9 100 10 25 11 99 12
REMARK SMILES IDX 22 13 8 14 9 15 10 16 21 17 7 18 3 19 4 20 101 21 5 22 6 23
REMARK SMILES IDX 2 24 1 25 11 26 12 27 20 28 13 29 19 30 14 31 15 32 16 33
REMARK SMILES IDX 17 34 18 35 32 36 33 37 34 38 35 40 36 41 37 42 98 43 38 44
REMARK SMILES IDX 97 45 39 46 40 47 41 48 91 49 42 50 96 51 90 52 92 53 43 54
REMARK SMILES IDX 95 55 89 56 88 57 44 59 76 60 56 61 75 62 57 63 60 64 74 65
REMARK SMILES IDX 93 66 58 67 59 68 73 70 94 71 61 72 45 73 46 74 54 75 47 76
REMARK SMILES IDX 49 77 55 78 48 79 50 80 51 81 52 82 53 83 77 84 78 85 86 86
REMARK SMILES IDX 79 87 81 88 87 89 80 90 82 91 83 92 84 93 85 94 62 95 63 96
REMARK SMILES IDX 71 97 64 98 66 99 72 100 65 101 67 102 68 103 69 104 70 105
REMARK H PARENT 29 6 33 39 92 58 60 69
REMARK Flexibility Score: inf
ROOT
ATOM      1  C   UNL     1       5.458   5.095   8.968  1.00  0.00     0.042 C 
ENDROOT
BRANCH   1   2
ATOM      2  C   UNL     1       4.275   5.258   8.014  1.00  0.00     0.118 C 
BRANCH   2   3
ATOM      3  N   UNL     1       4.649   6.015   6.834  1.00  0.00    -0.352 N 
ATOM      4  C   UNL     1       4.955   5.639   5.552  1.00  0.00     0.251 C 
ATOM      5  O   UNL     1       5.162   6.539   4.736  1.00  0.00    -0.269 OA
ATOM      6  H   UNL     1       4.690   6.987   6.984  1.00  0.00     0.163 HD
BRANCH   4   7
ATOM      7  C   UNL     1       4.989   4.222   5.093  1.00  0.00     0.039 A 
ATOM      8  C   UNL     1       4.942   1.588   4.050  1.00  0.00     0.060 A 
ATOM      9  C   UNL     1       4.745   2.693   3.217  1.00  0.00     0.029 A 
ATOM     10  C   UNL     1       5.226   1.823   5.397  1.00  0.00     0.029 A 
ATOM     11  C   UNL     1       4.747   3.992   3.732  1.00  0.00     0.016 A 
ATOM     12  C   UNL     1       5.285   3.127   5.906  1.00  0.00     0.016 A 
BRANCH   8  13
ATOM     13  N   UNL     1       4.865   0.308   3.525  1.00  0.00    -0.257 N 
ATOM     14  C   UNL     1       4.034  -0.755   4.089  1.00  0.00     0.144 C 
ATOM     15  C   UNL     1       4.517  -1.998   3.330  1.00  0.00     0.091 C 
ATOM     16  C   UNL     1       5.691  -1.411   2.601  1.00  0.00     0.071 C 
ATOM     17  N   UNL     1       5.858  -0.132   2.711  1.00  0.00    -0.176 NA
BRANCH  14  18
ATOM     18  C   UNL     1       2.558  -0.457   3.879  1.00  0.00    -0.019 A 
ATOM     19  C   UNL     1       0.703   0.145   2.409  1.00  0.00     0.119 A 
ATOM     20  C   UNL     1      -0.137   0.223   3.519  1.00  0.00     0.046 A 
ATOM     21  C   UNL     1       2.047  -0.185   2.593  1.00  0.00     0.052 A 
ATOM     22  C   UNL     1       0.349  -0.048   4.798  1.00  0.00     0.004 A 
ATOM     23  C   UNL     1       1.690  -0.389   4.978  1.00  0.00     0.006 A 
BRANCH  19  24
ATOM     24  O   UNL     1       0.108   0.439   1.212  1.00  0.00    -0.497 OA
ATOM     25  C   UNL     1       0.831   0.082   0.041  1.00  0.00     0.278 C 
ENDBRANCH  19  24
ENDBRANCH  14  18
BRANCH  16  26
ATOM     26  C   UNL     1       6.605  -2.261   1.838  1.00  0.00    -0.002 A 
ATOM     27  C   UNL     1       7.944  -2.330   2.235  1.00  0.00     0.011 A 
ATOM     28  C   UNL     1       6.143  -2.965   0.724  1.00  0.00     0.011 A 
ATOM     29  C   UNL     1       8.834  -3.130   1.518  1.00  0.00     0.021 A 
ATOM     30  C   UNL     1       7.038  -3.744  -0.010  1.00  0.00     0.021 A 
ATOM     31  C   UNL     1       8.378  -3.821   0.390  1.00  0.00     0.067 A 
BRANCH  31  32
ATOM     32  S   UNL     1       9.521  -4.817  -0.537  1.00  0.00     0.175 S 
ATOM     33  C   UNL     1      10.777  -3.678  -1.060  1.00  0.00     0.163 C 
ATOM     34  O   UNL     1      10.107  -5.761   0.393  1.00  0.00    -0.224 OA
ATOM     35  O   UNL     1       8.831  -5.278  -1.729  1.00  0.00    -0.224 OA
ENDBRANCH  31  32
ENDBRANCH  16  26
ENDBRANCH   8  13
ENDBRANCH   4   7
ENDBRANCH   2   3
ENDBRANCH   1   2
BRANCH   1  36
ATOM     36  C   UNL     1       5.816   6.378   9.715  1.00  0.00     0.118 C 
BRANCH  36  37
ATOM     37  N   UNL     1       4.792   6.747  10.683  1.00  0.00    -0.352 N 
ATOM     38  C   UNL     1       4.894   6.964  12.034  1.00  0.00     0.251 C 
ATOM     39  H   UNL     1       3.887   6.857  10.311  1.00  0.00     0.163 HD
ATOM     40  O   UNL     1       3.870   7.044  12.707  1.00  0.00    -0.269 OA
BRANCH  38  41
ATOM     41  C   UNL     1       6.218   7.097  12.683  1.00  0.00     0.039 A 
ATOM     42  C   UNL     1       6.412   6.513  13.939  1.00  0.00     0.014 A 
ATOM     43  C   UNL     1       7.246   7.837  12.092  1.00  0.00     0.014 A 
ATOM     44  C   UNL     1       7.648   6.633  14.580  1.00  0.00     0.010 A 
ATOM     45  C   UNL     1       8.497   7.902  12.702  1.00  0.00     0.010 A 
ATOM     46  C   UNL     1       8.708   7.310  13.957  1.00  0.00    -0.014 A 
BRANCH  46  47
ATOM     47  C   UNL     1      10.045   7.405  14.597  1.00  0.00     0.031 A 
ATOM     48  C   UNL     1      10.599   8.743  15.006  1.00  0.00     0.074 A 
ATOM     49  C   UNL     1      10.798   6.295  14.726  1.00  0.00     0.049 A 
ATOM     50  N   UNL     1      11.768   9.030  15.517  1.00  0.00    -0.248 NA
ATOM     51  C   UNL     1       9.737   9.917  14.790  1.00  0.00     0.031 C 
ATOM     52  C   UNL     1      10.404   4.952  14.293  1.00  0.00     0.029 A 
ATOM     53  N   UNL     1      12.064   6.123  15.228  1.00  0.00    -0.354 N 
ATOM     54  C   UNL     1      11.799  10.413  15.647  1.00  0.00     0.074 A 
ATOM     55  C   UNL     1      10.541  10.912  15.136  1.00  0.00     0.031 C 
ATOM     56  C   UNL     1      11.408   4.097  14.545  1.00  0.00     0.029 A 
ATOM     57  C   UNL     1      12.524   4.831  15.133  1.00  0.00     0.049 A 
ATOM     58  H   UNL     1      12.592   6.856  15.620  1.00  0.00     0.167 HD
ATOM     59  C   UNL     1      12.773  11.195  16.171  1.00  0.00     0.034 A 
ATOM     60  C   UNL     1      13.713   4.297  15.474  1.00  0.00     0.034 A 
ATOM     61  C   UNL     1      14.000  10.691  16.725  1.00  0.00     0.049 A 
ATOM     62  C   UNL     1      14.755   5.179  16.106  1.00  0.00     0.074 A 
ATOM     63  C   UNL     1      15.008  11.391  17.364  1.00  0.00     0.029 A 
ATOM     64  N   UNL     1      14.389   9.360  16.705  1.00  0.00    -0.354 N 
ATOM     65  N   UNL     1      14.698   6.462  16.372  1.00  0.00    -0.248 NA
ATOM     66  C   UNL     1      16.010   4.535  16.521  1.00  0.00     0.031 C 
ATOM     67  C   UNL     1      16.013  10.484  17.720  1.00  0.00     0.029 A 
ATOM     68  C   UNL     1      15.623   9.217  17.316  1.00  0.00     0.049 A 
ATOM     69  H   UNL     1      13.864   8.624  16.314  1.00  0.00     0.167 HD
ATOM     70  C   UNL     1      15.892   6.772  17.015  1.00  0.00     0.074 A 
ATOM     71  C   UNL     1      16.643   5.537  17.117  1.00  0.00     0.031 C 
ATOM     72  C   UNL     1      16.333   7.973  17.463  1.00  0.00     0.034 A 
BRANCH  59  73
ATOM     73  C   UNL     1      12.524  12.681  16.228  1.00  0.00     0.023 A 
ATOM     74  C   UNL     1      11.593  13.190  17.157  1.00  0.00     0.012 A 
ATOM     75  C   UNL     1      13.248  13.574  15.415  1.00  0.00     0.148 A 
ATOM     76  C   UNL     1      11.362  14.562  17.252  1.00  0.00     0.002 A 
ATOM     77  C   UNL     1      13.042  14.944  15.545  1.00  0.00     0.091 A 
ATOM     78  F   UNL     1      14.113  13.071  14.523  1.00  0.00    -0.205 F 
ATOM     79  C   UNL     1      12.092  15.438  16.454  1.00  0.00     0.022 A 
BRANCH  77  80
ATOM     80  S   UNL     1      13.988  16.157  14.617  1.00  0.00     0.127 S 
ATOM     81  O   UNL     1      12.996  16.630  13.652  1.00  0.00    -0.237 OA
ATOM     82  O   UNL     1      14.342  17.130  15.652  1.00  0.00    -0.237 OA
ATOM     83  O   UNL     1      15.119  15.436  14.053  1.00  0.00    -0.744 OA
ENDBRANCH  77  80
ENDBRANCH  59  73
BRANCH  60  84
ATOM     84  C   UNL     1      13.948   2.836  15.296  1.00  0.00     0.023 A 
ATOM     85  C   UNL     1      14.010   2.006  16.431  1.00  0.00     0.012 A 
ATOM     86  C   UNL     1      14.066   2.260  14.016  1.00  0.00     0.148 A 
ATOM     87  C   UNL     1      14.214   0.632  16.298  1.00  0.00     0.002 A 
ATOM     88  C   UNL     1      14.215   0.883  13.888  1.00  0.00     0.091 A 
ATOM     89  F   UNL     1      14.018   3.068  12.947  1.00  0.00    -0.205 F 
ATOM     90  C   UNL     1      14.306   0.070  15.028  1.00  0.00     0.022 A 
BRANCH  88  91
ATOM     91  S   UNL     1      14.202   0.061  12.290  1.00  0.00     0.127 S 
ATOM     92  O   UNL     1      15.608  -0.297  12.125  1.00  0.00    -0.237 OA
ATOM     93  O   UNL     1      13.303  -1.067  12.535  1.00  0.00    -0.237 OA
ATOM     94  O   UNL     1      13.680   1.044  11.350  1.00  0.00    -0.744 OA
ENDBRANCH  88  91
ENDBRANCH  60  84
BRANCH  72  95
ATOM     95  C   UNL     1      17.680   8.015  18.134  1.00  0.00     0.023 A 
ATOM     96  C   UNL     1      18.850   7.900  17.358  1.00  0.00     0.012 A 
ATOM     97  C   UNL     1      17.788   8.248  19.520  1.00  0.00     0.148 A 
ATOM     98  C   UNL     1      20.107   7.987  17.955  1.00  0.00     0.002 A 
ATOM     99  C   UNL     1      19.044   8.379  20.100  1.00  0.00     0.091 A 
ATOM    100  F   UNL     1      16.663   8.334  20.244  1.00  0.00    -0.205 F 
ATOM    101  C   UNL     1      20.204   8.238  19.321  1.00  0.00     0.022 A 
BRANCH  99 102
ATOM    102  S   UNL     1      19.261   8.795  21.834  1.00  0.00     0.127 S 
ATOM    103  O   UNL     1      19.667   7.510  22.401  1.00  0.00    -0.237 OA
ATOM    104  O   UNL     1      20.322   9.802  21.784  1.00  0.00    -0.237 OA
ATOM    105  O   UNL     1      17.972   9.302  22.287  1.00  0.00    -0.744 OA
ENDBRANCH  99 102
ENDBRANCH  72  95
ENDBRANCH  46  47
ENDBRANCH  38  41
ENDBRANCH  36  37
ENDBRANCH   1  36
TORSDOF 18
