REMARK SMILES CCOC(=O)[C@H](c1ccccc1)N1C(=O)/C(=C/c2ccc(C(=O)NCCCNC(=O)c3ccc(-c4c5nc(c(-c6cccc(S(=O)(=O)[O-])c6F)c6ccc([nH]6)c(-c6cccc(S(=O)(=O)[O-])c6F)c6nc(c(-c7cccc(S(=O)(=O)[O-])c7F)c7ccc4[nH]7)C=C6)C=C5)cc3)cc2)SC1=S
REMARK SMILES IDX 25 1 24 2 22 3 23 4 21 6 18 7 19 8 95 9 20 10 94 11 17 12
REMARK SMILES IDX 13 13 14 14 97 15 15 16 16 17 96 18 98 19 6 20 4 21 5 22
REMARK SMILES IDX 3 23 2 24 1 25 7 26 8 27 12 28 9 29 11 30 10 31 26 32 27 33
REMARK SMILES IDX 28 34 29 35 30 37 31 38 32 39 93 40 33 41 92 42 34 43 35 44
REMARK SMILES IDX 36 45 86 46 37 47 91 48 85 49 87 50 38 51 90 52 84 53 83 54
REMARK SMILES IDX 39 56 71 57 51 58 70 59 52 60 55 61 69 62 88 63 53 64 54 65
REMARK SMILES IDX 68 67 89 68 56 69 40 70 41 71 49 72 42 73 44 74 50 75 43 76
REMARK SMILES IDX 45 77 46 78 47 79 48 80 72 81 73 82 81 83 74 84 76 85 82 86
REMARK SMILES IDX 75 87 77 88 78 89 79 90 80 91 57 92 58 93 66 94 59 95 61 96
REMARK SMILES IDX 67 97 60 98 62 99 63 100 64 101 65 102
REMARK H PARENT 24 5 28 36 87 55 55 66
REMARK Flexibility Score: inf
ROOT
ATOM      1  C   UNL     1       1.940  11.696  -7.095  1.00  0.00     0.118 C 
ENDROOT
BRANCH   1   2
ATOM      2  N   UNL     1       0.500  11.865  -7.206  1.00  0.00    -0.352 N 
ATOM      3  C   UNL     1      -0.533  10.978  -7.036  1.00  0.00     0.251 C 
ATOM      4  O   UNL     1      -1.685  11.411  -7.060  1.00  0.00    -0.269 OA
ATOM      5  H   UNL     1       0.216  12.776  -7.446  1.00  0.00     0.163 HD
BRANCH   3   6
ATOM      6  C   UNL     1      -0.308   9.535  -6.763  1.00  0.00     0.039 A 
ATOM      7  C   UNL     1       0.030   6.823  -6.117  1.00  0.00    -0.024 A 
ATOM      8  C   UNL     1      -1.057   7.533  -5.602  1.00  0.00     0.009 A 
ATOM      9  C   UNL     1       0.911   7.454  -6.998  1.00  0.00     0.009 A 
ATOM     10  C   UNL     1      -1.223   8.884  -5.923  1.00  0.00     0.014 A 
ATOM     11  C   UNL     1       0.728   8.795  -7.336  1.00  0.00     0.014 A 
BRANCH   7  12
ATOM     12  C   UNL     1       0.234   5.420  -5.769  1.00  0.00     0.029 C 
ATOM     13  N   UNL     1       2.372   3.263  -3.809  1.00  0.00    -0.274 N 
ATOM     14  C   UNL     1       1.370   3.503  -4.730  1.00  0.00     0.267 C 
ATOM     15  C   UNL     1       3.099   4.378  -3.423  1.00  0.00     0.149 C 
ATOM     16  O   UNL     1       0.744   2.678  -5.373  1.00  0.00    -0.268 OA
ATOM     17  C   UNL     1       1.197   4.958  -4.960  1.00  0.00     0.081 C 
ATOM     18  S   UNL     1       2.377   5.839  -4.092  1.00  0.00    -0.054 SA
ATOM     19  S   UNL     1       4.476   4.463  -2.481  1.00  0.00    -0.052 S 
BRANCH  13  20
ATOM     20  C   UNL     1       2.640   1.894  -3.298  1.00  0.00     0.232 C 
BRANCH  20  21
ATOM     21  C   UNL     1       2.004   0.701  -4.063  1.00  0.00     0.333 C 
ATOM     22  O   UNL     1       0.813   0.416  -4.059  1.00  0.00    -0.249 OA
BRANCH  21  23
ATOM     23  O   UNL     1       2.963   0.002  -4.738  1.00  0.00    -0.464 OA
BRANCH  23  24
ATOM     24  C   UNL     1       2.498  -1.012  -5.646  1.00  0.00     0.229 C 
ATOM     25  C   UNL     1       1.758  -2.158  -4.970  1.00  0.00     0.049 C 
ENDBRANCH  23  24
ENDBRANCH  21  23
ENDBRANCH  20  21
BRANCH  20  26
ATOM     26  C   UNL     1       2.259   1.771  -1.817  1.00  0.00    -0.014 A 
ATOM     27  C   UNL     1       0.930   1.942  -1.396  1.00  0.00     0.006 A 
ATOM     28  C   UNL     1       3.234   1.448  -0.858  1.00  0.00     0.006 A 
ATOM     29  C   UNL     1       0.587   1.786  -0.053  1.00  0.00     0.000 A 
ATOM     30  C   UNL     1       2.889   1.310   0.487  1.00  0.00     0.000 A 
ATOM     31  C   UNL     1       1.566   1.474   0.888  1.00  0.00     0.000 A 
ENDBRANCH  20  26
ENDBRANCH  13  20
ENDBRANCH   7  12
ENDBRANCH   3   6
ENDBRANCH   1   2
BRANCH   1  32
ATOM     32  C   UNL     1       2.611  11.663  -8.467  1.00  0.00     0.042 C 
BRANCH  32  33
ATOM     33  C   UNL     1       2.654  13.021  -9.161  1.00  0.00     0.118 C 
BRANCH  33  34
ATOM     34  N   UNL     1       3.569  13.943  -8.502  1.00  0.00    -0.352 N 
ATOM     35  C   UNL     1       4.632  14.641  -9.018  1.00  0.00     0.251 C 
ATOM     36  H   UNL     1       3.399  14.086  -7.543  1.00  0.00     0.163 HD
ATOM     37  O   UNL     1       5.409  15.205  -8.251  1.00  0.00    -0.269 OA
BRANCH  35  38
ATOM     38  C   UNL     1       4.854  14.712 -10.480  1.00  0.00     0.039 A 
ATOM     39  C   UNL     1       6.162  14.619 -10.967  1.00  0.00     0.014 A 
ATOM     40  C   UNL     1       3.792  14.915 -11.366  1.00  0.00     0.014 A 
ATOM     41  C   UNL     1       6.399  14.683 -12.343  1.00  0.00     0.010 A 
ATOM     42  C   UNL     1       4.023  14.912 -12.740  1.00  0.00     0.010 A 
ATOM     43  C   UNL     1       5.329  14.808 -13.242  1.00  0.00    -0.014 A 
BRANCH  43  44
ATOM     44  C   UNL     1       5.552  14.825 -14.711  1.00  0.00     0.031 A 
ATOM     45  C   UNL     1       5.210  16.048 -15.517  1.00  0.00     0.074 A 
ATOM     46  C   UNL     1       5.973  13.704 -15.330  1.00  0.00     0.049 A 
ATOM     47  N   UNL     1       5.270  16.226 -16.812  1.00  0.00    -0.248 NA
ATOM     48  C   UNL     1       4.708  17.217 -14.776  1.00  0.00     0.031 C 
ATOM     49  C   UNL     1       6.260  12.430 -14.668  1.00  0.00     0.029 A 
ATOM     50  N   UNL     1       6.202  13.447 -16.659  1.00  0.00    -0.354 N 
ATOM     51  C   UNL     1       4.777  17.504 -17.044  1.00  0.00     0.074 A 
ATOM     52  C   UNL     1       4.399  18.050 -15.759  1.00  0.00     0.031 C 
ATOM     53  C   UNL     1       6.620  11.526 -15.592  1.00  0.00     0.029 A 
ATOM     54  C   UNL     1       6.568  12.145 -16.913  1.00  0.00     0.049 A 
ATOM     55  H   UNL     1       6.113  14.129 -17.363  1.00  0.00     0.167 HD
ATOM     56  C   UNL     1       4.675  18.174 -18.217  1.00  0.00     0.034 A 
ATOM     57  C   UNL     1       6.825  11.519 -18.078  1.00  0.00     0.034 A 
ATOM     58  C   UNL     1       5.105  17.648 -19.485  1.00  0.00     0.049 A 
ATOM     59  C   UNL     1       6.765  12.305 -19.359  1.00  0.00     0.074 A 
ATOM     60  C   UNL     1       5.141  18.284 -20.713  1.00  0.00     0.029 A 
ATOM     61  N   UNL     1       5.572  16.359 -19.689  1.00  0.00    -0.354 N 
ATOM     62  N   UNL     1       6.459  13.568 -19.538  1.00  0.00    -0.248 NA
ATOM     63  C   UNL     1       7.121  11.593 -20.595  1.00  0.00     0.031 C 
ATOM     64  C   UNL     1       5.616  17.374 -21.663  1.00  0.00     0.029 A 
ATOM     65  C   UNL     1       5.892  16.177 -21.023  1.00  0.00     0.049 A 
ATOM     66  H   UNL     1       5.663  15.674 -18.988  1.00  0.00     0.167 HD
ATOM     67  C   UNL     1       6.618  13.810 -20.897  1.00  0.00     0.074 A 
ATOM     68  C   UNL     1       7.068  12.569 -21.493  1.00  0.00     0.031 C 
ATOM     69  C   UNL     1       6.394  14.952 -21.593  1.00  0.00     0.034 A 
BRANCH  56  70
ATOM     70  C   UNL     1       4.132  19.578 -18.179  1.00  0.00     0.023 A 
ATOM     71  C   UNL     1       4.926  20.613 -17.644  1.00  0.00     0.012 A 
ATOM     72  C   UNL     1       2.870  19.887 -18.724  1.00  0.00     0.148 A 
ATOM     73  C   UNL     1       4.462  21.928 -17.624  1.00  0.00     0.002 A 
ATOM     74  C   UNL     1       2.431  21.207 -18.738  1.00  0.00     0.091 A 
ATOM     75  F   UNL     1       2.120  18.887 -19.209  1.00  0.00    -0.205 F 
ATOM     76  C   UNL     1       3.221  22.226 -18.180  1.00  0.00     0.022 A 
BRANCH  74  77
ATOM     77  S   UNL     1       0.881  21.703 -19.500  1.00  0.00     0.127 S 
ATOM     78  O   UNL     1       0.056  21.992 -18.328  1.00  0.00    -0.237 OA
ATOM     79  O   UNL     1       1.279  22.882 -20.270  1.00  0.00    -0.237 OA
ATOM     80  O   UNL     1       0.451  20.570 -20.306  1.00  0.00    -0.744 OA
ENDBRANCH  74  77
ENDBRANCH  56  70
BRANCH  57  81
ATOM     81  C   UNL     1       7.240  10.088 -18.072  1.00  0.00     0.023 A 
ATOM     82  C   UNL     1       8.576   9.757 -18.372  1.00  0.00     0.012 A 
ATOM     83  C   UNL     1       6.339   9.062 -17.730  1.00  0.00     0.148 A 
ATOM     84  C   UNL     1       9.000   8.428 -18.357  1.00  0.00     0.002 A 
ATOM     85  C   UNL     1       6.781   7.745 -17.664  1.00  0.00     0.091 A 
ATOM     86  F   UNL     1       5.068   9.395 -17.461  1.00  0.00    -0.205 F 
ATOM     87  C   UNL     1       8.107   7.424 -17.993  1.00  0.00     0.022 A 
BRANCH  85  88
ATOM     88  S   UNL     1       5.736   6.410 -17.070  1.00  0.00     0.127 S 
ATOM     89  O   UNL     1       5.433   5.694 -18.306  1.00  0.00    -0.237 OA
ATOM     90  O   UNL     1       6.634   5.705 -16.154  1.00  0.00    -0.237 OA
ATOM     91  O   UNL     1       4.608   7.059 -16.417  1.00  0.00    -0.744 OA
ENDBRANCH  85  88
ENDBRANCH  57  81
BRANCH  69  92
ATOM     92  C   UNL     1       6.656  14.931 -23.075  1.00  0.00     0.023 A 
ATOM     93  C   UNL     1       5.759  14.264 -23.932  1.00  0.00     0.012 A 
ATOM     94  C   UNL     1       7.743  15.640 -23.625  1.00  0.00     0.148 A 
ATOM     95  C   UNL     1       5.955  14.280 -25.312  1.00  0.00     0.002 A 
ATOM     96  C   UNL     1       7.905  15.689 -25.005  1.00  0.00     0.091 A 
ATOM     97  F   UNL     1       8.597  16.251 -22.791  1.00  0.00    -0.205 F 
ATOM     98  C   UNL     1       7.019  15.001 -25.849  1.00  0.00     0.022 A 
BRANCH  96  99
ATOM     99  S   UNL     1       9.192  16.670 -25.785  1.00  0.00     0.127 S 
ATOM    100  O   UNL     1      10.144  15.640 -26.198  1.00  0.00    -0.237 OA
ATOM    101  O   UNL     1       8.472  17.312 -26.886  1.00  0.00    -0.237 OA
ATOM    102  O   UNL     1       9.668  17.590 -24.760  1.00  0.00    -0.744 OA
ENDBRANCH  96  99
ENDBRANCH  69  92
ENDBRANCH  43  44
ENDBRANCH  35  38
ENDBRANCH  33  34
ENDBRANCH  32  33
ENDBRANCH   1  32
TORSDOF 19
