REMARK SMILES CC[C@@H](C)[C@@H](C(=O)NCCCNC(=O)c1ccc(-c2c3nc(c(-c4cccc(S(=O)(=O)[O-])c4F)c4ccc([nH]4)c(-c4cccc(S(=O)(=O)[O-])c4F)c4nc(c(-c5cccc(S(=O)(=O)[O-])c5F)c5ccc2[nH]5)C=C4)C=C3)cc1)S(=O)(=O)c1ccc(OC)cc1
REMARK SMILES IDX 10 1 9 2 8 3 6 4 7 5 5 7 3 8 4 9 2 10 1 11 78 12 79 13 80 14
REMARK SMILES IDX 81 15 82 16 88 17 83 18 87 19 84 20 85 21 86 22 11 23 12 24
REMARK SMILES IDX 13 25 14 27 15 28 16 29 77 30 17 31 76 32 18 33 19 34 20 35
REMARK SMILES IDX 70 36 21 37 75 38 69 39 71 40 22 41 74 42 68 43 67 44 23 46
REMARK SMILES IDX 55 47 35 48 54 49 36 50 39 51 53 52 72 53 37 54 38 55 52 57
REMARK SMILES IDX 73 58 40 59 24 60 25 61 33 62 26 63 28 64 34 65 27 66 29 67
REMARK SMILES IDX 30 68 31 69 32 70 56 71 57 72 65 73 58 74 60 75 66 76 59 77
REMARK SMILES IDX 61 78 62 79 63 80 64 81 41 82 42 83 50 84 43 85 45 86 51 87
REMARK SMILES IDX 44 88 46 89 47 90 48 91 49 92
REMARK H PARENT 8 6 12 26 71 45 39 56
REMARK Flexibility Score: inf
ROOT
ATOM      1  C   UNL     1      -0.217   0.306  -3.248  1.00  0.00     0.042 C 
ENDROOT
BRANCH   1   2
ATOM      2  C   UNL     1      -0.670  -1.161  -3.255  1.00  0.00     0.117 C 
BRANCH   2   3
ATOM      3  N   UNL     1       0.449  -2.066  -3.444  1.00  0.00    -0.355 N 
ATOM      4  C   UNL     1       1.119  -2.946  -2.659  1.00  0.00     0.239 C 
ATOM      5  O   UNL     1       2.141  -3.378  -3.197  1.00  0.00    -0.274 OA
ATOM      6  H   UNL     1       0.808  -2.032  -4.361  1.00  0.00     0.163 HD
BRANCH   4   7
ATOM      7  C   UNL     1       0.652  -3.394  -1.263  1.00  0.00     0.205 C 
BRANCH   7   8
ATOM      8  C   UNL     1       0.969  -2.503  -0.008  1.00  0.00     0.014 C 
ATOM      9  C   UNL     1       0.063  -2.861   1.187  1.00  0.00     0.009 C 
BRANCH   8  10
ATOM     10  C   UNL     1       0.869  -1.002  -0.305  1.00  0.00     0.002 C 
ATOM     11  C   UNL     1       1.357  -0.065   0.791  1.00  0.00     0.004 C 
ENDBRANCH   8  10
ENDBRANCH   7   8
BRANCH   7  12
ATOM     12  S   UNL     1       1.282  -5.096  -1.056  1.00  0.00     0.190 S 
ATOM     13  O   UNL     1       0.821  -5.599   0.233  1.00  0.00    -0.223 OA
ATOM     14  O   UNL     1       0.942  -5.866  -2.235  1.00  0.00    -0.223 OA
BRANCH  12  15
ATOM     15  C   UNL     1       3.070  -5.088  -0.929  1.00  0.00     0.068 A 
ATOM     16  C   UNL     1       3.707  -6.313  -0.710  1.00  0.00     0.024 A 
ATOM     17  C   UNL     1       3.842  -3.926  -1.028  1.00  0.00     0.024 A 
ATOM     18  C   UNL     1       5.101  -6.363  -0.599  1.00  0.00     0.048 A 
ATOM     19  C   UNL     1       5.233  -3.984  -0.921  1.00  0.00     0.048 A 
ATOM     20  C   UNL     1       5.872  -5.201  -0.704  1.00  0.00     0.118 A 
BRANCH  20  21
ATOM     21  O   UNL     1       7.223  -5.373  -0.584  1.00  0.00    -0.497 OA
ATOM     22  C   UNL     1       8.019  -4.193  -0.667  1.00  0.00     0.278 C 
ENDBRANCH  20  21
ENDBRANCH  12  15
ENDBRANCH   7  12
ENDBRANCH   4   7
ENDBRANCH   2   3
ENDBRANCH   1   2
BRANCH   1  23
ATOM     23  C   UNL     1       0.504   0.770  -4.515  1.00  0.00     0.118 C 
BRANCH  23  24
ATOM     24  N   UNL     1      -0.422   1.264  -5.517  1.00  0.00    -0.352 N 
ATOM     25  C   UNL     1      -0.642   2.551  -5.946  1.00  0.00     0.251 C 
ATOM     26  H   UNL     1      -0.975   0.576  -5.954  1.00  0.00     0.163 HD
ATOM     27  O   UNL     1      -1.645   2.791  -6.614  1.00  0.00    -0.269 OA
BRANCH  25  28
ATOM     28  C   UNL     1       0.299   3.651  -5.610  1.00  0.00     0.039 A 
ATOM     29  C   UNL     1      -0.225   4.912  -5.306  1.00  0.00     0.014 A 
ATOM     30  C   UNL     1       1.685   3.480  -5.665  1.00  0.00     0.014 A 
ATOM     31  C   UNL     1       0.633   5.984  -5.029  1.00  0.00     0.010 A 
ATOM     32  C   UNL     1       2.538   4.530  -5.316  1.00  0.00     0.010 A 
ATOM     33  C   UNL     1       2.025   5.801  -5.016  1.00  0.00    -0.014 A 
BRANCH  33  34
ATOM     34  C   UNL     1       2.952   6.930  -4.727  1.00  0.00     0.031 A 
ATOM     35  C   UNL     1       3.929   7.402  -5.775  1.00  0.00     0.074 A 
ATOM     36  C   UNL     1       2.968   7.494  -3.502  1.00  0.00     0.049 A 
ATOM     37  N   UNL     1       4.847   8.331  -5.691  1.00  0.00    -0.248 NA
ATOM     38  C   UNL     1       3.887   6.722  -7.081  1.00  0.00     0.031 C 
ATOM     39  C   UNL     1       2.129   7.089  -2.373  1.00  0.00     0.029 A 
ATOM     40  N   UNL     1       3.738   8.512  -2.993  1.00  0.00    -0.354 N 
ATOM     41  C   UNL     1       5.517   8.318  -6.910  1.00  0.00     0.074 A 
ATOM     42  C   UNL     1       4.921   7.268  -7.706  1.00  0.00     0.031 C 
ATOM     43  C   UNL     1       2.427   7.850  -1.308  1.00  0.00     0.029 A 
ATOM     44  C   UNL     1       3.493   8.781  -1.666  1.00  0.00     0.049 A 
ATOM     45  H   UNL     1       4.402   9.004  -3.528  1.00  0.00     0.167 HD
ATOM     46  C   UNL     1       6.515   9.126  -7.343  1.00  0.00     0.034 A 
ATOM     47  C   UNL     1       4.062   9.673  -0.831  1.00  0.00     0.034 A 
ATOM     48  C   UNL     1       7.065  10.213  -6.579  1.00  0.00     0.049 A 
ATOM     49  C   UNL     1       5.128  10.598  -1.355  1.00  0.00     0.074 A 
ATOM     50  C   UNL     1       8.011  11.145  -6.968  1.00  0.00     0.029 A 
ATOM     51  N   UNL     1       6.719  10.516  -5.272  1.00  0.00    -0.354 N 
ATOM     52  N   UNL     1       5.635  10.672  -2.562  1.00  0.00    -0.248 NA
ATOM     53  C   UNL     1       5.672  11.590  -0.415  1.00  0.00     0.031 C 
ATOM     54  C   UNL     1       8.246  12.006  -5.891  1.00  0.00     0.029 A 
ATOM     55  C   UNL     1       7.434  11.619  -4.837  1.00  0.00     0.049 A 
ATOM     56  H   UNL     1       6.062  10.021  -4.733  1.00  0.00     0.167 HD
ATOM     57  C   UNL     1       6.528  11.738  -2.536  1.00  0.00     0.074 A 
ATOM     58  C   UNL     1       6.478  12.293  -1.200  1.00  0.00     0.031 C 
ATOM     59  C   UNL     1       7.331  12.202  -3.525  1.00  0.00     0.034 A 
BRANCH  46  60
ATOM     60  C   UNL     1       7.036   8.908  -8.741  1.00  0.00     0.023 A 
ATOM     61  C   UNL     1       6.238   9.278  -9.843  1.00  0.00     0.012 A 
ATOM     62  C   UNL     1       8.330   8.398  -8.966  1.00  0.00     0.148 A 
ATOM     63  C   UNL     1       6.704   9.113 -11.146  1.00  0.00     0.002 A 
ATOM     64  C   UNL     1       8.804   8.276 -10.268  1.00  0.00     0.091 A 
ATOM     65  F   UNL     1       9.067   8.032  -7.908  1.00  0.00    -0.205 F 
ATOM     66  C   UNL     1       7.989   8.623 -11.358  1.00  0.00     0.022 A 
BRANCH  64  67
ATOM     67  S   UNL     1      10.473   7.727 -10.642  1.00  0.00     0.127 S 
ATOM     68  O   UNL     1      10.232   6.381 -11.160  1.00  0.00    -0.237 OA
ATOM     69  O   UNL     1      10.902   8.700 -11.648  1.00  0.00    -0.237 OA
ATOM     70  O   UNL     1      11.207   7.793  -9.385  1.00  0.00    -0.744 OA
ENDBRANCH  64  67
ENDBRANCH  46  60
BRANCH  47  71
ATOM     71  C   UNL     1       3.580   9.786   0.576  1.00  0.00     0.023 A 
ATOM     72  C   UNL     1       2.845  10.923   0.964  1.00  0.00     0.012 A 
ATOM     73  C   UNL     1       3.816   8.767   1.518  1.00  0.00     0.148 A 
ATOM     74  C   UNL     1       2.379  11.057   2.272  1.00  0.00     0.002 A 
ATOM     75  C   UNL     1       3.301   8.881   2.805  1.00  0.00     0.091 A 
ATOM     76  F   UNL     1       4.532   7.699   1.136  1.00  0.00    -0.205 F 
ATOM     77  C   UNL     1       2.597  10.033   3.189  1.00  0.00     0.022 A 
BRANCH  75  78
ATOM     78  S   UNL     1       3.418   7.549   4.005  1.00  0.00     0.127 S 
ATOM     79  O   UNL     1       4.438   8.057   4.919  1.00  0.00    -0.237 OA
ATOM     80  O   UNL     1       2.062   7.512   4.553  1.00  0.00    -0.237 OA
ATOM     81  O   UNL     1       3.783   6.365   3.238  1.00  0.00    -0.744 OA
ENDBRANCH  75  78
ENDBRANCH  47  71
BRANCH  59  82
ATOM     82  C   UNL     1       8.201  13.393  -3.222  1.00  0.00     0.023 A 
ATOM     83  C   UNL     1       9.339  13.237  -2.406  1.00  0.00     0.012 A 
ATOM     84  C   UNL     1       7.938  14.646  -3.810  1.00  0.00     0.148 A 
ATOM     85  C   UNL     1      10.187  14.316  -2.159  1.00  0.00     0.002 A 
ATOM     86  C   UNL     1       8.813  15.706  -3.595  1.00  0.00     0.091 A 
ATOM     87  F   UNL     1       6.839  14.781  -4.566  1.00  0.00    -0.205 F 
ATOM     88  C   UNL     1       9.931  15.545  -2.762  1.00  0.00     0.022 A 
BRANCH  86  89
ATOM     89  S   UNL     1       8.611  17.296  -4.407  1.00  0.00     0.127 S 
ATOM     90  O   UNL     1       8.108  18.126  -3.315  1.00  0.00    -0.237 OA
ATOM     91  O   UNL     1       9.978  17.607  -4.829  1.00  0.00    -0.237 OA
ATOM     92  O   UNL     1       7.681  17.068  -5.504  1.00  0.00    -0.744 OA
ENDBRANCH  86  89
ENDBRANCH  59  82
ENDBRANCH  33  34
ENDBRANCH  25  28
ENDBRANCH  23  24
ENDBRANCH   1  23
TORSDOF 18
