REMARK SMILES CC/C(C(=O)NCCCNC(=O)c1ccc(-c2c3nc(c(-c4cccc(S(=O)(=O)[O-])c4F)c4ccc([nH]4)c(-c4cccc(S(=O)(=O)[O-])c4F)c4nc(c(-c5cccc(S(=O)(=O)[O-])c5F)c5ccc2[nH]5)C=C4)C=C3)cc1)=C1\CCc2ccccc21
REMARK SMILES IDX 9 1 8 2 7 3 6 4 4 5 5 6 3 8 76 9 77 10 84 11 78 12 79 13
REMARK SMILES IDX 83 14 80 15 82 16 81 17 2 18 1 19 10 20 11 21 12 23 13 24
REMARK SMILES IDX 14 25 75 26 15 27 74 28 16 29 17 30 18 31 68 32 19 33 73 34
REMARK SMILES IDX 67 35 69 36 20 37 72 38 66 39 65 40 21 42 53 43 33 44 52 45
REMARK SMILES IDX 34 46 37 47 51 48 70 49 35 50 36 51 50 53 71 54 38 55 22 56
REMARK SMILES IDX 23 57 31 58 24 59 26 60 32 61 25 62 27 63 28 64 29 65 30 66
REMARK SMILES IDX 54 67 55 68 63 69 56 70 58 71 64 72 57 73 59 74 60 75 61 76
REMARK SMILES IDX 62 77 39 78 40 79 48 80 41 81 43 82 49 83 42 84 44 85 45 86
REMARK SMILES IDX 46 87 47 88
REMARK H PARENT 6 7 10 22 69 41 37 52
REMARK Flexibility Score: inf
ROOT
ATOM      1  C   UNL     1       4.184   5.136   4.632  1.00  0.00     0.118 C 
ENDROOT
BRANCH   1   2
ATOM      2  C   UNL     1       2.924   4.495   4.081  1.00  0.00     0.042 C 
BRANCH   2   3
ATOM      3  C   UNL     1       3.032   3.978   2.641  1.00  0.00     0.118 C 
BRANCH   3   4
ATOM      4  N   UNL     1       2.960   2.533   2.654  1.00  0.00    -0.352 N 
ATOM      5  C   UNL     1       1.986   1.606   2.550  1.00  0.00     0.247 C 
ATOM      6  O   UNL     1       2.337   0.493   2.969  1.00  0.00    -0.270 OA
ATOM      7  H   UNL     1       3.848   2.122   2.768  1.00  0.00     0.163 HD
BRANCH   5   8
ATOM      8  C   UNL     1       0.660   1.720   1.816  1.00  0.00     0.020 C 
ATOM      9  C   UNL     1      -0.208   2.732   1.560  1.00  0.00    -0.031 C 
ATOM     10  C   UNL     1      -1.348   2.632   0.538  1.00  0.00     0.041 C 
ATOM     11  C   UNL     1      -0.267   4.155   1.910  1.00  0.00    -0.019 A 
ATOM     12  C   UNL     1      -1.314   3.961  -0.227  1.00  0.00     0.041 C 
ATOM     13  C   UNL     1      -0.774   4.875   0.822  1.00  0.00    -0.040 A 
ATOM     14  C   UNL     1      -0.048   4.816   3.099  1.00  0.00     0.009 A 
ATOM     15  C   UNL     1      -0.792   6.262   0.802  1.00  0.00     0.004 A 
ATOM     16  C   UNL     1      -0.081   6.220   3.109  1.00  0.00     0.001 A 
ATOM     17  C   UNL     1      -0.396   6.939   1.950  1.00  0.00     0.000 A 
BRANCH   8  18
ATOM     18  C   UNL     1       0.280   0.317   1.299  1.00  0.00     0.038 C 
ATOM     19  C   UNL     1       0.982  -0.035  -0.006  1.00  0.00     0.009 C 
ENDBRANCH   8  18
ENDBRANCH   5   8
ENDBRANCH   3   4
ENDBRANCH   2   3
ENDBRANCH   1   2
BRANCH   1  20
ATOM     20  N   UNL     1       4.511   6.378   3.944  1.00  0.00    -0.352 N 
ATOM     21  C   UNL     1       4.391   7.704   4.284  1.00  0.00     0.251 C 
ATOM     22  H   UNL     1       4.897   6.239   3.050  1.00  0.00     0.163 HD
ATOM     23  O   UNL     1       4.566   8.534   3.390  1.00  0.00    -0.269 OA
BRANCH  21  24
ATOM     24  C   UNL     1       4.058   8.175   5.654  1.00  0.00     0.039 A 
ATOM     25  C   UNL     1       3.496   9.452   5.799  1.00  0.00     0.014 A 
ATOM     26  C   UNL     1       4.350   7.446   6.805  1.00  0.00     0.014 A 
ATOM     27  C   UNL     1       3.209   9.965   7.070  1.00  0.00     0.010 A 
ATOM     28  C   UNL     1       3.933   7.894   8.057  1.00  0.00     0.010 A 
ATOM     29  C   UNL     1       3.398   9.177   8.215  1.00  0.00    -0.014 A 
BRANCH  29  30
ATOM     30  C   UNL     1       3.089   9.687   9.579  1.00  0.00     0.031 A 
ATOM     31  C   UNL     1       4.161   9.719  10.644  1.00  0.00     0.074 A 
ATOM     32  C   UNL     1       1.828  10.052   9.886  1.00  0.00     0.049 A 
ATOM     33  N   UNL     1       4.069  10.075  11.900  1.00  0.00    -0.248 NA
ATOM     34  C   UNL     1       5.506   9.254  10.260  1.00  0.00     0.031 C 
ATOM     35  C   UNL     1       0.681   9.981   8.978  1.00  0.00     0.029 A 
ATOM     36  N   UNL     1       1.294  10.538  11.054  1.00  0.00    -0.354 N 
ATOM     37  C   UNL     1       5.318   9.827  12.461  1.00  0.00     0.074 A 
ATOM     38  C   UNL     1       6.138   9.247  11.424  1.00  0.00     0.031 C 
ATOM     39  C   UNL     1      -0.414  10.428   9.613  1.00  0.00     0.029 A 
ATOM     40  C   UNL     1      -0.058  10.784  10.982  1.00  0.00     0.049 A 
ATOM     41  H   UNL     1       1.828  10.695  11.866  1.00  0.00     0.167 HD
ATOM     42  C   UNL     1       5.759  10.092  13.715  1.00  0.00     0.034 A 
ATOM     43  C   UNL     1      -0.915  11.244  11.914  1.00  0.00     0.034 A 
ATOM     44  C   UNL     1       4.959  10.729  14.725  1.00  0.00     0.049 A 
ATOM     45  C   UNL     1      -0.384  11.602  13.275  1.00  0.00     0.074 A 
ATOM     46  C   UNL     1       5.333  11.131  15.995  1.00  0.00     0.029 A 
ATOM     47  N   UNL     1       3.620  11.058  14.580  1.00  0.00    -0.354 N 
ATOM     48  N   UNL     1       0.839  11.500  13.738  1.00  0.00    -0.248 NA
ATOM     49  C   UNL     1      -1.341  12.181  14.228  1.00  0.00     0.031 C 
ATOM     50  C   UNL     1       4.212  11.681  16.627  1.00  0.00     0.029 A 
ATOM     51  C   UNL     1       3.150  11.655  15.736  1.00  0.00     0.049 A 
ATOM     52  H   UNL     1       3.082  10.891  13.772  1.00  0.00     0.167 HD
ATOM     53  C   UNL     1       0.808  12.037  15.019  1.00  0.00     0.074 A 
ATOM     54  C   UNL     1      -0.551  12.485  15.249  1.00  0.00     0.031 C 
ATOM     55  C   UNL     1       1.808  12.139  15.930  1.00  0.00     0.034 A 
BRANCH  42  56
ATOM     56  C   UNL     1       7.191   9.746  14.046  1.00  0.00     0.023 A 
ATOM     57  C   UNL     1       8.243  10.470  13.447  1.00  0.00     0.012 A 
ATOM     58  C   UNL     1       7.497   8.740  14.984  1.00  0.00     0.148 A 
ATOM     59  C   UNL     1       9.573  10.171  13.739  1.00  0.00     0.002 A 
ATOM     60  C   UNL     1       8.824   8.482  15.310  1.00  0.00     0.091 A 
ATOM     61  F   UNL     1       6.488   8.047  15.531  1.00  0.00    -0.205 F 
ATOM     62  C   UNL     1       9.863   9.185  14.678  1.00  0.00     0.022 A 
BRANCH  60  63
ATOM     63  S   UNL     1       9.300   7.292  16.569  1.00  0.00     0.127 S 
ATOM     64  O   UNL     1       9.920   6.240  15.761  1.00  0.00    -0.237 OA
ATOM     65  O   UNL     1      10.241   8.067  17.382  1.00  0.00    -0.237 OA
ATOM     66  O   UNL     1       8.074   6.914  17.252  1.00  0.00    -0.744 OA
ENDBRANCH  60  63
ENDBRANCH  42  56
BRANCH  43  67
ATOM     67  C   UNL     1      -2.347  11.467  11.565  1.00  0.00     0.023 A 
ATOM     68  C   UNL     1      -2.839  12.784  11.468  1.00  0.00     0.012 A 
ATOM     69  C   UNL     1      -3.213  10.390  11.299  1.00  0.00     0.148 A 
ATOM     70  C   UNL     1      -4.177  13.023  11.150  1.00  0.00     0.002 A 
ATOM     71  C   UNL     1      -4.529  10.636  10.925  1.00  0.00     0.091 A 
ATOM     72  F   UNL     1      -2.728   9.145  11.402  1.00  0.00    -0.205 F 
ATOM     73  C   UNL     1      -5.018  11.951  10.869  1.00  0.00     0.022 A 
BRANCH  71  74
ATOM     74  S   UNL     1      -5.647   9.326  10.415  1.00  0.00     0.127 S 
ATOM     75  O   UNL     1      -6.596   9.293  11.525  1.00  0.00    -0.237 OA
ATOM     76  O   UNL     1      -6.183   9.859   9.162  1.00  0.00    -0.237 OA
ATOM     77  O   UNL     1      -4.817   8.141  10.256  1.00  0.00    -0.744 OA
ENDBRANCH  71  74
ENDBRANCH  43  67
BRANCH  55  78
ATOM     78  C   UNL     1       1.485  12.805  17.241  1.00  0.00     0.023 A 
ATOM     79  C   UNL     1       0.656  12.156  18.179  1.00  0.00     0.012 A 
ATOM     80  C   UNL     1       2.046  14.056  17.564  1.00  0.00     0.148 A 
ATOM     81  C   UNL     1       0.353  12.764  19.396  1.00  0.00     0.002 A 
ATOM     82  C   UNL     1       1.785  14.630  18.801  1.00  0.00     0.091 A 
ATOM     83  F   UNL     1       2.818  14.667  16.652  1.00  0.00    -0.205 F 
ATOM     84  C   UNL     1       0.925  13.995  19.712  1.00  0.00     0.022 A 
BRANCH  82  85
ATOM     85  S   UNL     1       2.561  16.161  19.329  1.00  0.00     0.127 S 
ATOM     86  O   UNL     1       1.459  17.113  19.204  1.00  0.00    -0.237 OA
ATOM     87  O   UNL     1       2.949  15.854  20.707  1.00  0.00    -0.237 OA
ATOM     88  O   UNL     1       3.681  16.374  18.423  1.00  0.00    -0.744 OA
ENDBRANCH  82  85
ENDBRANCH  55  78
ENDBRANCH  29  30
ENDBRANCH  21  24
ENDBRANCH   1  20
TORSDOF 14
