REMARK SMILES O=C(Cc1ccc(F)c(F)c1)NC1(C(=O)NCCCNC(=O)c2ccc(-c3c4nc(c(-c5cccc(S(=O)(=O)[O-])c5F)c5ccc([nH]5)c(-c5cccc(S(=O)(=O)[O-])c5F)c5nc(c(-c6cccc(S(=O)(=O)[O-])c6F)c6ccc3[nH]6)C=C5)C=C4)cc2)CCCC1
REMARK SMILES IDX 18 1 17 2 16 3 14 4 15 5 13 7 86 8 89 9 87 10 88 11 12 12
REMARK SMILES IDX 1 13 2 14 3 16 4 17 5 18 11 19 6 20 9 21 7 22 10 23 8 24
REMARK SMILES IDX 19 25 20 26 21 27 22 29 23 30 24 31 85 32 25 33 84 34 26 35
REMARK SMILES IDX 27 36 28 37 78 38 29 39 83 40 77 41 79 42 30 43 82 44 76 45
REMARK SMILES IDX 75 46 31 48 63 49 43 50 62 51 44 52 47 53 61 54 80 55 45 56
REMARK SMILES IDX 46 57 60 59 81 60 48 61 32 62 33 63 41 64 34 65 36 66 42 67
REMARK SMILES IDX 35 68 37 69 38 70 39 71 40 72 64 73 65 74 73 75 66 76 68 77
REMARK SMILES IDX 74 78 67 79 69 80 70 81 71 82 72 83 49 84 50 85 58 86 51 87
REMARK SMILES IDX 53 88 59 89 52 90 54 91 55 92 56 93 57 94
REMARK H PARENT 16 6 12 15 20 28 79 47 47 58
REMARK Flexibility Score: inf
ROOT
ATOM      1  C   UNL     1       0.379   2.474   5.429  1.00  0.00     0.042 C 
ENDROOT
BRANCH   1   2
ATOM      2  C   UNL     1       1.677   2.878   4.750  1.00  0.00     0.117 C 
BRANCH   2   3
ATOM      3  N   UNL     1       2.452   1.743   4.312  1.00  0.00    -0.354 N 
ATOM      4  C   UNL     1       2.680   1.238   3.073  1.00  0.00     0.245 C 
ATOM      5  O   UNL     1       3.577   0.381   3.017  1.00  0.00    -0.272 OA
ATOM      6  H   UNL     1       2.892   1.247   5.040  1.00  0.00     0.163 HD
BRANCH   4   7
ATOM      7  C   UNL     1       1.970   1.740   1.764  1.00  0.00     0.119 C 
ATOM      8  C   UNL     1       2.336   3.200   1.435  1.00  0.00     0.038 C 
ATOM      9  C   UNL     1       0.436   1.700   1.779  1.00  0.00     0.038 C 
ATOM     10  C   UNL     1       1.069   4.047   1.505  1.00  0.00     0.003 C 
ATOM     11  C   UNL     1      -0.082   3.128   1.870  1.00  0.00     0.003 C 
BRANCH   7  12
ATOM     12  N   UNL     1       2.606   0.892   0.720  1.00  0.00    -0.341 N 
ATOM     13  O   UNL     1       0.930  -0.558   0.068  1.00  0.00    -0.275 OA
ATOM     14  C   UNL     1       2.079  -0.141  -0.018  1.00  0.00     0.225 C 
ATOM     15  H   UNL     1       3.548   1.103   0.528  1.00  0.00     0.164 HD
BRANCH  14  16
ATOM     16  C   UNL     1       3.073  -0.789  -0.970  1.00  0.00     0.135 C 
BRANCH  16  17
ATOM     17  C   UNL     1       3.798   0.117  -1.952  1.00  0.00    -0.036 A 
ATOM     18  C   UNL     1       4.806  -0.452  -2.753  1.00  0.00     0.007 A 
ATOM     19  C   UNL     1       3.517   1.483  -2.113  1.00  0.00     0.046 A 
ATOM     20  C   UNL     1       5.537   0.329  -3.654  1.00  0.00     0.043 A 
ATOM     21  C   UNL     1       4.270   2.263  -2.988  1.00  0.00     0.159 A 
ATOM     22  C   UNL     1       5.274   1.690  -3.753  1.00  0.00     0.158 A 
ATOM     23  F   UNL     1       4.020   3.577  -3.077  1.00  0.00    -0.204 F 
ATOM     24  F   UNL     1       5.995   2.441  -4.596  1.00  0.00    -0.204 F 
ENDBRANCH  16  17
ENDBRANCH  14  16
ENDBRANCH   7  12
ENDBRANCH   4   7
ENDBRANCH   2   3
ENDBRANCH   1   2
BRANCH   1  25
ATOM     25  C   UNL     1       0.574   2.126   6.896  1.00  0.00     0.118 C 
BRANCH  25  26
ATOM     26  N   UNL     1       1.008   3.282   7.678  1.00  0.00    -0.352 N 
ATOM     27  C   UNL     1       0.396   3.920   8.725  1.00  0.00     0.251 C 
ATOM     28  H   UNL     1       1.875   3.662   7.411  1.00  0.00     0.163 HD
ATOM     29  O   UNL     1       0.816   5.019   9.091  1.00  0.00    -0.269 OA
BRANCH  27  30
ATOM     30  C   UNL     1      -0.755   3.298   9.407  1.00  0.00     0.039 A 
ATOM     31  C   UNL     1      -1.807   4.103   9.850  1.00  0.00     0.014 A 
ATOM     32  C   UNL     1      -0.786   1.919   9.628  1.00  0.00     0.014 A 
ATOM     33  C   UNL     1      -2.911   3.516  10.470  1.00  0.00     0.010 A 
ATOM     34  C   UNL     1      -1.932   1.327  10.137  1.00  0.00     0.010 A 
ATOM     35  C   UNL     1      -2.994   2.119  10.592  1.00  0.00    -0.014 A 
BRANCH  35  36
ATOM     36  C   UNL     1      -4.164   1.461  11.221  1.00  0.00     0.031 A 
ATOM     37  C   UNL     1      -3.974   0.611  12.449  1.00  0.00     0.074 A 
ATOM     38  C   UNL     1      -5.375   1.556  10.640  1.00  0.00     0.049 A 
ATOM     39  N   UNL     1      -4.853  -0.099  13.107  1.00  0.00    -0.248 NA
ATOM     40  C   UNL     1      -2.606   0.513  12.989  1.00  0.00     0.031 C 
ATOM     41  C   UNL     1      -5.667   2.285   9.403  1.00  0.00     0.029 A 
ATOM     42  N   UNL     1      -6.584   1.019  11.001  1.00  0.00    -0.354 N 
ATOM     43  C   UNL     1      -4.142  -0.755  14.104  1.00  0.00     0.074 A 
ATOM     44  C   UNL     1      -2.751  -0.402  13.935  1.00  0.00     0.031 C 
ATOM     45  C   UNL     1      -6.973   2.165   9.120  1.00  0.00     0.029 A 
ATOM     46  C   UNL     1      -7.604   1.323  10.130  1.00  0.00     0.049 A 
ATOM     47  H   UNL     1      -6.710   0.467  11.807  1.00  0.00     0.167 HD
ATOM     48  C   UNL     1      -4.606  -1.552  15.095  1.00  0.00     0.034 A 
ATOM     49  C   UNL     1      -8.901   0.959  10.145  1.00  0.00     0.034 A 
ATOM     50  C   UNL     1      -5.997  -1.864  15.280  1.00  0.00     0.049 A 
ATOM     51  C   UNL     1      -9.401   0.104  11.277  1.00  0.00     0.074 A 
ATOM     52  C   UNL     1      -6.588  -2.591  16.297  1.00  0.00     0.029 A 
ATOM     53  N   UNL     1      -7.014  -1.472  14.422  1.00  0.00    -0.354 N 
ATOM     54  N   UNL     1      -8.739  -0.389  12.295  1.00  0.00    -0.248 NA
ATOM     55  C   UNL     1     -10.836  -0.214  11.282  1.00  0.00     0.031 C 
ATOM     56  C   UNL     1      -7.961  -2.666  16.036  1.00  0.00     0.029 A 
ATOM     57  C   UNL     1      -8.229  -1.949  14.880  1.00  0.00     0.049 A 
ATOM     58  H   UNL     1      -6.889  -0.934  13.608  1.00  0.00     0.167 HD
ATOM     59  C   UNL     1      -9.680  -1.037  13.086  1.00  0.00     0.074 A 
ATOM     60  C   UNL     1     -10.962  -0.860  12.433  1.00  0.00     0.031 C 
ATOM     61  C   UNL     1      -9.501  -1.722  14.242  1.00  0.00     0.034 A 
BRANCH  48  62
ATOM     62  C   UNL     1      -3.601  -2.102  16.075  1.00  0.00     0.023 A 
ATOM     63  C   UNL     1      -2.939  -1.230  16.966  1.00  0.00     0.012 A 
ATOM     64  C   UNL     1      -3.327  -3.482  16.136  1.00  0.00     0.148 A 
ATOM     65  C   UNL     1      -1.986  -1.712  17.861  1.00  0.00     0.002 A 
ATOM     66  C   UNL     1      -2.414  -3.963  17.068  1.00  0.00     0.091 A 
ATOM     67  F   UNL     1      -3.946  -4.297  15.270  1.00  0.00    -0.205 F 
ATOM     68  C   UNL     1      -1.731  -3.079  17.919  1.00  0.00     0.022 A 
BRANCH  66  69
ATOM     69  S   UNL     1      -2.078  -5.715  17.280  1.00  0.00     0.127 S 
ATOM     70  O   UNL     1      -0.724  -5.822  16.739  1.00  0.00    -0.237 OA
ATOM     71  O   UNL     1      -2.169  -5.871  18.732  1.00  0.00    -0.237 OA
ATOM     72  O   UNL     1      -3.110  -6.415  16.529  1.00  0.00    -0.744 OA
ENDBRANCH  66  69
ENDBRANCH  48  62
BRANCH  49  73
ATOM     73  C   UNL     1      -9.828   1.471   9.097  1.00  0.00     0.023 A 
ATOM     74  C   UNL     1     -10.804   2.425   9.447  1.00  0.00     0.012 A 
ATOM     75  C   UNL     1      -9.727   1.050   7.758  1.00  0.00     0.148 A 
ATOM     76  C   UNL     1     -11.684   2.927   8.488  1.00  0.00     0.002 A 
ATOM     77  C   UNL     1     -10.571   1.595   6.797  1.00  0.00     0.091 A 
ATOM     78  F   UNL     1      -8.793   0.140   7.448  1.00  0.00    -0.205 F 
ATOM     79  C   UNL     1     -11.562   2.519   7.163  1.00  0.00     0.022 A 
BRANCH  77  80
ATOM     80  S   UNL     1     -10.407   1.229   5.046  1.00  0.00     0.127 S 
ATOM     81  O   UNL     1     -11.646   0.505   4.775  1.00  0.00    -0.237 OA
ATOM     82  O   UNL     1     -10.336   2.570   4.466  1.00  0.00    -0.237 OA
ATOM     83  O   UNL     1      -9.182   0.451   4.918  1.00  0.00    -0.744 OA
ENDBRANCH  77  80
ENDBRANCH  49  73
BRANCH  61  84
ATOM     84  C   UNL     1     -10.725  -2.289  14.913  1.00  0.00     0.023 A 
ATOM     85  C   UNL     1     -11.396  -3.392  14.349  1.00  0.00     0.012 A 
ATOM     86  C   UNL     1     -11.165  -1.767  16.146  1.00  0.00     0.148 A 
ATOM     87  C   UNL     1     -12.510  -3.941  14.983  1.00  0.00     0.002 A 
ATOM     88  C   UNL     1     -12.241  -2.355  16.799  1.00  0.00     0.091 A 
ATOM     89  F   UNL     1     -10.524  -0.706  16.657  1.00  0.00    -0.205 F 
ATOM     90  C   UNL     1     -12.924  -3.432  16.212  1.00  0.00     0.022 A 
BRANCH  88  91
ATOM     91  S   UNL     1     -12.777  -1.832  18.431  1.00  0.00     0.127 S 
ATOM     92  O   UNL     1     -14.043  -1.166  18.129  1.00  0.00    -0.237 OA
ATOM     93  O   UNL     1     -12.912  -3.108  19.135  1.00  0.00    -0.237 OA
ATOM     94  O   UNL     1     -11.723  -0.968  18.944  1.00  0.00    -0.744 OA
ENDBRANCH  88  91
ENDBRANCH  61  84
ENDBRANCH  35  36
ENDBRANCH  27  30
ENDBRANCH  25  26
ENDBRANCH   1  25
TORSDOF 16
