REMARK SMILES CC(/C=C1\SC(=S)N(CC(=O)NCC(=O)NCCCNC(=O)c2ccc(-c3c4nc(c(-c5cccc(S(=O)(=O)[O-])c5F)c5ccc([nH]5)c(-c5cccc(S(=O)(=O)[O-])c5F)c5nc(c(-c6cccc(S(=O)(=O)[O-])c6F)c6ccc3[nH]6)C=C5)C=C4)cc2)C1=O)=C\c1ccccc1
REMARK SMILES IDX 17 1 16 2 14 3 15 4 13 6 12 7 10 8 11 9 9 11 8 12 3 13 4 14
REMARK SMILES IDX 5 15 86 16 6 17 87 18 7 19 2 20 1 21 88 22 89 23 90 24 94 25
REMARK SMILES IDX 91 26 93 27 92 28 18 29 19 30 20 31 21 32 22 34 23 35 24 36
REMARK SMILES IDX 85 37 25 38 84 39 26 40 27 41 28 42 78 43 29 44 83 45 77 46
REMARK SMILES IDX 79 47 30 48 82 49 76 50 75 51 31 53 63 54 43 55 62 56 44 57
REMARK SMILES IDX 47 58 61 59 80 60 45 61 46 62 60 64 81 65 48 66 32 67 33 68
REMARK SMILES IDX 41 69 34 70 36 71 42 72 35 73 37 74 38 75 39 76 40 77 64 78
REMARK SMILES IDX 65 79 73 80 66 81 68 82 74 83 67 84 69 85 70 86 71 87 72 88
REMARK SMILES IDX 49 89 50 90 58 91 51 92 53 93 59 94 52 95 54 96 55 97 56 98
REMARK SMILES IDX 57 99
REMARK H PARENT 16 5 12 10 20 33 79 52 47 63
REMARK Flexibility Score: inf
ROOT
ATOM      1  C   UNL     1      -3.551   0.798  -2.497  1.00  0.00     0.117 C 
ENDROOT
BRANCH   1   2
ATOM      2  N   UNL     1      -4.812   1.366  -2.088  1.00  0.00    -0.355 N 
ATOM      3  C   UNL     1      -5.902   0.699  -1.602  1.00  0.00     0.239 C 
ATOM      4  O   UNL     1      -6.749   1.343  -0.981  1.00  0.00    -0.273 OA
ATOM      5  H   UNL     1      -4.898   2.344  -2.168  1.00  0.00     0.163 HD
BRANCH   3   6
ATOM      6  C   UNL     1      -5.960  -0.836  -1.671  1.00  0.00     0.216 C 
BRANCH   6   7
ATOM      7  N   UNL     1      -5.607  -1.380  -2.972  1.00  0.00    -0.345 N 
ATOM      8  C   UNL     1      -4.856  -2.445  -3.357  1.00  0.00     0.240 C 
ATOM      9  O   UNL     1      -4.948  -2.758  -4.549  1.00  0.00    -0.273 OA
ATOM     10  H   UNL     1      -5.988  -0.875  -3.726  1.00  0.00     0.164 HD
BRANCH   8  11
ATOM     11  C   UNL     1      -4.082  -3.359  -2.388  1.00  0.00     0.227 C 
BRANCH  11  12
ATOM     12  N   UNL     1      -3.169  -2.727  -1.427  1.00  0.00    -0.283 N 
ATOM     13  C   UNL     1      -0.129  -0.789  -1.061  1.00  0.00     0.024 C 
ATOM     14  C   UNL     1      -1.224  -1.521  -0.809  1.00  0.00     0.080 C 
ATOM     15  S   UNL     1      -2.044  -1.746   0.678  1.00  0.00    -0.054 SA
ATOM     16  C   UNL     1      -1.984  -2.191  -1.907  1.00  0.00     0.266 C 
ATOM     17  C   UNL     1      -3.309  -2.729  -0.058  1.00  0.00     0.148 C 
ATOM     18  O   UNL     1      -1.625  -2.193  -3.076  1.00  0.00    -0.268 OA
ATOM     19  S   UNL     1      -4.462  -3.509   0.864  1.00  0.00    -0.052 S 
BRANCH  13  20
ATOM     20  C   UNL     1       0.685   0.041  -0.169  1.00  0.00    -0.049 C 
ATOM     21  C   UNL     1       1.399  -0.655   0.952  1.00  0.00     0.044 C 
ATOM     22  C   UNL     1       0.843   1.348  -0.472  1.00  0.00     0.011 C 
BRANCH  22  23
ATOM     23  C   UNL     1       1.799   2.347   0.045  1.00  0.00    -0.025 A 
ATOM     24  C   UNL     1       1.413   3.696   0.098  1.00  0.00     0.008 A 
ATOM     25  C   UNL     1       3.142   2.034   0.289  1.00  0.00     0.008 A 
ATOM     26  C   UNL     1       2.335   4.696   0.428  1.00  0.00     0.001 A 
ATOM     27  C   UNL     1       4.062   3.030   0.630  1.00  0.00     0.001 A 
ATOM     28  C   UNL     1       3.658   4.361   0.703  1.00  0.00     0.000 A 
ENDBRANCH  22  23
ENDBRANCH  13  20
ENDBRANCH  11  12
ENDBRANCH   8  11
ENDBRANCH   6   7
ENDBRANCH   3   6
ENDBRANCH   1   2
BRANCH   1  29
ATOM     29  C   UNL     1      -3.287   0.880  -3.996  1.00  0.00     0.042 C 
BRANCH  29  30
ATOM     30  C   UNL     1      -2.167   1.860  -4.324  1.00  0.00     0.118 C 
BRANCH  30  31
ATOM     31  N   UNL     1      -0.908   1.469  -3.701  1.00  0.00    -0.352 N 
ATOM     32  C   UNL     1       0.393   1.633  -4.094  1.00  0.00     0.251 C 
ATOM     33  H   UNL     1      -1.013   1.001  -2.841  1.00  0.00     0.163 HD
ATOM     34  O   UNL     1       1.288   1.079  -3.460  1.00  0.00    -0.269 OA
BRANCH  32  35
ATOM     35  C   UNL     1       0.741   2.402  -5.292  1.00  0.00     0.039 A 
ATOM     36  C   UNL     1       1.861   1.978  -6.017  1.00  0.00     0.014 A 
ATOM     37  C   UNL     1      -0.025   3.480  -5.729  1.00  0.00     0.014 A 
ATOM     38  C   UNL     1       2.145   2.562  -7.241  1.00  0.00     0.010 A 
ATOM     39  C   UNL     1       0.193   3.990  -6.995  1.00  0.00     0.010 A 
ATOM     40  C   UNL     1       1.266   3.519  -7.761  1.00  0.00    -0.014 A 
BRANCH  40  41
ATOM     41  C   UNL     1       1.417   4.005  -9.142  1.00  0.00     0.031 A 
ATOM     42  C   UNL     1       1.685   5.456  -9.383  1.00  0.00     0.074 A 
ATOM     43  C   UNL     1       1.188   3.136 -10.145  1.00  0.00     0.049 A 
ATOM     44  N   UNL     1       1.740   6.102 -10.513  1.00  0.00    -0.248 NA
ATOM     45  C   UNL     1       1.874   6.306  -8.192  1.00  0.00     0.031 C 
ATOM     46  C   UNL     1       0.824   1.724  -9.978  1.00  0.00     0.029 A 
ATOM     47  N   UNL     1       1.200   3.313 -11.501  1.00  0.00    -0.354 N 
ATOM     48  C   UNL     1       1.924   7.435 -10.174  1.00  0.00     0.074 A 
ATOM     49  C   UNL     1       1.934   7.515  -8.731  1.00  0.00     0.031 C 
ATOM     50  C   UNL     1       0.665   1.161 -11.185  1.00  0.00     0.029 A 
ATOM     51  C   UNL     1       0.879   2.176 -12.206  1.00  0.00     0.049 A 
ATOM     52  H   UNL     1       1.418   4.171 -11.931  1.00  0.00     0.167 HD
ATOM     53  C   UNL     1       2.100   8.489 -11.002  1.00  0.00     0.034 A 
ATOM     54  C   UNL     1       0.771   1.988 -13.533  1.00  0.00     0.034 A 
ATOM     55  C   UNL     1       2.135   8.360 -12.432  1.00  0.00     0.049 A 
ATOM     56  C   UNL     1       1.060   3.160 -14.427  1.00  0.00     0.074 A 
ATOM     57  C   UNL     1       2.377   9.333 -13.381  1.00  0.00     0.029 A 
ATOM     58  N   UNL     1       1.929   7.169 -13.116  1.00  0.00    -0.354 N 
ATOM     59  N   UNL     1       1.366   4.393 -14.094  1.00  0.00    -0.248 NA
ATOM     60  C   UNL     1       1.029   2.916 -15.873  1.00  0.00     0.031 C 
ATOM     61  C   UNL     1       2.312   8.730 -14.642  1.00  0.00     0.029 A 
ATOM     62  C   UNL     1       2.048   7.378 -14.476  1.00  0.00     0.049 A 
ATOM     63  H   UNL     1       1.728   6.303 -12.694  1.00  0.00     0.167 HD
ATOM     64  C   UNL     1       1.600   5.063 -15.286  1.00  0.00     0.074 A 
ATOM     65  C   UNL     1       1.421   4.090 -16.348  1.00  0.00     0.031 C 
ATOM     66  C   UNL     1       1.916   6.365 -15.493  1.00  0.00     0.034 A 
BRANCH  53  67
ATOM     67  C   UNL     1       2.323   9.839 -10.375  1.00  0.00     0.023 A 
ATOM     68  C   UNL     1       3.532  10.098  -9.695  1.00  0.00     0.012 A 
ATOM     69  C   UNL     1       1.359  10.859 -10.477  1.00  0.00     0.148 A 
ATOM     70  C   UNL     1       3.762  11.334  -9.094  1.00  0.00     0.002 A 
ATOM     71  C   UNL     1       1.613  12.105  -9.914  1.00  0.00     0.091 A 
ATOM     72  F   UNL     1       0.205  10.589 -11.105  1.00  0.00    -0.205 F 
ATOM     73  C   UNL     1       2.807  12.340  -9.212  1.00  0.00     0.022 A 
BRANCH  71  74
ATOM     74  S   UNL     1       0.481  13.492 -10.066  1.00  0.00     0.127 S 
ATOM     75  O   UNL     1       0.027  13.655  -8.685  1.00  0.00    -0.237 OA
ATOM     76  O   UNL     1       1.364  14.555 -10.547  1.00  0.00    -0.237 OA
ATOM     77  O   UNL     1      -0.543  13.075 -11.012  1.00  0.00    -0.744 OA
ENDBRANCH  71  74
ENDBRANCH  53  67
BRANCH  54  78
ATOM     78  C   UNL     1       0.469   0.635 -14.079  1.00  0.00     0.023 A 
ATOM     79  C   UNL     1       1.480  -0.075 -14.755  1.00  0.00     0.012 A 
ATOM     80  C   UNL     1      -0.790   0.028 -13.900  1.00  0.00     0.148 A 
ATOM     81  C   UNL     1       1.236  -1.348 -15.273  1.00  0.00     0.002 A 
ATOM     82  C   UNL     1      -1.012  -1.262 -14.374  1.00  0.00     0.091 A 
ATOM     83  F   UNL     1      -1.744   0.718 -13.260  1.00  0.00    -0.205 F 
ATOM     84  C   UNL     1      -0.006  -1.944 -15.075  1.00  0.00     0.022 A 
BRANCH  82  85
ATOM     85  S   UNL     1      -2.539  -2.151 -14.051  1.00  0.00     0.127 S 
ATOM     86  O   UNL     1      -3.218  -2.059 -15.341  1.00  0.00    -0.237 OA
ATOM     87  O   UNL     1      -2.050  -3.487 -13.706  1.00  0.00    -0.237 OA
ATOM     88  O   UNL     1      -3.171  -1.444 -12.945  1.00  0.00    -0.744 OA
ENDBRANCH  82  85
ENDBRANCH  54  78
BRANCH  66  89
ATOM     89  C   UNL     1       2.123   6.797 -16.916  1.00  0.00     0.023 A 
ATOM     90  C   UNL     1       1.013   6.952 -17.768  1.00  0.00     0.012 A 
ATOM     91  C   UNL     1       3.411   7.124 -17.380  1.00  0.00     0.148 A 
ATOM     92  C   UNL     1       1.186   7.397 -19.076  1.00  0.00     0.002 A 
ATOM     93  C   UNL     1       3.569   7.617 -18.668  1.00  0.00     0.091 A 
ATOM     94  F   UNL     1       4.454   6.947 -16.555  1.00  0.00    -0.205 F 
ATOM     95  C   UNL     1       2.460   7.742 -19.521  1.00  0.00     0.022 A 
BRANCH  93  96
ATOM     96  S   UNL     1       5.157   8.181 -19.285  1.00  0.00     0.127 S 
ATOM     97  O   UNL     1       5.532   7.092 -20.185  1.00  0.00    -0.237 OA
ATOM     98  O   UNL     1       4.803   9.433 -19.955  1.00  0.00    -0.237 OA
ATOM     99  O   UNL     1       6.006   8.347 -18.112  1.00  0.00    -0.744 OA
ENDBRANCH  93  96
ENDBRANCH  66  89
ENDBRANCH  40  41
ENDBRANCH  32  35
ENDBRANCH  30  31
ENDBRANCH  29  30
ENDBRANCH   1  29
TORSDOF 18
