REMARK SMILES CC[C@@H](C)[C@H](NC(=O)[C@H]1CCCN(S(=O)(=O)c2ccccc2)C1)C(=O)NCCCNC(=O)c1ccc(-c2c3nc(c(-c4cccc(S(=O)(=O)[O-])c4F)c4ccc([nH]4)c(-c4cccc(S(=O)(=O)[O-])c4F)c4nc(c(-c5cccc(S(=O)(=O)[O-])c5F)c5ccc2[nH]5)C=C4)C=C3)cc1
REMARK SMILES IDX 27 1 26 2 24 3 25 4 5 6 3 7 4 8 2 9 1 10 6 11 7 12 8 14 9 15
REMARK SMILES IDX 10 16 23 17 11 18 13 19 12 20 14 21 15 22 16 23 17 24 18 25
REMARK SMILES IDX 22 26 19 27 21 28 20 29 28 30 29 31 30 32 31 33 32 35 33 36
REMARK SMILES IDX 34 37 95 38 35 39 94 40 36 41 37 42 38 43 88 44 39 45 93 46
REMARK SMILES IDX 87 47 89 48 40 49 92 50 86 51 85 52 41 54 73 55 53 56 72 57
REMARK SMILES IDX 54 58 57 59 71 60 90 61 55 62 56 63 70 65 91 66 58 67 42 68
REMARK SMILES IDX 43 69 51 70 44 71 46 72 52 73 45 74 47 75 48 76 49 77 50 78
REMARK SMILES IDX 74 79 75 80 83 81 76 82 78 83 84 84 77 85 79 86 80 87 81 88
REMARK SMILES IDX 82 89 59 90 60 91 68 92 61 93 63 94 69 95 62 96 64 97 65 98
REMARK SMILES IDX 66 99 67 100
REMARK H PARENT 26 5 6 13 30 34 89 53 57 64
REMARK Flexibility Score: inf
ROOT
ATOM      1  C   UNL     1       2.460  -3.526  -6.881  1.00  0.00     0.117 C 
ENDROOT
BRANCH   1   2
ATOM      2  N   UNL     1       1.514  -2.440  -6.774  1.00  0.00    -0.354 N 
ATOM      3  C   UNL     1       1.729  -1.103  -6.881  1.00  0.00     0.242 C 
ATOM      4  O   UNL     1       0.759  -0.430  -7.255  1.00  0.00    -0.273 OA
ATOM      5  H   UNL     1       0.583  -2.706  -6.598  1.00  0.00     0.163 HD
BRANCH   3   6
ATOM      6  C   UNL     1       3.096  -0.413  -6.625  1.00  0.00     0.174 C 
BRANCH   6   7
ATOM      7  C   UNL     1       4.152  -0.608  -7.788  1.00  0.00     0.018 C 
ATOM      8  C   UNL     1       3.503  -0.746  -9.171  1.00  0.00     0.010 C 
BRANCH   7   9
ATOM      9  C   UNL     1       5.306  -1.625  -7.521  1.00  0.00     0.002 C 
ATOM     10  C   UNL     1       5.490  -2.773  -8.507  1.00  0.00     0.004 C 
ENDBRANCH   7   9
ENDBRANCH   6   7
BRANCH   6  11
ATOM     11  N   UNL     1       3.702  -0.584  -5.289  1.00  0.00    -0.344 N 
ATOM     12  C   UNL     1       3.301  -0.223  -4.038  1.00  0.00     0.225 C 
ATOM     13  H   UNL     1       4.569  -1.051  -5.306  1.00  0.00     0.164 HD
ATOM     14  O   UNL     1       4.206   0.132  -3.275  1.00  0.00    -0.275 OA
BRANCH  12  15
ATOM     15  C   UNL     1       1.873  -0.340  -3.510  1.00  0.00     0.094 C 
ATOM     16  C   UNL     1       0.898   0.643  -4.136  1.00  0.00     0.016 C 
ATOM     17  C   UNL     1       1.479  -1.815  -3.469  1.00  0.00     0.116 C 
ATOM     18  C   UNL     1      -0.551   0.279  -3.863  1.00  0.00     0.018 C 
ATOM     19  N   UNL     1       0.024  -2.109  -3.477  1.00  0.00    -0.197 NA
ATOM     20  C   UNL     1      -0.861  -1.167  -4.176  1.00  0.00     0.102 C 
BRANCH  19  21
ATOM     21  S   UNL     1      -0.613  -3.044  -2.206  1.00  0.00     0.243 S 
ATOM     22  O   UNL     1       0.463  -3.900  -1.728  1.00  0.00    -0.207 OA
ATOM     23  O   UNL     1      -1.338  -2.167  -1.338  1.00  0.00    -0.207 OA
BRANCH  21  24
ATOM     24  C   UNL     1      -1.799  -4.162  -2.953  1.00  0.00     0.082 A 
ATOM     25  C   UNL     1      -2.414  -5.105  -2.120  1.00  0.00     0.022 A 
ATOM     26  C   UNL     1      -2.067  -4.175  -4.326  1.00  0.00     0.022 A 
ATOM     27  C   UNL     1      -3.298  -6.043  -2.659  1.00  0.00     0.001 A 
ATOM     28  C   UNL     1      -2.965  -5.104  -4.857  1.00  0.00     0.001 A 
ATOM     29  C   UNL     1      -3.579  -6.037  -4.025  1.00  0.00     0.000 A 
ENDBRANCH  21  24
ENDBRANCH  19  21
ENDBRANCH  12  15
ENDBRANCH   6  11
ENDBRANCH   3   6
ENDBRANCH   1   2
BRANCH   1  30
ATOM     30  C   UNL     1       2.325  -4.676  -5.886  1.00  0.00     0.042 C 
BRANCH  30  31
ATOM     31  C   UNL     1       0.908  -5.204  -5.703  1.00  0.00     0.118 C 
BRANCH  31  32
ATOM     32  N   UNL     1       0.786  -6.617  -6.016  1.00  0.00    -0.352 N 
ATOM     33  C   UNL     1       0.681  -7.799  -5.327  1.00  0.00     0.251 C 
ATOM     34  H   UNL     1       0.774  -6.768  -6.989  1.00  0.00     0.163 HD
ATOM     35  O   UNL     1       0.609  -8.805  -6.044  1.00  0.00    -0.269 OA
BRANCH  33  36
ATOM     36  C   UNL     1       0.643  -7.986  -3.843  1.00  0.00     0.039 A 
ATOM     37  C   UNL     1       0.750  -9.302  -3.354  1.00  0.00     0.014 A 
ATOM     38  C   UNL     1       0.478  -6.980  -2.900  1.00  0.00     0.014 A 
ATOM     39  C   UNL     1       0.690  -9.587  -1.979  1.00  0.00     0.010 A 
ATOM     40  C   UNL     1       0.429  -7.251  -1.523  1.00  0.00     0.010 A 
ATOM     41  C   UNL     1       0.527  -8.556  -1.045  1.00  0.00    -0.014 A 
BRANCH  41  42
ATOM     42  C   UNL     1       0.637  -8.806   0.415  1.00  0.00     0.031 A 
ATOM     43  C   UNL     1      -0.549  -8.758   1.340  1.00  0.00     0.074 A 
ATOM     44  C   UNL     1       1.872  -8.955   0.930  1.00  0.00     0.049 A 
ATOM     45  N   UNL     1      -0.623  -9.102   2.601  1.00  0.00    -0.248 NA
ATOM     46  C   UNL     1      -1.806  -8.226   0.794  1.00  0.00     0.031 C 
ATOM     47  C   UNL     1       3.117  -8.814   0.171  1.00  0.00     0.029 A 
ATOM     48  N   UNL     1       2.288  -9.219   2.209  1.00  0.00    -0.354 N 
ATOM     49  C   UNL     1      -1.929  -8.837   3.003  1.00  0.00     0.074 A 
ATOM     50  C   UNL     1      -2.602  -8.257   1.859  1.00  0.00     0.031 C 
ATOM     51  C   UNL     1       4.157  -8.986   1.000  1.00  0.00     0.029 A 
ATOM     52  C   UNL     1       3.655  -9.278   2.339  1.00  0.00     0.049 A 
ATOM     53  H   UNL     1       1.668  -9.353   2.962  1.00  0.00     0.167 HD
ATOM     54  C   UNL     1      -2.513  -9.086   4.204  1.00  0.00     0.034 A 
ATOM     55  C   UNL     1       4.419  -9.574   3.407  1.00  0.00     0.034 A 
ATOM     56  C   UNL     1      -1.813  -9.665   5.327  1.00  0.00     0.049 A 
ATOM     57  C   UNL     1       3.740 -10.000   4.678  1.00  0.00     0.074 A 
ATOM     58  C   UNL     1      -2.323 -10.093   6.541  1.00  0.00     0.029 A 
ATOM     59  N   UNL     1      -0.442  -9.875   5.380  1.00  0.00    -0.354 N 
ATOM     60  N   UNL     1       2.460 -10.023   4.961  1.00  0.00    -0.248 NA
ATOM     61  C   UNL     1       4.603 -10.515   5.750  1.00  0.00     0.031 C 
ATOM     62  C   UNL     1      -1.259 -10.545   7.332  1.00  0.00     0.029 A 
ATOM     63  C   UNL     1      -0.088 -10.422   6.602  1.00  0.00     0.049 A 
ATOM     64  H   UNL     1       0.188  -9.665   4.653  1.00  0.00     0.167 HD
ATOM     65  C   UNL     1       2.359 -10.576   6.231  1.00  0.00     0.074 A 
ATOM     66  C   UNL     1       3.707 -10.910   6.646  1.00  0.00     0.031 C 
ATOM     67  C   UNL     1       1.254 -10.776   6.992  1.00  0.00     0.034 A 
BRANCH  54  68
ATOM     68  C   UNL     1      -4.001  -8.844   4.349  1.00  0.00     0.023 A 
ATOM     69  C   UNL     1      -4.895  -9.674   3.640  1.00  0.00     0.012 A 
ATOM     70  C   UNL     1      -4.523  -7.905   5.264  1.00  0.00     0.148 A 
ATOM     71  C   UNL     1      -6.275  -9.557   3.811  1.00  0.00     0.002 A 
ATOM     72  C   UNL     1      -5.901  -7.821   5.460  1.00  0.00     0.091 A 
ATOM     73  F   UNL     1      -3.668  -7.120   5.935  1.00  0.00    -0.205 F 
ATOM     74  C   UNL     1      -6.776  -8.639   4.727  1.00  0.00     0.022 A 
BRANCH  72  75
ATOM     75  S   UNL     1      -6.660  -6.734   6.676  1.00  0.00     0.127 S 
ATOM     76  O   UNL     1      -7.380  -5.791   5.820  1.00  0.00    -0.237 OA
ATOM     77  O   UNL     1      -7.519  -7.656   7.419  1.00  0.00    -0.237 OA
ATOM     78  O   UNL     1      -5.566  -6.162   7.447  1.00  0.00    -0.744 OA
ENDBRANCH  72  75
ENDBRANCH  54  68
BRANCH  55  79
ATOM     79  C   UNL     1       5.899  -9.627   3.252  1.00  0.00     0.023 A 
ATOM     80  C   UNL     1       6.542 -10.879   3.198  1.00  0.00     0.012 A 
ATOM     81  C   UNL     1       6.659  -8.455   3.073  1.00  0.00     0.148 A 
ATOM     82  C   UNL     1       7.920 -10.963   3.000  1.00  0.00     0.002 A 
ATOM     83  C   UNL     1       8.024  -8.549   2.822  1.00  0.00     0.091 A 
ATOM     84  F   UNL     1       6.030  -7.273   3.132  1.00  0.00    -0.205 F 
ATOM     85  C   UNL     1       8.658  -9.801   2.801  1.00  0.00     0.022 A 
BRANCH  83  86
ATOM     86  S   UNL     1       9.022  -7.114   2.407  1.00  0.00     0.127 S 
ATOM     87  O   UNL     1       9.755  -6.889   3.649  1.00  0.00    -0.237 OA
ATOM     88  O   UNL     1       9.834  -7.615   1.296  1.00  0.00    -0.237 OA
ATOM     89  O   UNL     1       8.072  -6.077   2.028  1.00  0.00    -0.744 OA
ENDBRANCH  83  86
ENDBRANCH  55  79
BRANCH  67  90
ATOM     90  C   UNL     1       1.460 -11.384   8.355  1.00  0.00     0.023 A 
ATOM     91  C   UNL     1       2.074 -10.624   9.371  1.00  0.00     0.012 A 
ATOM     92  C   UNL     1       1.020 -12.692   8.640  1.00  0.00     0.148 A 
ATOM     93  C   UNL     1       2.289 -11.171  10.635  1.00  0.00     0.002 A 
ATOM     94  C   UNL     1       1.196 -13.214   9.917  1.00  0.00     0.091 A 
ATOM     95  F   UNL     1       0.456 -13.408   7.657  1.00  0.00    -0.205 F 
ATOM     96  C   UNL     1       1.843 -12.461  10.911  1.00  0.00     0.022 A 
BRANCH  94  97
ATOM     97  S   UNL     1       0.576 -14.833  10.387  1.00  0.00     0.127 S 
ATOM     98  O   UNL     1       1.804 -15.625  10.419  1.00  0.00    -0.237 OA
ATOM     99  O   UNL     1      -0.016 -14.572  11.700  1.00  0.00    -0.237 OA
ATOM    100  O   UNL     1      -0.385 -15.207   9.357  1.00  0.00    -0.744 OA
ENDBRANCH  94  97
ENDBRANCH  67  90
ENDBRANCH  41  42
ENDBRANCH  33  36
ENDBRANCH  31  32
ENDBRANCH  30  31
ENDBRANCH   1  30
TORSDOF 19
