REMARK SMILES Cc1ccc(NC(=O)C[C@@H](C(=O)NCCCNC(=O)c2ccc(-c3c4nc(c(-c5cccc(S(=O)(=O)[O-])c5F)c5ccc([nH]5)c(-c5cccc(S(=O)(=O)[O-])c5F)c5nc(c(-c6cccc(S(=O)(=O)[O-])c6F)c6ccc3[nH]6)C=C5)C=C4)cc2)[C@@H](C)c2ccccc2)cc1Br
REMARK SMILES IDX 15 1 14 2 13 3 11 4 12 5 10 7 9 8 7 9 6 10 8 12 5 13 1 14
REMARK SMILES IDX 2 15 3 16 92 17 4 18 91 19 93 20 83 21 84 22 85 23 86 24
REMARK SMILES IDX 90 25 87 26 89 27 88 28 16 29 17 30 18 31 19 33 20 34 21 35
REMARK SMILES IDX 82 36 22 37 81 38 23 39 24 40 25 41 75 42 26 43 80 44 74 45
REMARK SMILES IDX 76 46 27 47 79 48 73 49 72 50 28 52 60 53 40 54 59 55 41 56
REMARK SMILES IDX 44 57 58 58 77 59 42 60 43 61 57 63 78 64 45 65 29 66 30 67
REMARK SMILES IDX 38 68 31 69 33 70 39 71 32 72 34 73 35 74 36 75 37 76 61 77
REMARK SMILES IDX 62 78 70 79 63 80 65 81 71 82 64 83 66 84 67 85 68 86 69 87
REMARK SMILES IDX 46 88 47 89 55 90 48 91 50 92 56 93 49 94 51 95 52 96 53 97
REMARK SMILES IDX 54 98
REMARK H PARENT 13 6 6 11 17 32 76 51 44 62
REMARK Flexibility Score: inf
ROOT
ATOM      1  C   UNL     1       4.668   3.178  -1.024  1.00  0.00     0.042 C 
ENDROOT
BRANCH   1   2
ATOM      2  C   UNL     1       3.506   3.297  -2.026  1.00  0.00     0.117 C 
BRANCH   2   3
ATOM      3  N   UNL     1       2.548   2.209  -1.946  1.00  0.00    -0.356 N 
ATOM      4  C   UNL     1       1.220   2.120  -1.689  1.00  0.00     0.224 C 
ATOM      5  O   UNL     1       0.780   0.970  -1.722  1.00  0.00    -0.275 OA
ATOM      6  H   UNL     1       2.959   1.331  -2.119  1.00  0.00     0.163 HD
BRANCH   4   7
ATOM      7  C   UNL     1       0.335   3.334  -1.389  1.00  0.00     0.095 C 
BRANCH   7   8
ATOM      8  C   UNL     1       0.520   3.935   0.030  1.00  0.00     0.114 C 
BRANCH   8   9
ATOM      9  C   UNL     1       1.780   3.742   0.836  1.00  0.00     0.225 C 
ATOM     10  N   UNL     1       2.156   2.557   1.390  1.00  0.00    -0.326 N 
ATOM     11  H   UNL     1       2.984   2.610   1.921  1.00  0.00     0.169 HD
ATOM     12  O   UNL     1       2.529   4.713   0.988  1.00  0.00    -0.275 OA
BRANCH  10  13
ATOM     13  C   UNL     1       1.588   1.276   1.349  1.00  0.00     0.042 A 
ATOM     14  C   UNL     1       0.215  -2.679   0.319  1.00  0.00     0.045 C 
ATOM     15  C   UNL     1       0.658  -1.327   0.800  1.00  0.00    -0.037 A 
ATOM     16  C   UNL     1       2.026  -1.080   0.978  1.00  0.00     0.007 A 
ATOM     17  C   UNL     1      -0.241  -0.279   1.039  1.00  0.00     0.022 A 
ATOM     18  C   UNL     1       2.482   0.203   1.286  1.00  0.00     0.026 A 
ATOM     19  C   UNL     1       0.222   1.017   1.308  1.00  0.00     0.042 A 
ATOM     20  Br  UNL     1      -2.124  -0.542   0.977  1.00  0.00    -0.050 Br
ENDBRANCH  10  13
ENDBRANCH   8   9
ENDBRANCH   7   8
BRANCH   7  21
ATOM     21  C   UNL     1      -1.219   3.061  -1.574  1.00  0.00     0.029 C 
ATOM     22  C   UNL     1      -2.037   4.362  -1.366  1.00  0.00     0.013 C 
BRANCH  21  23
ATOM     23  C   UNL     1      -1.702   2.351  -2.842  1.00  0.00    -0.044 A 
ATOM     24  C   UNL     1      -2.156   3.028  -3.983  1.00  0.00     0.004 A 
ATOM     25  C   UNL     1      -1.820   0.949  -2.834  1.00  0.00     0.004 A 
ATOM     26  C   UNL     1      -2.719   2.327  -5.058  1.00  0.00     0.000 A 
ATOM     27  C   UNL     1      -2.345   0.245  -3.918  1.00  0.00     0.000 A 
ATOM     28  C   UNL     1      -2.807   0.937  -5.029  1.00  0.00     0.000 A 
ENDBRANCH  21  23
ENDBRANCH   7  21
ENDBRANCH   4   7
ENDBRANCH   2   3
ENDBRANCH   1   2
BRANCH   1  29
ATOM     29  C   UNL     1       5.232   1.781  -0.759  1.00  0.00     0.118 C 
BRANCH  29  30
ATOM     30  N   UNL     1       6.306   1.407  -1.659  1.00  0.00    -0.352 N 
ATOM     31  C   UNL     1       7.635   1.174  -1.394  1.00  0.00     0.251 C 
ATOM     32  H   UNL     1       6.044   1.305  -2.603  1.00  0.00     0.163 HD
ATOM     33  O   UNL     1       8.409   1.000  -2.334  1.00  0.00    -0.269 OA
BRANCH  31  34
ATOM     34  C   UNL     1       8.161   1.153  -0.004  1.00  0.00     0.039 A 
ATOM     35  C   UNL     1       9.354   1.833   0.261  1.00  0.00     0.014 A 
ATOM     36  C   UNL     1       7.544   0.425   1.019  1.00  0.00     0.014 A 
ATOM     37  C   UNL     1       9.903   1.819   1.548  1.00  0.00     0.010 A 
ATOM     38  C   UNL     1       8.063   0.461   2.320  1.00  0.00     0.010 A 
ATOM     39  C   UNL     1       9.255   1.149   2.599  1.00  0.00    -0.014 A 
BRANCH  39  40
ATOM     40  C   UNL     1       9.825   1.171   3.977  1.00  0.00     0.031 A 
ATOM     41  C   UNL     1      10.322  -0.093   4.632  1.00  0.00     0.074 A 
ATOM     42  C   UNL     1       9.866   2.330   4.667  1.00  0.00     0.049 A 
ATOM     43  N   UNL     1      10.867  -0.251   5.812  1.00  0.00    -0.248 NA
ATOM     44  C   UNL     1      10.172  -1.344   3.873  1.00  0.00     0.031 C 
ATOM     45  C   UNL     1       9.354   3.615   4.188  1.00  0.00     0.029 A 
ATOM     46  N   UNL     1      10.344   2.612   5.924  1.00  0.00    -0.354 N 
ATOM     47  C   UNL     1      11.096  -1.615   5.951  1.00  0.00     0.074 A 
ATOM     48  C   UNL     1      10.605  -2.245   4.744  1.00  0.00     0.031 C 
ATOM     49  C   UNL     1       9.550   4.547   5.135  1.00  0.00     0.029 A 
ATOM     50  C   UNL     1      10.182   3.926   6.296  1.00  0.00     0.049 A 
ATOM     51  H   UNL     1      10.763   1.936   6.505  1.00  0.00     0.167 HD
ATOM     52  C   UNL     1      11.686  -2.282   6.973  1.00  0.00     0.034 A 
ATOM     53  C   UNL     1      10.504   4.565   7.440  1.00  0.00     0.034 A 
ATOM     54  C   UNL     1      12.219  -1.656   8.154  1.00  0.00     0.049 A 
ATOM     55  C   UNL     1      11.200   3.810   8.540  1.00  0.00     0.074 A 
ATOM     56  C   UNL     1      12.919  -2.241   9.195  1.00  0.00     0.029 A 
ATOM     57  N   UNL     1      12.105  -0.309   8.459  1.00  0.00    -0.354 N 
ATOM     58  N   UNL     1      11.563   2.551   8.575  1.00  0.00    -0.248 NA
ATOM     59  C   UNL     1      11.568   4.573   9.743  1.00  0.00     0.031 C 
ATOM     60  C   UNL     1      13.209  -1.252  10.141  1.00  0.00     0.029 A 
ATOM     61  C   UNL     1      12.710  -0.046   9.677  1.00  0.00     0.049 A 
ATOM     62  H   UNL     1      11.660   0.362   7.893  1.00  0.00     0.167 HD
ATOM     63  C   UNL     1      12.228   2.378   9.784  1.00  0.00     0.074 A 
ATOM     64  C   UNL     1      12.239   3.667  10.443  1.00  0.00     0.031 C 
ATOM     65  C   UNL     1      12.767   1.249  10.306  1.00  0.00     0.034 A 
BRANCH  52  66
ATOM     66  C   UNL     1      11.841  -3.776   6.839  1.00  0.00     0.023 A 
ATOM     67  C   UNL     1      12.793  -4.296   5.938  1.00  0.00     0.012 A 
ATOM     68  C   UNL     1      11.105  -4.660   7.652  1.00  0.00     0.148 A 
ATOM     69  C   UNL     1      12.986  -5.673   5.824  1.00  0.00     0.002 A 
ATOM     70  C   UNL     1      11.333  -6.029   7.563  1.00  0.00     0.091 A 
ATOM     71  F   UNL     1      10.192  -4.149   8.490  1.00  0.00    -0.205 F 
ATOM     72  C   UNL     1      12.265  -6.537   6.643  1.00  0.00     0.022 A 
BRANCH  70  73
ATOM     73  S   UNL     1      10.511  -7.220   8.629  1.00  0.00     0.127 S 
ATOM     74  O   UNL     1       9.585  -7.860   7.695  1.00  0.00    -0.237 OA
ATOM     75  O   UNL     1      11.623  -8.067   9.061  1.00  0.00    -0.237 OA
ATOM     76  O   UNL     1       9.890  -6.443   9.693  1.00  0.00    -0.744 OA
ENDBRANCH  70  73
ENDBRANCH  52  66
BRANCH  53  77
ATOM     77  C   UNL     1      10.229   6.025   7.575  1.00  0.00     0.023 A 
ATOM     78  C   UNL     1      11.304   6.935   7.575  1.00  0.00     0.012 A 
ATOM     79  C   UNL     1       8.913   6.515   7.672  1.00  0.00     0.148 A 
ATOM     80  C   UNL     1      11.075   8.306   7.697  1.00  0.00     0.002 A 
ATOM     81  C   UNL     1       8.689   7.886   7.737  1.00  0.00     0.091 A 
ATOM     82  F   UNL     1       7.906   5.631   7.686  1.00  0.00    -0.205 F 
ATOM     83  C   UNL     1       9.768   8.782   7.766  1.00  0.00     0.022 A 
BRANCH  81  84
ATOM     84  S   UNL     1       7.037   8.591   7.697  1.00  0.00     0.127 S 
ATOM     85  O   UNL     1       6.890   9.084   9.066  1.00  0.00    -0.237 OA
ATOM     86  O   UNL     1       7.181   9.636   6.681  1.00  0.00    -0.237 OA
ATOM     87  O   UNL     1       6.154   7.502   7.317  1.00  0.00    -0.744 OA
ENDBRANCH  81  84
ENDBRANCH  53  77
BRANCH  65  88
ATOM     88  C   UNL     1      13.444   1.347  11.649  1.00  0.00     0.023 A 
ATOM     89  C   UNL     1      12.668   1.506  12.814  1.00  0.00     0.012 A 
ATOM     90  C   UNL     1      14.841   1.203  11.764  1.00  0.00     0.148 A 
ATOM     91  C   UNL     1      13.274   1.551  14.069  1.00  0.00     0.002 A 
ATOM     92  C   UNL     1      15.433   1.201  13.022  1.00  0.00     0.091 A 
ATOM     93  F   UNL     1      15.566   1.071  10.643  1.00  0.00    -0.205 F 
ATOM     94  C   UNL     1      14.653   1.386  14.175  1.00  0.00     0.022 A 
BRANCH  92  95
ATOM     95  S   UNL     1      17.189   0.902  13.259  1.00  0.00     0.127 S 
ATOM     96  O   UNL     1      17.676   2.237  13.601  1.00  0.00    -0.237 OA
ATOM     97  O   UNL     1      17.196  -0.052  14.369  1.00  0.00    -0.237 OA
ATOM     98  O   UNL     1      17.677   0.361  11.997  1.00  0.00    -0.744 OA
ENDBRANCH  92  95
ENDBRANCH  65  88
ENDBRANCH  39  40
ENDBRANCH  31  34
ENDBRANCH  29  30
ENDBRANCH   1  29
TORSDOF 18
