REMARK SMILES CCC[C@](C)(CC(F)(F)F)C(=O)NCCCNC(=O)c1ccc(-c2c3nc(c(-c4cccc(S(=O)(=O)[O-])c4F)c4ccc([nH]4)c(-c4cccc(S(=O)(=O)[O-])c4F)c4nc(c(-c5cccc(S(=O)(=O)[O-])c5F)c5ccc2[nH]5)C=C4)C=C3)cc1
REMARK SMILES IDX 15 1 14 2 13 3 11 4 12 5 4 7 5 8 3 9 2 10 1 11 6 12 7 13
REMARK SMILES IDX 8 14 9 15 10 16 16 17 17 18 18 19 19 21 20 22 21 23 82 24
REMARK SMILES IDX 22 25 81 26 23 27 24 28 25 29 75 30 26 31 80 32 74 33 76 34
REMARK SMILES IDX 27 35 79 36 73 37 72 38 28 40 60 41 40 42 59 43 41 44 44 45
REMARK SMILES IDX 58 46 77 47 42 48 43 49 57 51 78 52 45 53 29 54 30 55 38 56
REMARK SMILES IDX 31 57 33 58 39 59 32 60 34 61 35 62 36 63 37 64 61 65 62 66
REMARK SMILES IDX 70 67 63 68 65 69 71 70 64 71 66 72 67 73 68 74 69 75 46 76
REMARK SMILES IDX 47 77 55 78 48 79 50 80 56 81 49 82 51 83 52 84 53 85 54 86
REMARK H PARENT 13 6 17 20 76 39 44 50
REMARK Flexibility Score: inf
ROOT
ATOM      1  C   UNL     1       0.904   6.313  -0.498  1.00  0.00     0.042 C 
ENDROOT
BRANCH   1   2
ATOM      2  C   UNL     1       0.143   5.025  -0.255  1.00  0.00     0.117 C 
BRANCH   2   3
ATOM      3  N   UNL     1       0.933   3.833  -0.494  1.00  0.00    -0.356 N 
ATOM      4  C   UNL     1       1.062   2.659   0.174  1.00  0.00     0.226 C 
ATOM      5  O   UNL     1       1.674   1.769  -0.427  1.00  0.00    -0.274 OA
ATOM      6  H   UNL     1       1.489   3.886  -1.305  1.00  0.00     0.163 HD
BRANCH   4   7
ATOM      7  C   UNL     1       0.490   2.412   1.585  1.00  0.00     0.055 C 
ATOM      8  C   UNL     1       1.093   1.059   2.082  1.00  0.00     0.022 C 
BRANCH   7   9
ATOM      9  C   UNL     1      -1.065   2.185   1.645  1.00  0.00     0.017 C 
BRANCH   9  10
ATOM     10  C   UNL     1      -2.051   2.859   0.686  1.00  0.00    -0.002 C 
ATOM     11  C   UNL     1      -2.056   2.303  -0.732  1.00  0.00     0.004 C 
ENDBRANCH   9  10
ENDBRANCH   7   9
BRANCH   7  12
ATOM     12  C   UNL     1       0.947   3.499   2.604  1.00  0.00     0.132 C 
BRANCH  12  13
ATOM     13  C   UNL     1       2.438   3.813   2.647  1.00  0.00     0.390 C 
ATOM     14  F   UNL     1       2.924   4.209   1.457  1.00  0.00    -0.171 F 
ATOM     15  F   UNL     1       2.660   4.820   3.525  1.00  0.00    -0.171 F 
ATOM     16  F   UNL     1       3.164   2.759   3.071  1.00  0.00    -0.171 F 
ENDBRANCH  12  13
ENDBRANCH   7  12
ENDBRANCH   4   7
ENDBRANCH   2   3
ENDBRANCH   1   2
BRANCH   1  17
ATOM     17  C   UNL     1       1.289   6.527  -1.954  1.00  0.00     0.118 C 
BRANCH  17  18
ATOM     18  N   UNL     1       0.135   6.615  -2.846  1.00  0.00    -0.352 N 
ATOM     19  C   UNL     1      -0.326   7.671  -3.600  1.00  0.00     0.251 C 
ATOM     20  H   UNL     1      -0.396   5.789  -2.919  1.00  0.00     0.163 HD
ATOM     21  O   UNL     1      -1.416   7.596  -4.153  1.00  0.00    -0.269 OA
BRANCH  19  22
ATOM     22  C   UNL     1       0.488   8.899  -3.715  1.00  0.00     0.039 A 
ATOM     23  C   UNL     1      -0.130  10.146  -3.599  1.00  0.00     0.014 A 
ATOM     24  C   UNL     1       1.867   8.814  -3.908  1.00  0.00     0.014 A 
ATOM     25  C   UNL     1       0.653  11.304  -3.581  1.00  0.00     0.010 A 
ATOM     26  C   UNL     1       2.650   9.952  -3.777  1.00  0.00     0.010 A 
ATOM     27  C   UNL     1       2.054  11.212  -3.619  1.00  0.00    -0.014 A 
BRANCH  27  28
ATOM     28  C   UNL     1       2.927  12.406  -3.493  1.00  0.00     0.031 A 
ATOM     29  C   UNL     1       3.906  12.737  -4.589  1.00  0.00     0.074 A 
ATOM     30  C   UNL     1       2.928  13.116  -2.346  1.00  0.00     0.049 A 
ATOM     31  N   UNL     1       4.837  13.654  -4.614  1.00  0.00    -0.248 NA
ATOM     32  C   UNL     1       3.863  11.898  -5.800  1.00  0.00     0.031 C 
ATOM     33  C   UNL     1       2.097  12.836  -1.172  1.00  0.00     0.029 A 
ATOM     34  N   UNL     1       3.678  14.202  -1.966  1.00  0.00    -0.354 N 
ATOM     35  C   UNL     1       5.520  13.468  -5.810  1.00  0.00     0.074 A 
ATOM     36  C   UNL     1       4.923  12.327  -6.467  1.00  0.00     0.031 C 
ATOM     37  C   UNL     1       2.376  13.731  -0.210  1.00  0.00     0.029 A 
ATOM     38  C   UNL     1       3.424  14.628  -0.683  1.00  0.00     0.049 A 
ATOM     39  H   UNL     1       4.336  14.634  -2.557  1.00  0.00     0.167 HD
ATOM     40  C   UNL     1       6.527  14.204  -6.337  1.00  0.00     0.034 A 
ATOM     41  C   UNL     1       3.975  15.629   0.031  1.00  0.00     0.034 A 
ATOM     42  C   UNL     1       7.061  15.386  -5.719  1.00  0.00     0.049 A 
ATOM     43  C   UNL     1       5.033  16.484  -0.613  1.00  0.00     0.074 A 
ATOM     44  C   UNL     1       8.007  16.264  -6.217  1.00  0.00     0.029 A 
ATOM     45  N   UNL     1       6.687  15.862  -4.472  1.00  0.00    -0.354 N 
ATOM     46  N   UNL     1       5.551  16.390  -1.814  1.00  0.00    -0.248 NA
ATOM     47  C   UNL     1       5.556  17.607   0.180  1.00  0.00     0.031 C 
ATOM     48  C   UNL     1       8.207  17.272  -5.267  1.00  0.00     0.029 A 
ATOM     49  C   UNL     1       7.378  17.024  -4.184  1.00  0.00     0.049 A 
ATOM     50  H   UNL     1       6.027  15.435  -3.880  1.00  0.00     0.167 HD
ATOM     51  C   UNL     1       6.432  17.459  -1.934  1.00  0.00     0.074 A 
ATOM     52  C   UNL     1       6.360  18.201  -0.692  1.00  0.00     0.031 C 
ATOM     53  C   UNL     1       7.243  17.786  -2.970  1.00  0.00     0.034 A 
BRANCH  40  54
ATOM     54  C   UNL     1       7.060  13.798  -7.685  1.00  0.00     0.023 A 
ATOM     55  C   UNL     1       6.268  14.011  -8.832  1.00  0.00     0.012 A 
ATOM     56  C   UNL     1       8.354  13.262  -7.829  1.00  0.00     0.148 A 
ATOM     57  C   UNL     1       6.740  13.665 -10.097  1.00  0.00     0.002 A 
ATOM     58  C   UNL     1       8.835  12.960  -9.099  1.00  0.00     0.091 A 
ATOM     59  F   UNL     1       9.085  13.046  -6.726  1.00  0.00    -0.205 F 
ATOM     60  C   UNL     1       8.026  13.150 -10.231  1.00  0.00     0.022 A 
BRANCH  58  61
ATOM     61  S   UNL     1      10.505  12.364  -9.388  1.00  0.00     0.127 S 
ATOM     62  O   UNL     1      10.261  10.971  -9.758  1.00  0.00    -0.237 OA
ATOM     63  O   UNL     1      10.951  13.218 -10.489  1.00  0.00    -0.237 OA
ATOM     64  O   UNL     1      11.224  12.563  -8.137  1.00  0.00    -0.744 OA
ENDBRANCH  58  61
ENDBRANCH  40  54
BRANCH  41  65
ATOM     65  C   UNL     1       3.475  15.934   1.402  1.00  0.00     0.023 A 
ATOM     66  C   UNL     1       2.724  17.107   1.611  1.00  0.00     0.012 A 
ATOM     67  C   UNL     1       3.710  15.069   2.488  1.00  0.00     0.148 A 
ATOM     68  C   UNL     1       2.246  17.432   2.881  1.00  0.00     0.002 A 
ATOM     69  C   UNL     1       3.185  15.371   3.740  1.00  0.00     0.091 A 
ATOM     70  F   UNL     1       4.438  13.963   2.276  1.00  0.00    -0.205 F 
ATOM     71  C   UNL     1       2.467  16.560   3.943  1.00  0.00     0.022 A 
BRANCH  69  72
ATOM     72  S   UNL     1       3.310  14.236   5.128  1.00  0.00     0.127 S 
ATOM     73  O   UNL     1       4.368  14.851   5.924  1.00  0.00    -0.237 OA
ATOM     74  O   UNL     1       1.971  14.318   5.713  1.00  0.00    -0.237 OA
ATOM     75  O   UNL     1       3.623  12.941   4.538  1.00  0.00    -0.744 OA
ENDBRANCH  69  72
ENDBRANCH  41  65
BRANCH  53  76
ATOM     76  C   UNL     1       8.095  19.017  -2.827  1.00  0.00     0.023 A 
ATOM     77  C   UNL     1       9.229  18.986  -1.993  1.00  0.00     0.012 A 
ATOM     78  C   UNL     1       7.822  20.174  -3.583  1.00  0.00     0.148 A 
ATOM     79  C   UNL     1      10.065  20.097  -1.893  1.00  0.00     0.002 A 
ATOM     80  C   UNL     1       8.684  21.261  -3.513  1.00  0.00     0.091 A 
ATOM     81  F   UNL     1       6.725  20.190  -4.356  1.00  0.00    -0.205 F 
ATOM     82  C   UNL     1       9.800  21.228  -2.662  1.00  0.00     0.022 A 
BRANCH  80  83
ATOM     83  S   UNL     1       8.470  22.720  -4.539  1.00  0.00     0.127 S 
ATOM     84  O   UNL     1       7.936  23.684  -3.579  1.00  0.00    -0.237 OA
ATOM     85  O   UNL     1       9.838  22.994  -4.982  1.00  0.00    -0.237 OA
ATOM     86  O   UNL     1       7.560  22.326  -5.607  1.00  0.00    -0.744 OA
ENDBRANCH  80  83
ENDBRANCH  53  76
ENDBRANCH  27  28
ENDBRANCH  19  22
ENDBRANCH  17  18
ENDBRANCH   1  17
TORSDOF 17
