REMARK SMILES COc1cc(C[N@H+]2CCC[C@@](O)(CO)C2)cc(Cl)c1OCC(=O)NCCCNC(=O)c1ccc(-c2c3nc(c(-c4cccc(S(=O)(=O)[O-])c4F)c4ccc([nH]4)c(-c4cccc(S(=O)(=O)[O-])c4F)c4nc(c(-c5cccc(S(=O)(=O)[O-])c5F)c5ccc2[nH]5)C=C4)C=C3)cc1
REMARK SMILES IDX 22 1 23 2 24 3 21 5 20 6 19 7 3 8 4 9 5 10 17 11 16 12 18 13
REMARK SMILES IDX 2 14 1 15 6 16 7 17 8 18 15 19 9 21 11 22 10 23 13 24 14 25
REMARK SMILES IDX 12 27 25 29 26 30 27 31 28 32 29 33 30 35 31 36 32 37 93 38
REMARK SMILES IDX 33 39 92 40 34 41 35 42 36 43 86 44 37 45 91 46 85 47 87 48
REMARK SMILES IDX 38 49 90 50 84 51 83 52 39 54 71 55 51 56 70 57 52 58 55 59
REMARK SMILES IDX 69 60 88 61 53 62 54 63 68 65 89 66 56 67 40 68 41 69 49 70
REMARK SMILES IDX 42 71 44 72 50 73 43 74 45 75 46 76 47 77 48 78 72 79 73 80
REMARK SMILES IDX 81 81 74 82 76 83 82 84 75 85 77 86 78 87 79 88 80 89 57 90
REMARK SMILES IDX 58 91 66 92 59 93 61 94 67 95 60 96 62 97 63 98 64 99 65 100
REMARK H PARENT 24 4 7 20 14 26 12 28 28 34 87 53 55 64
REMARK Flexibility Score: inf
ROOT
ATOM      1  C   UNL     1      -3.124   1.430   4.324  1.00  0.00     0.257 C 
ATOM      2  O   UNL     1      -3.312   1.603   5.531  1.00  0.00    -0.271 OA
ATOM      3  N   UNL     1      -3.337   0.176   3.836  1.00  0.00    -0.353 N 
ATOM      4  H   UNL     1      -3.470  -0.524   4.516  1.00  0.00     0.163 HD
ENDROOT
BRANCH   1   5
ATOM      5  C   UNL     1      -2.767   2.592   3.379  1.00  0.00     0.329 C 
BRANCH   5   6
ATOM      6  O   UNL     1      -1.638   2.521   2.537  1.00  0.00    -0.478 OA
BRANCH   6   7
ATOM      7  C   UNL     1      -0.352   2.497   3.000  1.00  0.00     0.180 A 
ATOM      8  C   UNL     1       0.593   2.212   1.989  1.00  0.00     0.162 A 
ATOM      9  C   UNL     1       1.954   2.036   2.273  1.00  0.00     0.060 A 
ATOM     10  C   UNL     1       2.393   2.021   3.595  1.00  0.00     0.012 A 
ATOM     11  C   UNL     1       0.141   2.694   4.294  1.00  0.00     0.087 A 
ATOM     12  C   UNL     1       1.488   2.421   4.587  1.00  0.00     0.034 A 
ATOM     13  Cl  UNL     1      -0.753   3.331   5.624  1.00  0.00    -0.080 Cl
BRANCH   8  14
ATOM     14  O   UNL     1       0.165   2.169   0.679  1.00  0.00    -0.493 OA
ATOM     15  C   UNL     1       0.289   0.865   0.112  1.00  0.00     0.278 C 
ENDBRANCH   8  14
BRANCH  10  16
ATOM     16  C   UNL     1       3.756   1.498   3.993  1.00  0.00     0.299 C 
BRANCH  16  17
ATOM     17  N   UNL     1       3.861   0.056   4.196  1.00  0.00    -0.329 N 
ATOM     18  C   UNL     1       2.710  -0.720   4.620  1.00  0.00     0.262 C 
ATOM     19  C   UNL     1       4.724  -0.721   3.310  1.00  0.00     0.300 C 
ATOM     20  H   UNL     1       4.384   0.206   5.059  1.00  0.00     0.348 HD
ATOM     21  C   UNL     1       1.849  -1.187   3.449  1.00  0.00     0.065 C 
ATOM     22  C   UNL     1       4.074  -1.342   2.046  1.00  0.00     0.136 C 
ATOM     23  C   UNL     1       2.630  -1.852   2.308  1.00  0.00     0.049 C 
BRANCH  22  24
ATOM     24  C   UNL     1       4.160  -0.450   0.776  1.00  0.00     0.197 C 
BRANCH  24  25
ATOM     25  O   UNL     1       5.203   0.522   0.804  1.00  0.00    -0.393 OA
ATOM     26  H   UNL     1       5.048   1.143   1.533  1.00  0.00     0.210 HD
ENDBRANCH  24  25
ENDBRANCH  22  24
BRANCH  22  27
ATOM     27  O   UNL     1       4.852  -2.531   1.762  1.00  0.00    -0.382 OA
ATOM     28  H   UNL     1       4.829  -3.123   2.529  1.00  0.00     0.211 HD
ENDBRANCH  22  27
ENDBRANCH  16  17
ENDBRANCH  10  16
ENDBRANCH   6   7
ENDBRANCH   5   6
ENDBRANCH   1   5
BRANCH   3  29
ATOM     29  C   UNL     1      -3.396  -0.275   2.461  1.00  0.00     0.117 C 
BRANCH  29  30
ATOM     30  C   UNL     1      -2.362  -1.351   2.156  1.00  0.00     0.042 C 
BRANCH  30  31
ATOM     31  C   UNL     1      -2.448  -2.609   3.016  1.00  0.00     0.118 C 
BRANCH  31  32
ATOM     32  N   UNL     1      -3.731  -3.292   2.930  1.00  0.00    -0.352 N 
ATOM     33  C   UNL     1      -4.033  -4.579   2.556  1.00  0.00     0.251 C 
ATOM     34  H   UNL     1      -4.508  -2.743   3.182  1.00  0.00     0.163 HD
ATOM     35  O   UNL     1      -5.215  -4.907   2.438  1.00  0.00    -0.269 OA
BRANCH  33  36
ATOM     36  C   UNL     1      -2.966  -5.562   2.264  1.00  0.00     0.039 A 
ATOM     37  C   UNL     1      -3.115  -6.404   1.157  1.00  0.00     0.014 A 
ATOM     38  C   UNL     1      -1.832  -5.673   3.072  1.00  0.00     0.014 A 
ATOM     39  C   UNL     1      -2.096  -7.298   0.819  1.00  0.00     0.010 A 
ATOM     40  C   UNL     1      -0.781  -6.503   2.686  1.00  0.00     0.010 A 
ATOM     41  C   UNL     1      -0.899  -7.324   1.555  1.00  0.00    -0.014 A 
BRANCH  41  42
ATOM     42  C   UNL     1       0.244  -8.177   1.133  1.00  0.00     0.031 A 
ATOM     43  C   UNL     1       0.774  -9.257   2.037  1.00  0.00     0.074 A 
ATOM     44  C   UNL     1       0.867  -7.920  -0.034  1.00  0.00     0.049 A 
ATOM     45  N   UNL     1       1.794 -10.055   1.857  1.00  0.00    -0.248 NA
ATOM     46  C   UNL     1       0.083  -9.448   3.322  1.00  0.00     0.031 C 
ATOM     47  C   UNL     1       0.505  -6.848  -0.965  1.00  0.00     0.029 A 
ATOM     48  N   UNL     1       1.952  -8.519  -0.625  1.00  0.00    -0.354 N 
ATOM     49  C   UNL     1       1.888 -10.821   3.013  1.00  0.00     0.074 A 
ATOM     50  C   UNL     1       0.845 -10.362   3.905  1.00  0.00     0.031 C 
ATOM     51  C   UNL     1       1.351  -6.866  -2.006  1.00  0.00     0.029 A 
ATOM     52  C   UNL     1       2.337  -7.922  -1.802  1.00  0.00     0.049 A 
ATOM     53  H   UNL     1       2.410  -9.301  -0.241  1.00  0.00     0.167 HD
ATOM     54  C   UNL     1       2.743 -11.834   3.298  1.00  0.00     0.034 A 
ATOM     55  C   UNL     1       3.377  -8.180  -2.620  1.00  0.00     0.034 A 
ATOM     56  C   UNL     1       3.766 -12.303   2.401  1.00  0.00     0.049 A 
ATOM     57  C   UNL     1       4.301  -9.321  -2.297  1.00  0.00     0.074 A 
ATOM     58  C   UNL     1       4.629 -13.373   2.564  1.00  0.00     0.029 A 
ATOM     59  N   UNL     1       4.078 -11.723   1.181  1.00  0.00    -0.354 N 
ATOM     60  N   UNL     1       4.275 -10.136  -1.271  1.00  0.00    -0.248 NA
ATOM     61  C   UNL     1       5.375  -9.601  -3.260  1.00  0.00     0.031 C 
ATOM     62  C   UNL     1       5.485 -13.418   1.458  1.00  0.00     0.029 A 
ATOM     63  C   UNL     1       5.130 -12.401   0.587  1.00  0.00     0.049 A 
ATOM     64  H   UNL     1       3.619 -10.943   0.793  1.00  0.00     0.167 HD
ATOM     65  C   UNL     1       5.308 -11.043  -1.478  1.00  0.00     0.074 A 
ATOM     66  C   UNL     1       5.925 -10.690  -2.740  1.00  0.00     0.031 C 
ATOM     67  C   UNL     1       5.715 -12.067  -0.687  1.00  0.00     0.034 A 
BRANCH  54  68
ATOM     68  C   UNL     1       2.575 -12.531   4.625  1.00  0.00     0.023 A 
ATOM     69  C   UNL     1       1.433 -13.327   4.855  1.00  0.00     0.012 A 
ATOM     70  C   UNL     1       3.558 -12.433   5.629  1.00  0.00     0.148 A 
ATOM     71  C   UNL     1       1.247 -13.971   6.077  1.00  0.00     0.002 A 
ATOM     72  C   UNL     1       3.390 -13.119   6.827  1.00  0.00     0.091 A 
ATOM     73  F   UNL     1       4.630 -11.659   5.403  1.00  0.00    -0.205 F 
ATOM     74  C   UNL     1       2.229 -13.874   7.058  1.00  0.00     0.022 A 
BRANCH  72  75
ATOM     75  S   UNL     1       4.635 -13.126   8.122  1.00  0.00     0.127 S 
ATOM     76  O   UNL     1       4.000 -12.295   9.145  1.00  0.00    -0.237 OA
ATOM     77  O   UNL     1       4.719 -14.548   8.459  1.00  0.00    -0.237 OA
ATOM     78  O   UNL     1       5.840 -12.572   7.523  1.00  0.00    -0.744 OA
ENDBRANCH  72  75
ENDBRANCH  54  68
BRANCH  55  79
ATOM     79  C   UNL     1       3.568  -7.357  -3.846  1.00  0.00     0.023 A 
ATOM     80  C   UNL     1       3.336  -7.923  -5.114  1.00  0.00     0.012 A 
ATOM     81  C   UNL     1       3.926  -5.998  -3.754  1.00  0.00     0.148 A 
ATOM     82  C   UNL     1       3.483  -7.156  -6.271  1.00  0.00     0.002 A 
ATOM     83  C   UNL     1       4.008  -5.224  -4.904  1.00  0.00     0.091 A 
ATOM     84  F   UNL     1       4.152  -5.482  -2.537  1.00  0.00    -0.205 F 
ATOM     85  C   UNL     1       3.806  -5.805  -6.166  1.00  0.00     0.022 A 
BRANCH  83  86
ATOM     86  S   UNL     1       4.259  -3.447  -4.844  1.00  0.00     0.127 S 
ATOM     87  O   UNL     1       5.602  -3.316  -5.401  1.00  0.00    -0.237 OA
ATOM     88  O   UNL     1       3.181  -2.962  -5.707  1.00  0.00    -0.237 OA
ATOM     89  O   UNL     1       4.112  -3.075  -3.442  1.00  0.00    -0.744 OA
ENDBRANCH  83  86
ENDBRANCH  55  79
BRANCH  67  90
ATOM     90  C   UNL     1       6.868 -12.908  -1.173  1.00  0.00     0.023 A 
ATOM     91  C   UNL     1       8.173 -12.376  -1.184  1.00  0.00     0.012 A 
ATOM     92  C   UNL     1       6.666 -14.249  -1.555  1.00  0.00     0.148 A 
ATOM     93  C   UNL     1       9.253 -13.154  -1.601  1.00  0.00     0.002 A 
ATOM     94  C   UNL     1       7.753 -15.034  -1.919  1.00  0.00     0.091 A 
ATOM     95  F   UNL     1       5.415 -14.732  -1.555  1.00  0.00    -0.205 F 
ATOM     96  C   UNL     1       9.045 -14.485  -1.956  1.00  0.00     0.022 A 
BRANCH  94  97
ATOM     97  S   UNL     1       7.597 -16.783  -2.300  1.00  0.00     0.127 S 
ATOM     98  O   UNL     1       7.852 -16.798  -3.740  1.00  0.00    -0.237 OA
ATOM     99  O   UNL     1       8.660 -17.373  -1.486  1.00  0.00    -0.237 OA
ATOM    100  O   UNL     1       6.248 -17.163  -1.902  1.00  0.00    -0.744 OA
ENDBRANCH  94  97
ENDBRANCH  67  90
ENDBRANCH  41  42
ENDBRANCH  33  36
ENDBRANCH  31  32
ENDBRANCH  30  31
ENDBRANCH  29  30
ENDBRANCH   3  29
TORSDOF 21
