REMARK SMILES C[C@@H](C1CC1)N(C)C(=O)N1Cc2nc[nH]c2C[C@H]1C(=O)NCCCNC(=O)c1ccc(-c2c3nc(c(-c4cccc(S(=O)(=O)[O-])c4F)c4ccc([nH]4)c(-c4cccc(S(=O)(=O)[O-])c4F)c4nc(c(-c5cccc(S(=O)(=O)[O-])c5F)c5ccc2[nH]5)C=C4)C=C3)cc1
REMARK SMILES IDX 22 1 21 2 19 3 20 4 18 6 10 7 11 8 12 9 17 10 13 11 16 12
REMARK SMILES IDX 14 13 15 14 8 16 9 17 6 18 7 19 2 20 1 21 3 22 4 23 5 24
REMARK SMILES IDX 23 25 24 26 25 27 26 28 27 30 28 31 29 32 90 33 30 34 89 35
REMARK SMILES IDX 31 36 32 37 33 38 83 39 34 40 88 41 82 42 84 43 35 44 87 45
REMARK SMILES IDX 81 46 80 47 36 49 68 50 48 51 67 52 49 53 52 54 66 55 85 56
REMARK SMILES IDX 50 57 51 58 65 60 86 61 53 62 37 63 38 64 46 65 39 66 41 67
REMARK SMILES IDX 47 68 40 69 42 70 43 71 44 72 45 73 69 74 70 75 78 76 71 77
REMARK SMILES IDX 73 78 79 79 72 80 74 81 75 82 76 83 77 84 54 85 55 86 63 87
REMARK SMILES IDX 56 88 58 89 64 90 57 91 59 92 60 93 61 94 62 95
REMARK H PARENT 21 5 15 15 25 29 84 48 52 59
REMARK Flexibility Score: inf
ROOT
ATOM      1  C   UNL     1      -6.528  -0.823   0.453  1.00  0.00     0.117 C 
ENDROOT
BRANCH   1   2
ATOM      2  N   UNL     1      -5.768  -0.297  -0.673  1.00  0.00    -0.354 N 
ATOM      3  C   UNL     1      -4.737  -0.765  -1.424  1.00  0.00     0.243 C 
ATOM      4  O   UNL     1      -4.594  -0.193  -2.516  1.00  0.00    -0.273 OA
ATOM      5  H   UNL     1      -6.069   0.597  -0.952  1.00  0.00     0.163 HD
BRANCH   3   6
ATOM      6  C   UNL     1      -3.790  -1.955  -1.082  1.00  0.00     0.182 C 
ATOM      7  N   UNL     1      -2.788  -1.792   0.030  1.00  0.00    -0.306 N 
ATOM      8  C   UNL     1      -3.219  -2.094   1.412  1.00  0.00     0.180 C 
ATOM      9  C   UNL     1      -4.276  -3.137   1.442  1.00  0.00     0.081 A 
ATOM     10  C   UNL     1      -4.549  -3.314  -1.061  1.00  0.00     0.091 C 
ATOM     11  N   UNL     1      -4.918  -3.562   2.578  1.00  0.00    -0.240 NA
ATOM     12  C   UNL     1      -4.865  -3.686   0.332  1.00  0.00     0.042 A 
ATOM     13  C   UNL     1      -5.881  -4.351   2.156  1.00  0.00     0.197 A 
ATOM     14  N   UNL     1      -5.862  -4.494   0.793  1.00  0.00    -0.348 N 
ATOM     15  H   UNL     1      -6.452  -5.068   0.253  1.00  0.00     0.167 HD
BRANCH   7  16
ATOM     16  C   UNL     1      -1.435  -1.519  -0.068  1.00  0.00     0.321 C 
ATOM     17  O   UNL     1      -0.702  -1.817   0.884  1.00  0.00    -0.248 OA
BRANCH  16  18
ATOM     18  N   UNL     1      -0.876  -0.953  -1.198  1.00  0.00    -0.325 N 
ATOM     19  C   UNL     1      -1.587  -0.079  -2.126  1.00  0.00     0.149 C 
BRANCH  18  20
ATOM     20  C   UNL     1       0.596  -0.803  -1.231  1.00  0.00     0.086 C 
ATOM     21  C   UNL     1       1.080   0.220  -0.188  1.00  0.00     0.031 C 
BRANCH  20  22
ATOM     22  C   UNL     1       1.377  -2.106  -1.148  1.00  0.00     0.011 C 
ATOM     23  C   UNL     1       0.786  -3.502  -1.153  1.00  0.00     0.006 C 
ATOM     24  C   UNL     1       1.470  -2.984  -2.378  1.00  0.00     0.006 C 
ENDBRANCH  20  22
ENDBRANCH  18  20
ENDBRANCH  16  18
ENDBRANCH   7  16
ENDBRANCH   3   6
ENDBRANCH   1   2
BRANCH   1  25
ATOM     25  C   UNL     1      -6.009  -0.370   1.817  1.00  0.00     0.042 C 
BRANCH  25  26
ATOM     26  C   UNL     1      -6.921   0.593   2.542  1.00  0.00     0.118 C 
BRANCH  26  27
ATOM     27  N   UNL     1      -8.183  -0.007   3.010  1.00  0.00    -0.352 N 
ATOM     28  C   UNL     1      -9.300   0.659   3.501  1.00  0.00     0.251 C 
ATOM     29  H   UNL     1      -8.242  -0.990   2.971  1.00  0.00     0.163 HD
ATOM     30  O   UNL     1     -10.131   0.087   4.205  1.00  0.00    -0.269 OA
BRANCH  28  31
ATOM     31  C   UNL     1      -9.458   2.079   3.143  1.00  0.00     0.039 A 
ATOM     32  C   UNL     1      -9.791   3.076   4.061  1.00  0.00     0.014 A 
ATOM     33  C   UNL     1      -9.055   2.402   1.859  1.00  0.00     0.014 A 
ATOM     34  C   UNL     1      -9.583   4.404   3.688  1.00  0.00     0.010 A 
ATOM     35  C   UNL     1      -8.517   3.638   1.664  1.00  0.00     0.010 A 
ATOM     36  C   UNL     1      -8.892   4.674   2.493  1.00  0.00    -0.014 A 
BRANCH  36  37
ATOM     37  C   UNL     1      -8.452   6.009   2.106  1.00  0.00     0.031 A 
ATOM     38  C   UNL     1      -7.814   6.767   3.205  1.00  0.00     0.074 A 
ATOM     39  C   UNL     1      -8.461   6.466   0.831  1.00  0.00     0.049 A 
ATOM     40  N   UNL     1      -8.389   7.638   3.964  1.00  0.00    -0.248 NA
ATOM     41  C   UNL     1      -6.475   6.368   3.660  1.00  0.00     0.031 C 
ATOM     42  C   UNL     1      -8.751   5.734  -0.414  1.00  0.00     0.029 A 
ATOM     43  N   UNL     1      -8.098   7.689   0.362  1.00  0.00    -0.354 N 
ATOM     44  C   UNL     1      -7.384   8.116   4.794  1.00  0.00     0.074 A 
ATOM     45  C   UNL     1      -6.338   7.129   4.751  1.00  0.00     0.031 C 
ATOM     46  C   UNL     1      -8.315   6.441  -1.478  1.00  0.00     0.029 A 
ATOM     47  C   UNL     1      -7.912   7.752  -1.017  1.00  0.00     0.049 A 
ATOM     48  H   UNL     1      -7.976   8.469   0.950  1.00  0.00     0.167 HD
ATOM     49  C   UNL     1      -7.378   9.422   5.181  1.00  0.00     0.034 A 
ATOM     50  C   UNL     1      -7.454   8.810  -1.728  1.00  0.00     0.034 A 
ATOM     51  C   UNL     1      -8.639  10.057   4.860  1.00  0.00     0.049 A 
ATOM     52  C   UNL     1      -7.693  10.010  -0.898  1.00  0.00     0.074 A 
ATOM     53  C   UNL     1      -9.964   9.825   5.170  1.00  0.00     0.029 A 
ATOM     54  N   UNL     1      -8.643  10.855   3.740  1.00  0.00    -0.354 N 
ATOM     55  N   UNL     1      -8.883  10.449  -0.599  1.00  0.00    -0.248 NA
ATOM     56  C   UNL     1      -6.619  10.464  -0.032  1.00  0.00     0.031 C 
ATOM     57  C   UNL     1     -10.680  10.113   3.969  1.00  0.00     0.029 A 
ATOM     58  C   UNL     1      -9.773  10.584   3.017  1.00  0.00     0.049 A 
ATOM     59  H   UNL     1      -7.951  11.512   3.499  1.00  0.00     0.167 HD
ATOM     60  C   UNL     1      -8.783  10.818   0.736  1.00  0.00     0.074 A 
ATOM     61  C   UNL     1      -7.346  10.926   0.989  1.00  0.00     0.031 C 
ATOM     62  C   UNL     1      -9.854  10.706   1.576  1.00  0.00     0.034 A 
BRANCH  49  63
ATOM     63  C   UNL     1      -6.140  10.255   5.442  1.00  0.00     0.023 A 
ATOM     64  C   UNL     1      -6.352  11.569   5.922  1.00  0.00     0.012 A 
ATOM     65  C   UNL     1      -4.837   9.947   4.989  1.00  0.00     0.148 A 
ATOM     66  C   UNL     1      -5.347  12.541   5.878  1.00  0.00     0.002 A 
ATOM     67  C   UNL     1      -3.820  10.894   5.018  1.00  0.00     0.091 A 
ATOM     68  F   UNL     1      -4.585   8.777   4.402  1.00  0.00    -0.205 F 
ATOM     69  C   UNL     1      -4.079  12.203   5.427  1.00  0.00     0.022 A 
BRANCH  67  70
ATOM     70  S   UNL     1      -2.149  10.501   4.484  1.00  0.00     0.127 S 
ATOM     71  O   UNL     1      -2.063  11.243   3.230  1.00  0.00    -0.237 OA
ATOM     72  O   UNL     1      -1.352  11.044   5.584  1.00  0.00    -0.237 OA
ATOM     73  O   UNL     1      -2.102   9.049   4.372  1.00  0.00    -0.744 OA
ENDBRANCH  67  70
ENDBRANCH  49  63
BRANCH  50  74
ATOM     74  C   UNL     1      -6.625   8.858  -2.953  1.00  0.00     0.023 A 
ATOM     75  C   UNL     1      -6.570  10.046  -3.710  1.00  0.00     0.012 A 
ATOM     76  C   UNL     1      -5.654   7.863  -3.202  1.00  0.00     0.148 A 
ATOM     77  C   UNL     1      -5.550  10.260  -4.645  1.00  0.00     0.002 A 
ATOM     78  C   UNL     1      -4.641   8.081  -4.131  1.00  0.00     0.091 A 
ATOM     79  F   UNL     1      -5.671   6.748  -2.460  1.00  0.00    -0.205 F 
ATOM     80  C   UNL     1      -4.577   9.285  -4.845  1.00  0.00     0.022 A 
BRANCH  78  81
ATOM     81  S   UNL     1      -3.324   6.889  -4.415  1.00  0.00     0.127 S 
ATOM     82  O   UNL     1      -3.339   6.764  -5.873  1.00  0.00    -0.237 OA
ATOM     83  O   UNL     1      -2.162   7.587  -3.872  1.00  0.00    -0.237 OA
ATOM     84  O   UNL     1      -3.722   5.680  -3.704  1.00  0.00    -0.744 OA
ENDBRANCH  78  81
ENDBRANCH  50  74
BRANCH  62  85
ATOM     85  C   UNL     1     -11.214  10.472   0.961  1.00  0.00     0.023 A 
ATOM     86  C   UNL     1     -11.539   9.308   0.233  1.00  0.00     0.012 A 
ATOM     87  C   UNL     1     -12.236  11.387   1.265  1.00  0.00     0.148 A 
ATOM     88  C   UNL     1     -12.849   9.075  -0.200  1.00  0.00     0.002 A 
ATOM     89  C   UNL     1     -13.544  11.129   0.876  1.00  0.00     0.091 A 
ATOM     90  F   UNL     1     -11.911  12.489   1.957  1.00  0.00    -0.205 F 
ATOM     91  C   UNL     1     -13.854   9.979   0.135  1.00  0.00     0.022 A 
BRANCH  89  92
ATOM     92  S   UNL     1     -14.896  12.194   1.383  1.00  0.00     0.127 S 
ATOM     93  O   UNL     1     -15.208  12.902   0.143  1.00  0.00    -0.237 OA
ATOM     94  O   UNL     1     -15.912  11.230   1.810  1.00  0.00    -0.237 OA
ATOM     95  O   UNL     1     -14.372  13.021   2.463  1.00  0.00    -0.744 OA
ENDBRANCH  89  92
ENDBRANCH  62  85
ENDBRANCH  36  37
ENDBRANCH  28  31
ENDBRANCH  26  27
ENDBRANCH  25  26
ENDBRANCH   1  25
TORSDOF 17
