REMARK SMILES CC(C)Nc1ncc(C(=O)N2CCC[C@H](c3cccc(C(=O)NCCCNC(=O)c4ccc(-c5c6nc(c(-c7cccc(S(=O)(=O)[O-])c7F)c7ccc([nH]7)c(-c7cccc(S(=O)(=O)[O-])c7F)c7nc(c(-c8cccc(S(=O)(=O)[O-])c8F)c8ccc5[nH]8)C=C7)C=C6)cc4)c3)C2)cn1
REMARK SMILES IDX 24 1 23 2 21 3 22 4 20 6 16 7 17 8 93 9 18 10 19 11 15 12
REMARK SMILES IDX 11 13 12 14 94 15 13 16 14 17 9 18 10 19 8 20 5 21 6 22
REMARK SMILES IDX 96 23 7 24 95 25 4 26 2 28 1 29 3 30 25 31 26 32 27 33 28 34
REMARK SMILES IDX 29 36 30 37 31 38 92 39 32 40 91 41 33 42 34 43 35 44 85 45
REMARK SMILES IDX 36 46 90 47 84 48 86 49 37 50 89 51 83 52 82 53 38 55 70 56
REMARK SMILES IDX 50 57 69 58 51 59 54 60 68 61 87 62 52 63 53 64 67 66 88 67
REMARK SMILES IDX 55 68 39 69 40 70 48 71 41 72 43 73 49 74 42 75 44 76 45 77
REMARK SMILES IDX 46 78 47 79 71 80 72 81 80 82 73 83 75 84 81 85 74 86 76 87
REMARK SMILES IDX 77 88 78 89 79 90 56 91 57 92 65 93 58 94 60 95 66 96 59 97
REMARK SMILES IDX 61 98 62 99 63 100 64 101
REMARK H PARENT 23 5 4 27 27 35 86 54 54 65
REMARK Flexibility Score: inf
ROOT
ATOM      1  C   UNL     1      -5.715  11.265   3.613  1.00  0.00     0.118 C 
ENDROOT
BRANCH   1   2
ATOM      2  N   UNL     1      -4.614  12.021   3.026  1.00  0.00    -0.352 N 
ATOM      3  C   UNL     1      -3.570  11.721   2.180  1.00  0.00     0.251 C 
ATOM      4  O   UNL     1      -2.812  12.643   1.873  1.00  0.00    -0.269 OA
ATOM      5  H   UNL     1      -4.620  12.967   3.298  1.00  0.00     0.163 HD
BRANCH   3   6
ATOM      6  C   UNL     1      -3.272  10.353   1.671  1.00  0.00     0.040 A 
ATOM      7  C   UNL     1      -3.905   8.002   1.339  1.00  0.00    -0.042 A 
ATOM      8  C   UNL     1      -2.578   7.723   0.993  1.00  0.00     0.004 A 
ATOM      9  C   UNL     1      -4.231   9.350   1.558  1.00  0.00     0.018 A 
ATOM     10  C   UNL     1      -1.626   8.747   0.917  1.00  0.00     0.001 A 
ATOM     11  C   UNL     1      -1.962  10.048   1.293  1.00  0.00     0.014 A 
BRANCH   7  12
ATOM     12  C   UNL     1      -4.945   6.915   1.650  1.00  0.00     0.039 C 
ATOM     13  N   UNL     1      -5.038   5.639  -0.477  1.00  0.00    -0.338 N 
ATOM     14  C   UNL     1      -6.355   6.164  -0.829  1.00  0.00     0.120 C 
ATOM     15  C   UNL     1      -4.728   5.553   0.955  1.00  0.00     0.128 C 
ATOM     16  C   UNL     1      -6.685   7.462  -0.103  1.00  0.00     0.022 C 
ATOM     17  C   UNL     1      -6.417   7.321   1.394  1.00  0.00     0.012 C 
BRANCH  13  18
ATOM     18  C   UNL     1      -4.152   5.306  -1.492  1.00  0.00     0.257 C 
ATOM     19  O   UNL     1      -4.176   5.818  -2.608  1.00  0.00    -0.269 OA
BRANCH  18  20
ATOM     20  C   UNL     1      -3.212   4.200  -1.273  1.00  0.00     0.076 A 
ATOM     21  C   UNL     1      -1.595   2.019  -1.137  1.00  0.00     0.222 A 
ATOM     22  N   UNL     1      -2.805   1.944  -0.566  1.00  0.00    -0.221 NA
ATOM     23  N   UNL     1      -1.132   3.110  -1.770  1.00  0.00    -0.221 NA
ATOM     24  C   UNL     1      -3.589   3.037  -0.645  1.00  0.00     0.130 A 
ATOM     25  C   UNL     1      -1.966   4.174  -1.848  1.00  0.00     0.130 A 
BRANCH  21  26
ATOM     26  N   UNL     1      -0.851   0.879  -1.052  1.00  0.00    -0.352 N 
ATOM     27  H   UNL     1      -1.315   0.026  -0.889  1.00  0.00     0.163 HD
BRANCH  26  28
ATOM     28  C   UNL     1       0.585   0.865  -1.188  1.00  0.00     0.076 C 
ATOM     29  C   UNL     1       1.166   0.127   0.018  1.00  0.00     0.030 C 
ATOM     30  C   UNL     1       0.972   0.162  -2.486  1.00  0.00     0.030 C 
ENDBRANCH  26  28
ENDBRANCH  21  26
ENDBRANCH  18  20
ENDBRANCH  13  18
ENDBRANCH   7  12
ENDBRANCH   3   6
ENDBRANCH   1   2
BRANCH   1  31
ATOM     31  C   UNL     1      -5.575  11.004   5.103  1.00  0.00     0.042 C 
BRANCH  31  32
ATOM     32  C   UNL     1      -5.838  12.224   5.971  1.00  0.00     0.118 C 
BRANCH  32  33
ATOM     33  N   UNL     1      -7.169  12.786   5.759  1.00  0.00    -0.352 N 
ATOM     34  C   UNL     1      -8.277  12.829   6.568  1.00  0.00     0.251 C 
ATOM     35  H   UNL     1      -7.293  13.210   4.879  1.00  0.00     0.163 HD
ATOM     36  O   UNL     1      -9.358  13.146   6.076  1.00  0.00    -0.269 OA
BRANCH  34  37
ATOM     37  C   UNL     1      -8.189  12.507   8.009  1.00  0.00     0.039 A 
ATOM     38  C   UNL     1      -9.280  11.898   8.637  1.00  0.00     0.014 A 
ATOM     39  C   UNL     1      -7.064  12.852   8.760  1.00  0.00     0.014 A 
ATOM     40  C   UNL     1      -9.219  11.593  10.000  1.00  0.00     0.010 A 
ATOM     41  C   UNL     1      -6.960  12.449  10.086  1.00  0.00     0.010 A 
ATOM     42  C   UNL     1      -8.045  11.841  10.729  1.00  0.00    -0.014 A 
BRANCH  42  43
ATOM     43  C   UNL     1      -7.936  11.494  12.169  1.00  0.00     0.031 A 
ATOM     44  C   UNL     1      -7.663  12.570  13.188  1.00  0.00     0.074 A 
ATOM     45  C   UNL     1      -7.985  10.202  12.546  1.00  0.00     0.049 A 
ATOM     46  N   UNL     1      -7.472  12.457  14.477  1.00  0.00    -0.248 NA
ATOM     47  C   UNL     1      -7.549  13.952  12.689  1.00  0.00     0.031 C 
ATOM     48  C   UNL     1      -8.140   9.062  11.640  1.00  0.00     0.029 A 
ATOM     49  N   UNL     1      -7.879   9.627  13.787  1.00  0.00    -0.354 N 
ATOM     50  C   UNL     1      -7.175  13.736  14.932  1.00  0.00     0.074 A 
ATOM     51  C   UNL     1      -7.165  14.604  13.776  1.00  0.00     0.031 C 
ATOM     52  C   UNL     1      -8.125   7.926  12.355  1.00  0.00     0.029 A 
ATOM     53  C   UNL     1      -7.933   8.253  13.765  1.00  0.00     0.049 A 
ATOM     54  H   UNL     1      -7.774  10.149  14.616  1.00  0.00     0.167 HD
ATOM     55  C   UNL     1      -6.968  14.161  16.201  1.00  0.00     0.034 A 
ATOM     56  C   UNL     1      -7.838   7.358  14.766  1.00  0.00     0.034 A 
ATOM     57  C   UNL     1      -7.037  13.302  17.352  1.00  0.00     0.049 A 
ATOM     58  C   UNL     1      -7.690   7.859  16.177  1.00  0.00     0.074 A 
ATOM     59  C   UNL     1      -6.944  13.644  18.689  1.00  0.00     0.029 A 
ATOM     60  N   UNL     1      -7.216  11.928  17.301  1.00  0.00    -0.354 N 
ATOM     61  N   UNL     1      -7.583   9.094  16.605  1.00  0.00    -0.248 NA
ATOM     62  C   UNL     1      -7.697   6.851  17.245  1.00  0.00     0.031 C 
ATOM     63  C   UNL     1      -7.050  12.472  19.446  1.00  0.00     0.029 A 
ATOM     64  C   UNL     1      -7.234  11.405  18.581  1.00  0.00     0.049 A 
ATOM     65  H   UNL     1      -7.316  11.402  16.474  1.00  0.00     0.167 HD
ATOM     66  C   UNL     1      -7.543   9.015  17.992  1.00  0.00     0.074 A 
ATOM     67  C   UNL     1      -7.662   7.611  18.332  1.00  0.00     0.031 C 
ATOM     68  C   UNL     1      -7.405  10.011  18.902  1.00  0.00     0.034 A 
BRANCH  55  69
ATOM     69  C   UNL     1      -6.709  15.632  16.412  1.00  0.00     0.023 A 
ATOM     70  C   UNL     1      -7.754  16.558  16.206  1.00  0.00     0.012 A 
ATOM     71  C   UNL     1      -5.454  16.096  16.851  1.00  0.00     0.148 A 
ATOM     72  C   UNL     1      -7.542  17.923  16.388  1.00  0.00     0.002 A 
ATOM     73  C   UNL     1      -5.265  17.456  17.077  1.00  0.00     0.091 A 
ATOM     74  F   UNL     1      -4.465  15.208  17.021  1.00  0.00    -0.205 F 
ATOM     75  C   UNL     1      -6.302  18.371  16.832  1.00  0.00     0.022 A 
BRANCH  73  76
ATOM     76  S   UNL     1      -3.729  18.123  17.728  1.00  0.00     0.127 S 
ATOM     77  O   UNL     1      -3.167  18.776  16.547  1.00  0.00    -0.237 OA
ATOM     78  O   UNL     1      -4.206  19.041  18.763  1.00  0.00    -0.237 OA
ATOM     79  O   UNL     1      -2.979  16.981  18.232  1.00  0.00    -0.744 OA
ENDBRANCH  73  76
ENDBRANCH  55  69
BRANCH  56  80
ATOM     80  C   UNL     1      -7.962   5.903  14.470  1.00  0.00     0.023 A 
ATOM     81  C   UNL     1      -9.126   5.213  14.864  1.00  0.00     0.012 A 
ATOM     82  C   UNL     1      -6.963   5.213  13.757  1.00  0.00     0.148 A 
ATOM     83  C   UNL     1      -9.279   3.856  14.579  1.00  0.00     0.002 A 
ATOM     84  C   UNL     1      -7.147   3.875  13.427  1.00  0.00     0.091 A 
ATOM     85  F   UNL     1      -5.860   5.884  13.398  1.00  0.00    -0.205 F 
ATOM     86  C   UNL     1      -8.296   3.190  13.852  1.00  0.00     0.022 A 
BRANCH  84  87
ATOM     87  S   UNL     1      -6.004   2.978  12.371  1.00  0.00     0.127 S 
ATOM     88  O   UNL     1      -5.369   2.068  13.320  1.00  0.00    -0.237 OA
ATOM     89  O   UNL     1      -6.910   2.340  11.415  1.00  0.00    -0.237 OA
ATOM     90  O   UNL     1      -5.135   3.991  11.784  1.00  0.00    -0.744 OA
ENDBRANCH  84  87
ENDBRANCH  56  80
BRANCH  68  91
ATOM     91  C   UNL     1      -7.409   9.628  20.358  1.00  0.00     0.023 A 
ATOM     92  C   UNL     1      -6.294   8.968  20.912  1.00  0.00     0.012 A 
ATOM     93  C   UNL     1      -8.487   9.985  21.191  1.00  0.00     0.148 A 
ATOM     94  C   UNL     1      -6.267   8.639  22.267  1.00  0.00     0.002 A 
ATOM     95  C   UNL     1      -8.431   9.699  22.550  1.00  0.00     0.091 A 
ATOM     96  F   UNL     1      -9.547  10.595  20.641  1.00  0.00    -0.205 F 
ATOM     97  C   UNL     1      -7.329   9.015  23.087  1.00  0.00     0.022 A 
BRANCH  95  98
ATOM     98  S   UNL     1      -9.709  10.232  23.695  1.00  0.00     0.127 S 
ATOM     99  O   UNL     1     -10.414   8.979  23.959  1.00  0.00    -0.237 OA
ATOM    100  O   UNL     1      -8.926  10.741  24.821  1.00  0.00    -0.237 OA
ATOM    101  O   UNL     1     -10.478  11.248  22.989  1.00  0.00    -0.744 OA
ENDBRANCH  95  98
ENDBRANCH  68  91
ENDBRANCH  42  43
ENDBRANCH  34  37
ENDBRANCH  32  33
ENDBRANCH  31  32
ENDBRANCH   1  31
TORSDOF 18
