REMARK SMILES CCc1cc(OC(F)(F)F)cc2c1O[C@@H](C(F)(F)F)C(C(=O)NCCCNC(=O)c1ccc(-c3c4nc(c(-c5cccc(S(=O)(=O)[O-])c5F)c5ccc([nH]5)c(-c5cccc(S(=O)(=O)[O-])c5F)c5nc(c(-c6cccc(S(=O)(=O)[O-])c6F)c6ccc3[nH]6)C=C5)C=C4)cc1)=C2
REMARK SMILES IDX 25 1 24 2 23 3 21 4 22 5 20 7 3 8 4 9 13 10 5 11 12 12 14 13
REMARK SMILES IDX 11 14 93 15 15 16 2 17 1 18 6 19 7 20 8 21 9 22 10 23 16 24
REMARK SMILES IDX 17 25 18 26 19 27 26 28 27 29 28 30 29 32 30 33 31 34 92 35
REMARK SMILES IDX 32 36 91 37 33 38 34 39 35 40 85 41 36 42 90 43 84 44 86 45
REMARK SMILES IDX 37 46 89 47 83 48 82 49 38 51 70 52 50 53 69 54 51 55 54 56
REMARK SMILES IDX 68 57 87 58 52 59 53 60 67 62 88 63 55 64 39 65 40 66 48 67
REMARK SMILES IDX 41 68 43 69 49 70 42 71 44 72 45 73 46 74 47 75 71 76 72 77
REMARK SMILES IDX 80 78 73 79 75 80 81 81 74 82 76 83 77 84 78 85 79 86 56 87
REMARK SMILES IDX 57 88 65 89 58 90 60 91 66 92 59 93 61 94 62 95 63 96 64 97
REMARK H PARENT 23 6 27 31 86 50 54 61
REMARK Flexibility Score: inf
ROOT
ATOM      1  C   UNL     1       1.103   5.584   6.559  1.00  0.00     0.042 C 
ENDROOT
BRANCH   1   2
ATOM      2  C   UNL     1      -0.158   5.285   5.743  1.00  0.00     0.118 C 
BRANCH   2   3
ATOM      3  N   UNL     1      -0.048   5.843   4.404  1.00  0.00    -0.352 N 
ATOM      4  C   UNL     1       0.365   5.323   3.220  1.00  0.00     0.251 C 
ATOM      5  O   UNL     1       0.467   6.086   2.262  1.00  0.00    -0.270 OA
ATOM      6  H   UNL     1      -0.329   6.785   4.345  1.00  0.00     0.163 HD
BRANCH   4   7
ATOM      7  C   UNL     1       0.612   3.874   3.019  1.00  0.00     0.067 C 
ATOM      8  C   UNL     1       0.928  -0.248   2.260  1.00  0.00    -0.002 A 
ATOM      9  C   UNL     1       1.529  -1.074   3.231  1.00  0.00     0.054 A 
ATOM     10  C   UNL     1       0.815   1.125   2.520  1.00  0.00     0.131 A 
ATOM     11  C   UNL     1       2.016  -0.540   4.426  1.00  0.00     0.130 A 
ATOM     12  C   UNL     1       1.338   1.673   3.690  1.00  0.00     0.021 A 
ATOM     13  O   UNL     1       0.093   1.881   1.641  1.00  0.00    -0.475 OA
ATOM     14  C   UNL     1       1.936   0.839   4.638  1.00  0.00     0.058 A 
ATOM     15  C   UNL     1       1.174   3.095   3.956  1.00  0.00     0.025 C 
ATOM     16  C   UNL     1       0.352   3.314   1.625  1.00  0.00     0.314 C 
BRANCH   8  17
ATOM     17  C   UNL     1       0.399  -0.862   0.983  1.00  0.00     0.036 C 
ATOM     18  C   UNL     1       1.052  -0.304  -0.278  1.00  0.00     0.009 C 
ENDBRANCH   8  17
BRANCH  11  19
ATOM     19  O   UNL     1       2.572  -1.233   5.463  1.00  0.00    -0.406 OA
BRANCH  19  20
ATOM     20  C   UNL     1       2.619  -2.645   5.371  1.00  0.00     0.573 C 
ATOM     21  F   UNL     1       1.383  -3.167   5.209  1.00  0.00    -0.132 F 
ATOM     22  F   UNL     1       3.407  -3.039   4.348  1.00  0.00    -0.132 F 
ATOM     23  F   UNL     1       3.132  -3.142   6.518  1.00  0.00    -0.132 F 
ENDBRANCH  19  20
ENDBRANCH  11  19
BRANCH  16  24
ATOM     24  C   UNL     1      -0.785   3.955   0.798  1.00  0.00     0.429 C 
ATOM     25  F   UNL     1      -0.402   5.074   0.145  1.00  0.00    -0.167 F 
ATOM     26  F   UNL     1      -1.206   3.101  -0.179  1.00  0.00    -0.167 F 
ATOM     27  F   UNL     1      -1.874   4.245   1.547  1.00  0.00    -0.167 F 
ENDBRANCH  16  24
ENDBRANCH   4   7
ENDBRANCH   2   3
ENDBRANCH   1   2
BRANCH   1  28
ATOM     28  C   UNL     1       1.211   7.046   6.987  1.00  0.00     0.118 C 
BRANCH  28  29
ATOM     29  N   UNL     1       0.206   7.391   7.981  1.00  0.00    -0.352 N 
ATOM     30  C   UNL     1       0.362   7.883   9.252  1.00  0.00     0.251 C 
ATOM     31  H   UNL     1      -0.727   7.251   7.698  1.00  0.00     0.163 HD
ATOM     32  O   UNL     1      -0.596   7.874  10.020  1.00  0.00    -0.269 OA
BRANCH  30  33
ATOM     33  C   UNL     1       1.666   8.421   9.699  1.00  0.00     0.039 A 
ATOM     34  C   UNL     1       2.091   8.156  11.005  1.00  0.00     0.014 A 
ATOM     35  C   UNL     1       2.442   9.228   8.862  1.00  0.00     0.014 A 
ATOM     36  C   UNL     1       3.309   8.670  11.457  1.00  0.00     0.010 A 
ATOM     37  C   UNL     1       3.687   9.680   9.291  1.00  0.00     0.010 A 
ATOM     38  C   UNL     1       4.127   9.420  10.597  1.00  0.00    -0.014 A 
BRANCH  38  39
ATOM     39  C   UNL     1       5.442   9.945  11.046  1.00  0.00     0.031 A 
ATOM     40  C   UNL     1       5.683  11.429  11.114  1.00  0.00     0.074 A 
ATOM     41  C   UNL     1       6.446   9.085  11.307  1.00  0.00     0.049 A 
ATOM     42  N   UNL     1       6.780  12.073  11.418  1.00  0.00    -0.248 NA
ATOM     43  C   UNL     1       4.551  12.306  10.769  1.00  0.00     0.031 C 
ATOM     44  C   UNL     1       6.358   7.627  11.200  1.00  0.00     0.029 A 
ATOM     45  N   UNL     1       7.745   9.312  11.686  1.00  0.00    -0.354 N 
ATOM     46  C   UNL     1       6.485  13.423  11.262  1.00  0.00     0.074 A 
ATOM     47  C   UNL     1       5.114  13.505  10.807  1.00  0.00     0.031 C 
ATOM     48  C   UNL     1       7.551   7.091  11.505  1.00  0.00     0.029 A 
ATOM     49  C   UNL     1       8.494   8.164  11.802  1.00  0.00     0.049 A 
ATOM     50  H   UNL     1       8.106  10.211  11.859  1.00  0.00     0.167 HD
ATOM     51  C   UNL     1       7.274  14.498  11.501  1.00  0.00     0.034 A 
ATOM     52  C   UNL     1       9.796   7.995  12.106  1.00  0.00     0.034 A 
ATOM     53  C   UNL     1       8.619  14.412  12.002  1.00  0.00     0.049 A 
ATOM     54  C   UNL     1      10.634   9.204  12.421  1.00  0.00     0.074 A 
ATOM     55  C   UNL     1       9.469  15.441  12.367  1.00  0.00     0.029 A 
ATOM     56  N   UNL     1       9.313  13.229  12.204  1.00  0.00    -0.354 N 
ATOM     57  N   UNL     1      10.289  10.469  12.424  1.00  0.00    -0.248 NA
ATOM     58  C   UNL     1      12.030   8.962  12.814  1.00  0.00     0.031 C 
ATOM     59  C   UNL     1      10.685  14.880  12.773  1.00  0.00     0.029 A 
ATOM     60  C   UNL     1      10.583  13.501  12.683  1.00  0.00     0.049 A 
ATOM     61  H   UNL     1       8.956  12.328  12.032  1.00  0.00     0.167 HD
ATOM     62  C   UNL     1      11.410  11.170  12.853  1.00  0.00     0.074 A 
ATOM     63  C   UNL     1      12.439  10.186  13.120  1.00  0.00     0.031 C 
ATOM     64  C   UNL     1      11.578  12.508  12.999  1.00  0.00     0.034 A 
BRANCH  51  65
ATOM     65  C   UNL     1       6.682  15.866  11.279  1.00  0.00     0.023 A 
ATOM     66  C   UNL     1       5.700  16.351  12.167  1.00  0.00     0.012 A 
ATOM     67  C   UNL     1       7.137  16.695  10.234  1.00  0.00     0.148 A 
ATOM     68  C   UNL     1       5.153  17.622  11.998  1.00  0.00     0.002 A 
ATOM     69  C   UNL     1       6.619  17.978  10.099  1.00  0.00     0.091 A 
ATOM     70  F   UNL     1       8.057  16.211   9.387  1.00  0.00    -0.205 F 
ATOM     71  C   UNL     1       5.620  18.439  10.972  1.00  0.00     0.022 A 
BRANCH  69  72
ATOM     72  S   UNL     1       7.211  19.137   8.860  1.00  0.00     0.127 S 
ATOM     73  O   UNL     1       6.080  19.180   7.933  1.00  0.00    -0.237 OA
ATOM     74  O   UNL     1       7.402  20.357   9.644  1.00  0.00    -0.237 OA
ATOM     75  O   UNL     1       8.437  18.560   8.325  1.00  0.00    -0.744 OA
ENDBRANCH  69  72
ENDBRANCH  51  65
BRANCH  52  76
ATOM     76  C   UNL     1      10.364   6.621  12.198  1.00  0.00     0.023 A 
ATOM     77  C   UNL     1      10.710   6.101  13.461  1.00  0.00     0.012 A 
ATOM     78  C   UNL     1      10.530   5.816  11.055  1.00  0.00     0.148 A 
ATOM     79  C   UNL     1      11.239   4.815  13.580  1.00  0.00     0.002 A 
ATOM     80  C   UNL     1      11.005   4.516  11.187  1.00  0.00     0.091 A 
ATOM     81  F   UNL     1      10.206   6.332   9.861  1.00  0.00    -0.205 F 
ATOM     82  C   UNL     1      11.376   4.019  12.446  1.00  0.00     0.022 A 
BRANCH  80  83
ATOM     83  S   UNL     1      11.085   3.376   9.801  1.00  0.00     0.127 S 
ATOM     84  O   UNL     1      12.523   3.288   9.568  1.00  0.00    -0.237 OA
ATOM     85  O   UNL     1      10.475   2.171  10.364  1.00  0.00    -0.237 OA
ATOM     86  O   UNL     1      10.306   3.998   8.738  1.00  0.00    -0.744 OA
ENDBRANCH  80  83
ENDBRANCH  52  76
BRANCH  64  87
ATOM     87  C   UNL     1      12.910  12.994  13.505  1.00  0.00     0.023 A 
ATOM     88  C   UNL     1      14.037  12.956  12.661  1.00  0.00     0.012 A 
ATOM     89  C   UNL     1      13.025  13.560  14.790  1.00  0.00     0.148 A 
ATOM     90  C   UNL     1      15.267  13.445  13.100  1.00  0.00     0.002 A 
ATOM     91  C   UNL     1      14.242  14.091  15.202  1.00  0.00     0.091 A 
ATOM     92  F   UNL     1      11.946  13.569  15.585  1.00  0.00    -0.205 F 
ATOM     93  C   UNL     1      15.366  14.023  14.364  1.00  0.00     0.022 A 
BRANCH  91  94
ATOM     94  S   UNL     1      14.437  14.940  16.773  1.00  0.00     0.127 S 
ATOM     95  O   UNL     1      15.186  13.956  17.553  1.00  0.00    -0.237 OA
ATOM     96  O   UNL     1      15.202  16.128  16.393  1.00  0.00    -0.237 OA
ATOM     97  O   UNL     1      13.088  15.219  17.247  1.00  0.00    -0.744 OA
ENDBRANCH  91  94
ENDBRANCH  64  87
ENDBRANCH  38  39
ENDBRANCH  30  33
ENDBRANCH  28  29
ENDBRANCH   1  28
TORSDOF 17
