REMARK SMILES O=C(NCCCNC(=O)c1ccc(-c2c3nc(c(-c4cccc(S(=O)(=O)[O-])c4F)c4ccc([nH]4)c(-c4cccc(S(=O)(=O)[O-])c4F)c4nc(c(-c5cccc(S(=O)(=O)[O-])c5F)c5ccc2[nH]5)C=C4)C=C3)cc1)c1ccc(NS(=O)(=O)Cc2c(Cl)cccc2Cl)cc1
REMARK SMILES IDX 4 1 3 2 1 3 2 4 73 6 74 7 91 8 75 9 90 10 76 11 77 12 78 14
REMARK SMILES IDX 79 15 80 16 81 17 82 18 83 19 88 20 84 21 85 22 87 23 89 24
REMARK SMILES IDX 86 25 5 26 6 27 7 28 8 29 9 31 10 32 11 33 72 34 12 35 71 36
REMARK SMILES IDX 13 37 14 38 15 39 65 40 16 41 70 42 64 43 66 44 17 45 69 46
REMARK SMILES IDX 63 47 62 48 18 50 50 51 30 52 49 53 31 54 34 55 48 56 67 57
REMARK SMILES IDX 32 58 33 59 47 61 68 62 35 63 19 64 20 65 28 66 21 67 23 68
REMARK SMILES IDX 29 69 22 70 24 71 25 72 26 73 27 74 51 75 52 76 60 77 53 78
REMARK SMILES IDX 55 79 61 80 54 81 56 82 57 83 58 84 59 85 36 86 37 87 45 88
REMARK SMILES IDX 38 89 40 90 46 91 39 92 41 93 42 94 43 95 44 96
REMARK H PARENT 3 5 77 13 7 30 66 49 34 60
REMARK Flexibility Score: inf
ROOT
ATOM      1  C   UNL     1       4.288   0.452   1.131  1.00  0.00     0.118 C 
ENDROOT
BRANCH   1   2
ATOM      2  N   UNL     1       2.841   0.450   0.974  1.00  0.00    -0.352 N 
ATOM      3  O   UNL     1       0.885   0.273  -0.156  1.00  0.00    -0.269 OA
ATOM      4  C   UNL     1       2.095   0.084  -0.120  1.00  0.00     0.251 C 
ATOM      5  H   UNL     1       2.327   0.752   1.758  1.00  0.00     0.163 HD
BRANCH   4   6
ATOM      6  C   UNL     1       2.776  -0.538  -1.269  1.00  0.00     0.039 A 
ATOM      7  C   UNL     1       3.483  -1.730  -1.099  1.00  0.00     0.016 A 
ATOM      8  C   UNL     1       2.742   0.097  -2.509  1.00  0.00     0.016 A 
ATOM      9  C   UNL     1       4.251  -2.230  -2.149  1.00  0.00     0.027 A 
ATOM     10  C   UNL     1       3.529  -0.400  -3.550  1.00  0.00     0.027 A 
ATOM     11  C   UNL     1       4.326  -1.536  -3.357  1.00  0.00     0.049 A 
BRANCH  11  12
ATOM     12  N   UNL     1       5.274  -1.836  -4.369  1.00  0.00    -0.283 N 
ATOM     13  H   UNL     1       5.337  -1.200  -5.118  1.00  0.00     0.180 HD
BRANCH  12  14
ATOM     14  S   UNL     1       6.282  -3.145  -4.416  1.00  0.00     0.237 S 
ATOM     15  O   UNL     1       5.515  -4.325  -4.059  1.00  0.00    -0.206 OA
ATOM     16  O   UNL     1       6.909  -3.084  -5.721  1.00  0.00    -0.206 OA
BRANCH  14  17
ATOM     17  C   UNL     1       7.589  -2.917  -3.183  1.00  0.00     0.198 C 
BRANCH  17  18
ATOM     18  C   UNL     1       7.568  -1.630  -2.384  1.00  0.00     0.006 A 
ATOM     19  C   UNL     1       7.495  -1.654  -0.971  1.00  0.00     0.046 A 
ATOM     20  C   UNL     1       7.755  -0.369  -2.983  1.00  0.00     0.046 A 
ATOM     21  Cl  UNL     1       7.347  -3.123  -0.064  1.00  0.00    -0.084 Cl
ATOM     22  C   UNL     1       7.567  -0.479  -0.210  1.00  0.00     0.021 A 
ATOM     23  C   UNL     1       7.784   0.808  -2.221  1.00  0.00     0.021 A 
ATOM     24  Cl  UNL     1       8.040  -0.183  -4.678  1.00  0.00    -0.084 Cl
ATOM     25  C   UNL     1       7.695   0.754  -0.836  1.00  0.00     0.003 A 
ENDBRANCH  17  18
ENDBRANCH  14  17
ENDBRANCH  12  14
ENDBRANCH  11  12
ENDBRANCH   4   6
ENDBRANCH   1   2
BRANCH   1  26
ATOM     26  C   UNL     1       4.851   1.841   1.403  1.00  0.00     0.042 C 
BRANCH  26  27
ATOM     27  C   UNL     1       4.411   2.456   2.723  1.00  0.00     0.118 C 
BRANCH  27  28
ATOM     28  N   UNL     1       4.918   1.730   3.881  1.00  0.00    -0.352 N 
ATOM     29  C   UNL     1       5.737   2.143   4.904  1.00  0.00     0.251 C 
ATOM     30  H   UNL     1       4.627   0.791   3.939  1.00  0.00     0.163 HD
ATOM     31  O   UNL     1       6.176   1.307   5.691  1.00  0.00    -0.269 OA
BRANCH  29  32
ATOM     32  C   UNL     1       6.117   3.568   5.051  1.00  0.00     0.039 A 
ATOM     33  C   UNL     1       7.424   3.881   5.441  1.00  0.00     0.014 A 
ATOM     34  C   UNL     1       5.200   4.596   4.827  1.00  0.00     0.014 A 
ATOM     35  C   UNL     1       7.825   5.217   5.529  1.00  0.00     0.010 A 
ATOM     36  C   UNL     1       5.626   5.922   4.820  1.00  0.00     0.010 A 
ATOM     37  C   UNL     1       6.942   6.250   5.176  1.00  0.00    -0.014 A 
BRANCH  37  38
ATOM     38  C   UNL     1       7.379   7.673   5.158  1.00  0.00     0.031 A 
ATOM     39  C   UNL     1       6.702   8.693   6.036  1.00  0.00     0.074 A 
ATOM     40  C   UNL     1       8.329   8.066   4.286  1.00  0.00     0.049 A 
ATOM     41  N   UNL     1       6.908   9.982   6.111  1.00  0.00    -0.248 NA
ATOM     42  C   UNL     1       5.635   8.206   6.926  1.00  0.00     0.031 C 
ATOM     43  C   UNL     1       9.010   7.194   3.326  1.00  0.00     0.029 A 
ATOM     44  N   UNL     1       8.868   9.306   4.045  1.00  0.00    -0.354 N 
ATOM     45  C   UNL     1       5.978  10.465   7.023  1.00  0.00     0.074 A 
ATOM     46  C   UNL     1       5.180   9.336   7.448  1.00  0.00     0.031 C 
ATOM     47  C   UNL     1       9.880   7.922   2.610  1.00  0.00     0.029 A 
ATOM     48  C   UNL     1       9.794   9.317   3.027  1.00  0.00     0.049 A 
ATOM     49  H   UNL     1       8.616  10.111   4.553  1.00  0.00     0.167 HD
ATOM     50  C   UNL     1       5.817  11.727   7.489  1.00  0.00     0.034 A 
ATOM     51  C   UNL     1      10.487  10.336   2.481  1.00  0.00     0.034 A 
ATOM     52  C   UNL     1       6.632  12.844   7.091  1.00  0.00     0.049 A 
ATOM     53  C   UNL     1      10.305  11.725   3.030  1.00  0.00     0.074 A 
ATOM     54  C   UNL     1       6.606  14.141   7.571  1.00  0.00     0.029 A 
ATOM     55  N   UNL     1       7.608  12.802   6.107  1.00  0.00    -0.354 N 
ATOM     56  N   UNL     1       9.531  12.131   4.006  1.00  0.00    -0.248 NA
ATOM     57  C   UNL     1      11.118  12.790   2.424  1.00  0.00     0.031 C 
ATOM     58  C   UNL     1       7.540  14.893   6.851  1.00  0.00     0.029 A 
ATOM     59  C   UNL     1       8.178  14.055   5.951  1.00  0.00     0.049 A 
ATOM     60  H   UNL     1       7.859  12.000   5.595  1.00  0.00     0.167 HD
ATOM     61  C   UNL     1       9.787  13.490   4.155  1.00  0.00     0.074 A 
ATOM     62  C   UNL     1      10.806  13.831   3.184  1.00  0.00     0.031 C 
ATOM     63  C   UNL     1       9.221  14.376   5.011  1.00  0.00     0.034 A 
BRANCH  50  64
ATOM     64  C   UNL     1       4.739  11.962   8.517  1.00  0.00     0.023 A 
ATOM     65  C   UNL     1       4.886  11.439   9.818  1.00  0.00     0.012 A 
ATOM     66  C   UNL     1       3.607  12.744   8.213  1.00  0.00     0.148 A 
ATOM     67  C   UNL     1       3.906  11.652  10.787  1.00  0.00     0.002 A 
ATOM     68  C   UNL     1       2.658  12.994   9.198  1.00  0.00     0.091 A 
ATOM     69  F   UNL     1       3.473  13.219   6.966  1.00  0.00    -0.205 F 
ATOM     70  C   UNL     1       2.799  12.437  10.480  1.00  0.00     0.022 A 
BRANCH  68  71
ATOM     71  S   UNL     1       1.238  14.060   8.929  1.00  0.00     0.127 S 
ATOM     72  O   UNL     1       0.139  13.096   8.942  1.00  0.00    -0.237 OA
ATOM     73  O   UNL     1       1.291  14.941  10.096  1.00  0.00    -0.237 OA
ATOM     74  O   UNL     1       1.470  14.725   7.654  1.00  0.00    -0.744 OA
ENDBRANCH  68  71
ENDBRANCH  50  64
BRANCH  51  75
ATOM     75  C   UNL     1      11.458  10.070   1.381  1.00  0.00     0.023 A 
ATOM     76  C   UNL     1      12.838  10.208   1.625  1.00  0.00     0.012 A 
ATOM     77  C   UNL     1      11.024   9.658   0.106  1.00  0.00     0.148 A 
ATOM     78  C   UNL     1      13.767   9.974   0.611  1.00  0.00     0.002 A 
ATOM     79  C   UNL     1      11.957   9.369  -0.882  1.00  0.00     0.091 A 
ATOM     80  F   UNL     1       9.706   9.540  -0.108  1.00  0.00    -0.205 F 
ATOM     81  C   UNL     1      13.328   9.545  -0.639  1.00  0.00     0.022 A 
BRANCH  79  82
ATOM     82  S   UNL     1      11.492   8.679  -2.474  1.00  0.00     0.127 S 
ATOM     83  O   UNL     1      11.816   9.776  -3.382  1.00  0.00    -0.237 OA
ATOM     84  O   UNL     1      12.377   7.518  -2.567  1.00  0.00    -0.237 OA
ATOM     85  O   UNL     1      10.078   8.347  -2.364  1.00  0.00    -0.744 OA
ENDBRANCH  79  82
ENDBRANCH  51  75
BRANCH  63  86
ATOM     86  C   UNL     1       9.713  15.801   4.970  1.00  0.00     0.023 A 
ATOM     87  C   UNL     1       9.391  16.626   3.874  1.00  0.00     0.012 A 
ATOM     88  C   UNL     1      10.435  16.340   6.053  1.00  0.00     0.148 A 
ATOM     89  C   UNL     1       9.813  17.955   3.840  1.00  0.00     0.002 A 
ATOM     90  C   UNL     1      10.805  17.680   6.036  1.00  0.00     0.091 A 
ATOM     91  F   UNL     1      10.746  15.535   7.079  1.00  0.00    -0.205 F 
ATOM     92  C   UNL     1      10.508  18.484   4.924  1.00  0.00     0.022 A 
BRANCH  90  93
ATOM     93  S   UNL     1      11.616  18.474   7.428  1.00  0.00     0.127 S 
ATOM     94  O   UNL     1      12.958  18.707   6.897  1.00  0.00    -0.237 OA
ATOM     95  O   UNL     1      10.811  19.683   7.604  1.00  0.00    -0.237 OA
ATOM     96  O   UNL     1      11.539  17.529   8.533  1.00  0.00    -0.744 OA
ENDBRANCH  90  93
ENDBRANCH  63  86
ENDBRANCH  37  38
ENDBRANCH  29  32
ENDBRANCH  27  28
ENDBRANCH  26  27
ENDBRANCH   1  26
TORSDOF 17
