REMARK SMILES NC(=O)c1c(-c2ccc(Cl)cc2)csc1NC(=O)[C@H]1[C@@H](C(=O)NCCCNC(=O)c2ccc(-c3c4nc(c(-c5cccc(S(=O)(=O)[O-])c5F)c5ccc([nH]5)c(-c5cccc(S(=O)(=O)[O-])c5F)c5nc(c(-c6cccc(S(=O)(=O)[O-])c6F)c6ccc3[nH]6)C=C5)C=C4)cc2)[C@@H]2CC[C@H]1O2
REMARK SMILES IDX 25 1 24 2 23 3 21 4 22 5 20 7 19 8 96 9 93 10 95 11 97 12
REMARK SMILES IDX 94 13 17 14 16 15 18 17 15 18 4 19 5 20 13 21 14 22 2 23
REMARK SMILES IDX 1 24 3 27 6 28 7 29 12 30 8 31 11 32 9 33 10 34 26 35 27 36
REMARK SMILES IDX 28 37 29 39 30 40 31 41 92 42 32 43 91 44 33 45 34 46 35 47
REMARK SMILES IDX 85 48 36 49 90 50 84 51 86 52 37 53 89 54 83 55 82 56 38 58
REMARK SMILES IDX 70 59 50 60 69 61 51 62 54 63 68 64 87 65 52 66 53 67 67 69
REMARK SMILES IDX 88 70 55 71 39 72 40 73 48 74 41 75 43 76 49 77 42 78 44 79
REMARK SMILES IDX 45 80 46 81 47 82 71 83 72 84 80 85 73 86 75 87 81 88 74 89
REMARK SMILES IDX 76 90 77 91 78 92 79 93 56 94 57 95 65 96 58 97 60 98 66 99
REMARK SMILES IDX 59 100 61 101 62 102 63 103 64 104
REMARK H PARENT 23 6 16 16 1 25 1 26 27 38 86 57 54 68
REMARK Flexibility Score: inf
ROOT
ATOM      1  C   UNL     1       3.343  -5.663   7.659  1.00  0.00     0.042 C 
ENDROOT
BRANCH   1   2
ATOM      2  C   UNL     1       2.175  -5.413   6.731  1.00  0.00     0.117 C 
BRANCH   2   3
ATOM      3  N   UNL     1       0.861  -5.511   7.328  1.00  0.00    -0.356 N 
ATOM      4  C   UNL     1      -0.297  -4.890   6.994  1.00  0.00     0.226 C 
ATOM      5  O   UNL     1      -1.326  -5.341   7.517  1.00  0.00    -0.275 OA
ATOM      6  H   UNL     1       0.797  -6.124   8.096  1.00  0.00     0.163 HD
BRANCH   4   7
ATOM      7  C   UNL     1      -0.409  -3.618   6.160  1.00  0.00     0.122 C 
ATOM      8  C   UNL     1       0.292  -3.349   4.820  1.00  0.00     0.123 C 
ATOM      9  C   UNL     1       1.146  -2.107   5.168  1.00  0.00     0.132 C 
ATOM     10  C   UNL     1       0.060  -2.431   7.018  1.00  0.00     0.132 C 
ATOM     11  C   UNL     1       0.254  -0.867   5.229  1.00  0.00     0.035 C 
ATOM     12  O   UNL     1       1.422  -2.280   6.577  1.00  0.00    -0.373 OA
ATOM     13  C   UNL     1      -0.540  -1.114   6.515  1.00  0.00     0.035 C 
BRANCH   8  14
ATOM     14  C   UNL     1       1.122  -4.430   4.156  1.00  0.00     0.231 C 
ATOM     15  N   UNL     1       0.539  -5.633   3.842  1.00  0.00    -0.317 N 
ATOM     16  H   UNL     1       0.630  -6.408   4.443  1.00  0.00     0.170 HD
ATOM     17  O   UNL     1       2.312  -4.275   3.877  1.00  0.00    -0.274 OA
BRANCH  15  18
ATOM     18  C   UNL     1      -0.181  -5.733   2.655  1.00  0.00     0.108 A 
ATOM     19  C   UNL     1       0.173  -6.456   1.527  1.00  0.00     0.082 A 
ATOM     20  C   UNL     1      -0.848  -6.335   0.513  1.00  0.00     0.007 A 
ATOM     21  C   UNL     1      -1.898  -5.540   0.934  1.00  0.00     0.076 A 
ATOM     22  S   UNL     1      -1.681  -4.962   2.526  1.00  0.00    -0.125 S 
BRANCH  19  23
ATOM     23  C   UNL     1       1.436  -7.190   1.466  1.00  0.00     0.252 C 
ATOM     24  N   UNL     1       2.058  -7.245   0.255  1.00  0.00    -0.365 N 
ATOM     25  H   UNL     1       2.911  -7.728   0.161  1.00  0.00     0.159 HD
ATOM     26  H   UNL     1       1.655  -6.803  -0.527  1.00  0.00     0.159 HD
ATOM     27  O   UNL     1       1.950  -7.690   2.461  1.00  0.00    -0.269 OA
ENDBRANCH  19  23
BRANCH  20  28
ATOM     28  C   UNL     1      -0.893  -6.984  -0.790  1.00  0.00    -0.017 A 
ATOM     29  C   UNL     1      -0.938  -6.221  -1.963  1.00  0.00     0.010 A 
ATOM     30  C   UNL     1      -0.845  -8.382  -0.874  1.00  0.00     0.010 A 
ATOM     31  C   UNL     1      -0.930  -6.853  -3.209  1.00  0.00     0.021 A 
ATOM     32  C   UNL     1      -0.835  -9.012  -2.120  1.00  0.00     0.021 A 
ATOM     33  C   UNL     1      -0.877  -8.244  -3.282  1.00  0.00     0.041 A 
ATOM     34  Cl  UNL     1      -0.858  -9.018  -4.818  1.00  0.00    -0.084 Cl
ENDBRANCH  20  28
ENDBRANCH  15  18
ENDBRANCH   8  14
ENDBRANCH   4   7
ENDBRANCH   2   3
ENDBRANCH   1   2
BRANCH   1  35
ATOM     35  C   UNL     1       3.403  -7.069   8.228  1.00  0.00     0.118 C 
BRANCH  35  36
ATOM     36  N   UNL     1       3.555  -8.121   7.224  1.00  0.00    -0.352 N 
ATOM     37  C   UNL     1       4.644  -8.873   6.843  1.00  0.00     0.251 C 
ATOM     38  H   UNL     1       2.729  -8.330   6.730  1.00  0.00     0.163 HD
ATOM     39  O   UNL     1       4.545  -9.650   5.896  1.00  0.00    -0.269 OA
BRANCH  37  40
ATOM     40  C   UNL     1       5.942  -8.730   7.538  1.00  0.00     0.039 A 
ATOM     41  C   UNL     1       7.124  -8.712   6.790  1.00  0.00     0.014 A 
ATOM     42  C   UNL     1       6.000  -8.596   8.921  1.00  0.00     0.014 A 
ATOM     43  C   UNL     1       8.342  -8.446   7.424  1.00  0.00     0.010 A 
ATOM     44  C   UNL     1       7.181  -8.191   9.525  1.00  0.00     0.010 A 
ATOM     45  C   UNL     1       8.372  -8.120   8.789  1.00  0.00    -0.014 A 
BRANCH  45  46
ATOM     46  C   UNL     1       9.619  -7.704   9.486  1.00  0.00     0.031 A 
ATOM     47  C   UNL     1      10.075  -8.450  10.714  1.00  0.00     0.074 A 
ATOM     48  C   UNL     1      10.263  -6.584   9.099  1.00  0.00     0.049 A 
ATOM     49  N   UNL     1      11.038  -8.159  11.549  1.00  0.00    -0.248 NA
ATOM     50  C   UNL     1       9.316  -9.660  11.082  1.00  0.00     0.031 C 
ATOM     51  C   UNL     1       9.872  -5.719   7.983  1.00  0.00     0.029 A 
ATOM     52  N   UNL     1      11.367  -5.959   9.626  1.00  0.00    -0.354 N 
ATOM     53  C   UNL     1      10.962  -9.107  12.563  1.00  0.00     0.074 A 
ATOM     54  C   UNL     1       9.832  -9.957  12.264  1.00  0.00     0.031 C 
ATOM     55  C   UNL     1      10.725  -4.686   7.903  1.00  0.00     0.029 A 
ATOM     56  C   UNL     1      11.699  -4.788   8.984  1.00  0.00     0.049 A 
ATOM     57  H   UNL     1      11.873  -6.316  10.392  1.00  0.00     0.167 HD
ATOM     58  C   UNL     1      11.779  -9.280  13.628  1.00  0.00     0.034 A 
ATOM     59  C   UNL     1      12.671  -3.891   9.243  1.00  0.00     0.034 A 
ATOM     60  C   UNL     1      12.944  -8.478  13.880  1.00  0.00     0.049 A 
ATOM     61  C   UNL     1      13.607  -4.144  10.395  1.00  0.00     0.074 A 
ATOM     62  C   UNL     1      13.899  -8.636  14.868  1.00  0.00     0.029 A 
ATOM     63  N   UNL     1      13.314  -7.368  13.137  1.00  0.00    -0.354 N 
ATOM     64  N   UNL     1      13.612  -5.136  11.251  1.00  0.00    -0.248 NA
ATOM     65  C   UNL     1      14.693  -3.173  10.595  1.00  0.00     0.031 C 
ATOM     66  C   UNL     1      14.837  -7.608  14.734  1.00  0.00     0.029 A 
ATOM     67  C   UNL     1      14.481  -6.827  13.646  1.00  0.00     0.049 A 
ATOM     68  H   UNL     1      12.819  -7.017  12.362  1.00  0.00     0.167 HD
ATOM     69  C   UNL     1      14.720  -4.933  12.065  1.00  0.00     0.074 A 
ATOM     70  C   UNL     1      15.373  -3.731  11.588  1.00  0.00     0.031 C 
ATOM     71  C   UNL     1      15.152  -5.667  13.120  1.00  0.00     0.034 A 
BRANCH  58  72
ATOM     72  C   UNL     1      11.478 -10.421  14.566  1.00  0.00     0.023 A 
ATOM     73  C   UNL     1      11.668 -11.750  14.131  1.00  0.00     0.012 A 
ATOM     74  C   UNL     1      11.059 -10.183  15.889  1.00  0.00     0.148 A 
ATOM     75  C   UNL     1      11.405 -12.822  14.982  1.00  0.00     0.002 A 
ATOM     76  C   UNL     1      10.847 -11.256  16.747  1.00  0.00     0.091 A 
ATOM     77  F   UNL     1      10.864  -8.915  16.280  1.00  0.00    -0.205 F 
ATOM     78  C   UNL     1      11.006 -12.575  16.292  1.00  0.00     0.022 A 
BRANCH  76  79
ATOM     79  S   UNL     1      10.414 -11.043  18.478  1.00  0.00     0.127 S 
ATOM     80  O   UNL     1       9.026 -11.502  18.493  1.00  0.00    -0.237 OA
ATOM     81  O   UNL     1      11.359 -11.939  19.143  1.00  0.00    -0.237 OA
ATOM     82  O   UNL     1      10.608  -9.630  18.770  1.00  0.00    -0.744 OA
ENDBRANCH  76  79
ENDBRANCH  58  72
BRANCH  59  83
ATOM     83  C   UNL     1      12.856  -2.710   8.351  1.00  0.00     0.023 A 
ATOM     84  C   UNL     1      13.983  -2.656   7.507  1.00  0.00     0.012 A 
ATOM     85  C   UNL     1      11.920  -1.659   8.313  1.00  0.00     0.148 A 
ATOM     86  C   UNL     1      14.194  -1.562   6.667  1.00  0.00     0.002 A 
ATOM     87  C   UNL     1      12.108  -0.597   7.434  1.00  0.00     0.091 A 
ATOM     88  F   UNL     1      10.859  -1.723   9.129  1.00  0.00    -0.205 F 
ATOM     89  C   UNL     1      13.252  -0.538   6.624  1.00  0.00     0.022 A 
BRANCH  87  90
ATOM     90  S   UNL     1      10.890   0.706   7.218  1.00  0.00     0.127 S 
ATOM     91  O   UNL     1      11.570   1.853   7.817  1.00  0.00    -0.237 OA
ATOM     92  O   UNL     1      10.760   0.759   5.762  1.00  0.00    -0.237 OA
ATOM     93  O   UNL     1       9.695   0.246   7.912  1.00  0.00    -0.744 OA
ENDBRANCH  87  90
ENDBRANCH  59  83
BRANCH  71  94
ATOM     94  C   UNL     1      16.418  -5.231  13.808  1.00  0.00     0.023 A 
ATOM     95  C   UNL     1      16.412  -4.090  14.634  1.00  0.00     0.012 A 
ATOM     96  C   UNL     1      17.587  -6.011  13.710  1.00  0.00     0.148 A 
ATOM     97  C   UNL     1      17.560  -3.716  15.330  1.00  0.00     0.002 A 
ATOM     98  C   UNL     1      18.712  -5.660  14.446  1.00  0.00     0.091 A 
ATOM     99  F   UNL     1      17.575  -7.083  12.905  1.00  0.00    -0.205 F 
ATOM    100  C   UNL     1      18.704  -4.507  15.247  1.00  0.00     0.022 A 
BRANCH  98 101
ATOM    101  S   UNL     1      20.194  -6.674  14.481  1.00  0.00     0.127 S 
ATOM    102  O   UNL     1      21.135  -5.851  13.722  1.00  0.00    -0.237 OA
ATOM    103  O   UNL     1      20.477  -6.760  15.914  1.00  0.00    -0.237 OA
ATOM    104  O   UNL     1      19.831  -7.940  13.859  1.00  0.00    -0.744 OA
ENDBRANCH  98 101
ENDBRANCH  71  94
ENDBRANCH  45  46
ENDBRANCH  37  40
ENDBRANCH  35  36
ENDBRANCH   1  35
TORSDOF 17
