REMARK SMILES C[NH2+][C@@]1(C(=O)NCCCNC(=O)c2ccc(-c3c4nc(c(-c5cccc(S(=O)(=O)[O-])c5F)c5ccc([nH]5)c(-c5cccc(S(=O)(=O)[O-])c5F)c5nc(c(-c6cccc(S(=O)(=O)[O-])c6F)c6ccc3[nH]6)C=C5)C=C4)cc2)CC[C@H]([NH+]2CC[NH+](C)CC2)C1
REMARK SMILES IDX 9 1 8 2 7 3 6 4 4 5 5 6 3 8 76 9 86 10 77 11 78 12 2 13 1 14
REMARK SMILES IDX 79 17 80 18 85 19 81 21 84 22 82 23 83 24 10 26 11 27 12 29
REMARK SMILES IDX 13 30 14 31 75 32 15 33 74 34 16 35 17 36 18 37 68 38 19 39
REMARK SMILES IDX 73 40 67 41 69 42 20 43 72 44 66 45 65 46 21 48 53 49 33 50
REMARK SMILES IDX 52 51 34 52 37 53 51 54 70 55 35 56 36 57 50 59 71 60 38 61
REMARK SMILES IDX 22 62 23 63 31 64 24 65 26 66 32 67 25 68 27 69 28 70 29 71
REMARK SMILES IDX 30 72 54 73 55 74 63 75 56 76 58 77 64 78 57 79 59 80 60 81
REMARK SMILES IDX 61 82 62 83 39 84 40 85 48 86 41 87 43 88 49 89 42 90 44 91
REMARK SMILES IDX 45 92 46 93 47 94
REMARK H PARENT 6 7 2 15 2 16 79 20 82 25 10 28 69 47 37 58
REMARK Flexibility Score: inf
ROOT
ATOM      1  C   UNL     1      -5.968  -1.421   3.778  1.00  0.00     0.118 C 
ENDROOT
BRANCH   1   2
ATOM      2  C   UNL     1      -5.185  -0.966   2.366  1.00  0.00     0.042 C 
BRANCH   2   3
ATOM      3  C   UNL     1      -3.721   0.429   1.720  1.00  0.00     0.118 C 
BRANCH   3   4
ATOM      4  N   UNL     1      -2.231   0.743   2.206  1.00  0.00    -0.351 N 
ATOM      5  C   UNL     1      -0.950   0.417   1.909  1.00  0.00     0.281 C 
ATOM      6  O   UNL     1      -0.133   0.802   2.760  1.00  0.00    -0.268 OA
ATOM      7  H   UNL     1      -2.251   1.373   2.963  1.00  0.00     0.163 HD
BRANCH   5   8
ATOM      8  C   UNL     1      -0.507  -0.365   0.637  1.00  0.00     0.181 C 
ATOM      9  C   UNL     1      -1.190   0.270  -0.584  1.00  0.00     0.085 C 
ATOM     10  C   UNL     1      -0.982  -1.831   0.664  1.00  0.00     0.144 C 
ATOM     11  C   UNL     1      -2.156  -0.797  -1.090  1.00  0.00     0.072 C 
ATOM     12  C   UNL     1      -2.389  -1.805   0.069  1.00  0.00     0.191 C 
BRANCH   8  13
ATOM     13  N   UNL     1       0.977  -0.316   0.635  1.00  0.00    -0.336 N 
ATOM     14  C   UNL     1       1.676  -0.317  -0.627  1.00  0.00     0.331 C 
ATOM     15  H   UNL     1       1.248   0.537   1.125  1.00  0.00     0.346 HD
ATOM     16  H   UNL     1       1.251  -1.198   1.067  1.00  0.00     0.346 HD
ENDBRANCH   8  13
BRANCH  12  17
ATOM     17  N   UNL     1      -3.496  -1.563   1.008  1.00  0.00    -0.323 N 
ATOM     18  C   UNL     1      -4.943  -0.718   0.244  1.00  0.00     0.324 C 
ATOM     19  C   UNL     1      -3.174  -1.319   2.831  1.00  0.00     0.324 C 
ATOM     20  H   UNL     1      -3.809  -2.518   1.180  1.00  0.00     0.348 HD
ATOM     21  C   UNL     1      -5.778   0.797   1.156  1.00  0.00     0.324 C 
ATOM     22  C   UNL     1      -4.050   0.192   3.775  1.00  0.00     0.324 C 
ATOM     23  N   UNL     1      -5.447   1.091   2.946  1.00  0.00    -0.328 N 
ATOM     24  C   UNL     1      -5.530   2.510   3.278  1.00  0.00     0.333 C 
ATOM     25  H   UNL     1      -6.221   0.599   3.391  1.00  0.00     0.348 HD
ENDBRANCH  12  17
ENDBRANCH   5   8
ENDBRANCH   3   4
ENDBRANCH   2   3
ENDBRANCH   1   2
BRANCH   1  26
ATOM     26  N   UNL     1      -6.860  -0.407   4.339  1.00  0.00    -0.352 N 
ATOM     27  C   UNL     1      -8.165  -0.451   4.718  1.00  0.00     0.251 C 
ATOM     28  H   UNL     1      -6.436   0.472   4.466  1.00  0.00     0.163 HD
ATOM     29  O   UNL     1      -8.823   0.570   4.884  1.00  0.00    -0.269 OA
BRANCH  27  30
ATOM     30  C   UNL     1      -8.774  -1.770   4.877  1.00  0.00     0.039 A 
ATOM     31  C   UNL     1     -10.011  -2.017   4.280  1.00  0.00     0.014 A 
ATOM     32  C   UNL     1      -8.072  -2.764   5.562  1.00  0.00     0.014 A 
ATOM     33  C   UNL     1     -10.547  -3.294   4.360  1.00  0.00     0.010 A 
ATOM     34  C   UNL     1      -8.564  -4.053   5.559  1.00  0.00     0.010 A 
ATOM     35  C   UNL     1      -9.820  -4.313   4.994  1.00  0.00    -0.014 A 
BRANCH  35  36
ATOM     36  C   UNL     1     -10.393  -5.659   5.160  1.00  0.00     0.031 A 
ATOM     37  C   UNL     1     -10.687  -6.144   6.550  1.00  0.00     0.074 A 
ATOM     38  C   UNL     1     -10.557  -6.443   4.081  1.00  0.00     0.049 A 
ATOM     39  N   UNL     1     -11.112  -7.314   6.940  1.00  0.00    -0.248 NA
ATOM     40  C   UNL     1     -10.422  -5.203   7.655  1.00  0.00     0.031 C 
ATOM     41  C   UNL     1     -10.213  -6.074   2.705  1.00  0.00     0.029 A 
ATOM     42  N   UNL     1     -11.033  -7.720   3.975  1.00  0.00    -0.354 N 
ATOM     43  C   UNL     1     -11.111  -7.266   8.329  1.00  0.00     0.074 A 
ATOM     44  C   UNL     1     -10.600  -5.973   8.716  1.00  0.00     0.031 C 
ATOM     45  C   UNL     1     -10.502  -7.102   1.890  1.00  0.00     0.029 A 
ATOM     46  C   UNL     1     -11.026  -8.204   2.689  1.00  0.00     0.049 A 
ATOM     47  H   UNL     1     -11.351  -8.243   4.746  1.00  0.00     0.167 HD
ATOM     48  C   UNL     1     -11.538  -8.208   9.200  1.00  0.00     0.034 A 
ATOM     49  C   UNL     1     -11.406  -9.407   2.220  1.00  0.00     0.034 A 
ATOM     50  C   UNL     1     -12.111  -9.455   8.779  1.00  0.00     0.049 A 
ATOM     51  C   UNL     1     -11.964 -10.402   3.202  1.00  0.00     0.074 A 
ATOM     52  C   UNL     1     -12.675 -10.449   9.553  1.00  0.00     0.029 A 
ATOM     53  N   UNL     1     -12.196  -9.870   7.458  1.00  0.00    -0.354 N 
ATOM     54  N   UNL     1     -12.100 -10.289   4.503  1.00  0.00    -0.248 NA
ATOM     55  C   UNL     1     -12.460 -11.669   2.653  1.00  0.00     0.031 C 
ATOM     56  C   UNL     1     -13.089 -11.476   8.698  1.00  0.00     0.029 A 
ATOM     57  C   UNL     1     -12.805 -11.108   7.391  1.00  0.00     0.049 A 
ATOM     58  H   UNL     1     -11.871  -9.358   6.682  1.00  0.00     0.167 HD
ATOM     59  C   UNL     1     -12.729 -11.453   4.925  1.00  0.00     0.074 A 
ATOM     60  C   UNL     1     -12.965 -12.248   3.735  1.00  0.00     0.031 C 
ATOM     61  C   UNL     1     -13.070 -11.841   6.178  1.00  0.00     0.034 A 
BRANCH  48  62
ATOM     62  C   UNL     1     -11.449  -7.894  10.669  1.00  0.00     0.023 A 
ATOM     63  C   UNL     1     -12.278  -6.897  11.226  1.00  0.00     0.012 A 
ATOM     64  C   UNL     1     -10.562  -8.598  11.507  1.00  0.00     0.148 A 
ATOM     65  C   UNL     1     -12.195  -6.574  12.579  1.00  0.00     0.002 A 
ATOM     66  C   UNL     1     -10.521  -8.306  12.866  1.00  0.00     0.091 A 
ATOM     67  F   UNL     1      -9.762  -9.523  10.958  1.00  0.00    -0.205 F 
ATOM     68  C   UNL     1     -11.325  -7.285  13.400  1.00  0.00     0.022 A 
BRANCH  66  69
ATOM     69  S   UNL     1      -9.495  -9.218  14.023  1.00  0.00     0.127 S 
ATOM     70  O   UNL     1      -8.491  -8.217  14.381  1.00  0.00    -0.237 OA
ATOM     71  O   UNL     1     -10.445  -9.537  15.089  1.00  0.00    -0.237 OA
ATOM     72  O   UNL     1      -8.992 -10.373  13.291  1.00  0.00    -0.744 OA
ENDBRANCH  66  69
ENDBRANCH  48  62
BRANCH  49  73
ATOM     73  C   UNL     1     -11.360  -9.687   0.758  1.00  0.00     0.023 A 
ATOM     74  C   UNL     1     -12.566  -9.782   0.036  1.00  0.00     0.012 A 
ATOM     75  C   UNL     1     -10.137  -9.808   0.070  1.00  0.00     0.148 A 
ATOM     76  C   UNL     1     -12.556 -10.027  -1.337  1.00  0.00     0.002 A 
ATOM     77  C   UNL     1     -10.134  -9.999  -1.308  1.00  0.00     0.091 A 
ATOM     78  F   UNL     1      -9.000  -9.719   0.774  1.00  0.00    -0.205 F 
ATOM     79  C   UNL     1     -11.342 -10.126  -2.011  1.00  0.00     0.022 A 
BRANCH  77  80
ATOM     80  S   UNL     1      -8.620 -10.004  -2.276  1.00  0.00     0.127 S 
ATOM     81  O   UNL     1      -8.505 -11.412  -2.644  1.00  0.00    -0.237 OA
ATOM     82  O   UNL     1      -8.962  -9.104  -3.379  1.00  0.00    -0.237 OA
ATOM     83  O   UNL     1      -7.585  -9.494  -1.388  1.00  0.00    -0.744 OA
ENDBRANCH  77  80
ENDBRANCH  49  73
BRANCH  61  84
ATOM     84  C   UNL     1     -13.768 -13.165   6.324  1.00  0.00     0.023 A 
ATOM     85  C   UNL     1     -13.040 -14.360   6.168  1.00  0.00     0.012 A 
ATOM     86  C   UNL     1     -15.123 -13.216   6.704  1.00  0.00     0.148 A 
ATOM     87  C   UNL     1     -13.662 -15.592   6.358  1.00  0.00     0.002 A 
ATOM     88  C   UNL     1     -15.720 -14.446   6.943  1.00  0.00     0.091 A 
ATOM     89  F   UNL     1     -15.798 -12.064   6.828  1.00  0.00    -0.205 F 
ATOM     90  C   UNL     1     -14.996 -15.635   6.758  1.00  0.00     0.022 A 
BRANCH  88  91
ATOM     91  S   UNL     1     -17.399 -14.590   7.563  1.00  0.00     0.127 S 
ATOM     92  O   UNL     1     -18.114 -15.061   6.378  1.00  0.00    -0.237 OA
ATOM     93  O   UNL     1     -17.254 -15.586   8.625  1.00  0.00    -0.237 OA
ATOM     94  O   UNL     1     -17.769 -13.260   8.030  1.00  0.00    -0.744 OA
ENDBRANCH  88  91
ENDBRANCH  61  84
ENDBRANCH  35  36
ENDBRANCH  27  30
ENDBRANCH   1  26
TORSDOF 15
