REMARK SMILES COc1cc(OC)cc(C(=O)C[C@H](C)CC(=O)NCCCNC(=O)c2ccc(-c3c4nc(c(-c5cccc(S(=O)(=O)[O-])c5F)c5ccc([nH]5)c(-c5cccc(S(=O)(=O)[O-])c5F)c5nc(c(-c6cccc(S(=O)(=O)[O-])c6F)c6ccc3[nH]6)C=C5)C=C4)cc2)c1
REMARK SMILES IDX 19 1 18 2 16 3 17 4 15 6 13 7 14 8 12 9 10 10 11 11 9 12
REMARK SMILES IDX 3 13 4 14 88 15 5 16 8 17 2 18 1 19 6 20 7 21 20 22 21 23
REMARK SMILES IDX 22 24 23 25 24 27 25 28 26 29 87 30 27 31 86 32 28 33 29 34
REMARK SMILES IDX 30 35 80 36 31 37 85 38 79 39 81 40 32 41 84 42 78 43 77 44
REMARK SMILES IDX 33 46 65 47 45 48 64 49 46 50 49 51 63 52 82 53 47 54 48 55
REMARK SMILES IDX 62 57 83 58 50 59 34 60 35 61 43 62 36 63 38 64 44 65 37 66
REMARK SMILES IDX 39 67 40 68 41 69 42 70 66 71 67 72 75 73 68 74 70 75 76 76
REMARK SMILES IDX 69 77 71 78 72 79 73 80 74 81 51 82 52 83 60 84 53 85 55 86
REMARK SMILES IDX 61 87 54 88 56 89 57 90 58 91 59 92
REMARK H PARENT 18 5 22 26 81 45 49 56
REMARK Flexibility Score: inf
ROOT
ATOM      1  C   UNL     1       7.491  -1.396   2.033  1.00  0.00     0.117 C 
ENDROOT
BRANCH   1   2
ATOM      2  N   UNL     1       7.623  -2.236   0.851  1.00  0.00    -0.356 N 
ATOM      3  C   UNL     1       6.778  -2.438  -0.197  1.00  0.00     0.220 C 
ATOM      4  O   UNL     1       7.141  -3.185  -1.109  1.00  0.00    -0.275 OA
ATOM      5  H   UNL     1       8.465  -2.743   0.800  1.00  0.00     0.163 HD
BRANCH   3   6
ATOM      6  C   UNL     1       5.404  -1.795  -0.233  1.00  0.00     0.103 C 
BRANCH   6   7
ATOM      7  C   UNL     1       4.321  -2.767   0.267  1.00  0.00     0.003 C 
ATOM      8  C   UNL     1       4.369  -2.928   1.784  1.00  0.00     0.008 C 
BRANCH   7   9
ATOM      9  C   UNL     1       2.921  -2.330  -0.200  1.00  0.00     0.085 C 
BRANCH   9  10
ATOM     10  C   UNL     1       1.777  -3.222   0.284  1.00  0.00     0.163 C 
ATOM     11  O   UNL     1       0.739  -2.741   0.733  1.00  0.00    -0.294 OA
BRANCH  10  12
ATOM     12  C   UNL     1       1.929  -4.702   0.227  1.00  0.00     0.025 A 
ATOM     13  C   UNL     1       2.927  -6.660  -0.759  1.00  0.00     0.123 A 
ATOM     14  C   UNL     1       2.391  -7.441   0.263  1.00  0.00     0.092 A 
ATOM     15  C   UNL     1       2.648  -5.299  -0.811  1.00  0.00     0.058 A 
ATOM     16  C   UNL     1       1.608  -6.861   1.268  1.00  0.00     0.123 A 
ATOM     17  C   UNL     1       1.396  -5.482   1.263  1.00  0.00     0.058 A 
BRANCH  13  18
ATOM     18  O   UNL     1       3.674  -7.294  -1.714  1.00  0.00    -0.497 OA
ATOM     19  C   UNL     1       4.937  -6.662  -1.943  1.00  0.00     0.278 C 
ENDBRANCH  13  18
BRANCH  16  20
ATOM     20  O   UNL     1       1.133  -7.742   2.198  1.00  0.00    -0.497 OA
ATOM     21  C   UNL     1       0.138  -7.261   3.097  1.00  0.00     0.278 C 
ENDBRANCH  16  20
ENDBRANCH  10  12
ENDBRANCH   9  10
ENDBRANCH   7   9
ENDBRANCH   6   7
ENDBRANCH   3   6
ENDBRANCH   1   2
BRANCH   1  22
ATOM     22  C   UNL     1       7.364  -2.196   3.328  1.00  0.00     0.042 C 
BRANCH  22  23
ATOM     23  C   UNL     1       8.589  -3.024   3.680  1.00  0.00     0.118 C 
BRANCH  23  24
ATOM     24  N   UNL     1       9.607  -2.211   4.317  1.00  0.00    -0.352 N 
ATOM     25  C   UNL     1       9.985  -2.158   5.637  1.00  0.00     0.251 C 
ATOM     26  H   UNL     1      10.101  -1.609   3.715  1.00  0.00     0.163 HD
ATOM     27  O   UNL     1      10.630  -1.185   6.023  1.00  0.00    -0.269 OA
BRANCH  25  28
ATOM     28  C   UNL     1       9.637  -3.241   6.592  1.00  0.00     0.039 A 
ATOM     29  C   UNL     1       9.420  -2.905   7.933  1.00  0.00     0.014 A 
ATOM     30  C   UNL     1       9.618  -4.587   6.213  1.00  0.00     0.014 A 
ATOM     31  C   UNL     1       9.187  -3.908   8.880  1.00  0.00     0.010 A 
ATOM     32  C   UNL     1       9.291  -5.578   7.141  1.00  0.00     0.010 A 
ATOM     33  C   UNL     1       9.118  -5.256   8.493  1.00  0.00    -0.014 A 
BRANCH  33  34
ATOM     34  C   UNL     1       8.935  -6.333   9.504  1.00  0.00     0.031 A 
ATOM     35  C   UNL     1      10.011  -7.372   9.715  1.00  0.00     0.074 A 
ATOM     36  C   UNL     1       7.792  -6.405  10.214  1.00  0.00     0.049 A 
ATOM     37  N   UNL     1      10.041  -8.370  10.561  1.00  0.00    -0.248 NA
ATOM     38  C   UNL     1      11.198  -7.296   8.846  1.00  0.00     0.031 C 
ATOM     39  C   UNL     1       6.639  -5.517  10.051  1.00  0.00     0.029 A 
ATOM     40  N   UNL     1       7.405  -7.272  11.205  1.00  0.00    -0.354 N 
ATOM     41  C   UNL     1      11.223  -9.056  10.302  1.00  0.00     0.074 A 
ATOM     42  C   UNL     1      11.863  -8.388   9.191  1.00  0.00     0.031 C 
ATOM     43  C   UNL     1       5.682  -5.873  10.923  1.00  0.00     0.029 A 
ATOM     44  C   UNL     1       6.142  -7.026  11.693  1.00  0.00     0.049 A 
ATOM     45  H   UNL     1       7.977  -8.001  11.537  1.00  0.00     0.167 HD
ATOM     46  C   UNL     1      11.752 -10.121  10.951  1.00  0.00     0.034 A 
ATOM     47  C   UNL     1       5.437  -7.652  12.656  1.00  0.00     0.034 A 
ATOM     48  C   UNL     1      11.146 -10.749  12.093  1.00  0.00     0.049 A 
ATOM     49  C   UNL     1       6.072  -8.795  13.403  1.00  0.00     0.074 A 
ATOM     50  C   UNL     1      11.647 -11.770  12.881  1.00  0.00     0.029 A 
ATOM     51  N   UNL     1       9.904 -10.418  12.610  1.00  0.00    -0.354 N 
ATOM     52  N   UNL     1       7.266  -9.317  13.254  1.00  0.00    -0.248 NA
ATOM     53  C   UNL     1       5.279  -9.407  14.479  1.00  0.00     0.031 C 
ATOM     54  C   UNL     1      10.698 -12.069  13.865  1.00  0.00     0.029 A 
ATOM     55  C   UNL     1       9.616 -11.219  13.702  1.00  0.00     0.049 A 
ATOM     56  H   UNL     1       9.313  -9.716  12.254  1.00  0.00     0.167 HD
ATOM     57  C   UNL     1       7.378 -10.297  14.234  1.00  0.00     0.074 A 
ATOM     58  C   UNL     1       6.142 -10.275  14.989  1.00  0.00     0.031 C 
ATOM     59  C   UNL     1       8.403 -11.153  14.475  1.00  0.00     0.034 A 
BRANCH  46  60
ATOM     60  C   UNL     1      13.090 -10.635  10.480  1.00  0.00     0.023 A 
ATOM     61  C   UNL     1      14.250  -9.868  10.717  1.00  0.00     0.012 A 
ATOM     62  C   UNL     1      13.211 -11.893   9.857  1.00  0.00     0.148 A 
ATOM     63  C   UNL     1      15.502 -10.325  10.308  1.00  0.00     0.002 A 
ATOM     64  C   UNL     1      14.469 -12.362   9.492  1.00  0.00     0.091 A 
ATOM     65  F   UNL     1      12.097 -12.600   9.622  1.00  0.00    -0.205 F 
ATOM     66  C   UNL     1      15.612 -11.574   9.706  1.00  0.00     0.022 A 
BRANCH  64  67
ATOM     67  S   UNL     1      14.728 -13.991   8.780  1.00  0.00     0.127 S 
ATOM     68  O   UNL     1      15.068 -13.658   7.398  1.00  0.00    -0.237 OA
ATOM     69  O   UNL     1      15.846 -14.500   9.576  1.00  0.00    -0.237 OA
ATOM     70  O   UNL     1      13.476 -14.712   8.961  1.00  0.00    -0.744 OA
ENDBRANCH  64  67
ENDBRANCH  46  60
BRANCH  47  71
ATOM     71  C   UNL     1       4.080  -7.158  13.025  1.00  0.00     0.023 A 
ATOM     72  C   UNL     1       3.890  -6.523  14.269  1.00  0.00     0.012 A 
ATOM     73  C   UNL     1       2.988  -7.285  12.146  1.00  0.00     0.148 A 
ATOM     74  C   UNL     1       2.631  -6.054  14.644  1.00  0.00     0.002 A 
ATOM     75  C   UNL     1       1.748  -6.766  12.502  1.00  0.00     0.091 A 
ATOM     76  F   UNL     1       3.184  -7.904  10.974  1.00  0.00    -0.205 F 
ATOM     77  C   UNL     1       1.563  -6.165  13.757  1.00  0.00     0.022 A 
BRANCH  75  78
ATOM     78  S   UNL     1       0.353  -6.746  11.370  1.00  0.00     0.127 S 
ATOM     79  O   UNL     1      -0.515  -7.768  11.946  1.00  0.00    -0.237 OA
ATOM     80  O   UNL     1      -0.132  -5.373  11.510  1.00  0.00    -0.237 OA
ATOM     81  O   UNL     1       0.911  -7.050  10.058  1.00  0.00    -0.744 OA
ENDBRANCH  75  78
ENDBRANCH  47  71
BRANCH  59  82
ATOM     82  C   UNL     1       8.245 -12.126  15.614  1.00  0.00     0.023 A 
ATOM     83  C   UNL     1       7.356 -13.212  15.485  1.00  0.00     0.012 A 
ATOM     84  C   UNL     1       9.022 -12.005  16.782  1.00  0.00     0.148 A 
ATOM     85  C   UNL     1       7.216 -14.141  16.515  1.00  0.00     0.002 A 
ATOM     86  C   UNL     1       8.914 -12.961  17.785  1.00  0.00     0.091 A 
ATOM     87  F   UNL     1       9.849 -10.955  16.895  1.00  0.00    -0.205 F 
ATOM     88  C   UNL     1       8.002 -14.022  17.659  1.00  0.00     0.022 A 
BRANCH  86  89
ATOM     89  S   UNL     1       9.955 -12.940  19.248  1.00  0.00     0.127 S 
ATOM     90  O   UNL     1       9.022 -12.472  20.271  1.00  0.00    -0.237 OA
ATOM     91  O   UNL     1      10.344 -14.346  19.375  1.00  0.00    -0.237 OA
ATOM     92  O   UNL     1      11.056 -12.037  18.941  1.00  0.00    -0.744 OA
ENDBRANCH  86  89
ENDBRANCH  59  82
ENDBRANCH  33  34
ENDBRANCH  25  28
ENDBRANCH  23  24
ENDBRANCH  22  23
ENDBRANCH   1  22
TORSDOF 19
