REMARK SMILES Cc1cc(C(=O)N2CCC[C@@H]2C(C)C)sc1/C=C/C(=O)NCCCNC(=O)c1ccc(-c2c3nc(c(-c4cccc(S(=O)(=O)[O-])c4F)c4ccc([nH]4)c(-c4cccc(S(=O)(=O)[O-])c4F)c4nc(c(-c5cccc(S(=O)(=O)[O-])c5F)c5ccc2[nH]5)C=C4)C=C3)cc1
REMARK SMILES IDX 22 1 21 2 19 3 20 4 18 6 17 7 16 8 1 9 2 10 3 11 4 12 15 13
REMARK SMILES IDX 5 14 6 15 7 16 8 17 11 18 9 19 10 20 12 21 13 22 14 23 23 24
REMARK SMILES IDX 24 25 25 26 26 27 27 29 28 30 29 31 90 32 30 33 89 34 31 35
REMARK SMILES IDX 32 36 33 37 83 38 34 39 88 40 82 41 84 42 35 43 87 44 81 45
REMARK SMILES IDX 80 46 36 48 68 49 48 50 67 51 49 52 52 53 66 54 85 55 50 56
REMARK SMILES IDX 51 57 65 59 86 60 53 61 37 62 38 63 46 64 39 65 41 66 47 67
REMARK SMILES IDX 40 68 42 69 43 70 44 71 45 72 69 73 70 74 78 75 71 76 73 77
REMARK SMILES IDX 79 78 72 79 74 80 75 81 76 82 77 83 54 84 55 85 63 86 56 87
REMARK SMILES IDX 58 88 64 89 57 90 59 91 60 92 61 93 62 94
REMARK H PARENT 21 5 25 28 84 47 52 58
REMARK Flexibility Score: inf
ROOT
ATOM      1  C   UNL     1       2.232  -4.693  -0.559  1.00  0.00     0.118 C 
ENDROOT
BRANCH   1   2
ATOM      2  N   UNL     1       0.950  -5.277  -0.203  1.00  0.00    -0.352 N 
ATOM      3  C   UNL     1      -0.274  -4.696  -0.092  1.00  0.00     0.244 C 
ATOM      4  O   UNL     1      -1.273  -5.393   0.068  1.00  0.00    -0.270 OA
ATOM      5  H   UNL     1       0.971  -6.243  -0.013  1.00  0.00     0.163 HD
BRANCH   3   6
ATOM      6  C   UNL     1      -0.425  -3.238  -0.261  1.00  0.00     0.072 C 
ATOM      7  C   UNL     1       0.307  -2.336   0.411  1.00  0.00     0.025 C 
BRANCH   7   8
ATOM      8  C   UNL     1       0.120  -0.928   0.272  1.00  0.00     0.031 A 
ATOM      9  C   UNL     1       2.558  -0.100   0.302  1.00  0.00     0.046 C 
ATOM     10  C   UNL     1       1.073   0.085   0.281  1.00  0.00    -0.032 A 
ATOM     11  C   UNL     1       0.457   1.385   0.263  1.00  0.00     0.029 A 
ATOM     12  C   UNL     1      -0.922   1.343   0.185  1.00  0.00     0.093 A 
ATOM     13  S   UNL     1      -1.453  -0.274   0.091  1.00  0.00    -0.130 S 
BRANCH  12  14
ATOM     14  C   UNL     1      -1.826   2.487   0.051  1.00  0.00     0.264 C 
ATOM     15  O   UNL     1      -1.415   3.643  -0.048  1.00  0.00    -0.268 OA
BRANCH  14  16
ATOM     16  N   UNL     1      -3.175   2.206  -0.118  1.00  0.00    -0.335 N 
ATOM     17  C   UNL     1      -3.975   1.658   0.962  1.00  0.00     0.120 C 
ATOM     18  C   UNL     1      -4.023   2.909  -1.088  1.00  0.00     0.088 C 
ATOM     19  C   UNL     1      -5.258   1.281   0.265  1.00  0.00     0.024 C 
ATOM     20  C   UNL     1      -5.452   2.439  -0.711  1.00  0.00     0.027 C 
BRANCH  18  21
ATOM     21  C   UNL     1      -3.643   2.624  -2.573  1.00  0.00     0.005 C 
ATOM     22  C   UNL     1      -4.672   3.203  -3.555  1.00  0.00     0.009 C 
ATOM     23  C   UNL     1      -2.274   3.207  -2.958  1.00  0.00     0.009 C 
ENDBRANCH  18  21
ENDBRANCH  14  16
ENDBRANCH  12  14
ENDBRANCH   7   8
ENDBRANCH   3   6
ENDBRANCH   1   2
BRANCH   1  24
ATOM     24  C   UNL     1       3.180  -4.631   0.635  1.00  0.00     0.042 C 
BRANCH  24  25
ATOM     25  C   UNL     1       3.740  -5.992   1.042  1.00  0.00     0.118 C 
BRANCH  25  26
ATOM     26  N   UNL     1       4.644  -6.531   0.036  1.00  0.00    -0.352 N 
ATOM     27  C   UNL     1       5.957  -6.916   0.145  1.00  0.00     0.251 C 
ATOM     28  H   UNL     1       4.253  -6.636  -0.861  1.00  0.00     0.163 HD
ATOM     29  O   UNL     1       6.601  -7.137  -0.878  1.00  0.00    -0.269 OA
BRANCH  27  30
ATOM     30  C   UNL     1       6.601  -7.061   1.470  1.00  0.00     0.039 A 
ATOM     31  C   UNL     1       7.927  -6.643   1.621  1.00  0.00     0.014 A 
ATOM     32  C   UNL     1       5.931  -7.655   2.543  1.00  0.00     0.014 A 
ATOM     33  C   UNL     1       8.565  -6.780   2.857  1.00  0.00     0.010 A 
ATOM     34  C   UNL     1       6.547  -7.733   3.791  1.00  0.00     0.010 A 
ATOM     35  C   UNL     1       7.873  -7.308   3.958  1.00  0.00    -0.014 A 
BRANCH  35  36
ATOM     36  C   UNL     1       8.518  -7.422   5.291  1.00  0.00     0.031 A 
ATOM     37  C   UNL     1       8.758  -8.775   5.906  1.00  0.00     0.074 A 
ATOM     38  C   UNL     1       8.806  -6.305   5.986  1.00  0.00     0.049 A 
ATOM     39  N   UNL     1       9.248  -9.070   7.082  1.00  0.00    -0.248 NA
ATOM     40  C   UNL     1       8.374  -9.949   5.105  1.00  0.00     0.031 C 
ATOM     41  C   UNL     1       8.547  -4.937   5.532  1.00  0.00     0.029 A 
ATOM     42  N   UNL     1       9.353  -6.143   7.234  1.00  0.00    -0.354 N 
ATOM     43  C   UNL     1       9.196 -10.455   7.179  1.00  0.00     0.074 A 
ATOM     44  C   UNL     1       8.602 -10.942   5.953  1.00  0.00     0.031 C 
ATOM     45  C   UNL     1       8.930  -4.077   6.489  1.00  0.00     0.029 A 
ATOM     46  C   UNL     1       9.444  -4.829   7.630  1.00  0.00     0.049 A 
ATOM     47  H   UNL     1       9.652  -6.896   7.794  1.00  0.00     0.167 HD
ATOM     48  C   UNL     1       9.632 -11.253   8.183  1.00  0.00     0.034 A 
ATOM     49  C   UNL     1       9.888  -4.290   8.782  1.00  0.00     0.034 A 
ATOM     50  C   UNL     1      10.275 -10.770   9.376  1.00  0.00     0.049 A 
ATOM     51  C   UNL     1      10.429  -5.197   9.854  1.00  0.00     0.074 A 
ATOM     52  C   UNL     1      10.832 -11.501  10.410  1.00  0.00     0.029 A 
ATOM     53  N   UNL     1      10.449  -9.432   9.693  1.00  0.00    -0.354 N 
ATOM     54  N   UNL     1      10.519  -6.505   9.858  1.00  0.00    -0.248 NA
ATOM     55  C   UNL     1      10.966  -4.554  11.062  1.00  0.00     0.031 C 
ATOM     56  C   UNL     1      11.341 -10.604  11.355  1.00  0.00     0.029 A 
ATOM     57  C   UNL     1      11.107  -9.314  10.905  1.00  0.00     0.049 A 
ATOM     58  H   UNL     1      10.150  -8.676   9.137  1.00  0.00     0.167 HD
ATOM     59  C   UNL     1      11.149  -6.840  11.050  1.00  0.00     0.074 A 
ATOM     60  C   UNL     1      11.439  -5.596  11.733  1.00  0.00     0.031 C 
ATOM     61  C   UNL     1      11.442  -8.068  11.545  1.00  0.00     0.034 A 
BRANCH  48  62
ATOM     62  C   UNL     1       9.494 -12.742   8.002  1.00  0.00     0.023 A 
ATOM     63  C   UNL     1      10.350 -13.407   7.101  1.00  0.00     0.012 A 
ATOM     64  C   UNL     1       8.567 -13.489   8.754  1.00  0.00     0.148 A 
ATOM     65  C   UNL     1      10.265 -14.788   6.927  1.00  0.00     0.002 A 
ATOM     66  C   UNL     1       8.514 -14.871   8.604  1.00  0.00     0.091 A 
ATOM     67  F   UNL     1       7.744 -12.837   9.588  1.00  0.00    -0.205 F 
ATOM     68  C   UNL     1       9.355 -15.520   7.685  1.00  0.00     0.022 A 
BRANCH  66  69
ATOM     69  S   UNL     1       7.425 -15.908   9.587  1.00  0.00     0.127 S 
ATOM     70  O   UNL     1       6.378 -16.236   8.620  1.00  0.00    -0.237 OA
ATOM     71  O   UNL     1       8.298 -17.027   9.944  1.00  0.00    -0.237 OA
ATOM     72  O   UNL     1       7.006 -15.086  10.714  1.00  0.00    -0.744 OA
ENDBRANCH  66  69
ENDBRANCH  48  62
BRANCH  49  73
ATOM     73  C   UNL     1       9.919  -2.809   8.940  1.00  0.00     0.023 A 
ATOM     74  C   UNL     1      11.158  -2.141   8.909  1.00  0.00     0.012 A 
ATOM     75  C   UNL     1       8.735  -2.057   9.066  1.00  0.00     0.148 A 
ATOM     76  C   UNL     1      11.221  -0.752   9.026  1.00  0.00     0.002 A 
ATOM     77  C   UNL     1       8.801  -0.669   9.130  1.00  0.00     0.091 A 
ATOM     78  F   UNL     1       7.566  -2.712   9.110  1.00  0.00    -0.205 F 
ATOM     79  C   UNL     1      10.043  -0.016   9.125  1.00  0.00     0.022 A 
BRANCH  77  80
ATOM     80  S   UNL     1       7.328   0.359   9.117  1.00  0.00     0.127 S 
ATOM     81  O   UNL     1       7.240   0.775  10.514  1.00  0.00    -0.237 OA
ATOM     82  O   UNL     1       7.701   1.419   8.180  1.00  0.00    -0.237 OA
ATOM     83  O   UNL     1       6.257  -0.506   8.640  1.00  0.00    -0.744 OA
ENDBRANCH  77  80
ENDBRANCH  49  73
BRANCH  61  84
ATOM     84  C   UNL     1      12.133  -8.135  12.880  1.00  0.00     0.023 A 
ATOM     85  C   UNL     1      11.398  -7.881  14.055  1.00  0.00     0.012 A 
ATOM     86  C   UNL     1      13.483  -8.525  12.978  1.00  0.00     0.148 A 
ATOM     87  C   UNL     1      12.003  -7.988  15.306  1.00  0.00     0.002 A 
ATOM     88  C   UNL     1      14.068  -8.670  14.231  1.00  0.00     0.091 A 
ATOM     89  F   UNL     1      14.172  -8.741  11.848  1.00  0.00    -0.205 F 
ATOM     90  C   UNL     1      13.333  -8.394  15.395  1.00  0.00     0.022 A 
BRANCH  88  91
ATOM     91  S   UNL     1      15.748  -9.274  14.435  1.00  0.00     0.127 S 
ATOM     92  O   UNL     1      16.480  -8.038  14.704  1.00  0.00    -0.237 OA
ATOM     93  O   UNL     1      15.623 -10.171  15.586  1.00  0.00    -0.237 OA
ATOM     94  O   UNL     1      16.081  -9.946  13.186  1.00  0.00    -0.744 OA
ENDBRANCH  88  91
ENDBRANCH  61  84
ENDBRANCH  35  36
ENDBRANCH  27  30
ENDBRANCH  25  26
ENDBRANCH  24  25
ENDBRANCH   1  24
TORSDOF 17
