REMARK SMILES C[C@@H](C(=O)NCCCNC(=O)c1ccc(-c2c3nc(c(-c4cccc(S(=O)(=O)[O-])c4F)c4ccc([nH]4)c(-c4cccc(S(=O)(=O)[O-])c4F)c4nc(c(-c5cccc(S(=O)(=O)[O-])c5F)c5ccc2[nH]5)C=C4)C=C3)cc1)c1ccc(C[C@H]2CCC[C@@H]2O)cc1Br
REMARK SMILES IDX 6 1 5 2 3 3 4 4 2 6 1 7 75 8 76 9 87 10 77 11 86 12 88 13
REMARK SMILES IDX 78 14 79 15 80 16 81 17 84 18 82 19 83 20 85 21 7 23 8 24
REMARK SMILES IDX 9 25 10 26 11 28 12 29 13 30 74 31 14 32 73 33 15 34 16 35
REMARK SMILES IDX 17 36 67 37 18 38 72 39 66 40 68 41 19 42 71 43 65 44 64 45
REMARK SMILES IDX 20 47 52 48 32 49 51 50 33 51 36 52 50 53 69 54 34 55 35 56
REMARK SMILES IDX 49 58 70 59 37 60 21 61 22 62 30 63 23 64 25 65 31 66 24 67
REMARK SMILES IDX 26 68 27 69 28 70 29 71 53 72 54 73 62 74 55 75 57 76 63 77
REMARK SMILES IDX 56 78 58 79 59 80 60 81 61 82 38 83 39 84 47 85 40 86 42 87
REMARK SMILES IDX 48 88 41 89 43 90 44 91 45 92 46 93
REMARK H PARENT 5 5 85 22 9 27 68 46 36 57
REMARK Flexibility Score: inf
ROOT
ATOM      1  C   UNL     1       3.465   1.420   1.333  1.00  0.00     0.117 C 
ENDROOT
BRANCH   1   2
ATOM      2  N   UNL     1       2.439   2.418   1.110  1.00  0.00    -0.356 N 
ATOM      3  C   UNL     1       1.147   2.289   0.695  1.00  0.00     0.227 C 
ATOM      4  O   UNL     1       0.653   3.325   0.247  1.00  0.00    -0.274 OA
ATOM      5  H   UNL     1       2.722   3.344   1.287  1.00  0.00     0.163 HD
BRANCH   3   6
ATOM      6  C   UNL     1       0.424   0.926   0.781  1.00  0.00     0.106 C 
ATOM      7  C   UNL     1       0.782   0.109  -0.466  1.00  0.00     0.023 C 
BRANCH   6   8
ATOM      8  C   UNL     1      -1.105   0.944   0.967  1.00  0.00    -0.022 A 
ATOM      9  C   UNL     1      -1.876   2.082   0.668  1.00  0.00     0.006 A 
ATOM     10  C   UNL     1      -1.821  -0.198   1.387  1.00  0.00     0.022 A 
ATOM     11  C   UNL     1      -3.269   2.095   0.778  1.00  0.00     0.004 A 
ATOM     12  C   UNL     1      -3.225  -0.191   1.474  1.00  0.00     0.019 A 
ATOM     13  Br  UNL     1      -0.979  -1.821   1.928  1.00  0.00    -0.051 Br
ATOM     14  C   UNL     1      -3.960   0.966   1.199  1.00  0.00    -0.047 A 
BRANCH  14  15
ATOM     15  C   UNL     1      -5.454   1.008   1.399  1.00  0.00     0.041 C 
BRANCH  15  16
ATOM     16  C   UNL     1      -5.924   1.600   2.740  1.00  0.00     0.022 C 
ATOM     17  C   UNL     1      -5.353   0.925   4.000  1.00  0.00     0.007 C 
ATOM     18  C   UNL     1      -5.651   3.096   2.939  1.00  0.00     0.117 C 
ATOM     19  C   UNL     1      -5.052   2.051   4.990  1.00  0.00     0.003 C 
ATOM     20  C   UNL     1      -5.770   3.272   4.445  1.00  0.00     0.032 C 
BRANCH  18  21
ATOM     21  O   UNL     1      -6.609   3.898   2.272  1.00  0.00    -0.393 OA
ATOM     22  H   UNL     1      -7.497   3.674   2.590  1.00  0.00     0.210 HD
ENDBRANCH  18  21
ENDBRANCH  15  16
ENDBRANCH  14  15
ENDBRANCH   6   8
ENDBRANCH   3   6
ENDBRANCH   1   2
BRANCH   1  23
ATOM     23  C   UNL     1       4.356   1.247   0.103  1.00  0.00     0.042 C 
BRANCH  23  24
ATOM     24  C   UNL     1       5.024   2.529  -0.390  1.00  0.00     0.118 C 
BRANCH  24  25
ATOM     25  N   UNL     1       5.976   3.071   0.567  1.00  0.00    -0.352 N 
ATOM     26  C   UNL     1       7.332   3.245   0.446  1.00  0.00     0.251 C 
ATOM     27  H   UNL     1       5.591   3.355   1.427  1.00  0.00     0.163 HD
ATOM     28  O   UNL     1       7.995   3.540   1.442  1.00  0.00    -0.269 OA
BRANCH  26  29
ATOM     29  C   UNL     1       8.003   3.061  -0.860  1.00  0.00     0.039 A 
ATOM     30  C   UNL     1       9.208   2.354  -0.906  1.00  0.00     0.014 A 
ATOM     31  C   UNL     1       7.461   3.592  -2.033  1.00  0.00     0.014 A 
ATOM     32  C   UNL     1       9.832   2.125  -2.135  1.00  0.00     0.010 A 
ATOM     33  C   UNL     1       8.042   3.295  -3.264  1.00  0.00     0.010 A 
ATOM     34  C   UNL     1       9.236   2.561  -3.330  1.00  0.00    -0.014 A 
BRANCH  34  35
ATOM     35  C   UNL     1       9.834   2.242  -4.653  1.00  0.00     0.031 A 
ATOM     36  C   UNL     1      10.288   3.346  -5.571  1.00  0.00     0.074 A 
ATOM     37  C   UNL     1       9.886   0.960  -5.068  1.00  0.00     0.049 A 
ATOM     38  N   UNL     1      10.771   3.262  -6.784  1.00  0.00    -0.248 NA
ATOM     39  C   UNL     1      10.162   4.725  -5.072  1.00  0.00     0.031 C 
ATOM     40  C   UNL     1       9.411  -0.196  -4.304  1.00  0.00     0.029 A 
ATOM     41  N   UNL     1      10.333   0.414  -6.247  1.00  0.00    -0.354 N 
ATOM     42  C   UNL     1      10.967   4.572  -7.208  1.00  0.00     0.074 A 
ATOM     43  C   UNL     1      10.526   5.433  -6.132  1.00  0.00     0.031 C 
ATOM     44  C   UNL     1       9.591  -1.310  -5.031  1.00  0.00     0.029 A 
ATOM     45  C   UNL     1      10.158  -0.948  -6.326  1.00  0.00     0.049 A 
ATOM     46  H   UNL     1      10.740   0.948  -6.967  1.00  0.00     0.167 HD
ATOM     47  C   UNL     1      11.486   5.018  -8.377  1.00  0.00     0.034 A 
ATOM     48  C   UNL     1      10.406  -1.809  -7.333  1.00  0.00     0.034 A 
ATOM     49  C   UNL     1      11.958   4.159  -9.429  1.00  0.00     0.049 A 
ATOM     50  C   UNL     1      11.006  -1.287  -8.611  1.00  0.00     0.074 A 
ATOM     51  C   UNL     1      12.591   4.513 -10.608  1.00  0.00     0.029 A 
ATOM     52  N   UNL     1      11.834   2.779  -9.442  1.00  0.00    -0.354 N 
ATOM     53  N   UNL     1      11.338  -0.059  -8.926  1.00  0.00    -0.248 NA
ATOM     54  C   UNL     1      11.295  -2.274  -9.662  1.00  0.00     0.031 C 
ATOM     55  C   UNL     1      12.814   3.350 -11.351  1.00  0.00     0.029 A 
ATOM     56  C   UNL     1      12.359   2.267 -10.617  1.00  0.00     0.049 A 
ATOM     57  H   UNL     1      11.433   2.241  -8.722  1.00  0.00     0.167 HD
ATOM     58  C   UNL     1      11.908  -0.131 -10.192  1.00  0.00     0.074 A 
ATOM     59  C   UNL     1      11.896  -1.526 -10.578  1.00  0.00     0.031 C 
ATOM     60  C   UNL     1      12.387   0.871 -10.970  1.00  0.00     0.034 A 
BRANCH  47  61
ATOM     61  C   UNL     1      11.610   6.508  -8.570  1.00  0.00     0.023 A 
ATOM     62  C   UNL     1      12.564   7.234  -7.829  1.00  0.00     0.012 A 
ATOM     63  C   UNL     1      10.832   7.177  -9.536  1.00  0.00     0.148 A 
ATOM     64  C   UNL     1      12.718   8.607  -8.019  1.00  0.00     0.002 A 
ATOM     65  C   UNL     1      11.024   8.536  -9.754  1.00  0.00     0.091 A 
ATOM     66  F   UNL     1       9.917   6.474 -10.219  1.00  0.00    -0.205 F 
ATOM     67  C   UNL     1      11.957   9.254  -8.988  1.00  0.00     0.022 A 
BRANCH  65  68
ATOM     68  S   UNL     1      10.155   9.445 -11.036  1.00  0.00     0.127 S 
ATOM     69  O   UNL     1       9.283  10.311 -10.243  1.00  0.00    -0.237 OA
ATOM     70  O   UNL     1      11.249  10.141 -11.714  1.00  0.00    -0.237 OA
ATOM     71  O   UNL     1       9.473   8.447 -11.847  1.00  0.00    -0.744 OA
ENDBRANCH  65  68
ENDBRANCH  47  61
BRANCH  48  72
ATOM     72  C   UNL     1      10.129  -3.264  -7.160  1.00  0.00     0.023 A 
ATOM     73  C   UNL     1      11.204  -4.172  -7.092  1.00  0.00     0.012 A 
ATOM     74  C   UNL     1       8.812  -3.749  -7.047  1.00  0.00     0.148 A 
ATOM     75  C   UNL     1      10.971  -5.541  -6.955  1.00  0.00     0.002 A 
ATOM     76  C   UNL     1       8.589  -5.107  -6.852  1.00  0.00     0.091 A 
ATOM     77  F   UNL     1       7.803  -2.871  -7.124  1.00  0.00    -0.205 F 
ATOM     78  C   UNL     1       9.665  -6.007  -6.825  1.00  0.00     0.022 A 
BRANCH  76  79
ATOM     79  S   UNL     1       6.952  -5.779  -6.542  1.00  0.00     0.127 S 
ATOM     80  O   UNL     1       6.697  -6.524  -7.772  1.00  0.00    -0.237 OA
ATOM     81  O   UNL     1       7.186  -6.606  -5.357  1.00  0.00    -0.237 OA
ATOM     82  O   UNL     1       6.092  -4.628  -6.308  1.00  0.00    -0.744 OA
ENDBRANCH  76  79
ENDBRANCH  48  72
BRANCH  60  83
ATOM     83  C   UNL     1      12.982   0.501 -12.304  1.00  0.00     0.023 A 
ATOM     84  C   UNL     1      12.146   0.079 -13.356  1.00  0.00     0.012 A 
ATOM     85  C   UNL     1      14.364   0.651 -12.536  1.00  0.00     0.148 A 
ATOM     86  C   UNL     1      12.680  -0.218 -14.610  1.00  0.00     0.002 A 
ATOM     87  C   UNL     1      14.881   0.404 -13.802  1.00  0.00     0.091 A 
ATOM     88  F   UNL     1      15.145   1.038 -11.517  1.00  0.00    -0.205 F 
ATOM     89  C   UNL     1      14.043  -0.044 -14.836  1.00  0.00     0.022 A 
BRANCH  87  90
ATOM     90  S   UNL     1      16.605   0.696 -14.214  1.00  0.00     0.127 S 
ATOM     91  O   UNL     1      17.099  -0.666 -14.408  1.00  0.00    -0.237 OA
ATOM     92  O   UNL     1      16.499   1.486 -15.441  1.00  0.00    -0.237 OA
ATOM     93  O   UNL     1      17.176   1.410 -13.081  1.00  0.00    -0.744 OA
ENDBRANCH  87  90
ENDBRANCH  60  83
ENDBRANCH  34  35
ENDBRANCH  26  29
ENDBRANCH  24  25
ENDBRANCH  23  24
ENDBRANCH   1  23
TORSDOF 17
