REMARK SMILES CC(C)C[C@H](CNc1cccc(F)c1C#N)CC(=O)NCCCNC(=O)c1ccc(-c2c3nc(c(-c4cccc(S(=O)(=O)[O-])c4F)c4ccc([nH]4)c(-c4cccc(S(=O)(=O)[O-])c4F)c4nc(c(-c5cccc(S(=O)(=O)[O-])c5F)c5ccc2[nH]5)C=C4)C=C3)cc1
REMARK SMILES IDX 21 1 20 2 18 3 19 4 17 6 5 7 4 8 2 9 1 10 3 11 6 12 7 13
REMARK SMILES IDX 8 15 9 16 14 17 10 18 12 19 11 20 13 21 15 22 16 23 22 24
REMARK SMILES IDX 23 25 24 26 25 27 26 29 27 30 28 31 89 32 29 33 88 34 30 35
REMARK SMILES IDX 31 36 32 37 82 38 33 39 87 40 81 41 83 42 34 43 86 44 80 45
REMARK SMILES IDX 79 46 35 48 67 49 47 50 66 51 48 52 51 53 65 54 84 55 49 56
REMARK SMILES IDX 50 57 64 59 85 60 52 61 36 62 37 63 45 64 38 65 40 66 46 67
REMARK SMILES IDX 39 68 41 69 42 70 43 71 44 72 68 73 69 74 77 75 70 76 72 77
REMARK SMILES IDX 78 78 71 79 73 80 74 81 75 82 76 83 53 84 54 85 62 86 55 87
REMARK SMILES IDX 57 88 63 89 56 90 58 91 59 92 60 93 61 94
REMARK H PARENT 20 5 7 14 24 28 83 47 51 58
REMARK Flexibility Score: inf
ROOT
ATOM      1  C   UNL     1      -3.118  -2.450   0.369  1.00  0.00     0.117 C 
ENDROOT
BRANCH   1   2
ATOM      2  N   UNL     1      -3.596  -1.093   0.571  1.00  0.00    -0.356 N 
ATOM      3  C   UNL     1      -3.405   0.029  -0.180  1.00  0.00     0.220 C 
ATOM      4  O   UNL     1      -3.776   1.108   0.287  1.00  0.00    -0.275 OA
ATOM      5  H   UNL     1      -4.145  -0.962   1.377  1.00  0.00     0.163 HD
BRANCH   3   6
ATOM      6  C   UNL     1      -2.808  -0.047  -1.579  1.00  0.00     0.105 C 
BRANCH   6   7
ATOM      7  C   UNL     1      -1.300   0.289  -1.679  1.00  0.00     0.018 C 
BRANCH   7   8
ATOM      8  C   UNL     1      -0.942   0.660  -3.136  1.00  0.00     0.009 C 
BRANCH   8   9
ATOM      9  C   UNL     1      -0.907   2.170  -3.432  1.00  0.00    -0.017 C 
ATOM     10  C   UNL     1       0.080   2.926  -2.538  1.00  0.00     0.007 C 
ATOM     11  C   UNL     1      -0.512   2.368  -4.899  1.00  0.00     0.007 C 
ENDBRANCH   8   9
ENDBRANCH   7   8
BRANCH   7  12
ATOM     12  C   UNL     1      -0.415  -0.887  -1.239  1.00  0.00     0.117 C 
BRANCH  12  13
ATOM     13  N   UNL     1       0.985  -0.507  -1.087  1.00  0.00    -0.384 N 
ATOM     14  H   UNL     1       1.494  -0.176  -1.862  1.00  0.00     0.160 HD
BRANCH  13  15
ATOM     15  C   UNL     1       1.602  -0.616   0.163  1.00  0.00     0.055 A 
ATOM     16  C   UNL     1       1.973   0.577   0.806  1.00  0.00     0.027 A 
ATOM     17  C   UNL     1       1.776  -1.827   0.862  1.00  0.00     0.111 A 
ATOM     18  C   UNL     1       2.486   0.578   2.107  1.00  0.00     0.005 A 
ATOM     19  C   UNL     1       2.270  -1.810   2.170  1.00  0.00     0.143 A 
ATOM     20  C   UNL     1       2.624  -0.621   2.796  1.00  0.00     0.041 A 
ATOM     21  F   UNL     1       2.384  -2.953   2.861  1.00  0.00    -0.205 F 
BRANCH  17  22
ATOM     22  C   UNL     1       1.492  -3.097   0.268  1.00  0.00     0.104 C 
ATOM     23  N   UNL     1       1.204  -4.126  -0.195  1.00  0.00    -0.192 NA
ENDBRANCH  17  22
ENDBRANCH  13  15
ENDBRANCH  12  13
ENDBRANCH   7  12
ENDBRANCH   6   7
ENDBRANCH   3   6
ENDBRANCH   1   2
BRANCH   1  24
ATOM     24  C   UNL     1      -1.884  -2.719   1.222  1.00  0.00     0.042 C 
BRANCH  24  25
ATOM     25  C   UNL     1      -2.126  -3.194   2.635  1.00  0.00     0.118 C 
BRANCH  25  26
ATOM     26  N   UNL     1      -2.495  -4.591   2.698  1.00  0.00    -0.352 N 
ATOM     27  C   UNL     1      -1.792  -5.679   3.157  1.00  0.00     0.251 C 
ATOM     28  H   UNL     1      -3.395  -4.795   2.356  1.00  0.00     0.163 HD
ATOM     29  O   UNL     1      -2.253  -6.799   2.940  1.00  0.00    -0.269 OA
BRANCH  27  30
ATOM     30  C   UNL     1      -0.506  -5.542   3.892  1.00  0.00     0.039 A 
ATOM     31  C   UNL     1       0.454  -6.548   3.736  1.00  0.00     0.014 A 
ATOM     32  C   UNL     1      -0.245  -4.491   4.775  1.00  0.00     0.014 A 
ATOM     33  C   UNL     1       1.667  -6.479   4.429  1.00  0.00     0.010 A 
ATOM     34  C   UNL     1       1.010  -4.362   5.371  1.00  0.00     0.010 A 
ATOM     35  C   UNL     1       1.974  -5.368   5.231  1.00  0.00    -0.014 A 
BRANCH  35  36
ATOM     36  C   UNL     1       3.280  -5.265   5.940  1.00  0.00     0.031 A 
ATOM     37  C   UNL     1       3.330  -5.147   7.444  1.00  0.00     0.074 A 
ATOM     38  C   UNL     1       4.428  -5.233   5.233  1.00  0.00     0.049 A 
ATOM     39  N   UNL     1       4.372  -5.029   8.229  1.00  0.00    -0.248 NA
ATOM     40  C   UNL     1       2.044  -5.135   8.161  1.00  0.00     0.031 C 
ATOM     41  C   UNL     1       4.522  -5.273   3.772  1.00  0.00     0.029 A 
ATOM     42  N   UNL     1       5.736  -5.145   5.646  1.00  0.00    -0.354 N 
ATOM     43  C   UNL     1       3.868  -4.896   9.518  1.00  0.00     0.074 A 
ATOM     44  C   UNL     1       2.426  -4.904   9.408  1.00  0.00     0.031 C 
ATOM     45  C   UNL     1       5.814  -5.229   3.412  1.00  0.00     0.029 A 
ATOM     46  C   UNL     1       6.640  -5.111   4.609  1.00  0.00     0.049 A 
ATOM     47  H   UNL     1       6.000  -5.109   6.593  1.00  0.00     0.167 HD
ATOM     48  C   UNL     1       4.538  -4.802  10.691  1.00  0.00     0.034 A 
ATOM     49  C   UNL     1       7.982  -4.984   4.617  1.00  0.00     0.034 A 
ATOM     50  C   UNL     1       5.972  -4.821  10.805  1.00  0.00     0.049 A 
ATOM     51  C   UNL     1       8.703  -4.886   5.933  1.00  0.00     0.074 A 
ATOM     52  C   UNL     1       6.742  -4.809  11.954  1.00  0.00     0.029 A 
ATOM     53  N   UNL     1       6.852  -4.837   9.735  1.00  0.00    -0.354 N 
ATOM     54  N   UNL     1       8.212  -4.901   7.148  1.00  0.00    -0.248 NA
ATOM     55  C   UNL     1      10.169  -4.787   5.881  1.00  0.00     0.031 C 
ATOM     56  C   UNL     1       8.088  -4.763  11.578  1.00  0.00     0.029 A 
ATOM     57  C   UNL     1       8.158  -4.810  10.195  1.00  0.00     0.049 A 
ATOM     58  H   UNL     1       6.588  -4.864   8.786  1.00  0.00     0.167 HD
ATOM     59  C   UNL     1       9.307  -4.854   8.004  1.00  0.00     0.074 A 
ATOM     60  C   UNL     1      10.489  -4.829   7.168  1.00  0.00     0.031 C 
ATOM     61  C   UNL     1       9.330  -4.826   9.359  1.00  0.00     0.034 A 
BRANCH  48  62
ATOM     62  C   UNL     1       3.727  -4.691  11.958  1.00  0.00     0.023 A 
ATOM     63  C   UNL     1       2.969  -5.791  12.410  1.00  0.00     0.012 A 
ATOM     64  C   UNL     1       3.763  -3.515  12.734  1.00  0.00     0.148 A 
ATOM     65  C   UNL     1       2.226  -5.708  13.588  1.00  0.00     0.002 A 
ATOM     66  C   UNL     1       3.064  -3.458  13.933  1.00  0.00     0.091 A 
ATOM     67  F   UNL     1       4.477  -2.473  12.283  1.00  0.00    -0.205 F 
ATOM     68  C   UNL     1       2.283  -4.547  14.354  1.00  0.00     0.022 A 
BRANCH  66  69
ATOM     69  S   UNL     1       3.138  -2.041  15.034  1.00  0.00     0.127 S 
ATOM     70  O   UNL     1       1.771  -1.528  14.946  1.00  0.00    -0.237 OA
ATOM     71  O   UNL     1       3.474  -2.665  16.313  1.00  0.00    -0.237 OA
ATOM     72  O   UNL     1       4.166  -1.163  14.494  1.00  0.00    -0.744 OA
ENDBRANCH  66  69
ENDBRANCH  48  62
BRANCH  49  73
ATOM     73  C   UNL     1       8.738  -4.970   3.332  1.00  0.00     0.023 A 
ATOM     74  C   UNL     1       9.593  -6.042   3.011  1.00  0.00     0.012 A 
ATOM     75  C   UNL     1       8.608  -3.900   2.426  1.00  0.00     0.148 A 
ATOM     76  C   UNL     1      10.336  -6.030   1.830  1.00  0.00     0.002 A 
ATOM     77  C   UNL     1       9.305  -3.922   1.224  1.00  0.00     0.091 A 
ATOM     78  F   UNL     1       7.796  -2.886   2.754  1.00  0.00    -0.205 F 
ATOM     79  C   UNL     1      10.185  -4.976   0.933  1.00  0.00     0.022 A 
BRANCH  77  80
ATOM     80  S   UNL     1       9.084  -2.667  -0.041  1.00  0.00     0.127 S 
ATOM     81  O   UNL     1      10.392  -2.015  -0.047  1.00  0.00    -0.237 OA
ATOM     82  O   UNL     1       8.794  -3.479  -1.222  1.00  0.00    -0.237 OA
ATOM     83  O   UNL     1       7.973  -1.839   0.410  1.00  0.00    -0.744 OA
ENDBRANCH  77  80
ENDBRANCH  49  73
BRANCH  61  84
ATOM     84  C   UNL     1      10.676  -4.821  10.039  1.00  0.00     0.023 A 
ATOM     85  C   UNL     1      11.504  -3.683   9.971  1.00  0.00     0.012 A 
ATOM     86  C   UNL     1      11.088  -5.930  10.805  1.00  0.00     0.148 A 
ATOM     87  C   UNL     1      12.738  -3.665  10.621  1.00  0.00     0.002 A 
ATOM     88  C   UNL     1      12.291  -5.883  11.496  1.00  0.00     0.091 A 
ATOM     89  F   UNL     1      10.293  -7.009  10.845  1.00  0.00    -0.205 F 
ATOM     90  C   UNL     1      13.125  -4.759  11.393  1.00  0.00     0.022 A 
BRANCH  88  91
ATOM     91  S   UNL     1      12.826  -7.200  12.594  1.00  0.00     0.127 S 
ATOM     92  O   UNL     1      13.980  -7.737  11.873  1.00  0.00    -0.237 OA
ATOM     93  O   UNL     1      13.158  -6.466  13.815  1.00  0.00    -0.237 OA
ATOM     94  O   UNL     1      11.695  -8.108  12.719  1.00  0.00    -0.744 OA
ENDBRANCH  88  91
ENDBRANCH  61  84
ENDBRANCH  35  36
ENDBRANCH  27  30
ENDBRANCH  25  26
ENDBRANCH  24  25
ENDBRANCH   1  24
TORSDOF 20
