REMARK SMILES CC(C)NC(=O)c1cccc(NC(=O)[C@@H]2[C@H](C(=O)NCCCNC(=O)c3ccc(-c4c5nc(c(-c6cccc(S(=O)(=O)[O-])c6F)c6ccc([nH]6)c(-c6cccc(S(=O)(=O)[O-])c6F)c6nc(c(-c7cccc(S(=O)(=O)[O-])c7F)c7ccc4[nH]7)C=C6)C=C5)cc3)C2(C)C)c1
REMARK SMILES IDX 20 1 19 2 17 3 18 4 16 6 15 7 89 8 90 9 91 10 13 11 12 12
REMARK SMILES IDX 14 14 11 15 7 16 8 17 92 18 9 19 10 20 5 21 4 22 6 24 2 25
REMARK SMILES IDX 1 26 3 27 21 28 22 29 23 30 24 31 25 33 26 34 27 35 88 36
REMARK SMILES IDX 28 37 87 38 29 39 30 40 31 41 81 42 32 43 86 44 80 45 82 46
REMARK SMILES IDX 33 47 85 48 79 49 78 50 34 52 66 53 46 54 65 55 47 56 50 57
REMARK SMILES IDX 64 58 83 59 48 60 49 61 63 63 84 64 51 65 35 66 36 67 44 68
REMARK SMILES IDX 37 69 39 70 45 71 38 72 40 73 41 74 42 75 43 76 67 77 68 78
REMARK SMILES IDX 76 79 69 80 71 81 77 82 70 83 72 84 73 85 74 86 75 87 52 88
REMARK SMILES IDX 53 89 61 90 54 91 56 92 62 93 55 94 57 95 58 96 59 97 60 98
REMARK H PARENT 19 5 12 13 4 23 23 32 82 51 50 62
REMARK Flexibility Score: inf
ROOT
ATOM      1  C   UNL     1      -0.220   6.053   1.450  1.00  0.00     0.117 C 
ENDROOT
BRANCH   1   2
ATOM      2  N   UNL     1       0.507   6.749   2.496  1.00  0.00    -0.356 N 
ATOM      3  C   UNL     1       1.800   7.188   2.499  1.00  0.00     0.224 C 
ATOM      4  O   UNL     1       2.264   7.665   3.530  1.00  0.00    -0.275 OA
ATOM      5  H   UNL     1      -0.004   6.930   3.318  1.00  0.00     0.163 HD
BRANCH   3   6
ATOM      6  C   UNL     1       2.623   7.038   1.270  1.00  0.00     0.098 C 
ATOM      7  C   UNL     1       2.443   7.949   0.051  1.00  0.00     0.098 C 
ATOM      8  C   UNL     1       3.725   8.018   0.859  1.00  0.00    -0.011 C 
ATOM      9  C   UNL     1       4.923   7.417   0.117  1.00  0.00     0.013 C 
ATOM     10  C   UNL     1       4.187   9.153   1.733  1.00  0.00     0.013 C 
BRANCH   7  11
ATOM     11  C   UNL     1       1.088   8.516  -0.188  1.00  0.00     0.228 C 
ATOM     12  N   UNL     1       0.585   9.773  -0.017  1.00  0.00    -0.326 N 
ATOM     13  H   UNL     1      -0.178   9.935  -0.618  1.00  0.00     0.169 HD
ATOM     14  O   UNL     1       0.329   7.782  -0.836  1.00  0.00    -0.274 OA
BRANCH  12  15
ATOM     15  C   UNL     1       0.851  10.886   0.768  1.00  0.00     0.041 A 
ATOM     16  C   UNL     1       0.367  13.197   1.282  1.00  0.00     0.041 A 
ATOM     17  C   UNL     1       1.272  13.180   2.341  1.00  0.00     0.014 A 
ATOM     18  C   UNL     1       0.187  12.077   0.462  1.00  0.00     0.040 A 
ATOM     19  C   UNL     1       1.884  11.981   2.671  1.00  0.00     0.003 A 
ATOM     20  C   UNL     1       1.607  10.836   1.921  1.00  0.00     0.026 A 
BRANCH  16  21
ATOM     21  C   UNL     1      -0.508  14.371   1.146  1.00  0.00     0.251 C 
ATOM     22  N   UNL     1      -1.810  14.259   1.570  1.00  0.00    -0.350 N 
ATOM     23  H   UNL     1      -2.349  15.080   1.505  1.00  0.00     0.164 HD
ATOM     24  O   UNL     1      -0.058  15.429   0.722  1.00  0.00    -0.269 OA
BRANCH  22  25
ATOM     25  C   UNL     1      -2.508  13.087   2.106  1.00  0.00     0.076 C 
ATOM     26  C   UNL     1      -3.001  13.352   3.525  1.00  0.00     0.030 C 
ATOM     27  C   UNL     1      -3.662  12.720   1.179  1.00  0.00     0.030 C 
ENDBRANCH  22  25
ENDBRANCH  16  21
ENDBRANCH  12  15
ENDBRANCH   7  11
ENDBRANCH   3   6
ENDBRANCH   1   2
BRANCH   1  28
ATOM     28  C   UNL     1      -0.806   4.731   1.919  1.00  0.00     0.042 C 
BRANCH  28  29
ATOM     29  C   UNL     1      -1.810   4.854   3.057  1.00  0.00     0.118 C 
BRANCH  29  30
ATOM     30  N   UNL     1      -3.016   5.588   2.694  1.00  0.00    -0.352 N 
ATOM     31  C   UNL     1      -4.318   5.162   2.574  1.00  0.00     0.251 C 
ATOM     32  H   UNL     1      -2.876   6.544   2.503  1.00  0.00     0.163 HD
ATOM     33  O   UNL     1      -5.167   5.927   2.124  1.00  0.00    -0.269 OA
BRANCH  31  34
ATOM     34  C   UNL     1      -4.695   3.782   2.955  1.00  0.00     0.039 A 
ATOM     35  C   UNL     1      -5.550   3.056   2.120  1.00  0.00     0.014 A 
ATOM     36  C   UNL     1      -4.206   3.198   4.125  1.00  0.00     0.014 A 
ATOM     37  C   UNL     1      -5.841   1.720   2.416  1.00  0.00     0.010 A 
ATOM     38  C   UNL     1      -4.412   1.843   4.361  1.00  0.00     0.010 A 
ATOM     39  C   UNL     1      -5.237   1.089   3.515  1.00  0.00    -0.014 A 
BRANCH  39  40
ATOM     40  C   UNL     1      -5.444  -0.355   3.803  1.00  0.00     0.031 A 
ATOM     41  C   UNL     1      -6.049  -0.787   5.112  1.00  0.00     0.074 A 
ATOM     42  C   UNL     1      -4.988  -1.282   2.936  1.00  0.00     0.049 A 
ATOM     43  N   UNL     1      -6.231  -1.995   5.580  1.00  0.00    -0.248 NA
ATOM     44  C   UNL     1      -6.473   0.280   6.035  1.00  0.00     0.031 C 
ATOM     45  C   UNL     1      -4.308  -0.998   1.671  1.00  0.00     0.029 A 
ATOM     46  N   UNL     1      -5.005  -2.653   3.001  1.00  0.00    -0.354 N 
ATOM     47  C   UNL     1      -6.736  -1.833   6.864  1.00  0.00     0.074 A 
ATOM     48  C   UNL     1      -6.800  -0.411   7.117  1.00  0.00     0.031 C 
ATOM     49  C   UNL     1      -3.992  -2.156   1.070  1.00  0.00     0.029 A 
ATOM     50  C   UNL     1      -4.416  -3.265   1.919  1.00  0.00     0.049 A 
ATOM     51  H   UNL     1      -5.402  -3.152   3.752  1.00  0.00     0.167 HD
ATOM     52  C   UNL     1      -7.144  -2.779   7.744  1.00  0.00     0.034 A 
ATOM     53  C   UNL     1      -4.241  -4.572   1.639  1.00  0.00     0.034 A 
ATOM     54  C   UNL     1      -7.148  -4.188   7.463  1.00  0.00     0.049 A 
ATOM     55  C   UNL     1      -4.754  -5.603   2.608  1.00  0.00     0.074 A 
ATOM     56  C   UNL     1      -7.652  -5.219   8.237  1.00  0.00     0.029 A 
ATOM     57  N   UNL     1      -6.623  -4.767   6.318  1.00  0.00    -0.354 N 
ATOM     58  N   UNL     1      -5.386  -5.427   3.743  1.00  0.00    -0.248 NA
ATOM     59  C   UNL     1      -4.559  -7.013   2.241  1.00  0.00     0.031 C 
ATOM     60  C   UNL     1      -7.418  -6.424   7.564  1.00  0.00     0.029 A 
ATOM     61  C   UNL     1      -6.780  -6.141   6.367  1.00  0.00     0.049 A 
ATOM     62  H   UNL     1      -6.199  -4.273   5.579  1.00  0.00     0.167 HD
ATOM     63  C   UNL     1      -5.698  -6.699   4.207  1.00  0.00     0.074 A 
ATOM     64  C   UNL     1      -5.199  -7.637   3.221  1.00  0.00     0.031 C 
ATOM     65  C   UNL     1      -6.330  -7.059   5.352  1.00  0.00     0.034 A 
BRANCH  52  66
ATOM     66  C   UNL     1      -7.679  -2.308   9.072  1.00  0.00     0.023 A 
ATOM     67  C   UNL     1      -8.931  -1.661   9.126  1.00  0.00     0.012 A 
ATOM     68  C   UNL     1      -6.965  -2.528  10.265  1.00  0.00     0.148 A 
ATOM     69  C   UNL     1      -9.442  -1.200  10.338  1.00  0.00     0.002 A 
ATOM     70  C   UNL     1      -7.502  -2.104  11.476  1.00  0.00     0.091 A 
ATOM     71  F   UNL     1      -5.764  -3.120  10.196  1.00  0.00    -0.205 F 
ATOM     72  C   UNL     1      -8.733  -1.430  11.513  1.00  0.00     0.022 A 
BRANCH  70  73
ATOM     73  S   UNL     1      -6.692  -2.428  13.047  1.00  0.00     0.127 S 
ATOM     74  O   UNL     1      -6.065  -1.138  13.328  1.00  0.00    -0.237 OA
ATOM     75  O   UNL     1      -7.821  -2.759  13.919  1.00  0.00    -0.237 OA
ATOM     76  O   UNL     1      -5.781  -3.536  12.799  1.00  0.00    -0.744 OA
ENDBRANCH  70  73
ENDBRANCH  52  66
BRANCH  53  77
ATOM     77  C   UNL     1      -3.644  -4.978   0.336  1.00  0.00     0.023 A 
ATOM     78  C   UNL     1      -4.479  -5.546  -0.646  1.00  0.00     0.012 A 
ATOM     79  C   UNL     1      -2.283  -4.769   0.042  1.00  0.00     0.148 A 
ATOM     80  C   UNL     1      -3.967  -5.923  -1.887  1.00  0.00     0.002 A 
ATOM     81  C   UNL     1      -1.789  -5.101  -1.215  1.00  0.00     0.091 A 
ATOM     82  F   UNL     1      -1.503  -4.236   0.993  1.00  0.00    -0.205 F 
ATOM     83  C   UNL     1      -2.626  -5.691  -2.175  1.00  0.00     0.022 A 
BRANCH  81  84
ATOM     84  S   UNL     1      -0.106  -4.728  -1.722  1.00  0.00     0.127 S 
ATOM     85  O   UNL     1       0.484  -6.062  -1.806  1.00  0.00    -0.237 OA
ATOM     86  O   UNL     1      -0.319  -4.066  -3.010  1.00  0.00    -0.237 OA
ATOM     87  O   UNL     1       0.435  -3.861  -0.684  1.00  0.00    -0.744 OA
ENDBRANCH  81  84
ENDBRANCH  53  77
BRANCH  65  88
ATOM     88  C   UNL     1      -6.549  -8.529   5.596  1.00  0.00     0.023 A 
ATOM     89  C   UNL     1      -5.463  -9.344   5.971  1.00  0.00     0.012 A 
ATOM     90  C   UNL     1      -7.842  -9.085   5.534  1.00  0.00     0.148 A 
ATOM     91  C   UNL     1      -5.656 -10.695   6.254  1.00  0.00     0.002 A 
ATOM     92  C   UNL     1      -8.034 -10.422   5.861  1.00  0.00     0.091 A 
ATOM     93  F   UNL     1      -8.860  -8.298   5.154  1.00  0.00    -0.205 F 
ATOM     94  C   UNL     1      -6.941 -11.231   6.211  1.00  0.00     0.022 A 
BRANCH  92  95
ATOM     95  S   UNL     1      -9.668 -11.168   5.925  1.00  0.00     0.127 S 
ATOM     96  O   UNL     1      -9.683 -11.958   4.695  1.00  0.00    -0.237 OA
ATOM     97  O   UNL     1      -9.604 -11.957   7.156  1.00  0.00    -0.237 OA
ATOM     98  O   UNL     1     -10.610 -10.058   5.971  1.00  0.00    -0.744 OA
ENDBRANCH  92  95
ENDBRANCH  65  88
ENDBRANCH  39  40
ENDBRANCH  31  34
ENDBRANCH  29  30
ENDBRANCH  28  29
ENDBRANCH   1  28
TORSDOF 17
