REMARK SMILES CCC(CC)COc1cc2c(cc1Cl)C=C(C(=O)NCCCNC(=O)c1ccc(-c3c4nc(c(-c5cccc(S(=O)(=O)[O-])c5F)c5ccc([nH]5)c(-c5cccc(S(=O)(=O)[O-])c5F)c5nc(c(-c6cccc(S(=O)(=O)[O-])c6F)c6ccc3[nH]6)C=C5)C=C4)cc1)[C@@H](C(F)(F)F)O2
REMARK SMILES IDX 20 1 19 2 17 3 18 4 16 6 8 7 9 8 13 9 10 10 12 11 14 12
REMARK SMILES IDX 11 13 94 14 15 15 89 16 7 17 6 18 3 19 2 20 1 21 4 22 5 23
REMARK SMILES IDX 90 24 91 25 92 26 93 27 21 28 22 29 23 30 24 31 25 33 26 34
REMARK SMILES IDX 27 35 88 36 28 37 87 38 29 39 30 40 31 41 81 42 32 43 86 44
REMARK SMILES IDX 80 45 82 46 33 47 85 48 79 49 78 50 34 52 66 53 46 54 65 55
REMARK SMILES IDX 47 56 50 57 64 58 83 59 48 60 49 61 63 63 84 64 51 65 35 66
REMARK SMILES IDX 36 67 44 68 37 69 39 70 45 71 38 72 40 73 41 74 42 75 43 76
REMARK SMILES IDX 67 77 68 78 76 79 69 80 71 81 77 82 70 83 72 84 73 85 74 86
REMARK SMILES IDX 75 87 52 88 53 89 61 90 54 91 56 92 62 93 55 94 57 95 58 96
REMARK SMILES IDX 59 97 60 98
REMARK H PARENT 19 5 23 32 82 51 50 62
REMARK Flexibility Score: inf
ROOT
ATOM      1  C   UNL     1      -0.320  -1.077  -9.975  1.00  0.00     0.118 C 
ENDROOT
BRANCH   1   2
ATOM      2  N   UNL     1      -0.362   0.107  -9.134  1.00  0.00    -0.352 N 
ATOM      3  C   UNL     1      -0.167   0.387  -7.828  1.00  0.00     0.251 C 
ATOM      4  O   UNL     1      -0.296   1.574  -7.512  1.00  0.00    -0.270 OA
ATOM      5  H   UNL     1      -0.593   0.914  -9.650  1.00  0.00     0.163 HD
BRANCH   3   6
ATOM      6  C   UNL     1       0.195  -0.614  -6.795  1.00  0.00     0.067 C 
ATOM      7  C   UNL     1       1.477  -2.852  -2.521  1.00  0.00     0.141 A 
ATOM      8  C   UNL     1       0.598  -3.208  -3.545  1.00  0.00     0.095 A 
ATOM      9  C   UNL     1       2.236  -1.675  -2.620  1.00  0.00     0.083 A 
ATOM     10  C   UNL     1       0.417  -2.327  -4.604  1.00  0.00     0.131 A 
ATOM     11  C   UNL     1       1.947  -0.743  -3.614  1.00  0.00     0.036 A 
ATOM     12  Cl  UNL     1       3.525  -1.318  -1.531  1.00  0.00    -0.080 Cl
ATOM     13  C   UNL     1       1.012  -1.059  -4.593  1.00  0.00     0.019 A 
ATOM     14  O   UNL     1      -0.331  -2.744  -5.679  1.00  0.00    -0.475 OA
ATOM     15  C   UNL     1       0.654  -0.109  -5.636  1.00  0.00     0.025 C 
ATOM     16  C   UNL     1       0.083  -2.108  -6.934  1.00  0.00     0.314 C 
BRANCH   7  17
ATOM     17  O   UNL     1       1.611  -3.674  -1.433  1.00  0.00    -0.492 OA
BRANCH  17  18
ATOM     18  C   UNL     1       0.513  -3.532  -0.499  1.00  0.00     0.233 C 
BRANCH  18  19
ATOM     19  C   UNL     1       0.714  -2.316   0.441  1.00  0.00     0.026 C 
BRANCH  19  20
ATOM     20  C   UNL     1       0.006  -1.054  -0.108  1.00  0.00     0.003 C 
ATOM     21  C   UNL     1       0.560   0.236   0.479  1.00  0.00     0.004 C 
ENDBRANCH  19  20
BRANCH  19  22
ATOM     22  C   UNL     1       0.308  -2.629   1.896  1.00  0.00     0.003 C 
ATOM     23  C   UNL     1      -1.182  -2.810   2.141  1.00  0.00     0.004 C 
ENDBRANCH  19  22
ENDBRANCH  18  19
ENDBRANCH  17  18
ENDBRANCH   7  17
BRANCH  16  24
ATOM     24  C   UNL     1       1.395  -2.737  -7.474  1.00  0.00     0.429 C 
ATOM     25  F   UNL     1       1.153  -3.950  -8.026  1.00  0.00    -0.167 F 
ATOM     26  F   UNL     1       1.967  -1.977  -8.441  1.00  0.00    -0.167 F 
ATOM     27  F   UNL     1       2.343  -2.909  -6.525  1.00  0.00    -0.167 F 
ENDBRANCH  16  24
ENDBRANCH   3   6
ENDBRANCH   1   2
BRANCH   1  28
ATOM     28  C   UNL     1      -1.696  -1.415 -10.522  1.00  0.00     0.042 C 
BRANCH  28  29
ATOM     29  C   UNL     1      -2.126  -0.460 -11.626  1.00  0.00     0.118 C 
BRANCH  29  30
ATOM     30  N   UNL     1      -1.334  -0.635 -12.839  1.00  0.00    -0.352 N 
ATOM     31  C   UNL     1      -1.688  -1.177 -14.057  1.00  0.00     0.251 C 
ATOM     32  H   UNL     1      -0.405  -0.316 -12.780  1.00  0.00     0.163 HD
ATOM     33  O   UNL     1      -0.824  -1.454 -14.873  1.00  0.00    -0.269 OA
BRANCH  31  34
ATOM     34  C   UNL     1      -3.115  -1.439 -14.343  1.00  0.00     0.039 A 
ATOM     35  C   UNL     1      -4.081  -0.504 -13.976  1.00  0.00     0.014 A 
ATOM     36  C   UNL     1      -3.493  -2.637 -14.954  1.00  0.00     0.014 A 
ATOM     37  C   UNL     1      -5.422  -0.854 -14.014  1.00  0.00     0.010 A 
ATOM     38  C   UNL     1      -4.851  -2.936 -15.104  1.00  0.00     0.010 A 
ATOM     39  C   UNL     1      -5.827  -2.073 -14.583  1.00  0.00    -0.014 A 
BRANCH  39  40
ATOM     40  C   UNL     1      -7.276  -2.399 -14.624  1.00  0.00     0.031 A 
ATOM     41  C   UNL     1      -7.821  -3.612 -13.919  1.00  0.00     0.074 A 
ATOM     42  C   UNL     1      -8.114  -1.552 -15.256  1.00  0.00     0.049 A 
ATOM     43  N   UNL     1      -9.059  -4.030 -13.852  1.00  0.00    -0.248 NA
ATOM     44  C   UNL     1      -6.865  -4.472 -13.200  1.00  0.00     0.031 C 
ATOM     45  C   UNL     1      -7.701  -0.354 -15.993  1.00  0.00     0.029 A 
ATOM     46  N   UNL     1      -9.481  -1.552 -15.366  1.00  0.00    -0.354 N 
ATOM     47  C   UNL     1      -9.026  -5.216 -13.129  1.00  0.00     0.074 A 
ATOM     48  C   UNL     1      -7.645  -5.458 -12.774  1.00  0.00     0.031 C 
ATOM     49  C   UNL     1      -8.790   0.289 -16.436  1.00  0.00     0.029 A 
ATOM     50  C   UNL     1      -9.973  -0.482 -16.076  1.00  0.00     0.049 A 
ATOM     51  H   UNL     1     -10.054  -2.250 -14.975  1.00  0.00     0.167 HD
ATOM     52  C   UNL     1     -10.056  -6.019 -12.777  1.00  0.00     0.034 A 
ATOM     53  C   UNL     1     -11.235  -0.161 -16.421  1.00  0.00     0.034 A 
ATOM     54  C   UNL     1     -11.435  -5.745 -13.075  1.00  0.00     0.049 A 
ATOM     55  C   UNL     1     -12.358  -1.052 -15.988  1.00  0.00     0.074 A 
ATOM     56  C   UNL     1     -12.550  -6.489 -12.731  1.00  0.00     0.029 A 
ATOM     57  N   UNL     1     -11.891  -4.637 -13.771  1.00  0.00    -0.354 N 
ATOM     58  N   UNL     1     -12.305  -2.141 -15.261  1.00  0.00    -0.248 NA
ATOM     59  C   UNL     1     -13.714  -0.672 -16.409  1.00  0.00     0.031 C 
ATOM     60  C   UNL     1     -13.681  -5.829 -13.215  1.00  0.00     0.029 A 
ATOM     61  C   UNL     1     -13.271  -4.673 -13.858  1.00  0.00     0.049 A 
ATOM     62  H   UNL     1     -11.318  -3.931 -14.148  1.00  0.00     0.167 HD
ATOM     63  C   UNL     1     -13.616  -2.577 -15.135  1.00  0.00     0.074 A 
ATOM     64  C   UNL     1     -14.447  -1.618 -15.835  1.00  0.00     0.031 C 
ATOM     65  C   UNL     1     -14.084  -3.686 -14.515  1.00  0.00     0.034 A 
BRANCH  52  66
ATOM     66  C   UNL     1      -9.761  -7.253 -11.970  1.00  0.00     0.023 A 
ATOM     67  C   UNL     1      -9.592  -7.134 -10.577  1.00  0.00     0.012 A 
ATOM     68  C   UNL     1      -9.789  -8.531 -12.562  1.00  0.00     0.148 A 
ATOM     69  C   UNL     1      -9.457  -8.271  -9.781  1.00  0.00     0.002 A 
ATOM     70  C   UNL     1      -9.681  -9.660 -11.760  1.00  0.00     0.091 A 
ATOM     71  F   UNL     1      -9.946  -8.613 -13.891  1.00  0.00    -0.205 F 
ATOM     72  C   UNL     1      -9.512  -9.532 -10.371  1.00  0.00     0.022 A 
BRANCH  70  73
ATOM     73  S   UNL     1      -9.794 -11.333 -12.406  1.00  0.00     0.127 S 
ATOM     74  O   UNL     1      -8.484 -11.877 -12.047  1.00  0.00    -0.237 OA
ATOM     75  O   UNL     1     -10.913 -11.880 -11.639  1.00  0.00    -0.237 OA
ATOM     76  O   UNL     1     -10.032 -11.199 -13.836  1.00  0.00    -0.744 OA
ENDBRANCH  70  73
ENDBRANCH  52  66
BRANCH  53  77
ATOM     77  C   UNL     1     -11.477   1.078 -17.207  1.00  0.00     0.023 A 
ATOM     78  C   UNL     1     -12.039   2.203 -16.577  1.00  0.00     0.012 A 
ATOM     79  C   UNL     1     -11.064   1.170 -18.551  1.00  0.00     0.148 A 
ATOM     80  C   UNL     1     -12.189   3.402 -17.275  1.00  0.00     0.002 A 
ATOM     81  C   UNL     1     -11.169   2.380 -19.224  1.00  0.00     0.091 A 
ATOM     82  F   UNL     1     -10.541   0.080 -19.129  1.00  0.00    -0.205 F 
ATOM     83  C   UNL     1     -11.742   3.495 -18.591  1.00  0.00     0.022 A 
BRANCH  81  84
ATOM     84  S   UNL     1     -10.498   2.626 -20.871  1.00  0.00     0.127 S 
ATOM     85  O   UNL     1     -11.713   2.772 -21.669  1.00  0.00    -0.237 OA
ATOM     86  O   UNL     1      -9.721   3.854 -20.699  1.00  0.00    -0.237 OA
ATOM     87  O   UNL     1      -9.696   1.443 -21.151  1.00  0.00    -0.744 OA
ENDBRANCH  81  84
ENDBRANCH  53  77
BRANCH  65  88
ATOM     88  C   UNL     1     -15.563  -3.938 -14.553  1.00  0.00     0.023 A 
ATOM     89  C   UNL     1     -16.132  -4.511 -15.706  1.00  0.00     0.012 A 
ATOM     90  C   UNL     1     -16.358  -3.731 -13.409  1.00  0.00     0.148 A 
ATOM     91  C   UNL     1     -17.477  -4.871 -15.723  1.00  0.00     0.002 A 
ATOM     92  C   UNL     1     -17.690  -4.122 -13.423  1.00  0.00     0.091 A 
ATOM     93  F   UNL     1     -15.789  -3.176 -12.329  1.00  0.00    -0.205 F 
ATOM     94  C   UNL     1     -18.252  -4.688 -14.580  1.00  0.00     0.022 A 
BRANCH  92  95
ATOM     95  S   UNL     1     -18.750  -3.996 -11.979  1.00  0.00     0.127 S 
ATOM     96  O   UNL     1     -19.715  -2.983 -12.405  1.00  0.00    -0.237 OA
ATOM     97  O   UNL     1     -19.292  -5.351 -11.875  1.00  0.00    -0.237 OA
ATOM     98  O   UNL     1     -17.885  -3.600 -10.875  1.00  0.00    -0.744 OA
ENDBRANCH  92  95
ENDBRANCH  65  88
ENDBRANCH  39  40
ENDBRANCH  31  34
ENDBRANCH  29  30
ENDBRANCH  28  29
ENDBRANCH   1  28
TORSDOF 19
