REMARK SMILES C[NH+](C)CCc1nc(Nc2ccc(O)c(C(=O)NCCCNC(=O)c3ccc(-c4c5nc(c(-c6cccc(S(=O)(=O)[O-])c6F)c6ccc([nH]6)c(-c6cccc(S(=O)(=O)[O-])c6F)c6nc(c(-c7cccc(S(=O)(=O)[O-])c7F)c7ccc4[nH]7)C=C6)C=C5)cc3)c2)c2ccccc2n1
REMARK SMILES IDX 19 1 18 2 16 3 17 4 15 6 10 7 11 8 88 9 12 10 13 11 9 12
REMARK SMILES IDX 8 14 6 15 7 16 95 17 94 18 89 19 93 20 90 21 92 22 91 23
REMARK SMILES IDX 5 24 4 25 2 26 1 27 3 28 14 30 20 32 21 33 22 34 23 35 24 37
REMARK SMILES IDX 25 38 26 39 87 40 27 41 86 42 28 43 29 44 30 45 80 46 31 47
REMARK SMILES IDX 85 48 79 49 81 50 32 51 84 52 78 53 77 54 33 56 65 57 45 58
REMARK SMILES IDX 64 59 46 60 49 61 63 62 82 63 47 64 48 65 62 67 83 68 50 69
REMARK SMILES IDX 34 70 35 71 43 72 36 73 38 74 44 75 37 76 39 77 40 78 41 79
REMARK SMILES IDX 42 80 66 81 67 82 75 83 68 84 70 85 76 86 69 87 71 88 72 89
REMARK SMILES IDX 73 90 74 91 51 92 52 93 60 94 53 95 55 96 61 97 54 98 56 99
REMARK SMILES IDX 57 100 58 101 59 102
REMARK H PARENT 18 5 9 13 2 29 14 31 22 36 81 55 49 66
REMARK Flexibility Score: inf
ROOT
ATOM      1  C   UNL     1      -0.032  10.419  -4.236  1.00  0.00     0.118 C 
ENDROOT
BRANCH   1   2
ATOM      2  N   UNL     1       0.920  10.471  -3.148  1.00  0.00    -0.352 N 
ATOM      3  C   UNL     1       1.050   9.753  -1.991  1.00  0.00     0.255 C 
ATOM      4  O   UNL     1       1.970  10.114  -1.247  1.00  0.00    -0.269 OA
ATOM      5  H   UNL     1       1.613  11.161  -3.263  1.00  0.00     0.163 HD
BRANCH   3   6
ATOM      6  C   UNL     1       0.259   8.542  -1.602  1.00  0.00     0.083 A 
ATOM      7  C   UNL     1       0.395   6.489  -0.240  1.00  0.00     0.041 A 
ATOM      8  C   UNL     1      -0.874   6.123  -0.680  1.00  0.00     0.030 A 
ATOM      9  C   UNL     1       0.949   7.681  -0.721  1.00  0.00     0.043 A 
ATOM     10  C   UNL     1      -1.599   6.969  -1.514  1.00  0.00     0.049 A 
ATOM     11  C   UNL     1      -1.049   8.183  -1.949  1.00  0.00     0.128 A 
BRANCH   7  12
ATOM     12  N   UNL     1       1.150   5.671   0.613  1.00  0.00    -0.340 N 
ATOM     13  H   UNL     1       1.602   6.122   1.363  1.00  0.00     0.168 HD
BRANCH  12  14
ATOM     14  C   UNL     1       1.336   4.278   0.518  1.00  0.00     0.142 A 
ATOM     15  C   UNL     1       1.271   2.364  -0.756  1.00  0.00     0.137 A 
ATOM     16  N   UNL     1       1.004   3.669  -0.636  1.00  0.00    -0.215 NA
ATOM     17  N   UNL     1       1.906   1.645   0.176  1.00  0.00    -0.233 NA
ATOM     18  C   UNL     1       2.141   2.225   1.355  1.00  0.00     0.076 A 
ATOM     19  C   UNL     1       1.848   3.566   1.612  1.00  0.00     0.043 A 
ATOM     20  C   UNL     1       2.662   1.446   2.381  1.00  0.00     0.029 A 
ATOM     21  C   UNL     1       2.055   4.090   2.914  1.00  0.00     0.014 A 
ATOM     22  C   UNL     1       2.857   1.956   3.667  1.00  0.00     0.002 A 
ATOM     23  C   UNL     1       2.545   3.280   3.937  1.00  0.00     0.001 A 
BRANCH  15  24
ATOM     24  C   UNL     1       0.766   1.700  -2.008  1.00  0.00     0.138 C 
BRANCH  24  25
ATOM     25  C   UNL     1       0.996   0.185  -2.166  1.00  0.00     0.269 C 
BRANCH  25  26
ATOM     26  N   UNL     1       0.165  -0.797  -1.440  1.00  0.00    -0.339 N 
ATOM     27  C   UNL     1       0.527  -0.935  -0.034  1.00  0.00     0.332 C 
ATOM     28  C   UNL     1      -1.269  -0.568  -1.579  1.00  0.00     0.332 C 
ATOM     29  H   UNL     1       0.374  -1.682  -1.901  1.00  0.00     0.347 HD
ENDBRANCH  25  26
ENDBRANCH  24  25
ENDBRANCH  15  24
ENDBRANCH  12  14
ENDBRANCH   7  12
BRANCH  11  30
ATOM     30  O   UNL     1      -1.869   8.993  -2.672  1.00  0.00    -0.507 OA
ATOM     31  H   UNL     1      -2.738   8.713  -2.882  1.00  0.00     0.293 HD
ENDBRANCH  11  30
ENDBRANCH   3   6
ENDBRANCH   1   2
BRANCH   1  32
ATOM     32  C   UNL     1      -1.185  11.395  -3.993  1.00  0.00     0.042 C 
BRANCH  32  33
ATOM     33  C   UNL     1      -0.827  12.849  -4.277  1.00  0.00     0.118 C 
BRANCH  33  34
ATOM     34  N   UNL     1      -0.664  13.094  -5.701  1.00  0.00    -0.352 N 
ATOM     35  C   UNL     1      -1.349  13.938  -6.537  1.00  0.00     0.251 C 
ATOM     36  H   UNL     1       0.051  12.573  -6.133  1.00  0.00     0.163 HD
ATOM     37  O   UNL     1      -1.225  13.802  -7.752  1.00  0.00    -0.269 OA
BRANCH  35  38
ATOM     38  C   UNL     1      -2.229  15.003  -6.001  1.00  0.00     0.039 A 
ATOM     39  C   UNL     1      -3.404  15.309  -6.696  1.00  0.00     0.014 A 
ATOM     40  C   UNL     1      -1.881  15.746  -4.869  1.00  0.00     0.014 A 
ATOM     41  C   UNL     1      -4.241  16.330  -6.239  1.00  0.00     0.010 A 
ATOM     42  C   UNL     1      -2.752  16.716  -4.372  1.00  0.00     0.010 A 
ATOM     43  C   UNL     1      -3.933  17.028  -5.060  1.00  0.00    -0.014 A 
BRANCH  43  44
ATOM     44  C   UNL     1      -4.849  18.074  -4.536  1.00  0.00     0.031 A 
ATOM     45  C   UNL     1      -4.409  19.511  -4.451  1.00  0.00     0.074 A 
ATOM     46  C   UNL     1      -6.062  17.713  -4.074  1.00  0.00     0.049 A 
ATOM     47  N   UNL     1      -5.077  20.552  -4.026  1.00  0.00    -0.248 NA
ATOM     48  C   UNL     1      -3.033  19.817  -4.876  1.00  0.00     0.031 C 
ATOM     49  C   UNL     1      -6.568  16.339  -4.018  1.00  0.00     0.029 A 
ATOM     50  N   UNL     1      -7.082  18.463  -3.545  1.00  0.00    -0.354 N 
ATOM     51  C   UNL     1      -4.199  21.627  -4.100  1.00  0.00     0.074 A 
ATOM     52  C   UNL     1      -2.938  21.107  -4.583  1.00  0.00     0.031 C 
ATOM     53  C   UNL     1      -7.803  16.346  -3.493  1.00  0.00     0.029 A 
ATOM     54  C   UNL     1      -8.169  17.717  -3.154  1.00  0.00     0.049 A 
ATOM     55  H   UNL     1      -7.039  19.442  -3.453  1.00  0.00     0.167 HD
ATOM     56  C   UNL     1      -4.429  22.933  -3.822  1.00  0.00     0.034 A 
ATOM     57  C   UNL     1      -9.332  18.095  -2.588  1.00  0.00     0.034 A 
ATOM     58  C   UNL     1      -5.698  23.451  -3.385  1.00  0.00     0.049 A 
ATOM     59  C   UNL     1      -9.584  19.558  -2.346  1.00  0.00     0.074 A 
ATOM     60  C   UNL     1      -6.063  24.769  -3.174  1.00  0.00     0.029 A 
ATOM     61  N   UNL     1      -6.808  22.677  -3.084  1.00  0.00    -0.354 N 
ATOM     62  N   UNL     1      -8.802  20.581  -2.595  1.00  0.00    -0.248 NA
ATOM     63  C   UNL     1     -10.892  19.923  -1.784  1.00  0.00     0.031 C 
ATOM     64  C   UNL     1      -7.388  24.790  -2.725  1.00  0.00     0.029 A 
ATOM     65  C   UNL     1      -7.855  23.486  -2.677  1.00  0.00     0.049 A 
ATOM     66  H   UNL     1      -6.846  21.695  -3.151  1.00  0.00     0.167 HD
ATOM     67  C   UNL     1      -9.531  21.711  -2.246  1.00  0.00     0.074 A 
ATOM     68  C   UNL     1     -10.829  21.247  -1.797  1.00  0.00     0.031 C 
ATOM     69  C   UNL     1      -9.156  23.014  -2.275  1.00  0.00     0.034 A 
BRANCH  56  70
ATOM     70  C   UNL     1      -3.299  23.907  -4.039  1.00  0.00     0.023 A 
ATOM     71  C   UNL     1      -2.906  24.232  -5.354  1.00  0.00     0.012 A 
ATOM     72  C   UNL     1      -2.671  24.550  -2.954  1.00  0.00     0.148 A 
ATOM     73  C   UNL     1      -1.886  25.153  -5.586  1.00  0.00     0.002 A 
ATOM     74  C   UNL     1      -1.684  25.500  -3.194  1.00  0.00     0.091 A 
ATOM     75  F   UNL     1      -3.043  24.216  -1.710  1.00  0.00    -0.205 F 
ATOM     76  C   UNL     1      -1.283  25.794  -4.507  1.00  0.00     0.022 A 
BRANCH  74  77
ATOM     77  S   UNL     1      -0.900  26.438  -1.877  1.00  0.00     0.127 S 
ATOM     78  O   UNL     1       0.441  25.856  -1.858  1.00  0.00    -0.237 OA
ATOM     79  O   UNL     1      -0.962  27.806  -2.394  1.00  0.00    -0.237 OA
ATOM     80  O   UNL     1      -1.702  26.203  -0.685  1.00  0.00    -0.744 OA
ENDBRANCH  74  77
ENDBRANCH  56  70
BRANCH  57  81
ATOM     81  C   UNL     1     -10.375  17.073  -2.287  1.00  0.00     0.023 A 
ATOM     82  C   UNL     1     -11.553  17.040  -3.058  1.00  0.00     0.012 A 
ATOM     83  C   UNL     1     -10.190  16.112  -1.275  1.00  0.00     0.148 A 
ATOM     84  C   UNL     1     -12.540  16.087  -2.808  1.00  0.00     0.002 A 
ATOM     85  C   UNL     1     -11.152  15.130  -1.068  1.00  0.00     0.091 A 
ATOM     86  F   UNL     1      -9.068  16.168  -0.543  1.00  0.00    -0.205 F 
ATOM     87  C   UNL     1     -12.336  15.126  -1.822  1.00  0.00     0.022 A 
BRANCH  85  88
ATOM     88  S   UNL     1     -10.907  13.772   0.082  1.00  0.00     0.127 S 
ATOM     89  O   UNL     1     -11.812  14.132   1.169  1.00  0.00    -0.237 OA
ATOM     90  O   UNL     1     -11.326  12.618  -0.714  1.00  0.00    -0.237 OA
ATOM     91  O   UNL     1      -9.485  13.787   0.406  1.00  0.00    -0.744 OA
ENDBRANCH  85  88
ENDBRANCH  57  81
BRANCH  69  92
ATOM     92  C   UNL     1     -10.164  24.037  -1.823  1.00  0.00     0.023 A 
ATOM     93  C   UNL     1     -10.478  24.148  -0.453  1.00  0.00     0.012 A 
ATOM     94  C   UNL     1     -10.755  24.926  -2.742  1.00  0.00     0.148 A 
ATOM     95  C   UNL     1     -11.390  25.104  -0.010  1.00  0.00     0.002 A 
ATOM     96  C   UNL     1     -11.627  25.908  -2.286  1.00  0.00     0.091 A 
ATOM     97  F   UNL     1     -10.460  24.792  -4.043  1.00  0.00    -0.205 F 
ATOM     98  C   UNL     1     -11.956  25.990  -0.924  1.00  0.00     0.022 A 
BRANCH  96  99
ATOM     99  S   UNL     1     -12.329  27.149  -3.379  1.00  0.00     0.127 S 
ATOM    100  O   UNL     1     -13.704  26.676  -3.524  1.00  0.00    -0.237 OA
ATOM    101  O   UNL     1     -12.186  28.375  -2.592  1.00  0.00    -0.237 OA
ATOM    102  O   UNL     1     -11.522  27.116  -4.591  1.00  0.00    -0.744 OA
ENDBRANCH  96  99
ENDBRANCH  69  92
ENDBRANCH  43  44
ENDBRANCH  35  38
ENDBRANCH  33  34
ENDBRANCH  32  33
ENDBRANCH   1  32
TORSDOF 19
