REMARK SMILES CC(C)c1ccc(NC(=O)C[C@H]2SC[C@@H](C(=O)NCCCNC(=O)c3ccc(-c4c5nc(c(-c6cccc(S(=O)(=O)[O-])c6F)c6ccc([nH]6)c(-c6cccc(S(=O)(=O)[O-])c6F)c6nc(c(-c7cccc(S(=O)(=O)[O-])c7F)c7ccc4[nH]7)C=C6)C=C5)cc3)NC2=O)cc1
REMARK SMILES IDX 19 1 18 2 16 3 17 4 15 6 12 7 13 8 89 9 14 10 88 11 90 12
REMARK SMILES IDX 11 14 9 15 8 16 10 18 7 19 4 20 5 21 92 22 6 23 91 24 2 25
REMARK SMILES IDX 1 26 3 27 20 28 21 29 22 30 23 31 24 33 25 34 26 35 87 36
REMARK SMILES IDX 27 37 86 38 28 39 29 40 30 41 80 42 31 43 85 44 79 45 81 46
REMARK SMILES IDX 32 47 84 48 78 49 77 50 33 52 65 53 45 54 64 55 46 56 49 57
REMARK SMILES IDX 63 58 82 59 47 60 48 61 62 63 83 64 50 65 34 66 35 67 43 68
REMARK SMILES IDX 36 69 38 70 44 71 37 72 39 73 40 74 41 75 42 76 66 77 67 78
REMARK SMILES IDX 75 79 68 80 70 81 76 82 69 83 71 84 72 85 73 86 74 87 51 88
REMARK SMILES IDX 52 89 60 90 53 91 55 92 61 93 54 94 56 95 57 96 58 97 59 98
REMARK H PARENT 18 5 88 13 8 17 22 32 81 51 49 62
REMARK Flexibility Score: inf
ROOT
ATOM      1  C   UNL     1       1.215   2.270  -0.361  1.00  0.00     0.117 C 
ENDROOT
BRANCH   1   2
ATOM      2  N   UNL     1       0.574   2.800   0.825  1.00  0.00    -0.354 N 
ATOM      3  C   UNL     1      -0.422   3.734   0.903  1.00  0.00     0.243 C 
ATOM      4  O   UNL     1      -0.528   4.356   1.959  1.00  0.00    -0.273 OA
ATOM      5  H   UNL     1       0.897   2.443   1.684  1.00  0.00     0.163 HD
BRANCH   3   6
ATOM      6  C   UNL     1      -1.504   3.742  -0.196  1.00  0.00     0.181 C 
ATOM      7  C   UNL     1      -4.150   4.044   1.315  1.00  0.00     0.145 C 
ATOM      8  S   UNL     1      -3.286   5.627   0.935  1.00  0.00    -0.145 SA
ATOM      9  C   UNL     1      -3.216   2.827   1.308  1.00  0.00     0.234 C 
ATOM     10  C   UNL     1      -2.188   5.085  -0.406  1.00  0.00     0.105 C 
ATOM     11  N   UNL     1      -2.395   2.665   0.217  1.00  0.00    -0.343 N 
ATOM     12  O   UNL     1      -3.231   1.907   2.120  1.00  0.00    -0.274 OA
ATOM     13  H   UNL     1      -2.409   1.819  -0.286  1.00  0.00     0.164 HD
BRANCH   7  14
ATOM     14  C   UNL     1      -5.026   4.280   2.556  1.00  0.00     0.124 C 
BRANCH  14  15
ATOM     15  C   UNL     1      -5.256   3.167   3.558  1.00  0.00     0.226 C 
ATOM     16  N   UNL     1      -5.757   1.946   3.238  1.00  0.00    -0.326 N 
ATOM     17  H   UNL     1      -5.828   1.335   4.007  1.00  0.00     0.169 HD
ATOM     18  O   UNL     1      -5.005   3.368   4.754  1.00  0.00    -0.275 OA
BRANCH  16  19
ATOM     19  C   UNL     1      -6.193   1.382   2.035  1.00  0.00     0.041 A 
ATOM     20  C   UNL     1      -6.830   0.087  -0.393  1.00  0.00    -0.045 A 
ATOM     21  C   UNL     1      -7.053   1.463  -0.218  1.00  0.00     0.006 A 
ATOM     22  C   UNL     1      -6.322  -0.638   0.690  1.00  0.00     0.006 A 
ATOM     23  C   UNL     1      -6.755   2.101   0.989  1.00  0.00     0.026 A 
ATOM     24  C   UNL     1      -6.018   0.003   1.893  1.00  0.00     0.026 A 
BRANCH  20  25
ATOM     25  C   UNL     1      -7.171  -0.547  -1.731  1.00  0.00     0.013 C 
ATOM     26  C   UNL     1      -6.571  -1.939  -1.966  1.00  0.00     0.012 C 
ATOM     27  C   UNL     1      -8.691  -0.604  -1.913  1.00  0.00     0.012 C 
ENDBRANCH  20  25
ENDBRANCH  16  19
ENDBRANCH  14  15
ENDBRANCH   7  14
ENDBRANCH   3   6
ENDBRANCH   1   2
BRANCH   1  28
ATOM     28  C   UNL     1       2.335   3.204  -0.811  1.00  0.00     0.042 C 
BRANCH  28  29
ATOM     29  C   UNL     1       3.396   3.436   0.264  1.00  0.00     0.118 C 
BRANCH  29  30
ATOM     30  N   UNL     1       4.076   2.205   0.646  1.00  0.00    -0.352 N 
ATOM     31  C   UNL     1       5.409   1.890   0.577  1.00  0.00     0.251 C 
ATOM     32  H   UNL     1       3.494   1.497   1.006  1.00  0.00     0.163 HD
ATOM     33  O   UNL     1       5.768   0.724   0.749  1.00  0.00    -0.269 OA
BRANCH  31  34
ATOM     34  C   UNL     1       6.404   2.939   0.279  1.00  0.00     0.039 A 
ATOM     35  C   UNL     1       7.415   2.670  -0.646  1.00  0.00     0.014 A 
ATOM     36  C   UNL     1       6.343   4.183   0.915  1.00  0.00     0.014 A 
ATOM     37  C   UNL     1       8.328   3.672  -0.981  1.00  0.00     0.010 A 
ATOM     38  C   UNL     1       7.207   5.201   0.524  1.00  0.00     0.010 A 
ATOM     39  C   UNL     1       8.210   4.956  -0.425  1.00  0.00    -0.014 A 
BRANCH  39  40
ATOM     40  C   UNL     1       9.114   6.062  -0.834  1.00  0.00     0.031 A 
ATOM     41  C   UNL     1      10.027   6.707   0.172  1.00  0.00     0.074 A 
ATOM     42  C   UNL     1       9.042   6.545  -2.090  1.00  0.00     0.049 A 
ATOM     43  N   UNL     1      10.828   7.730   0.020  1.00  0.00    -0.248 NA
ATOM     44  C   UNL     1      10.023   6.148   1.534  1.00  0.00     0.031 C 
ATOM     45  C   UNL     1       8.142   6.054  -3.136  1.00  0.00     0.029 A 
ATOM     46  N   UNL     1       9.717   7.577  -2.693  1.00  0.00    -0.354 N 
ATOM     47  C   UNL     1      11.395   7.958   1.268  1.00  0.00     0.074 A 
ATOM     48  C   UNL     1      10.823   6.988   2.176  1.00  0.00     0.031 C 
ATOM     49  C   UNL     1       8.321   6.783  -4.250  1.00  0.00     0.029 A 
ATOM     50  C   UNL     1       9.322   7.812  -3.990  1.00  0.00     0.049 A 
ATOM     51  H   UNL     1      10.417   8.101  -2.240  1.00  0.00     0.167 HD
ATOM     52  C   UNL     1      12.330   8.872   1.622  1.00  0.00     0.034 A 
ATOM     53  C   UNL     1       9.716   8.755  -4.868  1.00  0.00     0.034 A 
ATOM     54  C   UNL     1      12.930   9.806   0.707  1.00  0.00     0.049 A 
ATOM     55  C   UNL     1      10.780   9.736  -4.458  1.00  0.00     0.074 A 
ATOM     56  C   UNL     1      13.945  10.715   0.949  1.00  0.00     0.029 A 
ATOM     57  N   UNL     1      12.569   9.955  -0.623  1.00  0.00    -0.354 N 
ATOM     58  N   UNL     1      11.418   9.833  -3.317  1.00  0.00    -0.248 NA
ATOM     59  C   UNL     1      11.206  10.716  -5.468  1.00  0.00     0.031 C 
ATOM     60  C   UNL     1      14.185  11.426  -0.231  1.00  0.00     0.029 A 
ATOM     61  C   UNL     1      13.335  10.944  -1.213  1.00  0.00     0.049 A 
ATOM     62  H   UNL     1      11.870   9.433  -1.080  1.00  0.00     0.167 HD
ATOM     63  C   UNL     1      12.343  10.857  -3.482  1.00  0.00     0.074 A 
ATOM     64  C   UNL     1      12.199  11.334  -4.842  1.00  0.00     0.031 C 
ATOM     65  C   UNL     1      13.221  11.369  -2.585  1.00  0.00     0.034 A 
BRANCH  52  66
ATOM     66  C   UNL     1      12.811   8.867   3.050  1.00  0.00     0.023 A 
ATOM     67  C   UNL     1      13.638   7.816   3.497  1.00  0.00     0.012 A 
ATOM     68  C   UNL     1      12.508   9.928   3.925  1.00  0.00     0.148 A 
ATOM     69  C   UNL     1      14.129   7.804   4.801  1.00  0.00     0.002 A 
ATOM     70  C   UNL     1      13.037   9.931   5.210  1.00  0.00     0.091 A 
ATOM     71  F   UNL     1      11.705  10.909   3.488  1.00  0.00    -0.205 F 
ATOM     72  C   UNL     1      13.838   8.866   5.653  1.00  0.00     0.022 A 
BRANCH  70  73
ATOM     73  S   UNL     1      12.789  11.290   6.360  1.00  0.00     0.127 S 
ATOM     74  O   UNL     1      11.909  10.677   7.354  1.00  0.00    -0.237 OA
ATOM     75  O   UNL     1      14.151  11.548   6.829  1.00  0.00    -0.237 OA
ATOM     76  O   UNL     1      12.198  12.370   5.584  1.00  0.00    -0.744 OA
ENDBRANCH  70  73
ENDBRANCH  52  66
BRANCH  53  77
ATOM     77  C   UNL     1       9.147   8.777  -6.246  1.00  0.00     0.023 A 
ATOM     78  C   UNL     1       9.968   8.429  -7.336  1.00  0.00     0.012 A 
ATOM     79  C   UNL     1       7.801   9.118  -6.483  1.00  0.00     0.148 A 
ATOM     80  C   UNL     1       9.471   8.455  -8.640  1.00  0.00     0.002 A 
ATOM     81  C   UNL     1       7.297   9.087  -7.778  1.00  0.00     0.091 A 
ATOM     82  F   UNL     1       7.038   9.460  -5.436  1.00  0.00    -0.205 F 
ATOM     83  C   UNL     1       8.134   8.774  -8.860  1.00  0.00     0.022 A 
BRANCH  81  84
ATOM     84  S   UNL     1       5.556   9.349  -8.135  1.00  0.00     0.127 S 
ATOM     85  O   UNL     1       5.567  10.684  -8.725  1.00  0.00    -0.237 OA
ATOM     86  O   UNL     1       5.270   8.262  -9.073  1.00  0.00    -0.237 OA
ATOM     87  O   UNL     1       4.872   9.224  -6.854  1.00  0.00    -0.744 OA
ENDBRANCH  81  84
ENDBRANCH  53  77
BRANCH  65  88
ATOM     88  C   UNL     1      14.123  12.483  -3.048  1.00  0.00     0.023 A 
ATOM     89  C   UNL     1      13.593  13.772  -3.256  1.00  0.00     0.012 A 
ATOM     90  C   UNL     1      15.506  12.270  -3.206  1.00  0.00     0.148 A 
ATOM     91  C   UNL     1      14.421  14.824  -3.645  1.00  0.00     0.002 A 
ATOM     92  C   UNL     1      16.333  13.333  -3.547  1.00  0.00     0.091 A 
ATOM     93  F   UNL     1      15.988  11.032  -3.022  1.00  0.00    -0.205 F 
ATOM     94  C   UNL     1      15.790  14.608  -3.779  1.00  0.00     0.022 A 
BRANCH  92  95
ATOM     95  S   UNL     1      18.119  13.170  -3.650  1.00  0.00     0.127 S 
ATOM     96  O   UNL     1      18.340  13.218  -5.094  1.00  0.00    -0.237 OA
ATOM     97  O   UNL     1      18.582  14.352  -2.922  1.00  0.00    -0.237 OA
ATOM     98  O   UNL     1      18.442  11.902  -3.009  1.00  0.00    -0.744 OA
ENDBRANCH  92  95
ENDBRANCH  65  88
ENDBRANCH  39  40
ENDBRANCH  31  34
ENDBRANCH  29  30
ENDBRANCH  28  29
ENDBRANCH   1  28
TORSDOF 17
