REMARK SMILES [NH3+][C@H](C(=O)NCCCNC(=O)c1ccc(-c2c3nc(c(-c4cccc(S(=O)(=O)[O-])c4F)c4ccc([nH]4)c(-c4cccc(S(=O)(=O)[O-])c4F)c4nc(c(-c5cccc(S(=O)(=O)[O-])c5F)c5ccc2[nH]5)C=C4)C=C3)cc1)c1cc2c(cc1Br)OCO2
REMARK SMILES IDX 8 1 7 2 6 3 5 4 3 5 4 6 2 8 1 9 75 13 76 14 80 15 77 16
REMARK SMILES IDX 79 17 81 18 78 19 84 20 82 21 83 22 9 23 10 24 11 26 12 27
REMARK SMILES IDX 13 28 74 29 14 30 73 31 15 32 16 33 17 34 67 35 18 36 72 37
REMARK SMILES IDX 66 38 68 39 19 40 71 41 65 42 64 43 20 45 52 46 32 47 51 48
REMARK SMILES IDX 33 49 36 50 50 51 69 52 34 53 35 54 49 56 70 57 37 58 21 59
REMARK SMILES IDX 22 60 30 61 23 62 25 63 31 64 24 65 26 66 27 67 28 68 29 69
REMARK SMILES IDX 53 70 54 71 62 72 55 73 57 74 63 75 56 76 58 77 59 78 60 79
REMARK SMILES IDX 61 80 38 81 39 82 47 83 40 84 42 85 48 86 41 87 43 88 44 89
REMARK SMILES IDX 45 90 46 91
REMARK H PARENT 5 7 1 10 1 11 1 12 9 25 68 44 36 55
REMARK Flexibility Score: inf
ROOT
ATOM      1  C   UNL     1      -1.403  -3.171  -1.969  1.00  0.00     0.118 C 
ENDROOT
BRANCH   1   2
ATOM      2  C   UNL     1      -1.911  -1.748  -1.792  1.00  0.00     0.042 C 
BRANCH   2   3
ATOM      3  C   UNL     1      -1.351  -1.020  -0.581  1.00  0.00     0.118 C 
BRANCH   3   4
ATOM      4  N   UNL     1       0.084  -0.790  -0.609  1.00  0.00    -0.351 N 
ATOM      5  C   UNL     1       0.866   0.051   0.127  1.00  0.00     0.283 C 
ATOM      6  O   UNL     1       2.091  -0.078  -0.030  1.00  0.00    -0.268 OA
ATOM      7  H   UNL     1       0.574  -1.333  -1.269  1.00  0.00     0.163 HD
BRANCH   5   8
ATOM      8  C   UNL     1       0.341   1.236   1.005  1.00  0.00     0.303 C 
BRANCH   8   9
ATOM      9  N   UNL     1       0.646   2.484   0.255  1.00  0.00    -0.343 N 
ATOM     10  H   UNL     1       0.321   3.290   0.790  1.00  0.00     0.345 HD
ATOM     11  H   UNL     1       0.173   2.462  -0.648  1.00  0.00     0.345 HD
ATOM     12  H   UNL     1       1.653   2.556   0.110  1.00  0.00     0.345 HD
ENDBRANCH   8   9
BRANCH   8  13
ATOM     13  C   UNL     1      -1.094   1.160   1.506  1.00  0.00     0.037 A 
ATOM     14  C   UNL     1      -2.071   2.051   1.006  1.00  0.00     0.062 A 
ATOM     15  C   UNL     1      -1.519   0.134   2.395  1.00  0.00     0.031 A 
ATOM     16  C   UNL     1      -3.400   1.806   1.279  1.00  0.00     0.166 A 
ATOM     17  C   UNL     1      -2.880  -0.092   2.649  1.00  0.00     0.066 A 
ATOM     18  Br  UNL     1      -0.288  -1.055   3.230  1.00  0.00    -0.050 Br
ATOM     19  C   UNL     1      -3.795   0.745   2.051  1.00  0.00     0.166 A 
ATOM     20  O   UNL     1      -4.448   2.516   0.789  1.00  0.00    -0.454 OA
ATOM     21  O   UNL     1      -5.148   0.636   2.123  1.00  0.00    -0.454 OA
ATOM     22  C   UNL     1      -5.559   1.736   1.276  1.00  0.00     0.468 C 
ENDBRANCH   8  13
ENDBRANCH   5   8
ENDBRANCH   3   4
ENDBRANCH   2   3
ENDBRANCH   1   2
BRANCH   1  23
ATOM     23  N   UNL     1      -1.857  -4.106  -0.944  1.00  0.00    -0.352 N 
ATOM     24  C   UNL     1      -2.895  -5.016  -0.909  1.00  0.00     0.251 C 
ATOM     25  H   UNL     1      -1.321  -4.082  -0.119  1.00  0.00     0.163 HD
ATOM     26  O   UNL     1      -3.109  -5.632   0.126  1.00  0.00    -0.269 OA
BRANCH  24  27
ATOM     27  C   UNL     1      -3.786  -5.216  -2.079  1.00  0.00     0.039 A 
ATOM     28  C   UNL     1      -5.160  -5.370  -1.861  1.00  0.00     0.014 A 
ATOM     29  C   UNL     1      -3.297  -5.247  -3.381  1.00  0.00     0.014 A 
ATOM     30  C   UNL     1      -6.043  -5.412  -2.947  1.00  0.00     0.010 A 
ATOM     31  C   UNL     1      -4.178  -5.167  -4.455  1.00  0.00     0.010 A 
ATOM     32  C   UNL     1      -5.564  -5.227  -4.254  1.00  0.00    -0.014 A 
BRANCH  32  33
ATOM     33  C   UNL     1      -6.474  -5.025  -5.417  1.00  0.00     0.031 A 
ATOM     34  C   UNL     1      -6.352  -5.896  -6.642  1.00  0.00     0.074 A 
ATOM     35  C   UNL     1      -7.295  -3.953  -5.438  1.00  0.00     0.049 A 
ATOM     36  N   UNL     1      -6.920  -5.756  -7.812  1.00  0.00    -0.248 NA
ATOM     37  C   UNL     1      -5.439  -7.050  -6.558  1.00  0.00     0.031 C 
ATOM     38  C   UNL     1      -7.440  -2.972  -4.358  1.00  0.00     0.029 A 
ATOM     39  N   UNL     1      -8.127  -3.476  -6.424  1.00  0.00    -0.354 N 
ATOM     40  C   UNL     1      -6.384  -6.754  -8.618  1.00  0.00     0.074 A 
ATOM     41  C   UNL     1      -5.435  -7.487  -7.810  1.00  0.00     0.031 C 
ATOM     42  C   UNL     1      -8.299  -2.014  -4.739  1.00  0.00     0.029 A 
ATOM     43  C   UNL     1      -8.732  -2.279  -6.106  1.00  0.00     0.049 A 
ATOM     44  H   UNL     1      -8.277  -3.945  -7.276  1.00  0.00     0.167 HD
ATOM     45  C   UNL     1      -6.672  -7.048  -9.908  1.00  0.00     0.034 A 
ATOM     46  C   UNL     1      -9.523  -1.468  -6.837  1.00  0.00     0.034 A 
ATOM     47  C   UNL     1      -7.683  -6.379 -10.680  1.00  0.00     0.049 A 
ATOM     48  C   UNL     1      -9.875  -1.863  -8.246  1.00  0.00     0.074 A 
ATOM     49  C   UNL     1      -8.164  -6.714 -11.934  1.00  0.00     0.029 A 
ATOM     50  N   UNL     1      -8.360  -5.240 -10.281  1.00  0.00    -0.354 N 
ATOM     51  N   UNL     1      -9.514  -2.929  -8.917  1.00  0.00    -0.248 NA
ATOM     52  C   UNL     1     -10.763  -0.957  -8.991  1.00  0.00     0.031 C 
ATOM     53  C   UNL     1      -9.114  -5.758 -12.305  1.00  0.00     0.029 A 
ATOM     54  C   UNL     1      -9.236  -4.840 -11.275  1.00  0.00     0.049 A 
ATOM     55  H   UNL     1      -8.237  -4.782  -9.418  1.00  0.00     0.167 HD
ATOM     56  C   UNL     1     -10.149  -2.835 -10.150  1.00  0.00     0.074 A 
ATOM     57  C   UNL     1     -10.942  -1.625 -10.123  1.00  0.00     0.031 C 
ATOM     58  C   UNL     1     -10.064  -3.666 -11.217  1.00  0.00     0.034 A 
BRANCH  45  59
ATOM     59  C   UNL     1      -5.936  -8.185 -10.565  1.00  0.00     0.023 A 
ATOM     60  C   UNL     1      -6.255  -9.513 -10.220  1.00  0.00     0.012 A 
ATOM     61  C   UNL     1      -5.009  -7.940 -11.598  1.00  0.00     0.148 A 
ATOM     62  C   UNL     1      -5.647 -10.582 -10.879  1.00  0.00     0.002 A 
ATOM     63  C   UNL     1      -4.439  -9.009 -12.277  1.00  0.00     0.091 A 
ATOM     64  F   UNL     1      -4.708  -6.668 -11.897  1.00  0.00    -0.205 F 
ATOM     65  C   UNL     1      -4.751 -10.330 -11.914  1.00  0.00     0.022 A 
BRANCH  63  66
ATOM     66  S   UNL     1      -3.333  -8.795 -13.677  1.00  0.00     0.127 S 
ATOM     67  O   UNL     1      -2.070  -9.291 -13.132  1.00  0.00    -0.237 OA
ATOM     68  O   UNL     1      -3.944  -9.661 -14.685  1.00  0.00    -0.237 OA
ATOM     69  O   UNL     1      -3.356  -7.375 -13.996  1.00  0.00    -0.744 OA
ENDBRANCH  63  66
ENDBRANCH  45  59
BRANCH  46  70
ATOM     70  C   UNL     1     -10.070  -0.214  -6.243  1.00  0.00     0.023 A 
ATOM     71  C   UNL     1     -11.452  -0.119  -5.986  1.00  0.00     0.012 A 
ATOM     72  C   UNL     1      -9.239   0.878  -5.927  1.00  0.00     0.148 A 
ATOM     73  C   UNL     1     -12.001   1.053  -5.463  1.00  0.00     0.002 A 
ATOM     74  C   UNL     1      -9.784   2.021  -5.351  1.00  0.00     0.091 A 
ATOM     75  F   UNL     1      -7.928   0.781  -6.194  1.00  0.00    -0.205 F 
ATOM     76  C   UNL     1     -11.166   2.119  -5.136  1.00  0.00     0.022 A 
BRANCH  74  77
ATOM     77  S   UNL     1      -8.756   3.374  -4.768  1.00  0.00     0.127 S 
ATOM     78  O   UNL     1      -8.924   4.360  -5.831  1.00  0.00    -0.237 OA
ATOM     79  O   UNL     1      -9.395   3.721  -3.497  1.00  0.00    -0.237 OA
ATOM     80  O   UNL     1      -7.421   2.808  -4.622  1.00  0.00    -0.744 OA
ENDBRANCH  74  77
ENDBRANCH  46  70
BRANCH  58  81
ATOM     81  C   UNL     1     -10.858  -3.315 -12.446  1.00  0.00     0.023 A 
ATOM     82  C   UNL     1     -10.427  -2.260 -13.273  1.00  0.00     0.012 A 
ATOM     83  C   UNL     1     -11.969  -4.091 -12.833  1.00  0.00     0.148 A 
ATOM     84  C   UNL     1     -11.101  -1.967 -14.457  1.00  0.00     0.002 A 
ATOM     85  C   UNL     1     -12.608  -3.823 -14.038  1.00  0.00     0.091 A 
ATOM     86  F   UNL     1     -12.370  -5.081 -12.023  1.00  0.00    -0.205 F 
ATOM     87  C   UNL     1     -12.182  -2.756 -14.845  1.00  0.00     0.022 A 
BRANCH  85  88
ATOM     88  S   UNL     1     -13.946  -4.842 -14.669  1.00  0.00     0.127 S 
ATOM     89  O   UNL     1     -15.087  -3.934 -14.561  1.00  0.00    -0.237 OA
ATOM     90  O   UNL     1     -13.509  -5.112 -16.039  1.00  0.00    -0.237 OA
ATOM     91  O   UNL     1     -14.001  -6.015 -13.807  1.00  0.00    -0.744 OA
ENDBRANCH  85  88
ENDBRANCH  58  81
ENDBRANCH  32  33
ENDBRANCH  24  27
ENDBRANCH   1  23
TORSDOF 15
