REMARK SMILES Cc1ccc(C(=O)CC(C)(C)C(=O)NCCCNC(=O)c2ccc(-c3c4nc(c(-c5cccc(S(=O)(=O)[O-])c5F)c5ccc([nH]5)c(-c5cccc(S(=O)(=O)[O-])c5F)c5nc(c(-c6cccc(S(=O)(=O)[O-])c6F)c6ccc3[nH]6)C=C5)C=C4)cc2)cc1
REMARK SMILES IDX 16 1 15 2 14 3 12 4 13 5 9 7 10 8 11 9 8 10 6 11 7 12 5 13
REMARK SMILES IDX 1 14 2 15 3 16 85 17 4 18 84 19 17 20 18 21 19 22 20 24
REMARK SMILES IDX 21 25 22 26 83 27 23 28 82 29 24 30 25 31 26 32 76 33 27 34
REMARK SMILES IDX 81 35 75 36 77 37 28 38 80 39 74 40 73 41 29 43 61 44 41 45
REMARK SMILES IDX 60 46 42 47 45 48 59 49 78 50 43 51 44 52 58 54 79 55 46 56
REMARK SMILES IDX 30 57 31 58 39 59 32 60 34 61 40 62 33 63 35 64 36 65 37 66
REMARK SMILES IDX 38 67 62 68 63 69 71 70 64 71 66 72 72 73 65 74 67 75 68 76
REMARK SMILES IDX 69 77 70 78 47 79 48 80 56 81 49 82 51 83 57 84 50 85 52 86
REMARK SMILES IDX 53 87 54 88 55 89
REMARK H PARENT 14 6 18 23 77 42 45 53
REMARK Flexibility Score: inf
ROOT
ATOM      1  C   UNL     1      -3.860   4.483   3.982  1.00  0.00     0.042 C 
ENDROOT
BRANCH   1   2
ATOM      2  C   UNL     1      -2.859   3.345   3.823  1.00  0.00     0.117 C 
BRANCH   2   3
ATOM      3  N   UNL     1      -3.481   2.102   3.388  1.00  0.00    -0.356 N 
ATOM      4  C   UNL     1      -3.723   1.540   2.172  1.00  0.00     0.226 C 
ATOM      5  O   UNL     1      -4.221   0.411   2.195  1.00  0.00    -0.274 OA
ATOM      6  H   UNL     1      -3.794   1.546   4.138  1.00  0.00     0.163 HD
BRANCH   4   7
ATOM      7  C   UNL     1      -3.454   2.248   0.823  1.00  0.00     0.051 C 
ATOM      8  C   UNL     1      -2.024   2.783   0.708  1.00  0.00     0.022 C 
ATOM      9  C   UNL     1      -4.420   3.441   0.666  1.00  0.00     0.022 C 
BRANCH   7  10
ATOM     10  C   UNL     1      -3.795   1.278  -0.363  1.00  0.00     0.097 C 
BRANCH  10  11
ATOM     11  C   UNL     1      -3.128  -0.096  -0.476  1.00  0.00     0.163 C 
ATOM     12  O   UNL     1      -3.782  -1.122  -0.661  1.00  0.00    -0.294 OA
BRANCH  11  13
ATOM     13  C   UNL     1      -1.653  -0.211  -0.511  1.00  0.00     0.018 A 
ATOM     14  C   UNL     1       2.626  -0.307  -0.159  1.00  0.00     0.044 C 
ATOM     15  C   UNL     1       1.136  -0.317  -0.330  1.00  0.00    -0.051 A 
ATOM     16  C   UNL     1       0.350  -1.292   0.297  1.00  0.00     0.004 A 
ATOM     17  C   UNL     1       0.518   0.642  -1.140  1.00  0.00     0.004 A 
ATOM     18  C   UNL     1      -1.043  -1.237   0.213  1.00  0.00     0.012 A 
ATOM     19  C   UNL     1      -0.873   0.676  -1.254  1.00  0.00     0.012 A 
ENDBRANCH  11  13
ENDBRANCH  10  11
ENDBRANCH   7  10
ENDBRANCH   4   7
ENDBRANCH   2   3
ENDBRANCH   1   2
BRANCH   1  20
ATOM     20  C   UNL     1      -4.404   4.598   5.397  1.00  0.00     0.118 C 
BRANCH  20  21
ATOM     21  N   UNL     1      -3.636   5.488   6.255  1.00  0.00    -0.352 N 
ATOM     22  C   UNL     1      -3.821   5.797   7.595  1.00  0.00     0.251 C 
ATOM     23  H   UNL     1      -2.874   5.935   5.822  1.00  0.00     0.163 HD
ATOM     24  O   UNL     1      -3.156   6.693   8.089  1.00  0.00    -0.269 OA
BRANCH  22  25
ATOM     25  C   UNL     1      -4.736   4.967   8.421  1.00  0.00     0.039 A 
ATOM     26  C   UNL     1      -4.285   4.527   9.674  1.00  0.00     0.014 A 
ATOM     27  C   UNL     1      -5.925   4.470   7.898  1.00  0.00     0.014 A 
ATOM     28  C   UNL     1      -4.889   3.424  10.279  1.00  0.00     0.010 A 
ATOM     29  C   UNL     1      -6.463   3.324   8.438  1.00  0.00     0.010 A 
ATOM     30  C   UNL     1      -5.906   2.766   9.594  1.00  0.00    -0.014 A 
BRANCH  30  31
ATOM     31  C   UNL     1      -6.411   1.441   9.920  1.00  0.00     0.031 A 
ATOM     32  C   UNL     1      -7.726   1.271  10.567  1.00  0.00     0.074 A 
ATOM     33  C   UNL     1      -5.789   0.382   9.359  1.00  0.00     0.049 A 
ATOM     34  N   UNL     1      -8.146   0.166  11.083  1.00  0.00    -0.248 NA
ATOM     35  C   UNL     1      -8.674   2.368  10.690  1.00  0.00     0.031 C 
ATOM     36  C   UNL     1      -6.351  -0.939   9.107  1.00  0.00     0.029 A 
ATOM     37  N   UNL     1      -4.427   0.237   9.076  1.00  0.00    -0.354 N 
ATOM     38  C   UNL     1      -9.493   0.316  11.338  1.00  0.00     0.074 A 
ATOM     39  C   UNL     1      -9.751   1.724  11.146  1.00  0.00     0.031 C 
ATOM     40  C   UNL     1      -5.344  -1.815   8.985  1.00  0.00     0.029 A 
ATOM     41  C   UNL     1      -4.121  -1.111   9.327  1.00  0.00     0.049 A 
ATOM     42  H   UNL     1      -3.808   0.937   8.766  1.00  0.00     0.167 HD
ATOM     43  C   UNL     1     -10.264  -0.794  11.531  1.00  0.00     0.034 A 
ATOM     44  C   UNL     1      -3.205  -1.520  10.252  1.00  0.00     0.034 A 
ATOM     45  C   UNL     1      -9.446  -2.016  11.506  1.00  0.00     0.049 A 
ATOM     46  C   UNL     1      -3.789  -2.431  11.317  1.00  0.00     0.074 A 
ATOM     47  C   UNL     1      -9.185  -2.961  10.525  1.00  0.00     0.029 A 
ATOM     48  N   UNL     1      -8.537  -2.254  12.528  1.00  0.00    -0.354 N 
ATOM     49  N   UNL     1      -5.052  -2.743  11.408  1.00  0.00    -0.248 NA
ATOM     50  C   UNL     1      -3.000  -3.030  12.391  1.00  0.00     0.031 C 
ATOM     51  C   UNL     1      -8.050  -3.714  10.930  1.00  0.00     0.029 A 
ATOM     52  C   UNL     1      -7.637  -3.246  12.166  1.00  0.00     0.049 A 
ATOM     53  H   UNL     1      -8.531  -1.783  13.392  1.00  0.00     0.167 HD
ATOM     54  C   UNL     1      -5.284  -3.401  12.589  1.00  0.00     0.074 A 
ATOM     55  C   UNL     1      -3.952  -3.647  13.114  1.00  0.00     0.031 C 
ATOM     56  C   UNL     1      -6.550  -3.608  13.070  1.00  0.00     0.034 A 
BRANCH  43  57
ATOM     57  C   UNL     1     -11.783  -0.824  11.418  1.00  0.00     0.023 A 
ATOM     58  C   UNL     1     -12.391  -2.063  11.109  1.00  0.00     0.012 A 
ATOM     59  C   UNL     1     -12.660   0.278  11.517  1.00  0.00     0.148 A 
ATOM     60  C   UNL     1     -13.749  -2.179  10.789  1.00  0.00     0.002 A 
ATOM     61  C   UNL     1     -13.996   0.184  11.114  1.00  0.00     0.091 A 
ATOM     62  F   UNL     1     -12.249   1.405  12.105  1.00  0.00    -0.205 F 
ATOM     63  C   UNL     1     -14.544  -1.045  10.743  1.00  0.00     0.022 A 
BRANCH  61  64
ATOM     64  S   UNL     1     -15.046   1.639  10.938  1.00  0.00     0.127 S 
ATOM     65  O   UNL     1     -15.645   1.433   9.617  1.00  0.00    -0.237 OA
ATOM     66  O   UNL     1     -15.976   1.497  12.055  1.00  0.00    -0.237 OA
ATOM     67  O   UNL     1     -14.148   2.787  11.004  1.00  0.00    -0.744 OA
ENDBRANCH  61  64
ENDBRANCH  43  57
BRANCH  44  68
ATOM     68  C   UNL     1      -2.076  -0.565  10.440  1.00  0.00     0.023 A 
ATOM     69  C   UNL     1      -1.196  -0.402   9.343  1.00  0.00     0.012 A 
ATOM     70  C   UNL     1      -2.090   0.413  11.451  1.00  0.00     0.148 A 
ATOM     71  C   UNL     1      -0.434   0.757   9.198  1.00  0.00     0.002 A 
ATOM     72  C   UNL     1      -1.331   1.573  11.294  1.00  0.00     0.091 A 
ATOM     73  F   UNL     1      -2.909   0.240  12.495  1.00  0.00    -0.205 F 
ATOM     74  C   UNL     1      -0.526   1.758  10.157  1.00  0.00     0.022 A 
BRANCH  72  75
ATOM     75  S   UNL     1      -1.454   2.955  12.439  1.00  0.00     0.127 S 
ATOM     76  O   UNL     1      -0.259   2.765  13.256  1.00  0.00    -0.237 OA
ATOM     77  O   UNL     1      -1.409   4.107  11.539  1.00  0.00    -0.237 OA
ATOM     78  O   UNL     1      -2.732   2.774  13.111  1.00  0.00    -0.744 OA
ENDBRANCH  72  75
ENDBRANCH  44  68
BRANCH  56  79
ATOM     79  C   UNL     1      -6.897  -4.120  14.457  1.00  0.00     0.023 A 
ATOM     80  C   UNL     1      -6.023  -3.986  15.553  1.00  0.00     0.012 A 
ATOM     81  C   UNL     1      -8.200  -4.609  14.741  1.00  0.00     0.148 A 
ATOM     82  C   UNL     1      -6.396  -4.361  16.850  1.00  0.00     0.002 A 
ATOM     83  C   UNL     1      -8.602  -4.875  16.049  1.00  0.00     0.091 A 
ATOM     84  F   UNL     1      -9.063  -4.834  13.739  1.00  0.00    -0.205 F 
ATOM     85  C   UNL     1      -7.695  -4.781  17.104  1.00  0.00     0.022 A 
BRANCH  83  86
ATOM     86  S   UNL     1     -10.336  -5.176  16.422  1.00  0.00     0.127 S 
ATOM     87  O   UNL     1     -10.456  -6.615  16.200  1.00  0.00    -0.237 OA
ATOM     88  O   UNL     1     -10.441  -4.768  17.825  1.00  0.00    -0.237 OA
ATOM     89  O   UNL     1     -11.061  -4.313  15.498  1.00  0.00    -0.744 OA
ENDBRANCH  83  86
ENDBRANCH  56  79
ENDBRANCH  30  31
ENDBRANCH  22  25
ENDBRANCH  20  21
ENDBRANCH   1  20
TORSDOF 16
