REMARK SMILES O=C(C[C@H](NC(=O)[C@]12C[C@H]3C[C@H](C[C@H](C3)C1)C2)c1cccc([N+](=O)[O-])c1)NCCCNC(=O)c1ccc(-c2c3nc(c(-c4cccc(S(=O)(=O)[O-])c4F)c4ccc([nH]4)c(-c4cccc(S(=O)(=O)[O-])c4F)c4nc(c(-c5cccc(S(=O)(=O)[O-])c5F)c5ccc2[nH]5)C=C4)C=C3)cc1
REMARK SMILES IDX 29 1 28 2 27 3 1 4 2 5 3 7 4 8 18 9 19 10 26 11 20 12 22 13
REMARK SMILES IDX 21 14 23 15 24 16 25 17 5 18 6 19 7 21 8 22 9 23 16 24 17 25
REMARK SMILES IDX 10 26 14 27 12 28 11 29 15 30 13 31 30 32 31 33 32 34 33 36
REMARK SMILES IDX 34 37 35 38 96 39 36 40 95 41 37 42 38 43 39 44 89 45 40 46
REMARK SMILES IDX 94 47 88 48 90 49 41 50 93 51 87 52 86 53 42 55 74 56 54 57
REMARK SMILES IDX 73 58 55 59 58 60 72 61 91 62 56 63 57 64 71 66 92 67 59 68
REMARK SMILES IDX 43 69 44 70 52 71 45 72 47 73 53 74 46 75 48 76 49 77 50 78
REMARK SMILES IDX 51 79 75 80 76 81 84 82 77 83 79 84 85 85 78 86 80 87 81 88
REMARK SMILES IDX 82 89 83 90 60 91 61 92 69 93 62 94 64 95 70 96 63 97 65 98
REMARK SMILES IDX 66 99 67 100 68 101
REMARK H PARENT 27 6 5 20 31 35 90 54 58 65
REMARK Flexibility Score: inf
ROOT
ATOM      1  C   UNL     1       3.202  -0.373  -5.456  1.00  0.00     0.042 C 
ENDROOT
BRANCH   1   2
ATOM      2  C   UNL     1       2.488  -0.407  -4.109  1.00  0.00     0.117 C 
BRANCH   2   3
ATOM      3  N   UNL     1       2.967  -1.344  -3.099  1.00  0.00    -0.356 N 
ATOM      4  O   UNL     1       5.189  -1.256  -3.635  1.00  0.00    -0.275 OA
ATOM      5  C   UNL     1       4.300  -1.533  -2.831  1.00  0.00     0.222 C 
ATOM      6  H   UNL     1       2.306  -1.863  -2.587  1.00  0.00     0.163 HD
BRANCH   5   7
ATOM      7  C   UNL     1       4.693  -2.084  -1.481  1.00  0.00     0.129 C 
BRANCH   7   8
ATOM      8  C   UNL     1       3.749  -2.028  -0.272  1.00  0.00     0.122 C 
BRANCH   8   9
ATOM      9  C   UNL     1       4.305  -3.021   0.761  1.00  0.00    -0.018 A 
ATOM     10  C   UNL     1       4.072  -4.399   0.578  1.00  0.00     0.006 A 
ATOM     11  C   UNL     1       5.142  -2.615   1.812  1.00  0.00     0.091 A 
ATOM     12  C   UNL     1       4.679  -5.352   1.398  1.00  0.00     0.007 A 
ATOM     13  C   UNL     1       5.742  -3.578   2.641  1.00  0.00     0.269 A 
ATOM     14  C   UNL     1       5.520  -4.945   2.431  1.00  0.00     0.085 A 
BRANCH  13  15
ATOM     15  N   UNL     1       6.631  -3.151   3.729  1.00  0.00     0.062 N 
ATOM     16  O   UNL     1       7.087  -4.026   4.480  1.00  0.00    -0.258 OA
ATOM     17  O   UNL     1       6.868  -1.940   3.839  1.00  0.00    -0.258 OA
ENDBRANCH  13  15
ENDBRANCH   8   9
BRANCH   8  18
ATOM     18  N   UNL     1       3.280  -0.794   0.410  1.00  0.00    -0.348 N 
ATOM     19  C   UNL     1       3.548   0.514   0.655  1.00  0.00     0.226 C 
ATOM     20  H   UNL     1       2.437  -1.013   0.869  1.00  0.00     0.164 HD
ATOM     21  O   UNL     1       2.844   1.011   1.545  1.00  0.00    -0.274 OA
BRANCH  19  22
ATOM     22  C   UNL     1       4.558   1.396  -0.089  1.00  0.00     0.050 C 
ATOM     23  C   UNL     1       6.000   0.919   0.140  1.00  0.00     0.020 C 
ATOM     24  C   UNL     1       4.513   2.889   0.368  1.00  0.00     0.020 C 
ATOM     25  C   UNL     1       4.163   1.445  -1.564  1.00  0.00     0.020 C 
ATOM     26  C   UNL     1       6.981   1.729  -0.721  1.00  0.00    -0.010 C 
ATOM     27  C   UNL     1       5.498   3.747  -0.470  1.00  0.00    -0.010 C 
ATOM     28  C   UNL     1       5.174   2.205  -2.417  1.00  0.00    -0.010 C 
ATOM     29  C   UNL     1       6.577   1.615  -2.199  1.00  0.00     0.007 C 
ATOM     30  C   UNL     1       6.925   3.203  -0.290  1.00  0.00     0.007 C 
ATOM     31  C   UNL     1       5.141   3.668  -1.966  1.00  0.00     0.007 C 
ENDBRANCH  19  22
ENDBRANCH   8  18
ENDBRANCH   7   8
ENDBRANCH   5   7
ENDBRANCH   2   3
ENDBRANCH   1   2
BRANCH   1  32
ATOM     32  C   UNL     1       3.341  -1.730  -6.121  1.00  0.00     0.118 C 
BRANCH  32  33
ATOM     33  N   UNL     1       2.059  -2.405  -6.260  1.00  0.00    -0.352 N 
ATOM     34  C   UNL     1       1.547  -3.074  -7.333  1.00  0.00     0.251 C 
ATOM     35  H   UNL     1       1.478  -2.373  -5.466  1.00  0.00     0.163 HD
ATOM     36  O   UNL     1       0.367  -3.437  -7.313  1.00  0.00    -0.269 OA
BRANCH  34  37
ATOM     37  C   UNL     1       2.396  -3.360  -8.505  1.00  0.00     0.039 A 
ATOM     38  C   UNL     1       1.838  -3.246  -9.780  1.00  0.00     0.014 A 
ATOM     39  C   UNL     1       3.721  -3.783  -8.350  1.00  0.00     0.014 A 
ATOM     40  C   UNL     1       2.611  -3.551 -10.899  1.00  0.00     0.010 A 
ATOM     41  C   UNL     1       4.514  -4.004  -9.468  1.00  0.00     0.010 A 
ATOM     42  C   UNL     1       3.955  -3.932 -10.750  1.00  0.00    -0.014 A 
BRANCH  42  43
ATOM     43  C   UNL     1       4.766  -4.319 -11.928  1.00  0.00     0.031 A 
ATOM     44  C   UNL     1       5.254  -5.736 -12.066  1.00  0.00     0.074 A 
ATOM     45  C   UNL     1       5.096  -3.388 -12.843  1.00  0.00     0.049 A 
ATOM     46  N   UNL     1       5.957  -6.274 -13.028  1.00  0.00    -0.248 NA
ATOM     47  C   UNL     1       4.936  -6.666 -10.968  1.00  0.00     0.031 C 
ATOM     48  C   UNL     1       4.754  -1.966 -12.765  1.00  0.00     0.029 A 
ATOM     49  N   UNL     1       5.806  -3.497 -14.010  1.00  0.00    -0.354 N 
ATOM     50  C   UNL     1       6.193  -7.587 -12.637  1.00  0.00     0.074 A 
ATOM     51  C   UNL     1       5.597  -7.755 -11.331  1.00  0.00     0.031 C 
ATOM     52  C   UNL     1       5.243  -1.338 -13.846  1.00  0.00     0.029 A 
ATOM     53  C   UNL     1       5.943  -2.307 -14.684  1.00  0.00     0.049 A 
ATOM     54  H   UNL     1       6.182  -4.347 -14.335  1.00  0.00     0.167 HD
ATOM     55  C   UNL     1       6.816  -8.577 -13.319  1.00  0.00     0.034 A 
ATOM     56  C   UNL     1       6.554  -2.034 -15.853  1.00  0.00     0.034 A 
ATOM     57  C   UNL     1       7.356  -8.415 -14.641  1.00  0.00     0.049 A 
ATOM     58  C   UNL     1       7.168  -3.168 -16.629  1.00  0.00     0.074 A 
ATOM     59  C   UNL     1       7.934  -9.368 -15.459  1.00  0.00     0.029 A 
ATOM     60  N   UNL     1       7.382  -7.217 -15.339  1.00  0.00    -0.354 N 
ATOM     61  N   UNL     1       7.238  -4.440 -16.317  1.00  0.00    -0.248 NA
ATOM     62  C   UNL     1       7.742  -2.840 -17.941  1.00  0.00     0.031 C 
ATOM     63  C   UNL     1       8.320  -8.742 -16.650  1.00  0.00     0.029 A 
ATOM     64  C   UNL     1       7.961  -7.405 -16.581  1.00  0.00     0.049 A 
ATOM     65  H   UNL     1       7.038  -6.359 -15.001  1.00  0.00     0.167 HD
ATOM     66  C   UNL     1       7.823  -5.070 -17.408  1.00  0.00     0.074 A 
ATOM     67  C   UNL     1       8.071  -4.041 -18.398  1.00  0.00     0.031 C 
ATOM     68  C   UNL     1       8.140  -6.378 -17.574  1.00  0.00     0.034 A 
BRANCH  55  69
ATOM     69  C   UNL     1       6.886  -9.936 -12.672  1.00  0.00     0.023 A 
ATOM     70  C   UNL     1       5.710 -10.704 -12.541  1.00  0.00     0.012 A 
ATOM     71  C   UNL     1       8.112 -10.472 -12.234  1.00  0.00     0.148 A 
ATOM     72  C   UNL     1       5.746 -11.966 -11.951  1.00  0.00     0.002 A 
ATOM     73  C   UNL     1       8.147 -11.751 -11.688  1.00  0.00     0.091 A 
ATOM     74  F   UNL     1       9.216  -9.720 -12.345  1.00  0.00    -0.205 F 
ATOM     75  C   UNL     1       6.965 -12.493 -11.534  1.00  0.00     0.022 A 
BRANCH  73  76
ATOM     76  S   UNL     1       9.677 -12.551 -11.192  1.00  0.00     0.127 S 
ATOM     77  O   UNL     1       9.562 -12.529  -9.734  1.00  0.00    -0.237 OA
ATOM     78  O   UNL     1       9.540 -13.878 -11.793  1.00  0.00    -0.237 OA
ATOM     79  O   UNL     1      10.752 -11.741 -11.748  1.00  0.00    -0.744 OA
ENDBRANCH  73  76
ENDBRANCH  55  69
BRANCH  56  80
ATOM     80  C   UNL     1       6.523  -0.650 -16.403  1.00  0.00     0.023 A 
ATOM     81  C   UNL     1       5.728  -0.373 -17.532  1.00  0.00     0.012 A 
ATOM     82  C   UNL     1       7.245   0.397 -15.798  1.00  0.00     0.148 A 
ATOM     83  C   UNL     1       5.679   0.913 -18.071  1.00  0.00     0.002 A 
ATOM     84  C   UNL     1       7.150   1.687 -16.307  1.00  0.00     0.091 A 
ATOM     85  F   UNL     1       8.002   0.112 -14.729  1.00  0.00    -0.205 F 
ATOM     86  C   UNL     1       6.382   1.944 -17.453  1.00  0.00     0.022 A 
BRANCH  84  87
ATOM     87  S   UNL     1       7.915   3.097 -15.500  1.00  0.00     0.127 S 
ATOM     88  O   UNL     1       9.016   3.401 -16.411  1.00  0.00    -0.237 OA
ATOM     89  O   UNL     1       6.827   4.076 -15.502  1.00  0.00    -0.237 OA
ATOM     90  O   UNL     1       8.297   2.630 -14.175  1.00  0.00    -0.744 OA
ENDBRANCH  84  87
ENDBRANCH  56  80
BRANCH  68  91
ATOM     91  C   UNL     1       8.746  -6.786 -18.890  1.00  0.00     0.023 A 
ATOM     92  C   UNL     1      10.075  -6.429 -19.193  1.00  0.00     0.012 A 
ATOM     93  C   UNL     1       8.020  -7.585 -19.795  1.00  0.00     0.148 A 
ATOM     94  C   UNL     1      10.659  -6.830 -20.393  1.00  0.00     0.002 A 
ATOM     95  C   UNL     1       8.626  -8.023 -20.966  1.00  0.00     0.091 A 
ATOM     96  F   UNL     1       6.750  -7.896 -19.499  1.00  0.00    -0.205 F 
ATOM     97  C   UNL     1       9.940  -7.636 -21.273  1.00  0.00     0.022 A 
BRANCH  95  98
ATOM     98  S   UNL     1       7.804  -9.145 -22.103  1.00  0.00     0.127 S 
ATOM     99  O   UNL     1       7.397  -8.239 -23.175  1.00  0.00    -0.237 OA
ATOM    100  O   UNL     1       8.879 -10.070 -22.462  1.00  0.00    -0.237 OA
ATOM    101  O   UNL     1       6.718  -9.752 -21.345  1.00  0.00    -0.744 OA
ENDBRANCH  95  98
ENDBRANCH  68  91
ENDBRANCH  42  43
ENDBRANCH  34  37
ENDBRANCH  32  33
ENDBRANCH   1  32
TORSDOF 18
