REMARK SMILES CC[C@@](C)(Nc1c([N+](=O)[O-])c(C(C)C)nn1C)C(=O)NCCCNC(=O)c1ccc(-c2c3nc(c(-c4cccc(S(=O)(=O)[O-])c4F)c4ccc([nH]4)c(-c4cccc(S(=O)(=O)[O-])c4F)c4nc(c(-c5cccc(S(=O)(=O)[O-])c5F)c5ccc2[nH]5)C=C4)C=C3)cc1
REMARK SMILES IDX 22 1 21 2 20 3 18 4 19 5 3 7 4 8 2 9 1 10 5 11 6 13 7 14
REMARK SMILES IDX 16 15 11 16 15 17 17 18 8 19 9 20 10 21 12 22 13 23 14 24
REMARK SMILES IDX 23 25 24 26 25 27 26 29 27 30 28 31 89 32 29 33 88 34 30 35
REMARK SMILES IDX 31 36 32 37 82 38 33 39 87 40 81 41 83 42 34 43 86 44 80 45
REMARK SMILES IDX 79 46 35 48 67 49 47 50 66 51 48 52 51 53 65 54 84 55 49 56
REMARK SMILES IDX 50 57 64 59 85 60 52 61 36 62 37 63 45 64 38 65 40 66 46 67
REMARK SMILES IDX 39 68 41 69 42 70 43 71 44 72 68 73 69 74 77 75 70 76 72 77
REMARK SMILES IDX 78 78 71 79 73 80 74 81 75 82 76 83 53 84 54 85 62 86 55 87
REMARK SMILES IDX 57 88 63 89 56 90 58 91 59 92 60 93 61 94
REMARK H PARENT 20 6 5 12 24 28 83 47 51 58
REMARK Flexibility Score: inf
ROOT
ATOM      1  C   UNL     1       2.606   2.266   5.882  1.00  0.00     0.042 C 
ENDROOT
BRANCH   1   2
ATOM      2  C   UNL     1       2.295   2.822   4.497  1.00  0.00     0.117 C 
BRANCH   2   3
ATOM      3  N   UNL     1       2.953   2.182   3.372  1.00  0.00    -0.354 N 
ATOM      4  C   UNL     1       2.512   1.323   2.407  1.00  0.00     0.245 C 
ATOM      5  O   UNL     1       3.275   1.198   1.440  1.00  0.00    -0.272 OA
ATOM      6  H   UNL     1       3.906   2.412   3.289  1.00  0.00     0.163 HD
BRANCH   4   7
ATOM      7  C   UNL     1       1.169   0.537   2.483  1.00  0.00     0.115 C 
ATOM      8  C   UNL     1       0.006   1.542   2.291  1.00  0.00     0.045 C 
BRANCH   7   9
ATOM      9  C   UNL     1       1.022  -0.556   1.372  1.00  0.00     0.035 C 
ATOM     10  C   UNL     1       1.088  -0.102  -0.083  1.00  0.00     0.007 C 
ENDBRANCH   7   9
BRANCH   7  11
ATOM     11  N   UNL     1       0.947  -0.176   3.760  1.00  0.00    -0.351 N 
ATOM     12  H   UNL     1       0.042  -0.058   4.129  1.00  0.00     0.163 HD
BRANCH  11  13
ATOM     13  C   UNL     1       1.760  -0.972   4.531  1.00  0.00     0.205 A 
ATOM     14  C   UNL     1       1.381  -1.923   5.489  1.00  0.00     0.334 A 
ATOM     15  N   UNL     1       3.139  -1.010   4.609  1.00  0.00    -0.246 N 
ATOM     16  C   UNL     1       2.536  -2.157   6.286  1.00  0.00     0.145 A 
ATOM     17  N   UNL     1       3.572  -1.457   5.805  1.00  0.00    -0.169 NA
ATOM     18  C   UNL     1       4.161  -0.896   3.600  1.00  0.00     0.176 C 
BRANCH  14  19
ATOM     19  N   UNL     1       0.074  -2.508   5.609  1.00  0.00     0.068 N 
ATOM     20  O   UNL     1      -0.045  -3.503   6.332  1.00  0.00    -0.258 OA
ATOM     21  O   UNL     1      -0.838  -2.014   4.926  1.00  0.00    -0.258 OA
ENDBRANCH  14  19
BRANCH  16  22
ATOM     22  C   UNL     1       2.749  -3.011   7.512  1.00  0.00     0.041 C 
ATOM     23  C   UNL     1       4.086  -3.764   7.445  1.00  0.00     0.014 C 
ATOM     24  C   UNL     1       2.679  -2.184   8.798  1.00  0.00     0.014 C 
ENDBRANCH  16  22
ENDBRANCH  11  13
ENDBRANCH   7  11
ENDBRANCH   4   7
ENDBRANCH   2   3
ENDBRANCH   1   2
BRANCH   1  25
ATOM     25  C   UNL     1       4.078   2.122   6.249  1.00  0.00     0.118 C 
BRANCH  25  26
ATOM     26  N   UNL     1       4.813   3.374   6.189  1.00  0.00    -0.352 N 
ATOM     27  C   UNL     1       5.679   3.927   7.100  1.00  0.00     0.251 C 
ATOM     28  H   UNL     1       4.669   3.905   5.372  1.00  0.00     0.163 HD
ATOM     29  O   UNL     1       6.121   5.053   6.897  1.00  0.00    -0.269 OA
BRANCH  27  30
ATOM     30  C   UNL     1       6.060   3.195   8.331  1.00  0.00     0.039 A 
ATOM     31  C   UNL     1       6.067   3.900   9.538  1.00  0.00     0.014 A 
ATOM     32  C   UNL     1       6.450   1.852   8.307  1.00  0.00     0.014 A 
ATOM     33  C   UNL     1       6.433   3.253  10.720  1.00  0.00     0.010 A 
ATOM     34  C   UNL     1       6.758   1.191   9.500  1.00  0.00     0.010 A 
ATOM     35  C   UNL     1       6.767   1.887  10.718  1.00  0.00    -0.014 A 
BRANCH  35  36
ATOM     36  C   UNL     1       7.108   1.208  11.998  1.00  0.00     0.031 A 
ATOM     37  C   UNL     1       8.492   0.673  12.252  1.00  0.00     0.074 A 
ATOM     38  C   UNL     1       6.157   1.069  12.944  1.00  0.00     0.049 A 
ATOM     39  N   UNL     1       8.986   0.159  13.351  1.00  0.00    -0.248 NA
ATOM     40  C   UNL     1       9.441   0.704  11.129  1.00  0.00     0.031 C 
ATOM     41  C   UNL     1       4.755   1.463  12.793  1.00  0.00     0.029 A 
ATOM     42  N   UNL     1       6.222   0.558  14.217  1.00  0.00    -0.354 N 
ATOM     43  C   UNL     1      10.292  -0.210  13.048  1.00  0.00     0.074 A 
ATOM     44  C   UNL     1      10.502   0.104  11.652  1.00  0.00     0.031 C 
ATOM     45  C   UNL     1       4.099   1.205  13.936  1.00  0.00     0.029 A 
ATOM     46  C   UNL     1       5.026   0.609  14.893  1.00  0.00     0.049 A 
ATOM     47  H   UNL     1       7.047   0.191  14.608  1.00  0.00     0.167 HD
ATOM     48  C   UNL     1      11.240  -0.736  13.863  1.00  0.00     0.034 A 
ATOM     49  C   UNL     1       4.709   0.227  16.146  1.00  0.00     0.034 A 
ATOM     50  C   UNL     1      11.035  -1.031  15.257  1.00  0.00     0.049 A 
ATOM     51  C   UNL     1       5.790  -0.313  17.043  1.00  0.00     0.074 A 
ATOM     52  C   UNL     1      11.954  -1.492  16.184  1.00  0.00     0.029 A 
ATOM     53  N   UNL     1       9.825  -0.913  15.924  1.00  0.00    -0.354 N 
ATOM     54  N   UNL     1       7.063  -0.492  16.788  1.00  0.00    -0.248 NA
ATOM     55  C   UNL     1       5.399  -0.660  18.417  1.00  0.00     0.031 C 
ATOM     56  C   UNL     1      11.291  -1.686  17.401  1.00  0.00     0.029 A 
ATOM     57  C   UNL     1       9.969  -1.304  17.245  1.00  0.00     0.049 A 
ATOM     58  H   UNL     1       8.986  -0.597  15.517  1.00  0.00     0.167 HD
ATOM     59  C   UNL     1       7.632  -0.938  17.976  1.00  0.00     0.074 A 
ATOM     60  C   UNL     1       6.568  -0.973  18.958  1.00  0.00     0.031 C 
ATOM     61  C   UNL     1       8.915  -1.299  18.227  1.00  0.00     0.034 A 
BRANCH  48  62
ATOM     62  C   UNL     1      12.608  -0.988  13.277  1.00  0.00     0.023 A 
ATOM     63  C   UNL     1      13.433   0.103  12.936  1.00  0.00     0.012 A 
ATOM     64  C   UNL     1      13.103  -2.299  13.126  1.00  0.00     0.148 A 
ATOM     65  C   UNL     1      14.711  -0.104  12.418  1.00  0.00     0.002 A 
ATOM     66  C   UNL     1      14.396  -2.497  12.654  1.00  0.00     0.091 A 
ATOM     67  F   UNL     1      12.301  -3.326  13.440  1.00  0.00    -0.205 F 
ATOM     68  C   UNL     1      15.196  -1.402  12.287  1.00  0.00     0.022 A 
BRANCH  66  69
ATOM     69  S   UNL     1      15.146  -4.124  12.526  1.00  0.00     0.127 S 
ATOM     70  O   UNL     1      15.239  -4.293  11.077  1.00  0.00    -0.237 OA
ATOM     71  O   UNL     1      16.430  -3.924  13.199  1.00  0.00    -0.237 OA
ATOM     72  O   UNL     1      14.239  -5.040  13.204  1.00  0.00    -0.744 OA
ENDBRANCH  66  69
ENDBRANCH  48  62
BRANCH  49  73
ATOM     73  C   UNL     1       3.318   0.405  16.651  1.00  0.00     0.023 A 
ATOM     74  C   UNL     1       3.055   1.358  17.655  1.00  0.00     0.012 A 
ATOM     75  C   UNL     1       2.252  -0.352  16.128  1.00  0.00     0.148 A 
ATOM     76  C   UNL     1       1.763   1.525  18.157  1.00  0.00     0.002 A 
ATOM     77  C   UNL     1       0.959  -0.138  16.589  1.00  0.00     0.091 A 
ATOM     78  F   UNL     1       2.525  -1.261  15.181  1.00  0.00    -0.205 F 
ATOM     79  C   UNL     1       0.715   0.785  17.617  1.00  0.00     0.022 A 
BRANCH  77  80
ATOM     80  S   UNL     1      -0.468  -0.947  15.858  1.00  0.00     0.127 S 
ATOM     81  O   UNL     1      -0.882  -1.848  16.929  1.00  0.00    -0.237 OA
ATOM     82  O   UNL     1      -1.365   0.185  15.620  1.00  0.00    -0.237 OA
ATOM     83  O   UNL     1       0.022  -1.588  14.645  1.00  0.00    -0.744 OA
ENDBRANCH  77  80
ENDBRANCH  49  73
BRANCH  61  84
ATOM     84  C   UNL     1       9.253  -1.728  19.633  1.00  0.00     0.023 A 
ATOM     85  C   UNL     1       8.755  -2.945  20.141  1.00  0.00     0.012 A 
ATOM     86  C   UNL     1      10.098  -0.940  20.441  1.00  0.00     0.148 A 
ATOM     87  C   UNL     1       9.048  -3.345  21.445  1.00  0.00     0.002 A 
ATOM     88  C   UNL     1      10.431  -1.372  21.719  1.00  0.00     0.091 A 
ATOM     89  F   UNL     1      10.550   0.223  19.951  1.00  0.00    -0.205 F 
ATOM     90  C   UNL     1       9.893  -2.564  22.229  1.00  0.00     0.022 A 
BRANCH  88  91
ATOM     91  S   UNL     1      11.591  -0.481  22.762  1.00  0.00     0.127 S 
ATOM     92  O   UNL     1      10.700   0.126  23.749  1.00  0.00    -0.237 OA
ATOM     93  O   UNL     1      12.433  -1.559  23.282  1.00  0.00    -0.237 OA
ATOM     94  O   UNL     1      12.283   0.453  21.884  1.00  0.00    -0.744 OA
ENDBRANCH  88  91
ENDBRANCH  61  84
ENDBRANCH  35  36
ENDBRANCH  27  30
ENDBRANCH  25  26
ENDBRANCH   1  25
TORSDOF 18
