REMARK SMILES O=C(CSc1nnnn1C1CC1)N[C@H](CO)C(=O)NCCCNC(=O)c1ccc(-c2c3nc(c(-c4cccc(S(=O)(=O)[O-])c4F)c4ccc([nH]4)c(-c4cccc(S(=O)(=O)[O-])c4F)c4nc(c(-c5cccc(S(=O)(=O)[O-])c5F)c5ccc2[nH]5)C=C4)C=C3)cc1
REMARK SMILES IDX 20 1 19 2 17 3 18 4 14 6 13 7 1 8 2 9 3 11 4 12 5 13 6 14
REMARK SMILES IDX 9 15 7 16 8 17 10 18 11 19 12 20 15 21 16 22 21 24 22 25
REMARK SMILES IDX 23 26 24 27 25 29 26 30 27 31 88 32 28 33 87 34 29 35 30 36
REMARK SMILES IDX 31 37 81 38 32 39 86 40 80 41 82 42 33 43 85 44 79 45 78 46
REMARK SMILES IDX 34 48 66 49 46 50 65 51 47 52 50 53 64 54 83 55 48 56 49 57
REMARK SMILES IDX 63 59 84 60 51 61 35 62 36 63 44 64 37 65 39 66 45 67 38 68
REMARK SMILES IDX 40 69 41 70 42 71 43 72 67 73 68 74 76 75 69 76 71 77 77 78
REMARK SMILES IDX 70 79 72 80 73 81 74 82 75 83 52 84 53 85 61 86 54 87 56 88
REMARK SMILES IDX 62 89 55 90 57 91 58 92 59 93 60 94
REMARK H PARENT 19 5 13 10 16 23 23 28 82 47 50 58
REMARK Flexibility Score: inf
ROOT
ATOM      1  C   UNL     1       5.347  -1.665   2.406  1.00  0.00     0.117 C 
ENDROOT
BRANCH   1   2
ATOM      2  N   UNL     1       4.199  -1.269   3.201  1.00  0.00    -0.354 N 
ATOM      3  C   UNL     1       2.869  -1.436   2.936  1.00  0.00     0.244 C 
ATOM      4  O   UNL     1       2.052  -1.218   3.834  1.00  0.00    -0.273 OA
ATOM      5  H   UNL     1       4.408  -0.818   4.051  1.00  0.00     0.163 HD
BRANCH   3   6
ATOM      6  C   UNL     1       2.374  -1.962   1.578  1.00  0.00     0.197 C 
BRANCH   6   7
ATOM      7  N   UNL     1       2.843  -3.356   1.498  1.00  0.00    -0.342 N 
ATOM      8  O   UNL     1       4.076  -3.291  -0.420  1.00  0.00    -0.274 OA
ATOM      9  C   UNL     1       3.777  -3.854   0.633  1.00  0.00     0.231 C 
ATOM     10  H   UNL     1       2.443  -3.994   2.131  1.00  0.00     0.164 HD
BRANCH   9  11
ATOM     11  C   UNL     1       4.559  -5.085   1.075  1.00  0.00     0.178 C 
BRANCH  11  12
ATOM     12  S   UNL     1       3.889  -6.001   2.481  1.00  0.00    -0.075 SA
BRANCH  12  13
ATOM     13  C   UNL     1       4.787  -5.340   3.804  1.00  0.00     0.210 A 
ATOM     14  N   UNL     1       4.491  -4.194   4.375  1.00  0.00    -0.102 NA
ATOM     15  N   UNL     1       5.776  -5.950   4.546  1.00  0.00    -0.217 N 
ATOM     16  N   UNL     1       5.301  -4.093   5.476  1.00  0.00    -0.023 NA
ATOM     17  N   UNL     1       6.064  -5.168   5.605  1.00  0.00    -0.044 NA
BRANCH  15  18
ATOM     18  C   UNL     1       6.528  -7.172   4.352  1.00  0.00     0.112 C 
ATOM     19  C   UNL     1       6.199  -8.316   3.418  1.00  0.00     0.029 C 
ATOM     20  C   UNL     1       7.344  -7.415   3.095  1.00  0.00     0.029 C 
ENDBRANCH  15  18
ENDBRANCH  12  13
ENDBRANCH  11  12
ENDBRANCH   9  11
ENDBRANCH   6   7
BRANCH   6  21
ATOM     21  C   UNL     1       2.673  -0.972   0.438  1.00  0.00     0.191 C 
BRANCH  21  22
ATOM     22  O   UNL     1       1.964   0.267   0.552  1.00  0.00    -0.394 OA
ATOM     23  H   UNL     1       1.010   0.099   0.511  1.00  0.00     0.210 HD
ENDBRANCH  21  22
ENDBRANCH   6  21
ENDBRANCH   3   6
ENDBRANCH   1   2
BRANCH   1  24
ATOM     24  C   UNL     1       6.438  -0.612   2.299  1.00  0.00     0.042 C 
BRANCH  24  25
ATOM     25  C   UNL     1       7.316  -0.578   3.534  1.00  0.00     0.118 C 
BRANCH  25  26
ATOM     26  N   UNL     1       8.108  -1.802   3.708  1.00  0.00    -0.352 N 
ATOM     27  C   UNL     1       8.967  -2.103   4.753  1.00  0.00     0.251 C 
ATOM     28  H   UNL     1       8.019  -2.485   3.005  1.00  0.00     0.163 HD
ATOM     29  O   UNL     1       9.758  -3.026   4.684  1.00  0.00    -0.269 OA
BRANCH  27  30
ATOM     30  C   UNL     1       8.905  -1.226   5.936  1.00  0.00     0.039 A 
ATOM     31  C   UNL     1      10.034  -0.516   6.352  1.00  0.00     0.014 A 
ATOM     32  C   UNL     1       7.648  -0.974   6.475  1.00  0.00     0.014 A 
ATOM     33  C   UNL     1       9.866   0.547   7.238  1.00  0.00     0.010 A 
ATOM     34  C   UNL     1       7.470   0.166   7.223  1.00  0.00     0.010 A 
ATOM     35  C   UNL     1       8.572   0.917   7.638  1.00  0.00    -0.014 A 
BRANCH  35  36
ATOM     36  C   UNL     1       8.350   2.163   8.377  1.00  0.00     0.031 A 
ATOM     37  C   UNL     1       8.917   3.408   7.773  1.00  0.00     0.074 A 
ATOM     38  C   UNL     1       7.465   2.259   9.395  1.00  0.00     0.049 A 
ATOM     39  N   UNL     1       9.804   4.204   8.279  1.00  0.00    -0.248 NA
ATOM     40  C   UNL     1       8.504   3.773   6.409  1.00  0.00     0.031 C 
ATOM     41  C   UNL     1       6.560   1.217   9.898  1.00  0.00     0.029 A 
ATOM     42  N   UNL     1       7.059   3.366  10.077  1.00  0.00    -0.354 N 
ATOM     43  C   UNL     1       9.892   5.288   7.402  1.00  0.00     0.074 A 
ATOM     44  C   UNL     1       9.216   4.882   6.198  1.00  0.00     0.031 C 
ATOM     45  C   UNL     1       5.539   1.796  10.562  1.00  0.00     0.029 A 
ATOM     46  C   UNL     1       5.828   3.208  10.705  1.00  0.00     0.049 A 
ATOM     47  H   UNL     1       7.585   4.197  10.121  1.00  0.00     0.167 HD
ATOM     48  C   UNL     1      10.308   6.518   7.822  1.00  0.00     0.034 A 
ATOM     49  C   UNL     1       5.072   4.173  11.276  1.00  0.00     0.034 A 
ATOM     50  C   UNL     1      10.936   6.451   9.118  1.00  0.00     0.049 A 
ATOM     51  C   UNL     1       5.963   5.315  11.568  1.00  0.00     0.074 A 
ATOM     52  C   UNL     1      11.999   5.765   9.670  1.00  0.00     0.029 A 
ATOM     53  N   UNL     1      10.217   6.941  10.181  1.00  0.00    -0.354 N 
ATOM     54  N   UNL     1       6.921   5.278  12.452  1.00  0.00    -0.248 NA
ATOM     55  C   UNL     1       6.038   6.403  10.609  1.00  0.00     0.031 C 
ATOM     56  C   UNL     1      11.590   5.469  11.005  1.00  0.00     0.029 A 
ATOM     57  C   UNL     1      10.328   6.035  11.200  1.00  0.00     0.049 A 
ATOM     58  H   UNL     1       9.715   7.787  10.205  1.00  0.00     0.167 HD
ATOM     59  C   UNL     1       7.939   6.032  11.887  1.00  0.00     0.074 A 
ATOM     60  C   UNL     1       7.287   6.815  10.841  1.00  0.00     0.031 C 
ATOM     61  C   UNL     1       9.253   5.728  12.118  1.00  0.00     0.034 A 
BRANCH  48  62
ATOM     62  C   UNL     1       9.846   7.853   7.260  1.00  0.00     0.023 A 
ATOM     63  C   UNL     1      10.483   9.018   7.755  1.00  0.00     0.012 A 
ATOM     64  C   UNL     1       8.663   8.050   6.514  1.00  0.00     0.148 A 
ATOM     65  C   UNL     1       9.932  10.294   7.587  1.00  0.00     0.002 A 
ATOM     66  C   UNL     1       8.167   9.330   6.274  1.00  0.00     0.091 A 
ATOM     67  F   UNL     1       7.922   7.005   6.139  1.00  0.00    -0.205 F 
ATOM     68  C   UNL     1       8.775  10.452   6.839  1.00  0.00     0.022 A 
BRANCH  66  69
ATOM     69  S   UNL     1       6.712   9.589   5.251  1.00  0.00     0.127 S 
ATOM     70  O   UNL     1       5.678   9.793   6.260  1.00  0.00    -0.237 OA
ATOM     71  O   UNL     1       7.083  10.784   4.492  1.00  0.00    -0.237 OA
ATOM     72  O   UNL     1       6.599   8.383   4.439  1.00  0.00    -0.744 OA
ENDBRANCH  66  69
ENDBRANCH  48  62
BRANCH  49  73
ATOM     73  C   UNL     1       3.608   4.244  11.457  1.00  0.00     0.023 A 
ATOM     74  C   UNL     1       3.074   5.037  12.489  1.00  0.00     0.012 A 
ATOM     75  C   UNL     1       2.729   3.744  10.469  1.00  0.00     0.148 A 
ATOM     76  C   UNL     1       1.712   5.354  12.520  1.00  0.00     0.002 A 
ATOM     77  C   UNL     1       1.373   4.056  10.509  1.00  0.00     0.091 A 
ATOM     78  F   UNL     1       3.238   3.042   9.448  1.00  0.00    -0.205 F 
ATOM     79  C   UNL     1       0.864   4.871  11.527  1.00  0.00     0.022 A 
BRANCH  77  80
ATOM     80  S   UNL     1       0.220   3.482   9.255  1.00  0.00     0.127 S 
ATOM     81  O   UNL     1      -0.914   3.034  10.065  1.00  0.00    -0.237 OA
ATOM     82  O   UNL     1      -0.022   4.701   8.487  1.00  0.00    -0.237 OA
ATOM     83  O   UNL     1       0.910   2.411   8.549  1.00  0.00    -0.744 OA
ENDBRANCH  77  80
ENDBRANCH  49  73
BRANCH  61  84
ATOM     84  C   UNL     1       9.579   4.759  13.229  1.00  0.00     0.023 A 
ATOM     85  C   UNL     1       9.102   3.431  13.232  1.00  0.00     0.012 A 
ATOM     86  C   UNL     1      10.515   5.139  14.206  1.00  0.00     0.148 A 
ATOM     87  C   UNL     1       9.517   2.517  14.204  1.00  0.00     0.002 A 
ATOM     88  C   UNL     1      10.963   4.214  15.143  1.00  0.00     0.091 A 
ATOM     89  F   UNL     1      10.973   6.401  14.195  1.00  0.00    -0.205 F 
ATOM     90  C   UNL     1      10.458   2.905  15.153  1.00  0.00     0.022 A 
BRANCH  88  91
ATOM     91  S   UNL     1      12.271   4.627  16.302  1.00  0.00     0.127 S 
ATOM     92  O   UNL     1      11.518   4.990  17.500  1.00  0.00    -0.237 OA
ATOM     93  O   UNL     1      13.018   3.372  16.407  1.00  0.00    -0.237 OA
ATOM     94  O   UNL     1      13.023   5.707  15.672  1.00  0.00    -0.744 OA
ENDBRANCH  88  91
ENDBRANCH  61  84
ENDBRANCH  35  36
ENDBRANCH  27  30
ENDBRANCH  25  26
ENDBRANCH  24  25
ENDBRANCH   1  24
TORSDOF 20
