REMARK SMILES O=C(NCCCNC(=O)[C@@H](Cc1ccccc1)/N=C1\C(=O)c2ccccc2C(=O)[C@H]1Cl)c1ccc(-c2c3nc(c(-c4cccc(S(=O)(=O)[O-])c4F)c4ccc([nH]4)c(-c4cccc(S(=O)(=O)[O-])c4F)c4nc(c(-c5cccc(S(=O)(=O)[O-])c5F)c5ccc2[nH]5)C=C4)C=C3)cc1
REMARK SMILES IDX 4 1 3 2 1 3 2 4 32 6 33 7 94 8 34 9 93 10 35 11 36 12 37 13
REMARK SMILES IDX 87 14 38 15 92 16 86 17 88 18 39 19 91 20 85 21 84 22 40 24
REMARK SMILES IDX 72 25 52 26 71 27 53 28 56 29 70 30 89 31 54 32 55 33 69 35
REMARK SMILES IDX 90 36 57 37 41 38 42 39 50 40 43 41 45 42 51 43 44 44 46 45
REMARK SMILES IDX 47 46 48 47 49 48 73 49 74 50 82 51 75 52 77 53 83 54 76 55
REMARK SMILES IDX 78 56 79 57 80 58 81 59 58 60 59 61 67 62 60 63 62 64 68 65
REMARK SMILES IDX 61 66 63 67 64 68 65 69 66 70 5 71 6 72 7 73 8 74 9 76 10 77
REMARK SMILES IDX 11 78 12 79 13 80 17 81 14 82 16 83 15 84 18 85 19 86 20 87
REMARK SMILES IDX 30 88 21 89 22 90 28 91 31 92 23 93 27 94 29 95 24 96 26 97
REMARK SMILES IDX 25 98
REMARK H PARENT 3 5 88 23 56 34 7 75
REMARK Flexibility Score: inf
ROOT
ATOM      1  C   UNL     1       4.507  -0.534  -2.223  1.00  0.00     0.118 C 
ENDROOT
BRANCH   1   2
ATOM      2  N   UNL     1       3.133  -0.328  -1.781  1.00  0.00    -0.352 N 
ATOM      3  O   UNL     1       1.331   0.289  -0.630  1.00  0.00    -0.269 OA
ATOM      4  C   UNL     1       2.544   0.436  -0.799  1.00  0.00     0.251 C 
ATOM      5  H   UNL     1       2.481  -0.853  -2.300  1.00  0.00     0.163 HD
BRANCH   4   6
ATOM      6  C   UNL     1       3.283   1.376   0.090  1.00  0.00     0.039 A 
ATOM      7  C   UNL     1       4.472   1.997  -0.275  1.00  0.00     0.014 A 
ATOM      8  C   UNL     1       2.712   1.722   1.328  1.00  0.00     0.014 A 
ATOM      9  C   UNL     1       5.168   2.794   0.632  1.00  0.00     0.010 A 
ATOM     10  C   UNL     1       3.344   2.633   2.190  1.00  0.00     0.010 A 
ATOM     11  C   UNL     1       4.597   3.159   1.860  1.00  0.00    -0.014 A 
BRANCH  11  12
ATOM     12  C   UNL     1       5.288   4.195   2.676  1.00  0.00     0.031 A 
ATOM     13  C   UNL     1       5.801   3.914   4.060  1.00  0.00     0.074 A 
ATOM     14  C   UNL     1       5.495   5.407   2.118  1.00  0.00     0.049 A 
ATOM     15  N   UNL     1       6.562   4.663   4.817  1.00  0.00    -0.248 NA
ATOM     16  C   UNL     1       5.404   2.643   4.686  1.00  0.00     0.031 C 
ATOM     17  C   UNL     1       4.980   5.824   0.809  1.00  0.00     0.029 A 
ATOM     18  N   UNL     1       6.216   6.492   2.546  1.00  0.00    -0.354 N 
ATOM     19  C   UNL     1       6.703   3.980   6.019  1.00  0.00     0.074 A 
ATOM     20  C   UNL     1       5.942   2.755   5.894  1.00  0.00     0.031 C 
ATOM     21  C   UNL     1       5.465   7.035   0.508  1.00  0.00     0.029 A 
ATOM     22  C   UNL     1       6.278   7.509   1.621  1.00  0.00     0.049 A 
ATOM     23  H   UNL     1       6.646   6.540   3.430  1.00  0.00     0.167 HD
ATOM     24  C   UNL     1       7.411   4.337   7.118  1.00  0.00     0.034 A 
ATOM     25  C   UNL     1       6.926   8.690   1.652  1.00  0.00     0.034 A 
ATOM     26  C   UNL     1       8.197   5.540   7.220  1.00  0.00     0.049 A 
ATOM     27  C   UNL     1       7.761   9.023   2.853  1.00  0.00     0.074 A 
ATOM     28  C   UNL     1       9.007   5.954   8.263  1.00  0.00     0.029 A 
ATOM     29  N   UNL     1       8.267   6.527   6.248  1.00  0.00    -0.354 N 
ATOM     30  N   UNL     1       8.002   8.294   3.915  1.00  0.00    -0.248 NA
ATOM     31  C   UNL     1       8.435  10.328   2.850  1.00  0.00     0.031 C 
ATOM     32  C   UNL     1       9.551   7.200   7.930  1.00  0.00     0.029 A 
ATOM     33  C   UNL     1       9.097   7.553   6.669  1.00  0.00     0.049 A 
ATOM     34  H   UNL     1       7.794   6.503   5.384  1.00  0.00     0.167 HD
ATOM     35  C   UNL     1       8.876   9.039   4.696  1.00  0.00     0.074 A 
ATOM     36  C   UNL     1       9.143  10.264   3.970  1.00  0.00     0.031 C 
ATOM     37  C   UNL     1       9.395   8.742   5.913  1.00  0.00     0.034 A 
BRANCH  24  38
ATOM     38  C   UNL     1       7.399   3.397   8.298  1.00  0.00     0.023 A 
ATOM     39  C   UNL     1       8.129   2.193   8.239  1.00  0.00     0.012 A 
ATOM     40  C   UNL     1       6.721   3.735   9.486  1.00  0.00     0.148 A 
ATOM     41  C   UNL     1       8.158   1.324   9.330  1.00  0.00     0.002 A 
ATOM     42  C   UNL     1       6.786   2.882  10.584  1.00  0.00     0.091 A 
ATOM     43  F   UNL     1       6.014   4.873   9.519  1.00  0.00    -0.205 F 
ATOM     44  C   UNL     1       7.496   1.673  10.504  1.00  0.00     0.022 A 
BRANCH  42  45
ATOM     45  S   UNL     1       6.024   3.284  12.161  1.00  0.00     0.127 S 
ATOM     46  O   UNL     1       4.839   2.429  12.142  1.00  0.00    -0.237 OA
ATOM     47  O   UNL     1       7.054   2.876  13.118  1.00  0.00    -0.237 OA
ATOM     48  O   UNL     1       5.770   4.717  12.124  1.00  0.00    -0.744 OA
ENDBRANCH  42  45
ENDBRANCH  24  38
BRANCH  25  49
ATOM     49  C   UNL     1       6.869   9.596   0.470  1.00  0.00     0.023 A 
ATOM     50  C   UNL     1       8.026   9.790  -0.311  1.00  0.00     0.012 A 
ATOM     51  C   UNL     1       5.667  10.217   0.080  1.00  0.00     0.148 A 
ATOM     52  C   UNL     1       7.990  10.601  -1.446  1.00  0.00     0.002 A 
ATOM     53  C   UNL     1       5.623  10.972  -1.086  1.00  0.00     0.091 A 
ATOM     54  F   UNL     1       4.581  10.034   0.844  1.00  0.00    -0.205 F 
ATOM     55  C   UNL     1       6.787  11.180  -1.841  1.00  0.00     0.022 A 
BRANCH  53  56
ATOM     56  S   UNL     1       4.084  11.623  -1.745  1.00  0.00     0.127 S 
ATOM     57  O   UNL     1       4.206  13.046  -1.441  1.00  0.00    -0.237 OA
ATOM     58  O   UNL     1       4.192  11.282  -3.164  1.00  0.00    -0.237 OA
ATOM     59  O   UNL     1       3.027  10.909  -1.040  1.00  0.00    -0.744 OA
ENDBRANCH  53  56
ENDBRANCH  25  49
BRANCH  37  60
ATOM     60  C   UNL     1      10.331   9.749   6.526  1.00  0.00     0.023 A 
ATOM     61  C   UNL     1       9.820  10.957   7.042  1.00  0.00     0.012 A 
ATOM     62  C   UNL     1      11.707   9.475   6.639  1.00  0.00     0.148 A 
ATOM     63  C   UNL     1      10.671  11.892   7.630  1.00  0.00     0.002 A 
ATOM     64  C   UNL     1      12.542  10.391   7.269  1.00  0.00     0.091 A 
ATOM     65  F   UNL     1      12.179   8.332   6.119  1.00  0.00    -0.205 F 
ATOM     66  C   UNL     1      12.028  11.604   7.753  1.00  0.00     0.022 A 
BRANCH  64  67
ATOM     67  S   UNL     1      14.283  10.053   7.551  1.00  0.00     0.127 S 
ATOM     68  O   UNL     1      14.915  10.837   6.491  1.00  0.00    -0.237 OA
ATOM     69  O   UNL     1      14.490  10.576   8.902  1.00  0.00    -0.237 OA
ATOM     70  O   UNL     1      14.428   8.608   7.439  1.00  0.00    -0.744 OA
ENDBRANCH  64  67
ENDBRANCH  37  60
ENDBRANCH  11  12
ENDBRANCH   4   6
ENDBRANCH   1   2
BRANCH   1  71
ATOM     71  C   UNL     1       5.104  -1.881  -1.835  1.00  0.00     0.042 C 
BRANCH  71  72
ATOM     72  C   UNL     1       4.430  -3.084  -2.501  1.00  0.00     0.117 C 
BRANCH  72  73
ATOM     73  N   UNL     1       5.369  -4.142  -2.860  1.00  0.00    -0.354 N 
ATOM     74  C   UNL     1       5.946  -5.241  -2.342  1.00  0.00     0.245 C 
ATOM     75  H   UNL     1       5.684  -4.006  -3.783  1.00  0.00     0.163 HD
ATOM     76  O   UNL     1       6.691  -5.790  -3.184  1.00  0.00    -0.273 OA
BRANCH  74  77
ATOM     77  C   UNL     1       5.911  -5.866  -0.926  1.00  0.00     0.199 C 
BRANCH  77  78
ATOM     78  C   UNL     1       7.032  -5.497   0.074  1.00  0.00     0.073 C 
BRANCH  78  79
ATOM     79  C   UNL     1       6.772  -4.499   1.170  1.00  0.00    -0.045 A 
ATOM     80  C   UNL     1       7.111  -3.152   0.990  1.00  0.00     0.004 A 
ATOM     81  C   UNL     1       6.174  -4.895   2.377  1.00  0.00     0.004 A 
ATOM     82  C   UNL     1       6.787  -2.205   1.962  1.00  0.00     0.000 A 
ATOM     83  C   UNL     1       5.841  -3.945   3.344  1.00  0.00     0.000 A 
ATOM     84  C   UNL     1       6.135  -2.599   3.130  1.00  0.00     0.000 A 
ENDBRANCH  78  79
ENDBRANCH  77  78
BRANCH  77  85
ATOM     85  N   UNL     1       4.687  -6.515  -0.394  1.00  0.00    -0.270 NA
ATOM     86  C   UNL     1       3.735  -5.998   0.297  1.00  0.00     0.109 C 
ATOM     87  C   UNL     1       3.549  -4.547   0.564  1.00  0.00     0.209 C 
ATOM     88  C   UNL     1       2.698  -6.888   0.926  1.00  0.00     0.205 C 
ATOM     89  O   UNL     1       4.316  -3.750   0.056  1.00  0.00    -0.287 OA
ATOM     90  C   UNL     1       2.499  -4.057   1.443  1.00  0.00     0.035 A 
ATOM     91  C   UNL     1       2.153  -6.373   2.241  1.00  0.00     0.187 C 
ATOM     92  Cl  UNL     1       1.337  -7.056  -0.215  1.00  0.00    -0.107 Cl
ATOM     93  C   UNL     1       2.191  -2.692   1.433  1.00  0.00     0.013 A 
ATOM     94  C   UNL     1       1.890  -4.920   2.340  1.00  0.00     0.031 A 
ATOM     95  O   UNL     1       1.869  -7.111   3.180  1.00  0.00    -0.292 OA
ATOM     96  C   UNL     1       1.293  -2.183   2.361  1.00  0.00     0.001 A 
ATOM     97  C   UNL     1       1.025  -4.401   3.307  1.00  0.00     0.012 A 
ATOM     98  C   UNL     1       0.733  -3.031   3.316  1.00  0.00     0.001 A 
ENDBRANCH  77  85
ENDBRANCH  74  77
ENDBRANCH  72  73
ENDBRANCH  71  72
ENDBRANCH   1  71
TORSDOF 16
