REMARK SMILES Cc1ccc(/C=C/C(=O)N[C@](C)(C(=O)NCCCNC(=O)c2ccc(-c3c4nc(c(-c5cccc(S(=O)(=O)[O-])c5F)c5ccc([nH]5)c(-c5cccc(S(=O)(=O)[O-])c5F)c5nc(c(-c6cccc(S(=O)(=O)[O-])c6F)c6ccc3[nH]6)C=C5)C=C4)cc2)C(F)(F)F)o1
REMARK SMILES IDX 17 1 16 2 15 3 13 4 14 5 11 7 12 8 10 9 8 10 9 11 7 13 6 14
REMARK SMILES IDX 5 15 1 16 2 17 3 18 89 19 4 20 85 21 86 22 87 23 88 24 18 25
REMARK SMILES IDX 19 26 20 27 21 29 22 30 23 31 84 32 24 33 83 34 25 35 26 36
REMARK SMILES IDX 27 37 77 38 28 39 82 40 76 41 78 42 29 43 81 44 75 45 74 46
REMARK SMILES IDX 30 48 62 49 42 50 61 51 43 52 46 53 60 54 79 55 44 56 45 57
REMARK SMILES IDX 59 59 80 60 47 61 31 62 32 63 40 64 33 65 35 66 41 67 34 68
REMARK SMILES IDX 36 69 37 70 38 71 39 72 63 73 64 74 72 75 65 76 67 77 73 78
REMARK SMILES IDX 66 79 68 80 69 81 70 82 71 83 48 84 49 85 57 86 50 87 52 88
REMARK SMILES IDX 58 89 51 90 53 91 54 92 55 93 56 94
REMARK H PARENT 15 6 10 12 19 28 78 47 46 58
REMARK Flexibility Score: inf
ROOT
ATOM      1  C   UNL     1      -8.188   4.173  -1.156  1.00  0.00     0.042 C 
ENDROOT
BRANCH   1   2
ATOM      2  C   UNL     1      -7.884   2.767  -0.634  1.00  0.00     0.117 C 
BRANCH   2   3
ATOM      3  N   UNL     1      -6.800   2.142  -1.384  1.00  0.00    -0.354 N 
ATOM      4  C   UNL     1      -5.499   1.823  -1.153  1.00  0.00     0.254 C 
ATOM      5  O   UNL     1      -4.915   1.408  -2.165  1.00  0.00    -0.272 OA
ATOM      6  H   UNL     1      -7.085   1.885  -2.291  1.00  0.00     0.163 HD
BRANCH   4   7
ATOM      7  C   UNL     1      -4.696   2.039   0.164  1.00  0.00     0.212 C 
ATOM      8  C   UNL     1      -3.594   3.100  -0.054  1.00  0.00     0.056 C 
BRANCH   7   9
ATOM      9  N   UNL     1      -5.512   2.256   1.417  1.00  0.00    -0.331 N 
ATOM     10  C   UNL     1      -5.951   3.269   2.203  1.00  0.00     0.245 C 
ATOM     11  O   UNL     1      -6.536   2.952   3.240  1.00  0.00    -0.270 OA
ATOM     12  H   UNL     1      -5.821   1.392   1.775  1.00  0.00     0.165 HD
BRANCH  10  13
ATOM     13  C   UNL     1      -5.787   4.708   1.905  1.00  0.00     0.075 C 
ATOM     14  C   UNL     1      -5.697   5.173   0.660  1.00  0.00     0.053 C 
BRANCH  14  15
ATOM     15  C   UNL     1      -5.609   6.533   0.290  1.00  0.00     0.127 A 
ATOM     16  C   UNL     1      -6.482   9.988   0.753  1.00  0.00     0.087 C 
ATOM     17  C   UNL     1      -5.936   8.717   0.235  1.00  0.00     0.101 A 
ATOM     18  C   UNL     1      -5.251   8.412  -0.916  1.00  0.00     0.046 A 
ATOM     19  O   UNL     1      -6.135   7.594   0.984  1.00  0.00    -0.462 OA
ATOM     20  C   UNL     1      -5.049   7.021  -0.885  1.00  0.00     0.050 A 
ENDBRANCH  14  15
ENDBRANCH  10  13
ENDBRANCH   7   9
BRANCH   7  21
ATOM     21  C   UNL     1      -3.934   0.685   0.332  1.00  0.00     0.420 C 
ATOM     22  F   UNL     1      -3.083   0.381  -0.670  1.00  0.00    -0.168 F 
ATOM     23  F   UNL     1      -3.185   0.713   1.469  1.00  0.00    -0.168 F 
ATOM     24  F   UNL     1      -4.799  -0.349   0.477  1.00  0.00    -0.168 F 
ENDBRANCH   7  21
ENDBRANCH   4   7
ENDBRANCH   2   3
ENDBRANCH   1   2
BRANCH   1  25
ATOM     25  C   UNL     1      -9.125   4.226  -2.353  1.00  0.00     0.118 C 
BRANCH  25  26
ATOM     26  N   UNL     1     -10.510   3.986  -1.987  1.00  0.00    -0.352 N 
ATOM     27  C   UNL     1     -11.606   4.812  -2.078  1.00  0.00     0.251 C 
ATOM     28  H   UNL     1     -10.693   3.092  -1.617  1.00  0.00     0.163 HD
ATOM     29  O   UNL     1     -12.653   4.468  -1.530  1.00  0.00    -0.269 OA
BRANCH  27  30
ATOM     30  C   UNL     1     -11.547   6.103  -2.806  1.00  0.00     0.039 A 
ATOM     31  C   UNL     1     -12.255   7.198  -2.296  1.00  0.00     0.014 A 
ATOM     32  C   UNL     1     -10.848   6.238  -4.008  1.00  0.00     0.014 A 
ATOM     33  C   UNL     1     -12.218   8.430  -2.959  1.00  0.00     0.010 A 
ATOM     34  C   UNL     1     -10.738   7.487  -4.618  1.00  0.00     0.010 A 
ATOM     35  C   UNL     1     -11.434   8.595  -4.111  1.00  0.00    -0.014 A 
BRANCH  35  36
ATOM     36  C   UNL     1     -11.335   9.903  -4.814  1.00  0.00     0.031 A 
ATOM     37  C   UNL     1     -11.781  10.022  -6.250  1.00  0.00     0.074 A 
ATOM     38  C   UNL     1     -10.754  10.955  -4.202  1.00  0.00     0.049 A 
ATOM     39  N   UNL     1     -11.662  11.034  -7.070  1.00  0.00    -0.248 NA
ATOM     40  C   UNL     1     -12.417   8.838  -6.854  1.00  0.00     0.031 C 
ATOM     41  C   UNL     1     -10.218  10.951  -2.839  1.00  0.00     0.029 A 
ATOM     42  N   UNL     1     -10.480  12.221  -4.661  1.00  0.00    -0.354 N 
ATOM     43  C   UNL     1     -12.156  10.594  -8.294  1.00  0.00     0.074 A 
ATOM     44  C   UNL     1     -12.560   9.217  -8.116  1.00  0.00     0.031 C 
ATOM     45  C   UNL     1      -9.671  12.150  -2.577  1.00  0.00     0.029 A 
ATOM     46  C   UNL     1      -9.781  12.995  -3.762  1.00  0.00     0.049 A 
ATOM     47  H   UNL     1     -10.757  12.544  -5.548  1.00  0.00     0.167 HD
ATOM     48  C   UNL     1     -12.283  11.280  -9.454  1.00  0.00     0.034 A 
ATOM     49  C   UNL     1      -9.265  14.234  -3.885  1.00  0.00     0.034 A 
ATOM     50  C   UNL     1     -11.940  12.667  -9.611  1.00  0.00     0.049 A 
ATOM     51  C   UNL     1      -9.469  14.990  -5.171  1.00  0.00     0.074 A 
ATOM     52  C   UNL     1     -12.128  13.476 -10.717  1.00  0.00     0.029 A 
ATOM     53  N   UNL     1     -11.338  13.448  -8.639  1.00  0.00    -0.354 N 
ATOM     54  N   UNL     1     -10.076  14.604  -6.266  1.00  0.00    -0.248 NA
ATOM     55  C   UNL     1      -8.950  16.366  -5.228  1.00  0.00     0.031 C 
ATOM     56  C   UNL     1     -11.612  14.742 -10.424  1.00  0.00     0.029 A 
ATOM     57  C   UNL     1     -11.139  14.729  -9.123  1.00  0.00     0.049 A 
ATOM     58  H   UNL     1     -11.088  13.139  -7.739  1.00  0.00     0.167 HD
ATOM     59  C   UNL     1     -10.055  15.700  -7.121  1.00  0.00     0.074 A 
ATOM     60  C   UNL     1      -9.385  16.771  -6.414  1.00  0.00     0.031 C 
ATOM     61  C   UNL     1     -10.538  15.807  -8.382  1.00  0.00     0.034 A 
BRANCH  48  62
ATOM     62  C   UNL     1     -12.861  10.564 -10.647  1.00  0.00     0.023 A 
ATOM     63  C   UNL     1     -14.237  10.261 -10.682  1.00  0.00     0.012 A 
ATOM     64  C   UNL     1     -12.062  10.287 -11.775  1.00  0.00     0.148 A 
ATOM     65  C   UNL     1     -14.805   9.672 -11.810  1.00  0.00     0.002 A 
ATOM     66  C   UNL     1     -12.645   9.743 -12.913  1.00  0.00     0.091 A 
ATOM     67  F   UNL     1     -10.753  10.568 -11.715  1.00  0.00    -0.205 F 
ATOM     68  C   UNL     1     -14.013   9.426 -12.929  1.00  0.00     0.022 A 
BRANCH  66  69
ATOM     69  S   UNL     1     -11.729   9.468 -14.434  1.00  0.00     0.127 S 
ATOM     70  O   UNL     1     -11.736   8.006 -14.520  1.00  0.00    -0.237 OA
ATOM     71  O   UNL     1     -12.576  10.137 -15.425  1.00  0.00    -0.237 OA
ATOM     72  O   UNL     1     -10.425  10.072 -14.237  1.00  0.00    -0.744 OA
ENDBRANCH  66  69
ENDBRANCH  48  62
BRANCH  49  73
ATOM     73  C   UNL     1      -8.533  14.858  -2.745  1.00  0.00     0.023 A 
ATOM     74  C   UNL     1      -9.095  15.963  -2.076  1.00  0.00     0.012 A 
ATOM     75  C   UNL     1      -7.286  14.361  -2.319  1.00  0.00     0.148 A 
ATOM     76  C   UNL     1      -8.409  16.589  -1.034  1.00  0.00     0.002 A 
ATOM     77  C   UNL     1      -6.637  14.951  -1.241  1.00  0.00     0.091 A 
ATOM     78  F   UNL     1      -6.761  13.315  -2.973  1.00  0.00    -0.205 F 
ATOM     79  C   UNL     1      -7.185  16.078  -0.611  1.00  0.00     0.022 A 
BRANCH  77  80
ATOM     80  S   UNL     1      -5.129  14.267  -0.545  1.00  0.00     0.127 S 
ATOM     81  O   UNL     1      -4.131  15.246  -0.970  1.00  0.00    -0.237 OA
ATOM     82  O   UNL     1      -5.428  14.272   0.888  1.00  0.00    -0.237 OA
ATOM     83  O   UNL     1      -4.999  12.937  -1.121  1.00  0.00    -0.744 OA
ENDBRANCH  77  80
ENDBRANCH  49  73
BRANCH  61  84
ATOM     84  C   UNL     1     -10.435  17.141  -9.070  1.00  0.00     0.023 A 
ATOM     85  C   UNL     1      -9.191  17.598  -9.547  1.00  0.00     0.012 A 
ATOM     86  C   UNL     1     -11.598  17.893  -9.335  1.00  0.00     0.148 A 
ATOM     87  C   UNL     1      -9.103  18.796 -10.255  1.00  0.00     0.002 A 
ATOM     88  C   UNL     1     -11.509  19.058 -10.085  1.00  0.00     0.091 A 
ATOM     89  F   UNL     1     -12.769  17.447  -8.856  1.00  0.00    -0.205 F 
ATOM     90  C   UNL     1     -10.261  19.517 -10.536  1.00  0.00     0.022 A 
BRANCH  88  91
ATOM     91  S   UNL     1     -12.959  19.995 -10.583  1.00  0.00     0.127 S 
ATOM     92  O   UNL     1     -12.823  21.204  -9.773  1.00  0.00    -0.237 OA
ATOM     93  O   UNL     1     -12.724  20.188 -12.014  1.00  0.00    -0.237 OA
ATOM     94  O   UNL     1     -14.108  19.159 -10.266  1.00  0.00    -0.744 OA
ENDBRANCH  88  91
ENDBRANCH  61  84
ENDBRANCH  35  36
ENDBRANCH  27  30
ENDBRANCH  25  26
ENDBRANCH   1  25
TORSDOF 17
