REMARK SMILES C[C@@H](C(=O)NCCCNC(=O)c1ccc(-c2c3nc(c(-c4cccc(S(=O)(=O)[O-])c4F)c4ccc([nH]4)c(-c4cccc(S(=O)(=O)[O-])c4F)c4nc(c(-c5cccc(S(=O)(=O)[O-])c5F)c5ccc2[nH]5)C=C4)C=C3)cc1)c1ccc2c(c1)[nH]c1ccc(Cl)cc12
REMARK SMILES IDX 8 1 7 2 6 3 5 4 3 5 4 6 2 8 1 9 75 10 76 11 80 12 77 13
REMARK SMILES IDX 79 14 78 15 81 16 88 17 82 18 87 20 83 21 85 22 84 23 86 24
REMARK SMILES IDX 9 25 10 26 11 28 12 29 13 30 74 31 14 32 73 33 15 34 16 35
REMARK SMILES IDX 17 36 67 37 18 38 72 39 66 40 68 41 19 42 71 43 65 44 64 45
REMARK SMILES IDX 20 47 52 48 32 49 51 50 33 51 36 52 50 53 69 54 34 55 35 56
REMARK SMILES IDX 49 58 70 59 37 60 21 61 22 62 30 63 23 64 25 65 31 66 24 67
REMARK SMILES IDX 26 68 27 69 28 70 29 71 53 72 54 73 62 74 55 75 57 76 63 77
REMARK SMILES IDX 56 78 58 79 59 80 60 81 61 82 38 83 39 84 47 85 40 86 42 87
REMARK SMILES IDX 48 88 41 89 43 90 44 91 45 92 46 93
REMARK H PARENT 5 7 81 19 9 27 68 46 36 57
REMARK Flexibility Score: inf
ROOT
ATOM      1  C   UNL     1       4.906  -0.286   2.579  1.00  0.00     0.118 C 
ENDROOT
BRANCH   1   2
ATOM      2  C   UNL     1       4.140  -0.355   1.261  1.00  0.00     0.042 C 
BRANCH   2   3
ATOM      3  C   UNL     1       3.216  -1.562   1.132  1.00  0.00     0.117 C 
BRANCH   3   4
ATOM      4  N   UNL     1       2.141  -1.518   2.106  1.00  0.00    -0.356 N 
ATOM      5  C   UNL     1       0.820  -1.216   1.951  1.00  0.00     0.227 C 
ATOM      6  O   UNL     1       0.148  -1.140   2.982  1.00  0.00    -0.274 OA
ATOM      7  H   UNL     1       2.409  -1.742   3.026  1.00  0.00     0.163 HD
BRANCH   5   8
ATOM      8  C   UNL     1       0.226  -1.028   0.541  1.00  0.00     0.105 C 
ATOM      9  C   UNL     1       0.567   0.368   0.018  1.00  0.00     0.023 C 
BRANCH   8  10
ATOM     10  C   UNL     1      -1.264  -1.380   0.530  1.00  0.00    -0.034 A 
ATOM     11  C   UNL     1      -2.280  -0.443   0.295  1.00  0.00     0.005 A 
ATOM     12  C   UNL     1      -1.617  -2.708   0.838  1.00  0.00     0.031 A 
ATOM     13  C   UNL     1      -3.637  -0.800   0.364  1.00  0.00     0.011 A 
ATOM     14  C   UNL     1      -2.971  -3.022   0.985  1.00  0.00     0.047 A 
ATOM     15  C   UNL     1      -3.992  -2.111   0.739  1.00  0.00     0.007 A 
ATOM     16  N   UNL     1      -3.557  -4.183   1.423  1.00  0.00    -0.355 N 
ATOM     17  C   UNL     1      -5.232  -2.784   0.989  1.00  0.00     0.009 A 
ATOM     18  C   UNL     1      -4.921  -4.043   1.503  1.00  0.00     0.047 A 
ATOM     19  H   UNL     1      -3.066  -5.006   1.649  1.00  0.00     0.167 HD
ATOM     20  C   UNL     1      -6.590  -2.420   0.879  1.00  0.00     0.031 A 
ATOM     21  C   UNL     1      -5.886  -4.927   1.998  1.00  0.00     0.028 A 
ATOM     22  C   UNL     1      -7.568  -3.311   1.335  1.00  0.00     0.041 A 
ATOM     23  C   UNL     1      -7.223  -4.531   1.912  1.00  0.00     0.022 A 
ATOM     24  Cl  UNL     1      -9.232  -2.888   1.191  1.00  0.00    -0.084 Cl
ENDBRANCH   8  10
ENDBRANCH   5   8
ENDBRANCH   3   4
ENDBRANCH   2   3
ENDBRANCH   1   2
BRANCH   1  25
ATOM     25  N   UNL     1       5.865  -1.371   2.731  1.00  0.00    -0.352 N 
ATOM     26  C   UNL     1       7.225  -1.329   2.930  1.00  0.00     0.251 C 
ATOM     27  H   UNL     1       5.480  -2.276   2.684  1.00  0.00     0.163 HD
ATOM     28  O   UNL     1       7.872  -2.369   2.858  1.00  0.00    -0.269 OA
BRANCH  26  29
ATOM     29  C   UNL     1       7.912  -0.046   3.209  1.00  0.00     0.039 A 
ATOM     30  C   UNL     1       9.148   0.200   2.602  1.00  0.00     0.014 A 
ATOM     31  C   UNL     1       7.369   0.898   4.083  1.00  0.00     0.014 A 
ATOM     32  C   UNL     1       9.806   1.413   2.825  1.00  0.00     0.010 A 
ATOM     33  C   UNL     1       7.985   2.139   4.240  1.00  0.00     0.010 A 
ATOM     34  C   UNL     1       9.215   2.408   3.620  1.00  0.00    -0.014 A 
BRANCH  34  35
ATOM     35  C   UNL     1       9.861   3.735   3.806  1.00  0.00     0.031 A 
ATOM     36  C   UNL     1      10.281   4.194   5.177  1.00  0.00     0.074 A 
ATOM     37  C   UNL     1       9.996   4.564   2.752  1.00  0.00     0.049 A 
ATOM     38  N   UNL     1      10.810   5.335   5.539  1.00  0.00    -0.248 NA
ATOM     39  C   UNL     1      10.053   3.261   6.292  1.00  0.00     0.031 C 
ATOM     40  C   UNL     1       9.566   4.269   1.384  1.00  0.00     0.029 A 
ATOM     41  N   UNL     1      10.509   5.835   2.671  1.00  0.00    -0.354 N 
ATOM     42  C   UNL     1      10.941   5.274   6.921  1.00  0.00     0.074 A 
ATOM     43  C   UNL     1      10.405   3.996   7.337  1.00  0.00     0.031 C 
ATOM     44  C   UNL     1       9.840   5.324   0.600  1.00  0.00     0.029 A 
ATOM     45  C   UNL     1      10.430   6.383   1.412  1.00  0.00     0.049 A 
ATOM     46  H   UNL     1      10.897   6.310   3.442  1.00  0.00     0.167 HD
ATOM     47  C   UNL     1      11.479   6.185   7.768  1.00  0.00     0.034 A 
ATOM     48  C   UNL     1      10.782   7.603   0.961  1.00  0.00     0.034 A 
ATOM     49  C   UNL     1      12.041   7.441   7.348  1.00  0.00     0.049 A 
ATOM     50  C   UNL     1      11.400   8.588   1.915  1.00  0.00     0.074 A 
ATOM     51  C   UNL     1      12.691   8.391   8.116  1.00  0.00     0.029 A 
ATOM     52  N   UNL     1      12.006   7.932   6.052  1.00  0.00    -0.354 N 
ATOM     53  N   UNL     1      11.659   8.450   3.192  1.00  0.00    -0.248 NA
ATOM     54  C   UNL     1      11.809   9.886   1.358  1.00  0.00     0.031 C 
ATOM     55  C   UNL     1      13.016   9.473   7.291  1.00  0.00     0.029 A 
ATOM     56  C   UNL     1      12.607   9.178   6.000  1.00  0.00     0.049 A 
ATOM     57  H   UNL     1      11.612   7.463   5.282  1.00  0.00     0.167 HD
ATOM     58  C   UNL     1      12.295   9.623   3.583  1.00  0.00     0.074 A 
ATOM     59  C   UNL     1      12.397  10.454   2.402  1.00  0.00     0.031 C 
ATOM     60  C   UNL     1      12.746   9.980   4.811  1.00  0.00     0.034 A 
BRANCH  47  61
ATOM     61  C   UNL     1      11.517   5.839   9.235  1.00  0.00     0.023 A 
ATOM     62  C   UNL     1      12.371   4.814   9.693  1.00  0.00     0.012 A 
ATOM     63  C   UNL     1      10.740   6.555  10.168  1.00  0.00     0.148 A 
ATOM     64  C   UNL     1      12.418   4.476  11.045  1.00  0.00     0.002 A 
ATOM     65  C   UNL     1      10.829   6.246  11.520  1.00  0.00     0.091 A 
ATOM     66  F   UNL     1       9.919   7.513   9.716  1.00  0.00    -0.205 F 
ATOM     67  C   UNL     1      11.655   5.197  11.959  1.00  0.00     0.022 A 
BRANCH  65  68
ATOM     68  S   UNL     1       9.952   7.172  12.785  1.00  0.00     0.127 S 
ATOM     69  O   UNL     1       8.931   6.211  13.200  1.00  0.00    -0.237 OA
ATOM     70  O   UNL     1      11.002   7.411  13.775  1.00  0.00    -0.237 OA
ATOM     71  O   UNL     1       9.452   8.372  12.129  1.00  0.00    -0.744 OA
ENDBRANCH  65  68
ENDBRANCH  47  61
BRANCH  48  72
ATOM     72  C   UNL     1      10.617   7.937  -0.482  1.00  0.00     0.023 A 
ATOM     73  C   UNL     1      11.759   8.074  -1.296  1.00  0.00     0.012 A 
ATOM     74  C   UNL     1       9.341   8.086  -1.059  1.00  0.00     0.148 A 
ATOM     75  C   UNL     1      11.635   8.383  -2.650  1.00  0.00     0.002 A 
ATOM     76  C   UNL     1       9.222   8.338  -2.421  1.00  0.00     0.091 A 
ATOM     77  F   UNL     1       8.268   7.958  -0.266  1.00  0.00    -0.205 F 
ATOM     78  C   UNL     1      10.368   8.505  -3.215  1.00  0.00     0.022 A 
BRANCH  76  79
ATOM     79  S   UNL     1       7.636   8.382  -3.262  1.00  0.00     0.127 S 
ATOM     80  O   UNL     1       7.551   9.782  -3.668  1.00  0.00    -0.237 OA
ATOM     81  O   UNL     1       7.851   7.434  -4.356  1.00  0.00    -0.237 OA
ATOM     82  O   UNL     1       6.653   7.951  -2.277  1.00  0.00    -0.744 OA
ENDBRANCH  76  79
ENDBRANCH  48  72
BRANCH  60  83
ATOM     83  C   UNL     1      13.438  11.313   4.943  1.00  0.00     0.023 A 
ATOM     84  C   UNL     1      12.696  12.508   4.855  1.00  0.00     0.012 A 
ATOM     85  C   UNL     1      14.817  11.376   5.228  1.00  0.00     0.148 A 
ATOM     86  C   UNL     1      13.322  13.744   5.013  1.00  0.00     0.002 A 
ATOM     87  C   UNL     1      15.423  12.609   5.438  1.00  0.00     0.091 A 
ATOM     88  F   UNL     1      15.510  10.230   5.290  1.00  0.00    -0.205 F 
ATOM     89  C   UNL     1      14.681  13.794   5.317  1.00  0.00     0.022 A 
BRANCH  87  90
ATOM     90  S   UNL     1      17.144  12.765   5.931  1.00  0.00     0.127 S 
ATOM     91  O   UNL     1      17.752  13.316   4.721  1.00  0.00    -0.237 OA
ATOM     92  O   UNL     1      17.060  13.702   7.052  1.00  0.00    -0.237 OA
ATOM     93  O   UNL     1      17.582  11.425   6.295  1.00  0.00    -0.744 OA
ENDBRANCH  87  90
ENDBRANCH  60  83
ENDBRANCH  34  35
ENDBRANCH  26  29
ENDBRANCH   1  25
TORSDOF 14
