REMARK SMILES CNC(=O)c1cc(S(=O)(=O)N2CCC(C(=O)NCCCNC(=O)c3ccc(-c4c5nc(c(-c6cccc(S(=O)(=O)[O-])c6F)c6ccc([nH]6)c(-c6cccc(S(=O)(=O)[O-])c6F)c6nc(c(-c7cccc(S(=O)(=O)[O-])c7F)c7ccc4[nH]7)C=C6)C=C5)cc3)CC2)ccc1OC
REMARK SMILES IDX 19 1 18 2 17 3 15 4 16 5 14 7 11 8 12 9 88 10 13 11 87 12
REMARK SMILES IDX 8 13 9 14 10 15 7 16 5 17 6 18 91 19 90 20 89 21 3 22 1 23
REMARK SMILES IDX 2 24 4 26 92 27 93 28 20 29 21 30 22 31 23 33 24 34 25 35
REMARK SMILES IDX 86 36 26 37 85 38 27 39 28 40 29 41 79 42 30 43 84 44 78 45
REMARK SMILES IDX 80 46 31 47 83 48 77 49 76 50 32 52 64 53 44 54 63 55 45 56
REMARK SMILES IDX 48 57 62 58 81 59 46 60 47 61 61 63 82 64 49 65 33 66 34 67
REMARK SMILES IDX 42 68 35 69 37 70 43 71 36 72 38 73 39 74 40 75 41 76 65 77
REMARK SMILES IDX 66 78 74 79 67 80 69 81 75 82 68 83 70 84 71 85 72 86 73 87
REMARK SMILES IDX 50 88 51 89 59 90 52 91 54 92 60 93 53 94 55 95 56 96 57 97
REMARK SMILES IDX 58 98
REMARK H PARENT 17 6 2 25 21 32 80 51 48 62
REMARK Flexibility Score: inf
ROOT
ATOM      1  C   UNL     1      -2.854  11.403   3.271  1.00  0.00     0.042 C 
ENDROOT
BRANCH   1   2
ATOM      2  C   UNL     1      -3.890  10.378   2.839  1.00  0.00     0.117 C 
BRANCH   2   3
ATOM      3  N   UNL     1      -4.087  10.358   1.396  1.00  0.00    -0.356 N 
ATOM      4  C   UNL     1      -3.770   9.427   0.459  1.00  0.00     0.223 C 
ATOM      5  O   UNL     1      -4.059   9.663  -0.717  1.00  0.00    -0.275 OA
ATOM      6  H   UNL     1      -4.526  11.163   1.036  1.00  0.00     0.163 HD
BRANCH   4   7
ATOM      7  C   UNL     1      -3.111   8.111   0.831  1.00  0.00     0.081 C 
ATOM      8  N   UNL     1      -1.983   6.182   2.652  1.00  0.00    -0.198 NA
ATOM      9  C   UNL     1      -1.081   6.998   1.808  1.00  0.00     0.103 C 
ATOM     10  C   UNL     1      -3.389   5.998   2.227  1.00  0.00     0.103 C 
ATOM     11  C   UNL     1      -1.724   8.315   1.427  1.00  0.00     0.030 C 
ATOM     12  C   UNL     1      -4.037   7.259   1.693  1.00  0.00     0.030 C 
BRANCH   8  13
ATOM     13  S   UNL     1      -1.261   4.821   3.398  1.00  0.00     0.243 S 
ATOM     14  O   UNL     1      -2.232   4.280   4.333  1.00  0.00    -0.207 OA
ATOM     15  O   UNL     1       0.072   5.181   3.811  1.00  0.00    -0.207 OA
BRANCH  13  16
ATOM     16  C   UNL     1      -1.068   3.575   2.131  1.00  0.00     0.083 A 
ATOM     17  C   UNL     1      -0.439   1.294   1.617  1.00  0.00     0.083 A 
ATOM     18  C   UNL     1      -0.580   2.332   2.547  1.00  0.00     0.039 A 
ATOM     19  C   UNL     1      -0.851   1.474   0.290  1.00  0.00     0.131 A 
ATOM     20  C   UNL     1      -1.289   2.729  -0.127  1.00  0.00     0.048 A 
ATOM     21  C   UNL     1      -1.392   3.777   0.788  1.00  0.00     0.025 A 
BRANCH  17  22
ATOM     22  C   UNL     1       0.156   0.038   2.107  1.00  0.00     0.254 C 
ATOM     23  C   UNL     1       2.100   0.159   0.484  1.00  0.00     0.143 C 
ATOM     24  N   UNL     1       1.311  -0.435   1.540  1.00  0.00    -0.355 N 
ATOM     25  H   UNL     1       1.646  -1.289   1.898  1.00  0.00     0.163 HD
ATOM     26  O   UNL     1      -0.382  -0.561   3.033  1.00  0.00    -0.269 OA
ENDBRANCH  17  22
BRANCH  19  27
ATOM     27  O   UNL     1      -0.822   0.515  -0.685  1.00  0.00    -0.496 OA
ATOM     28  C   UNL     1      -1.603  -0.632  -0.350  1.00  0.00     0.278 C 
ENDBRANCH  19  27
ENDBRANCH  13  16
ENDBRANCH   8  13
ENDBRANCH   4   7
ENDBRANCH   2   3
ENDBRANCH   1   2
BRANCH   1  29
ATOM     29  C   UNL     1      -3.277  12.837   3.003  1.00  0.00     0.118 C 
BRANCH  29  30
ATOM     30  N   UNL     1      -4.467  13.214   3.755  1.00  0.00    -0.352 N 
ATOM     31  C   UNL     1      -4.616  14.129   4.767  1.00  0.00     0.251 C 
ATOM     32  H   UNL     1      -5.290  12.739   3.497  1.00  0.00     0.163 HD
ATOM     33  O   UNL     1      -5.657  14.147   5.418  1.00  0.00    -0.269 OA
BRANCH  31  34
ATOM     34  C   UNL     1      -3.526  15.077   5.079  1.00  0.00     0.039 A 
ATOM     35  C   UNL     1      -3.227  15.356   6.415  1.00  0.00     0.014 A 
ATOM     36  C   UNL     1      -2.811  15.703   4.055  1.00  0.00     0.014 A 
ATOM     37  C   UNL     1      -2.169  16.215   6.722  1.00  0.00     0.010 A 
ATOM     38  C   UNL     1      -1.702  16.483   4.362  1.00  0.00     0.010 A 
ATOM     39  C   UNL     1      -1.378  16.760   5.697  1.00  0.00    -0.014 A 
BRANCH  39  40
ATOM     40  C   UNL     1      -0.221  17.644   5.988  1.00  0.00     0.031 A 
ATOM     41  C   UNL     1      -0.221  19.064   5.486  1.00  0.00     0.074 A 
ATOM     42  C   UNL     1       0.861  17.146   6.618  1.00  0.00     0.049 A 
ATOM     43  N   UNL     1       0.730  19.959   5.542  1.00  0.00    -0.248 NA
ATOM     44  C   UNL     1      -1.440  19.530   4.802  1.00  0.00     0.031 C 
ATOM     45  C   UNL     1       1.010  15.766   7.088  1.00  0.00     0.029 A 
ATOM     46  N   UNL     1       2.054  17.738   6.949  1.00  0.00    -0.354 N 
ATOM     47  C   UNL     1       0.242  21.075   4.872  1.00  0.00     0.074 A 
ATOM     48  C   UNL     1      -1.075  20.733   4.382  1.00  0.00     0.031 C 
ATOM     49  C   UNL     1       2.221  15.622   7.652  1.00  0.00     0.029 A 
ATOM     50  C   UNL     1       2.943  16.886   7.562  1.00  0.00     0.049 A 
ATOM     51  H   UNL     1       2.254  18.685   6.764  1.00  0.00     0.167 HD
ATOM     52  C   UNL     1       0.817  22.290   4.714  1.00  0.00     0.034 A 
ATOM     53  C   UNL     1       4.198  17.103   8.000  1.00  0.00     0.034 A 
ATOM     54  C   UNL     1       2.098  22.648   5.257  1.00  0.00     0.049 A 
ATOM     55  C   UNL     1       4.792  18.479   7.856  1.00  0.00     0.074 A 
ATOM     56  C   UNL     1       2.745  23.870   5.206  1.00  0.00     0.029 A 
ATOM     57  N   UNL     1       2.922  21.788   5.966  1.00  0.00    -0.354 N 
ATOM     58  N   UNL     1       4.260  19.558   7.335  1.00  0.00    -0.248 NA
ATOM     59  C   UNL     1       6.147  18.677   8.392  1.00  0.00     0.031 C 
ATOM     60  C   UNL     1       3.960  23.749   5.889  1.00  0.00     0.029 A 
ATOM     61  C   UNL     1       4.065  22.454   6.370  1.00  0.00     0.049 A 
ATOM     62  H   UNL     1       2.723  20.842   6.155  1.00  0.00     0.167 HD
ATOM     63  C   UNL     1       5.195  20.570   7.519  1.00  0.00     0.074 A 
ATOM     64  C   UNL     1       6.319  19.980   8.215  1.00  0.00     0.031 C 
ATOM     65  C   UNL     1       5.139  21.867   7.128  1.00  0.00     0.034 A 
BRANCH  52  66
ATOM     66  C   UNL     1       0.025  23.349   3.994  1.00  0.00     0.023 A 
ATOM     67  C   UNL     1      -1.077  23.941   4.646  1.00  0.00     0.012 A 
ATOM     68  C   UNL     1       0.393  23.799   2.712  1.00  0.00     0.148 A 
ATOM     69  C   UNL     1      -1.819  24.942   4.023  1.00  0.00     0.002 A 
ATOM     70  C   UNL     1      -0.328  24.826   2.112  1.00  0.00     0.091 A 
ATOM     71  F   UNL     1       1.429  23.209   2.099  1.00  0.00    -0.205 F 
ATOM     72  C   UNL     1      -1.438  25.392   2.762  1.00  0.00     0.022 A 
BRANCH  70  73
ATOM     73  S   UNL     1       0.122  25.527   0.520  1.00  0.00     0.127 S 
ATOM     74  O   UNL     1      -0.949  25.021  -0.338  1.00  0.00    -0.237 OA
ATOM     75  O   UNL     1       0.061  26.964   0.787  1.00  0.00    -0.237 OA
ATOM     76  O   UNL     1       1.454  25.021   0.222  1.00  0.00    -0.744 OA
ENDBRANCH  70  73
ENDBRANCH  52  66
BRANCH  53  77
ATOM     77  C   UNL     1       4.947  16.020   8.697  1.00  0.00     0.023 A 
ATOM     78  C   UNL     1       5.177  16.130  10.083  1.00  0.00     0.012 A 
ATOM     79  C   UNL     1       5.422  14.886   8.012  1.00  0.00     0.148 A 
ATOM     80  C   UNL     1       5.896  15.149  10.766  1.00  0.00     0.002 A 
ATOM     81  C   UNL     1       6.094  13.887   8.709  1.00  0.00     0.091 A 
ATOM     82  F   UNL     1       5.212  14.805   6.690  1.00  0.00    -0.205 F 
ATOM     83  C   UNL     1       6.346  14.023  10.082  1.00  0.00     0.022 A 
BRANCH  81  84
ATOM     84  S   UNL     1       6.592  12.353   7.917  1.00  0.00     0.127 S 
ATOM     85  O   UNL     1       8.001  12.605   7.633  1.00  0.00    -0.237 OA
ATOM     86  O   UNL     1       6.341  11.365   8.967  1.00  0.00    -0.237 OA
ATOM     87  O   UNL     1       5.716  12.223   6.759  1.00  0.00    -0.744 OA
ENDBRANCH  81  84
ENDBRANCH  53  77
BRANCH  65  88
ATOM     88  C   UNL     1       6.303  22.751   7.479  1.00  0.00     0.023 A 
ATOM     89  C   UNL     1       7.510  22.630   6.764  1.00  0.00     0.012 A 
ATOM     90  C   UNL     1       6.176  23.753   8.461  1.00  0.00     0.148 A 
ATOM     91  C   UNL     1       8.584  23.475   7.039  1.00  0.00     0.002 A 
ATOM     92  C   UNL     1       7.236  24.619   8.700  1.00  0.00     0.091 A 
ATOM     93  F   UNL     1       5.026  23.837   9.146  1.00  0.00    -0.205 F 
ATOM     94  C   UNL     1       8.443  24.476   7.997  1.00  0.00     0.022 A 
BRANCH  92  95
ATOM     95  S   UNL     1       7.108  25.993   9.852  1.00  0.00     0.127 S 
ATOM     96  O   UNL     1       7.857  25.489  11.001  1.00  0.00    -0.237 OA
ATOM     97  O   UNL     1       7.766  27.077   9.121  1.00  0.00    -0.237 OA
ATOM     98  O   UNL     1       5.682  26.196  10.070  1.00  0.00    -0.744 OA
ENDBRANCH  92  95
ENDBRANCH  65  88
ENDBRANCH  39  40
ENDBRANCH  31  34
ENDBRANCH  29  30
ENDBRANCH   1  29
TORSDOF 17
