REMARK SMILES Cc1cccc(CC(=O)N2CCC3(CCC(=O)N([C@H](C)C(=O)NCCCNC(=O)c4ccc(-c5c6nc(c(-c7cccc(S(=O)(=O)[O-])c7F)c7ccc([nH]7)c(-c7cccc(S(=O)(=O)[O-])c7F)c7nc(c(-c8cccc(S(=O)(=O)[O-])c8F)c8ccc5[nH]8)C=C7)C=C6)cc4)C3)CC2)c1
REMARK SMILES IDX 25 1 24 2 23 3 21 4 22 5 19 7 20 8 18 9 8 10 9 11 10 12
REMARK SMILES IDX 11 13 95 14 12 15 94 16 13 17 14 18 93 19 15 20 16 21 17 22
REMARK SMILES IDX 7 23 6 24 1 25 2 26 3 27 96 28 4 29 5 30 26 31 27 32 28 33
REMARK SMILES IDX 29 35 30 36 31 37 92 38 32 39 91 40 33 41 34 42 35 43 85 44
REMARK SMILES IDX 36 45 90 46 84 47 86 48 37 49 89 50 83 51 82 52 38 54 70 55
REMARK SMILES IDX 50 56 69 57 51 58 54 59 68 60 87 61 52 62 53 63 67 65 88 66
REMARK SMILES IDX 55 67 39 68 40 69 48 70 41 71 43 72 49 73 42 74 44 75 45 76
REMARK SMILES IDX 46 77 47 78 71 79 72 80 80 81 73 82 75 83 81 84 74 85 76 86
REMARK SMILES IDX 77 87 78 88 79 89 56 90 57 91 65 92 58 93 60 94 66 95 59 96
REMARK SMILES IDX 61 97 62 98 63 99 64 100
REMARK H PARENT 23 6 27 34 86 53 54 64
REMARK Flexibility Score: inf
ROOT
ATOM      1  C   UNL     1      -1.516   4.367  -8.601  1.00  0.00     0.042 C 
ENDROOT
BRANCH   1   2
ATOM      2  C   UNL     1      -1.032   5.793  -8.729  1.00  0.00     0.117 C 
BRANCH   2   3
ATOM      3  N   UNL     1      -1.439   6.661  -7.639  1.00  0.00    -0.354 N 
ATOM      4  C   UNL     1      -0.662   7.303  -6.711  1.00  0.00     0.242 C 
ATOM      5  O   UNL     1      -1.187   8.148  -5.979  1.00  0.00    -0.273 OA
ATOM      6  H   UNL     1      -2.409   6.810  -7.555  1.00  0.00     0.163 HD
BRANCH   4   7
ATOM      7  C   UNL     1       0.831   6.928  -6.512  1.00  0.00     0.171 C 
ATOM      8  C   UNL     1       0.990   5.445  -6.162  1.00  0.00     0.042 C 
BRANCH   7   9
ATOM      9  N   UNL     1       1.819   7.385  -7.513  1.00  0.00    -0.330 N 
ATOM     10  C   UNL     1       7.963   5.229  -6.973  1.00  0.00     0.226 C 
ATOM     11  O   UNL     1       8.158   4.032  -6.725  1.00  0.00    -0.275 OA
ATOM     12  N   UNL     1       6.860   5.625  -7.714  1.00  0.00    -0.342 N 
ATOM     13  C   UNL     1       5.698   4.745  -7.815  1.00  0.00     0.120 C 
ATOM     14  C   UNL     1       6.709   6.871  -8.445  1.00  0.00     0.120 C 
ATOM     15  C   UNL     1       4.438   5.481  -7.323  1.00  0.00     0.030 C 
ATOM     16  C   UNL     1       5.585   7.678  -7.824  1.00  0.00     0.030 C 
ATOM     17  C   UNL     1       4.248   6.904  -7.931  1.00  0.00    -0.008 C 
ATOM     18  C   UNL     1       3.859   6.848  -9.435  1.00  0.00     0.019 C 
ATOM     19  C   UNL     1       3.181   7.684  -7.122  1.00  0.00     0.127 C 
ATOM     20  C   UNL     1       2.404   6.526  -9.668  1.00  0.00     0.101 C 
ATOM     21  C   UNL     1       1.537   7.457  -8.862  1.00  0.00     0.223 C 
ATOM     22  O   UNL     1       0.606   8.080  -9.351  1.00  0.00    -0.275 OA
BRANCH  10  23
ATOM     23  C   UNL     1       8.825   6.266  -6.250  1.00  0.00     0.135 C 
BRANCH  23  24
ATOM     24  C   UNL     1       9.385   7.426  -7.030  1.00  0.00    -0.038 A 
ATOM     25  C   UNL     1       8.824  11.196  -7.249  1.00  0.00     0.044 C 
ATOM     26  C   UNL     1       9.346   9.817  -7.525  1.00  0.00    -0.051 A 
ATOM     27  C   UNL     1      10.169   9.585  -8.632  1.00  0.00     0.003 A 
ATOM     28  C   UNL     1       8.980   8.737  -6.714  1.00  0.00     0.007 A 
ATOM     29  C   UNL     1      10.622   8.295  -8.921  1.00  0.00     0.001 A 
ATOM     30  C   UNL     1      10.237   7.218  -8.122  1.00  0.00     0.004 A 
ENDBRANCH  23  24
ENDBRANCH  10  23
ENDBRANCH   7   9
ENDBRANCH   4   7
ENDBRANCH   2   3
ENDBRANCH   1   2
BRANCH   1  31
ATOM     31  C   UNL     1      -2.818   4.153  -9.339  1.00  0.00     0.118 C 
BRANCH  31  32
ATOM     32  N   UNL     1      -2.649   3.878 -10.766  1.00  0.00    -0.352 N 
ATOM     33  C   UNL     1      -3.626   3.618 -11.714  1.00  0.00     0.251 C 
ATOM     34  H   UNL     1      -1.721   3.877 -11.095  1.00  0.00     0.163 HD
ATOM     35  O   UNL     1      -3.301   3.325 -12.862  1.00  0.00    -0.269 OA
BRANCH  33  36
ATOM     36  C   UNL     1      -5.044   3.829 -11.340  1.00  0.00     0.039 A 
ATOM     37  C   UNL     1      -5.787   4.746 -12.091  1.00  0.00     0.014 A 
ATOM     38  C   UNL     1      -5.492   3.407 -10.093  1.00  0.00     0.014 A 
ATOM     39  C   UNL     1      -6.813   5.455 -11.474  1.00  0.00     0.010 A 
ATOM     40  C   UNL     1      -6.416   4.191  -9.441  1.00  0.00     0.010 A 
ATOM     41  C   UNL     1      -7.023   5.259 -10.114  1.00  0.00    -0.014 A 
BRANCH  41  42
ATOM     42  C   UNL     1      -7.804   6.137  -9.262  1.00  0.00     0.031 A 
ATOM     43  C   UNL     1      -9.128   5.702  -8.787  1.00  0.00     0.074 A 
ATOM     44  C   UNL     1      -7.216   7.224  -8.710  1.00  0.00     0.049 A 
ATOM     45  N   UNL     1      -9.930   6.482  -8.149  1.00  0.00    -0.248 NA
ATOM     46  C   UNL     1      -9.673   4.364  -9.010  1.00  0.00     0.031 C 
ATOM     47  C   UNL     1      -7.629   7.937  -7.503  1.00  0.00     0.029 A 
ATOM     48  N   UNL     1      -6.243   8.055  -9.271  1.00  0.00    -0.354 N 
ATOM     49  C   UNL     1     -10.871   5.676  -7.567  1.00  0.00     0.074 A 
ATOM     50  C   UNL     1     -10.777   4.414  -8.256  1.00  0.00     0.031 C 
ATOM     51  C   UNL     1      -7.167   9.194  -7.564  1.00  0.00     0.029 A 
ATOM     52  C   UNL     1      -6.583   9.367  -8.880  1.00  0.00     0.049 A 
ATOM     53  H   UNL     1      -5.477   7.782  -9.826  1.00  0.00     0.167 HD
ATOM     54  C   UNL     1     -11.507   6.124  -6.454  1.00  0.00     0.034 A 
ATOM     55  C   UNL     1      -6.900  10.357  -9.765  1.00  0.00     0.034 A 
ATOM     56  C   UNL     1     -11.317   7.565  -6.250  1.00  0.00     0.049 A 
ATOM     57  C   UNL     1      -8.311  10.910  -9.579  1.00  0.00     0.074 A 
ATOM     58  C   UNL     1     -10.719   8.377  -5.304  1.00  0.00     0.029 A 
ATOM     59  N   UNL     1     -11.653   8.402  -7.300  1.00  0.00    -0.354 N 
ATOM     60  N   UNL     1      -9.100  10.648  -8.570  1.00  0.00    -0.248 NA
ATOM     61  C   UNL     1      -8.979  11.727 -10.595  1.00  0.00     0.031 C 
ATOM     62  C   UNL     1     -10.651   9.705  -5.842  1.00  0.00     0.029 A 
ATOM     63  C   UNL     1     -11.253   9.704  -7.088  1.00  0.00     0.049 A 
ATOM     64  H   UNL     1     -12.126   8.101  -8.109  1.00  0.00     0.167 HD
ATOM     65  C   UNL     1     -10.382  11.037  -8.885  1.00  0.00     0.074 A 
ATOM     66  C   UNL     1     -10.241  11.761 -10.136  1.00  0.00     0.031 C 
ATOM     67  C   UNL     1     -11.486  10.661  -8.165  1.00  0.00     0.034 A 
BRANCH  54  68
ATOM     68  C   UNL     1     -12.252   5.231  -5.498  1.00  0.00     0.023 A 
ATOM     69  C   UNL     1     -13.149   5.840  -4.599  1.00  0.00     0.012 A 
ATOM     70  C   UNL     1     -12.068   3.832  -5.364  1.00  0.00     0.148 A 
ATOM     71  C   UNL     1     -13.845   5.101  -3.636  1.00  0.00     0.002 A 
ATOM     72  C   UNL     1     -12.828   3.085  -4.464  1.00  0.00     0.091 A 
ATOM     73  F   UNL     1     -11.081   3.217  -6.029  1.00  0.00    -0.205 F 
ATOM     74  C   UNL     1     -13.708   3.719  -3.586  1.00  0.00     0.022 A 
BRANCH  72  75
ATOM     75  S   UNL     1     -12.751   1.286  -4.436  1.00  0.00     0.127 S 
ATOM     76  O   UNL     1     -11.846   1.030  -3.318  1.00  0.00    -0.237 OA
ATOM     77  O   UNL     1     -14.144   0.907  -4.189  1.00  0.00    -0.237 OA
ATOM     78  O   UNL     1     -12.256   0.896  -5.752  1.00  0.00    -0.744 OA
ENDBRANCH  72  75
ENDBRANCH  54  68
BRANCH  55  79
ATOM     79  C   UNL     1      -6.178  10.220 -11.065  1.00  0.00     0.023 A 
ATOM     80  C   UNL     1      -4.768  10.338 -11.022  1.00  0.00     0.012 A 
ATOM     81  C   UNL     1      -6.773   9.609 -12.182  1.00  0.00     0.148 A 
ATOM     82  C   UNL     1      -3.968   9.743 -11.999  1.00  0.00     0.002 A 
ATOM     83  C   UNL     1      -5.968   9.029 -13.161  1.00  0.00     0.091 A 
ATOM     84  F   UNL     1      -8.107   9.515 -12.229  1.00  0.00    -0.205 F 
ATOM     85  C   UNL     1      -4.569   9.061 -13.051  1.00  0.00     0.022 A 
BRANCH  83  86
ATOM     86  S   UNL     1      -6.675   8.095 -14.524  1.00  0.00     0.127 S 
ATOM     87  O   UNL     1      -6.673   9.090 -15.592  1.00  0.00    -0.237 OA
ATOM     88  O   UNL     1      -5.712   7.007 -14.690  1.00  0.00    -0.237 OA
ATOM     89  O   UNL     1      -7.981   7.666 -14.046  1.00  0.00    -0.744 OA
ENDBRANCH  83  86
ENDBRANCH  55  79
BRANCH  67  90
ATOM     90  C   UNL     1     -12.904  11.119  -8.487  1.00  0.00     0.023 A 
ATOM     91  C   UNL     1     -13.145  12.428  -8.953  1.00  0.00     0.012 A 
ATOM     92  C   UNL     1     -14.051  10.322  -8.219  1.00  0.00     0.148 A 
ATOM     93  C   UNL     1     -14.439  12.897  -9.210  1.00  0.00     0.002 A 
ATOM     94  C   UNL     1     -15.339  10.820  -8.397  1.00  0.00     0.091 A 
ATOM     95  F   UNL     1     -13.906   9.058  -7.812  1.00  0.00    -0.205 F 
ATOM     96  C   UNL     1     -15.537  12.098  -8.922  1.00  0.00     0.022 A 
BRANCH  94  97
ATOM     97  S   UNL     1     -16.811   9.913  -7.889  1.00  0.00     0.127 S 
ATOM     98  O   UNL     1     -17.419  10.848  -6.940  1.00  0.00    -0.237 OA
ATOM     99  O   UNL     1     -17.531   9.775  -9.154  1.00  0.00    -0.237 OA
ATOM    100  O   UNL     1     -16.343   8.668  -7.298  1.00  0.00    -0.744 OA
ENDBRANCH  94  97
ENDBRANCH  67  90
ENDBRANCH  41  42
ENDBRANCH  33  36
ENDBRANCH  31  32
ENDBRANCH   1  31
TORSDOF 16
