REMARK SMILES O=C(NCCCNC(=O)c1cc(F)c(F)c(O)c1F)c1ccc(-c2c3nc(c(-c4cccc(S(=O)(=O)[O-])c4F)c4ccc([nH]4)c(-c4cccc(S(=O)(=O)[O-])c4F)c4nc(c(-c5cccc(S(=O)(=O)[O-])c5F)c5ccc2[nH]5)C=C4)C=C3)cc1
REMARK SMILES IDX 4 1 3 2 1 3 2 4 20 6 21 7 82 8 22 9 81 10 23 11 24 12 25 13
REMARK SMILES IDX 75 14 26 15 80 16 74 17 76 18 27 19 79 20 73 21 72 22 28 24
REMARK SMILES IDX 60 25 40 26 59 27 41 28 44 29 58 30 77 31 42 32 43 33 57 35
REMARK SMILES IDX 78 36 45 37 29 38 30 39 38 40 31 41 33 42 39 43 32 44 34 45
REMARK SMILES IDX 35 46 36 47 37 48 61 49 62 50 70 51 63 52 65 53 71 54 64 55
REMARK SMILES IDX 66 56 67 57 68 58 69 59 46 60 47 61 55 62 48 63 50 64 56 65
REMARK SMILES IDX 49 66 51 67 52 68 53 69 54 70 5 71 6 72 7 73 8 74 9 76 10 77
REMARK SMILES IDX 11 78 18 79 12 80 16 81 19 82 13 83 14 84 15 85 17 86
REMARK H PARENT 3 5 76 23 44 34 7 75 17 87
REMARK Flexibility Score: inf
ROOT
ATOM      1  C   UNL     1       4.483   0.578  -1.177  1.00  0.00     0.118 C 
ENDROOT
BRANCH   1   2
ATOM      2  N   UNL     1       3.036   0.556  -1.030  1.00  0.00    -0.352 N 
ATOM      3  O   UNL     1       1.044  -0.105  -0.230  1.00  0.00    -0.269 OA
ATOM      4  C   UNL     1       2.256  -0.010  -0.052  1.00  0.00     0.251 C 
ATOM      5  H   UNL     1       2.538   1.019  -1.743  1.00  0.00     0.163 HD
BRANCH   4   6
ATOM      6  C   UNL     1       2.867  -0.515   1.197  1.00  0.00     0.039 A 
ATOM      7  C   UNL     1       3.822   0.239   1.883  1.00  0.00     0.014 A 
ATOM      8  C   UNL     1       2.442  -1.743   1.714  1.00  0.00     0.014 A 
ATOM      9  C   UNL     1       4.443  -0.289   3.012  1.00  0.00     0.010 A 
ATOM     10  C   UNL     1       3.022  -2.245   2.884  1.00  0.00     0.010 A 
ATOM     11  C   UNL     1       4.049  -1.536   3.523  1.00  0.00    -0.014 A 
BRANCH  11  12
ATOM     12  C   UNL     1       4.682  -2.042   4.764  1.00  0.00     0.031 A 
ATOM     13  C   UNL     1       5.609  -3.222   4.742  1.00  0.00     0.074 A 
ATOM     14  C   UNL     1       4.423  -1.412   5.925  1.00  0.00     0.049 A 
ATOM     15  N   UNL     1       6.334  -3.708   5.716  1.00  0.00    -0.248 NA
ATOM     16  C   UNL     1       5.741  -3.954   3.472  1.00  0.00     0.031 C 
ATOM     17  C   UNL     1       3.493  -0.292   6.082  1.00  0.00     0.029 A 
ATOM     18  N   UNL     1       4.916  -1.618   7.188  1.00  0.00    -0.354 N 
ATOM     19  C   UNL     1       6.988  -4.814   5.190  1.00  0.00     0.074 A 
ATOM     20  C   UNL     1       6.569  -4.936   3.810  1.00  0.00     0.031 C 
ATOM     21  C   UNL     1       3.495   0.102   7.364  1.00  0.00     0.029 A 
ATOM     22  C   UNL     1       4.411  -0.746   8.122  1.00  0.00     0.049 A 
ATOM     23  H   UNL     1       5.567  -2.324   7.405  1.00  0.00     0.167 HD
ATOM     24  C   UNL     1       7.872  -5.638   5.798  1.00  0.00     0.034 A 
ATOM     25  C   UNL     1       4.660  -0.631   9.441  1.00  0.00     0.034 A 
ATOM     26  C   UNL     1       8.317  -5.490   7.157  1.00  0.00     0.049 A 
ATOM     27  C   UNL     1       5.670  -1.535  10.084  1.00  0.00     0.074 A 
ATOM     28  C   UNL     1       9.294  -6.211   7.821  1.00  0.00     0.029 A 
ATOM     29  N   UNL     1       7.805  -4.578   8.064  1.00  0.00    -0.354 N 
ATOM     30  N   UNL     1       6.407  -2.464   9.527  1.00  0.00    -0.248 NA
ATOM     31  C   UNL     1       5.905  -1.361  11.524  1.00  0.00     0.031 C 
ATOM     32  C   UNL     1       9.359  -5.747   9.137  1.00  0.00     0.029 A 
ATOM     33  C   UNL     1       8.429  -4.731   9.289  1.00  0.00     0.049 A 
ATOM     34  H   UNL     1       7.101  -3.918   7.866  1.00  0.00     0.167 HD
ATOM     35  C   UNL     1       7.203  -2.978  10.542  1.00  0.00     0.074 A 
ATOM     36  C   UNL     1       6.869  -2.248  11.748  1.00  0.00     0.031 C 
ATOM     37  C   UNL     1       8.118  -3.976  10.476  1.00  0.00     0.034 A 
BRANCH  24  38
ATOM     38  C   UNL     1       8.474  -6.751   4.987  1.00  0.00     0.023 A 
ATOM     39  C   UNL     1       9.530  -6.462   4.101  1.00  0.00     0.012 A 
ATOM     40  C   UNL     1       8.069  -8.086   5.177  1.00  0.00     0.148 A 
ATOM     41  C   UNL     1      10.171  -7.487   3.406  1.00  0.00     0.002 A 
ATOM     42  C   UNL     1       8.730  -9.105   4.500  1.00  0.00     0.091 A 
ATOM     43  F   UNL     1       7.051  -8.332   6.013  1.00  0.00    -0.205 F 
ATOM     44  C   UNL     1       9.778  -8.806   3.613  1.00  0.00     0.022 A 
BRANCH  42  45
ATOM     45  S   UNL     1       8.337 -10.842   4.735  1.00  0.00     0.127 S 
ATOM     46  O   UNL     1       7.743 -11.185   3.443  1.00  0.00    -0.237 OA
ATOM     47  O   UNL     1       9.656 -11.426   4.975  1.00  0.00    -0.237 OA
ATOM     48  O   UNL     1       7.429 -10.899   5.872  1.00  0.00    -0.744 OA
ENDBRANCH  42  45
ENDBRANCH  24  38
BRANCH  25  49
ATOM     49  C   UNL     1       3.975   0.447  10.201  1.00  0.00     0.023 A 
ATOM     50  C   UNL     1       4.677   1.627  10.504  1.00  0.00     0.012 A 
ATOM     51  C   UNL     1       2.603   0.356  10.506  1.00  0.00     0.148 A 
ATOM     52  C   UNL     1       4.021   2.707  11.097  1.00  0.00     0.002 A 
ATOM     53  C   UNL     1       1.948   1.449  11.059  1.00  0.00     0.091 A 
ATOM     54  F   UNL     1       1.961  -0.779  10.197  1.00  0.00    -0.205 F 
ATOM     55  C   UNL     1       2.657   2.622  11.363  1.00  0.00     0.022 A 
BRANCH  53  56
ATOM     56  S   UNL     1       0.173   1.480  11.333  1.00  0.00     0.127 S 
ATOM     57  O   UNL     1       0.097   1.712  12.774  1.00  0.00    -0.237 OA
ATOM     58  O   UNL     1      -0.233   2.616  10.504  1.00  0.00    -0.237 OA
ATOM     59  O   UNL     1      -0.324   0.187  10.885  1.00  0.00    -0.744 OA
ENDBRANCH  53  56
ENDBRANCH  25  49
BRANCH  37  60
ATOM     60  C   UNL     1       8.838  -4.366  11.736  1.00  0.00     0.023 A 
ATOM     61  C   UNL     1       8.194  -5.213  12.658  1.00  0.00     0.012 A 
ATOM     62  C   UNL     1      10.191  -4.024  11.929  1.00  0.00     0.148 A 
ATOM     63  C   UNL     1       8.888  -5.717  13.757  1.00  0.00     0.002 A 
ATOM     64  C   UNL     1      10.885  -4.557  13.009  1.00  0.00     0.091 A 
ATOM     65  F   UNL     1      10.776  -3.213  11.037  1.00  0.00    -0.205 F 
ATOM     66  C   UNL     1      10.234  -5.400  13.925  1.00  0.00     0.022 A 
BRANCH  64  67
ATOM     67  S   UNL     1      12.640  -4.275  13.269  1.00  0.00     0.127 S 
ATOM     68  O   UNL     1      12.639  -3.531  14.527  1.00  0.00    -0.237 OA
ATOM     69  O   UNL     1      13.160  -5.638  13.366  1.00  0.00    -0.237 OA
ATOM     70  O   UNL     1      13.106  -3.525  12.110  1.00  0.00    -0.744 OA
ENDBRANCH  64  67
ENDBRANCH  37  60
ENDBRANCH  11  12
ENDBRANCH   4   6
ENDBRANCH   1   2
BRANCH   1  71
ATOM     71  C   UNL     1       4.963  -0.259  -2.357  1.00  0.00     0.042 C 
BRANCH  71  72
ATOM     72  C   UNL     1       4.467   0.220  -3.716  1.00  0.00     0.118 C 
BRANCH  72  73
ATOM     73  N   UNL     1       4.936   1.558  -4.048  1.00  0.00    -0.352 N 
ATOM     74  C   UNL     1       5.643   1.999  -5.133  1.00  0.00     0.254 C 
ATOM     75  H   UNL     1       4.708   2.253  -3.389  1.00  0.00     0.163 HD
ATOM     76  O   UNL     1       6.035   3.164  -5.185  1.00  0.00    -0.269 OA
BRANCH  74  77
ATOM     77  C   UNL     1       5.986   1.093  -6.237  1.00  0.00     0.082 A 
ATOM     78  C   UNL     1       7.313   1.056  -6.679  1.00  0.00     0.059 A 
ATOM     79  C   UNL     1       5.015   0.332  -6.888  1.00  0.00     0.180 A 
ATOM     80  C   UNL     1       7.655   0.216  -7.735  1.00  0.00     0.163 A 
ATOM     81  C   UNL     1       5.370  -0.519  -7.931  1.00  0.00     0.191 A 
ATOM     82  F   UNL     1       3.724   0.394  -6.527  1.00  0.00    -0.202 F 
ATOM     83  F   UNL     1       8.927   0.177  -8.153  1.00  0.00    -0.204 F 
ATOM     84  C   UNL     1       6.693  -0.577  -8.355  1.00  0.00     0.203 A 
ATOM     85  F   UNL     1       7.047  -1.389  -9.362  1.00  0.00    -0.200 F 
BRANCH  81  86
ATOM     86  O   UNL     1       4.421  -1.297  -8.538  1.00  0.00    -0.503 OA
ATOM     87  H   UNL     1       4.663  -1.868  -9.240  1.00  0.00     0.293 HD
ENDBRANCH  81  86
ENDBRANCH  74  77
ENDBRANCH  72  73
ENDBRANCH  71  72
ENDBRANCH   1  71
TORSDOF 14
