REMARK SMILES O=C(NCCCNC(=O)[C@H]1CC[C@@H]2CCCC[C@H]2N1C(=O)N1CCSCC1)c1ccc(-c2c3nc(c(-c4cccc(S(=O)(=O)[O-])c4F)c4ccc([nH]4)c(-c4cccc(S(=O)(=O)[O-])c4F)c4nc(c(-c5cccc(S(=O)(=O)[O-])c5F)c5ccc2[nH]5)C=C4)C=C3)cc1
REMARK SMILES IDX 4 1 3 2 1 3 2 4 28 6 29 7 90 8 30 9 89 10 31 11 32 12 33 13
REMARK SMILES IDX 83 14 34 15 88 16 82 17 84 18 35 19 87 20 81 21 80 22 36 24
REMARK SMILES IDX 68 25 48 26 67 27 49 28 52 29 66 30 85 31 50 32 51 33 65 35
REMARK SMILES IDX 86 36 53 37 37 38 38 39 46 40 39 41 41 42 47 43 40 44 42 45
REMARK SMILES IDX 43 46 44 47 45 48 69 49 70 50 78 51 71 52 73 53 79 54 72 55
REMARK SMILES IDX 74 56 75 57 76 58 77 59 54 60 55 61 63 62 56 63 58 64 64 65
REMARK SMILES IDX 57 66 59 67 60 68 61 69 62 70 5 71 6 72 7 73 8 74 9 76 10 77
REMARK SMILES IDX 11 78 19 79 12 80 18 81 13 82 17 83 14 84 16 85 15 86 20 87
REMARK SMILES IDX 21 88 22 89 23 90 27 91 24 92 26 93 25 94
REMARK H PARENT 3 5 84 23 52 34 7 75
REMARK Flexibility Score: inf
ROOT
ATOM      1  C   UNL     1       6.819  -8.423   0.587  1.00  0.00     0.118 C 
ENDROOT
BRANCH   1   2
ATOM      2  N   UNL     1       6.954  -9.772   0.050  1.00  0.00    -0.352 N 
ATOM      3  O   UNL     1       7.223 -12.014   0.156  1.00  0.00    -0.269 OA
ATOM      4  C   UNL     1       7.040 -10.959   0.745  1.00  0.00     0.251 C 
ATOM      5  H   UNL     1       6.987  -9.843  -0.932  1.00  0.00     0.163 HD
BRANCH   4   6
ATOM      6  C   UNL     1       6.966 -10.905   2.219  1.00  0.00     0.039 A 
ATOM      7  C   UNL     1       5.919 -10.217   2.835  1.00  0.00     0.014 A 
ATOM      8  C   UNL     1       8.023 -11.421   2.970  1.00  0.00     0.014 A 
ATOM      9  C   UNL     1       6.030  -9.877   4.177  1.00  0.00     0.010 A 
ATOM     10  C   UNL     1       8.082 -11.156   4.339  1.00  0.00     0.010 A 
ATOM     11  C   UNL     1       7.120 -10.330   4.940  1.00  0.00    -0.014 A 
BRANCH  11  12
ATOM     12  C   UNL     1       7.222  -9.929   6.366  1.00  0.00     0.031 A 
ATOM     13  C   UNL     1       8.364  -9.081   6.860  1.00  0.00     0.074 A 
ATOM     14  C   UNL     1       6.248 -10.315   7.213  1.00  0.00     0.049 A 
ATOM     15  N   UNL     1       8.575  -8.607   8.061  1.00  0.00    -0.248 NA
ATOM     16  C   UNL     1       9.413  -8.725   5.889  1.00  0.00     0.031 C 
ATOM     17  C   UNL     1       5.114 -11.169   6.851  1.00  0.00     0.029 A 
ATOM     18  N   UNL     1       6.043 -10.032   8.537  1.00  0.00    -0.354 N 
ATOM     19  C   UNL     1       9.799  -7.950   8.008  1.00  0.00     0.074 A 
ATOM     20  C   UNL     1      10.286  -8.080   6.652  1.00  0.00     0.031 C 
ATOM     21  C   UNL     1       4.309 -11.304   7.914  1.00  0.00     0.029 A 
ATOM     22  C   UNL     1       4.893 -10.590   9.044  1.00  0.00     0.049 A 
ATOM     23  H   UNL     1       6.659  -9.484   9.075  1.00  0.00     0.167 HD
ATOM     24  C   UNL     1      10.449  -7.287   8.995  1.00  0.00     0.034 A 
ATOM     25  C   UNL     1       4.364 -10.534  10.280  1.00  0.00     0.034 A 
ATOM     26  C   UNL     1       9.926  -7.107  10.324  1.00  0.00     0.049 A 
ATOM     27  C   UNL     1       5.072  -9.732  11.333  1.00  0.00     0.074 A 
ATOM     28  C   UNL     1      10.475  -6.394  11.376  1.00  0.00     0.029 A 
ATOM     29  N   UNL     1       8.730  -7.638  10.782  1.00  0.00    -0.354 N 
ATOM     30  N   UNL     1       6.168  -9.021  11.228  1.00  0.00    -0.248 NA
ATOM     31  C   UNL     1       4.457  -9.701  12.667  1.00  0.00     0.031 C 
ATOM     32  C   UNL     1       9.612  -6.500  12.473  1.00  0.00     0.029 A 
ATOM     33  C   UNL     1       8.522  -7.271  12.101  1.00  0.00     0.049 A 
ATOM     34  H   UNL     1       8.118  -8.195  10.249  1.00  0.00     0.167 HD
ATOM     35  C   UNL     1       6.367  -8.442  12.474  1.00  0.00     0.074 A 
ATOM     36  C   UNL     1       5.258  -8.861  13.309  1.00  0.00     0.031 C 
ATOM     37  C   UNL     1       7.386  -7.655  12.898  1.00  0.00     0.034 A 
BRANCH  24  38
ATOM     38  C   UNL     1      11.781  -6.663   8.669  1.00  0.00     0.023 A 
ATOM     39  C   UNL     1      11.827  -5.473   7.916  1.00  0.00     0.012 A 
ATOM     40  C   UNL     1      12.981  -7.212   9.166  1.00  0.00     0.148 A 
ATOM     41  C   UNL     1      13.046  -4.851   7.643  1.00  0.00     0.002 A 
ATOM     42  C   UNL     1      14.188  -6.567   8.919  1.00  0.00     0.091 A 
ATOM     43  F   UNL     1      12.922  -8.358   9.859  1.00  0.00    -0.205 F 
ATOM     44  C   UNL     1      14.224  -5.391   8.152  1.00  0.00     0.022 A 
BRANCH  42  45
ATOM     45  S   UNL     1      15.747  -7.153   9.595  1.00  0.00     0.127 S 
ATOM     46  O   UNL     1      16.348  -7.803   8.432  1.00  0.00    -0.237 OA
ATOM     47  O   UNL     1      16.400  -5.908  10.002  1.00  0.00    -0.237 OA
ATOM     48  O   UNL     1      15.392  -8.035  10.699  1.00  0.00    -0.744 OA
ENDBRANCH  42  45
ENDBRANCH  24  38
BRANCH  25  49
ATOM     49  C   UNL     1       3.059 -11.198  10.550  1.00  0.00     0.023 A 
ATOM     50  C   UNL     1       1.914 -10.407  10.762  1.00  0.00     0.012 A 
ATOM     51  C   UNL     1       2.930 -12.600  10.517  1.00  0.00     0.148 A 
ATOM     52  C   UNL     1       0.666 -11.001  10.951  1.00  0.00     0.002 A 
ATOM     53  C   UNL     1       1.674 -13.182  10.646  1.00  0.00     0.091 A 
ATOM     54  F   UNL     1       4.034 -13.339  10.335  1.00  0.00    -0.205 F 
ATOM     55  C   UNL     1       0.543 -12.386  10.877  1.00  0.00     0.022 A 
BRANCH  53  56
ATOM     56  S   UNL     1       1.422 -14.944  10.401  1.00  0.00     0.127 S 
ATOM     57  O   UNL     1       1.357 -15.432  11.775  1.00  0.00    -0.237 OA
ATOM     58  O   UNL     1       0.152 -14.978   9.674  1.00  0.00    -0.237 OA
ATOM     59  O   UNL     1       2.566 -15.387   9.615  1.00  0.00    -0.744 OA
ENDBRANCH  53  56
ENDBRANCH  25  49
BRANCH  37  60
ATOM     60  C   UNL     1       7.341  -7.183  14.325  1.00  0.00     0.023 A 
ATOM     61  C   UNL     1       7.651  -8.084  15.362  1.00  0.00     0.012 A 
ATOM     62  C   UNL     1       7.049  -5.841  14.634  1.00  0.00     0.148 A 
ATOM     63  C   UNL     1       7.642  -7.662  16.691  1.00  0.00     0.002 A 
ATOM     64  C   UNL     1       7.082  -5.419  15.958  1.00  0.00     0.091 A 
ATOM     65  F   UNL     1       6.731  -5.005  13.635  1.00  0.00    -0.205 F 
ATOM     66  C   UNL     1       7.368  -6.329  16.988  1.00  0.00     0.022 A 
BRANCH  64  67
ATOM     67  S   UNL     1       6.824  -3.699  16.406  1.00  0.00     0.127 S 
ATOM     68  O   UNL     1       5.411  -3.694  16.780  1.00  0.00    -0.237 OA
ATOM     69  O   UNL     1       7.751  -3.518  17.525  1.00  0.00    -0.237 OA
ATOM     70  O   UNL     1       7.169  -2.931  15.216  1.00  0.00    -0.744 OA
ENDBRANCH  64  67
ENDBRANCH  37  60
ENDBRANCH  11  12
ENDBRANCH   4   6
ENDBRANCH   1   2
BRANCH   1  71
ATOM     71  C   UNL     1       7.627  -7.372  -0.164  1.00  0.00     0.042 C 
BRANCH  71  72
ATOM     72  C   UNL     1       7.224  -7.206  -1.620  1.00  0.00     0.117 C 
BRANCH  72  73
ATOM     73  N   UNL     1       5.840  -6.796  -1.747  1.00  0.00    -0.354 N 
ATOM     74  C   UNL     1       5.288  -5.837  -2.535  1.00  0.00     0.242 C 
ATOM     75  H   UNL     1       5.204  -7.286  -1.177  1.00  0.00     0.163 HD
ATOM     76  O   UNL     1       4.069  -5.649  -2.430  1.00  0.00    -0.273 OA
BRANCH  74  77
ATOM     77  C   UNL     1       6.133  -4.895  -3.413  1.00  0.00     0.176 C 
ATOM     78  C   UNL     1       6.766  -3.926  -2.380  1.00  0.00     0.036 C 
ATOM     79  N   UNL     1       7.111  -5.421  -4.414  1.00  0.00    -0.309 N 
ATOM     80  C   UNL     1       7.715  -2.908  -2.968  1.00  0.00     0.008 C 
ATOM     81  C   UNL     1       8.011  -4.357  -4.996  1.00  0.00     0.091 C 
ATOM     82  C   UNL     1       8.744  -3.592  -3.865  1.00  0.00     0.012 C 
ATOM     83  C   UNL     1       9.018  -4.782  -6.090  1.00  0.00     0.025 C 
ATOM     84  C   UNL     1       9.734  -2.524  -4.360  1.00  0.00     0.006 C 
ATOM     85  C   UNL     1       9.925  -3.651  -6.564  1.00  0.00     0.002 C 
ATOM     86  C   UNL     1      10.699  -3.057  -5.404  1.00  0.00     0.000 C 
BRANCH  79  87
ATOM     87  C   UNL     1       6.931  -6.618  -5.124  1.00  0.00     0.321 C 
ATOM     88  O   UNL     1       7.648  -6.978  -6.057  1.00  0.00    -0.248 OA
ATOM     89  N   UNL     1       5.980  -7.524  -4.669  1.00  0.00    -0.323 N 
ATOM     90  C   UNL     1       6.452  -8.920  -4.686  1.00  0.00     0.132 C 
ATOM     91  C   UNL     1       4.604  -7.353  -5.152  1.00  0.00     0.132 C 
ATOM     92  C   UNL     1       5.614  -9.893  -3.862  1.00  0.00     0.091 C 
ATOM     93  C   UNL     1       3.558  -8.190  -4.405  1.00  0.00     0.091 C 
ATOM     94  S   UNL     1       3.911  -9.976  -4.486  1.00  0.00    -0.158 SA
ENDBRANCH  79  87
ENDBRANCH  74  77
ENDBRANCH  72  73
ENDBRANCH  71  72
ENDBRANCH   1  71
TORSDOF 14
