REMARK SMILES CCN1C(=O)c2ccccc2[S@@](=O)c2ccc(C(=O)NCCCNC(=O)c3ccc(-c4c5nc(c(-c6cccc(S(=O)(=O)[O-])c6F)c6ccc([nH]6)c(-c6cccc(S(=O)(=O)[O-])c6F)c6nc(c(-c7cccc(S(=O)(=O)[O-])c7F)c7ccc4[nH]7)C=C6)C=C5)cc3)cc21
REMARK SMILES IDX 23 1 22 2 21 3 20 4 18 5 19 6 17 8 3 9 4 10 91 11 5 12 6 13
REMARK SMILES IDX 14 14 90 15 7 16 11 17 12 18 15 19 8 20 10 21 13 22 16 23
REMARK SMILES IDX 9 24 2 25 1 26 24 27 25 28 26 30 27 31 28 32 89 33 29 34
REMARK SMILES IDX 88 35 30 36 31 37 32 38 82 39 33 40 87 41 81 42 83 43 34 44
REMARK SMILES IDX 86 45 80 46 79 47 35 49 67 50 47 51 66 52 48 53 51 54 65 55
REMARK SMILES IDX 84 56 49 57 50 58 64 60 85 61 52 62 36 63 37 64 45 65 38 66
REMARK SMILES IDX 40 67 46 68 39 69 41 70 42 71 43 72 44 73 68 74 69 75 77 76
REMARK SMILES IDX 70 77 72 78 78 79 71 80 73 81 74 82 75 83 76 84 53 85 54 86
REMARK SMILES IDX 62 87 55 88 57 89 63 90 56 91 58 92 59 93 60 94 61 95
REMARK H PARENT 20 7 24 29 83 48 51 59
REMARK Flexibility Score: inf
ROOT
ATOM      1  C   UNL     1      -3.305   2.155   0.646  1.00  0.00     0.118 C 
ENDROOT
BRANCH   1   2
ATOM      2  C   UNL     1      -2.139   1.195   0.845  1.00  0.00     0.042 C 
BRANCH   2   3
ATOM      3  C   UNL     1      -1.590   1.200   2.271  1.00  0.00     0.118 C 
BRANCH   3   4
ATOM      4  N   UNL     1      -2.453   0.454   3.172  1.00  0.00    -0.352 N 
ATOM      5  C   UNL     1      -2.394  -0.825   3.665  1.00  0.00     0.251 C 
ATOM      6  O   UNL     1      -3.241  -1.153   4.497  1.00  0.00    -0.269 OA
ATOM      7  H   UNL     1      -3.231   0.966   3.490  1.00  0.00     0.163 HD
BRANCH   5   8
ATOM      8  C   UNL     1      -1.340  -1.811   3.291  1.00  0.00     0.041 A 
ATOM      9  N   UNL     1       1.113  -2.535   0.510  1.00  0.00    -0.307 N 
ATOM     10  C   UNL     1       2.125  -3.364   0.008  1.00  0.00     0.259 C 
ATOM     11  C   UNL     1       0.380  -2.739   1.747  1.00  0.00     0.061 A 
ATOM     12  O   UNL     1       3.086  -2.957  -0.644  1.00  0.00    -0.269 OA
ATOM     13  C   UNL     1       1.809  -4.794  -0.074  1.00  0.00     0.056 A 
ATOM     14  C   UNL     1       0.676  -3.713   2.727  1.00  0.00     0.068 A 
ATOM     15  C   UNL     1      -0.677  -1.843   2.056  1.00  0.00     0.041 A 
ATOM     16  C   UNL     1       1.658  -5.333  -1.361  1.00  0.00     0.015 A 
ATOM     17  C   UNL     1       1.611  -5.573   1.054  1.00  0.00     0.057 A 
ATOM     18  S   UNL     1       1.985  -4.957   2.684  1.00  0.00     0.088 S 
ATOM     19  C   UNL     1      -0.041  -3.727   3.947  1.00  0.00     0.021 A 
ATOM     20  C   UNL     1       1.262  -6.657  -1.519  1.00  0.00     0.001 A 
ATOM     21  C   UNL     1       1.200  -6.904   0.889  1.00  0.00     0.019 A 
ATOM     22  O   UNL     1       3.261  -4.181   2.568  1.00  0.00    -0.249 OA
ATOM     23  C   UNL     1      -1.023  -2.784   4.231  1.00  0.00     0.015 A 
ATOM     24  C   UNL     1       1.018  -7.438  -0.392  1.00  0.00     0.001 A 
BRANCH   9  25
ATOM     25  C   UNL     1       0.886  -1.349  -0.325  1.00  0.00     0.122 C 
ATOM     26  C   UNL     1       1.601  -0.106   0.174  1.00  0.00     0.028 C 
ENDBRANCH   9  25
ENDBRANCH   5   8
ENDBRANCH   3   4
ENDBRANCH   2   3
ENDBRANCH   1   2
BRANCH   1  27
ATOM     27  N   UNL     1      -2.870   3.541   0.565  1.00  0.00    -0.352 N 
ATOM     28  C   UNL     1      -3.110   4.476  -0.417  1.00  0.00     0.251 C 
ATOM     29  H   UNL     1      -2.325   3.856   1.322  1.00  0.00     0.163 HD
ATOM     30  O   UNL     1      -2.504   5.540  -0.396  1.00  0.00    -0.269 OA
BRANCH  28  31
ATOM     31  C   UNL     1      -4.069   4.179  -1.506  1.00  0.00     0.039 A 
ATOM     32  C   UNL     1      -5.298   3.572  -1.236  1.00  0.00     0.014 A 
ATOM     33  C   UNL     1      -3.729   4.513  -2.821  1.00  0.00     0.014 A 
ATOM     34  C   UNL     1      -6.110   3.156  -2.287  1.00  0.00     0.010 A 
ATOM     35  C   UNL     1      -4.584   4.164  -3.870  1.00  0.00     0.010 A 
ATOM     36  C   UNL     1      -5.760   3.440  -3.617  1.00  0.00    -0.014 A 
BRANCH  36  37
ATOM     37  C   UNL     1      -6.635   2.976  -4.725  1.00  0.00     0.031 A 
ATOM     38  C   UNL     1      -6.141   1.966  -5.726  1.00  0.00     0.074 A 
ATOM     39  C   UNL     1      -7.893   3.450  -4.815  1.00  0.00     0.049 A 
ATOM     40  N   UNL     1      -6.770   1.454  -6.753  1.00  0.00    -0.248 NA
ATOM     41  C   UNL     1      -4.766   1.466  -5.558  1.00  0.00     0.031 C 
ATOM     42  C   UNL     1      -8.483   4.447  -3.920  1.00  0.00     0.029 A 
ATOM     43  N   UNL     1      -8.903   3.154  -5.695  1.00  0.00    -0.354 N 
ATOM     44  C   UNL     1      -5.858   0.614  -7.380  1.00  0.00     0.074 A 
ATOM     45  C   UNL     1      -4.631   0.677  -6.617  1.00  0.00     0.031 C 
ATOM     46  C   UNL     1      -9.759   4.655  -4.275  1.00  0.00     0.029 A 
ATOM     47  C   UNL     1     -10.065   3.845  -5.450  1.00  0.00     0.049 A 
ATOM     48  H   UNL     1      -8.804   2.509  -6.432  1.00  0.00     0.167 HD
ATOM     49  C   UNL     1      -6.033  -0.157  -8.479  1.00  0.00     0.034 A 
ATOM     50  C   UNL     1     -11.245   3.840  -6.100  1.00  0.00     0.034 A 
ATOM     51  C   UNL     1      -7.270  -0.271  -9.202  1.00  0.00     0.049 A 
ATOM     52  C   UNL     1     -11.420   2.958  -7.301  1.00  0.00     0.074 A 
ATOM     53  C   UNL     1      -7.554  -1.075 -10.292  1.00  0.00     0.029 A 
ATOM     54  N   UNL     1      -8.428   0.430  -8.908  1.00  0.00    -0.354 N 
ATOM     55  N   UNL     1     -10.570   2.111  -7.826  1.00  0.00    -0.248 NA
ATOM     56  C   UNL     1     -12.716   3.021  -7.992  1.00  0.00     0.031 C 
ATOM     57  C   UNL     1      -8.886  -0.858 -10.659  1.00  0.00     0.029 A 
ATOM     58  C   UNL     1      -9.429   0.080  -9.796  1.00  0.00     0.049 A 
ATOM     59  H   UNL     1      -8.524   1.081  -8.176  1.00  0.00     0.167 HD
ATOM     60  C   UNL     1     -11.226   1.537  -8.908  1.00  0.00     0.074 A 
ATOM     61  C   UNL     1     -12.556   2.112  -8.946  1.00  0.00     0.031 C 
ATOM     62  C   UNL     1     -10.759   0.631  -9.800  1.00  0.00     0.034 A 
BRANCH  49  63
ATOM     63  C   UNL     1      -4.872  -0.988  -8.950  1.00  0.00     0.023 A 
ATOM     64  C   UNL     1      -4.599  -2.212  -8.309  1.00  0.00     0.012 A 
ATOM     65  C   UNL     1      -4.119  -0.608 -10.077  1.00  0.00     0.148 A 
ATOM     66  C   UNL     1      -3.583  -3.044  -8.778  1.00  0.00     0.002 A 
ATOM     67  C   UNL     1      -3.126  -1.455 -10.555  1.00  0.00     0.091 A 
ATOM     68  F   UNL     1      -4.390   0.569 -10.659  1.00  0.00    -0.205 F 
ATOM     69  C   UNL     1      -2.854  -2.671  -9.904  1.00  0.00     0.022 A 
BRANCH  67  70
ATOM     70  S   UNL     1      -2.163  -1.095 -12.028  1.00  0.00     0.127 S 
ATOM     71  O   UNL     1      -0.828  -0.895 -11.464  1.00  0.00    -0.237 OA
ATOM     72  O   UNL     1      -2.320  -2.325 -12.804  1.00  0.00    -0.237 OA
ATOM     73  O   UNL     1      -2.767   0.087 -12.626  1.00  0.00    -0.744 OA
ENDBRANCH  67  70
ENDBRANCH  49  63
BRANCH  50  74
ATOM     74  C   UNL     1     -12.359   4.677  -5.581  1.00  0.00     0.023 A 
ATOM     75  C   UNL     1     -13.417   4.060  -4.888  1.00  0.00     0.012 A 
ATOM     76  C   UNL     1     -12.324   6.081  -5.685  1.00  0.00     0.148 A 
ATOM     77  C   UNL     1     -14.424   4.830  -4.305  1.00  0.00     0.002 A 
ATOM     78  C   UNL     1     -13.305   6.843  -5.064  1.00  0.00     0.091 A 
ATOM     79  F   UNL     1     -11.307   6.640  -6.357  1.00  0.00    -0.205 F 
ATOM     80  C   UNL     1     -14.361   6.219  -4.382  1.00  0.00     0.022 A 
BRANCH  78  81
ATOM     81  S   UNL     1     -13.243   8.637  -5.001  1.00  0.00     0.127 S 
ATOM     82  O   UNL     1     -14.432   9.003  -5.766  1.00  0.00    -0.237 OA
ATOM     83  O   UNL     1     -13.333   8.887  -3.563  1.00  0.00    -0.237 OA
ATOM     84  O   UNL     1     -11.971   9.011  -5.603  1.00  0.00    -0.744 OA
ENDBRANCH  78  81
ENDBRANCH  50  74
BRANCH  62  85
ATOM     85  C   UNL     1     -11.677   0.203 -10.909  1.00  0.00     0.023 A 
ATOM     86  C   UNL     1     -11.834   1.041 -12.030  1.00  0.00     0.012 A 
ATOM     87  C   UNL     1     -12.290  -1.065 -10.895  1.00  0.00     0.148 A 
ATOM     88  C   UNL     1     -12.597   0.626 -13.120  1.00  0.00     0.002 A 
ATOM     89  C   UNL     1     -13.023  -1.484 -11.998  1.00  0.00     0.091 A 
ATOM     90  F   UNL     1     -12.135  -1.836  -9.809  1.00  0.00    -0.205 F 
ATOM     91  C   UNL     1     -13.181  -0.639 -13.109  1.00  0.00     0.022 A 
BRANCH  89  92
ATOM     92  S   UNL     1     -13.750  -3.123 -12.107  1.00  0.00     0.127 S 
ATOM     93  O   UNL     1     -15.176  -2.825 -11.984  1.00  0.00    -0.237 OA
ATOM     94  O   UNL     1     -13.331  -3.562 -13.438  1.00  0.00    -0.237 OA
ATOM     95  O   UNL     1     -13.177  -3.891 -11.009  1.00  0.00    -0.744 OA
ENDBRANCH  89  92
ENDBRANCH  62  85
ENDBRANCH  36  37
ENDBRANCH  28  31
ENDBRANCH   1  27
TORSDOF 14
