REMARK SMILES Cc1ccccc1[C@@H](Cc1c(Cl)cccc1Cl)C(=O)NCCCNC(=O)c1ccc(-c2c3nc(c(-c4cccc(S(=O)(=O)[O-])c4F)c4ccc([nH]4)c(-c4cccc(S(=O)(=O)[O-])c4F)c4nc(c(-c5cccc(S(=O)(=O)[O-])c5F)c5ccc2[nH]5)C=C4)C=C3)cc1
REMARK SMILES IDX 22 1 21 2 20 3 18 4 19 5 8 7 7 8 1 9 2 10 3 11 4 12 6 13
REMARK SMILES IDX 5 14 9 15 10 16 11 17 16 18 12 19 13 20 15 21 17 22 14 23
REMARK SMILES IDX 23 24 24 25 25 26 26 28 27 29 28 30 89 31 29 32 88 33 30 34
REMARK SMILES IDX 31 35 32 36 82 37 33 38 87 39 81 40 83 41 34 42 86 43 80 44
REMARK SMILES IDX 79 45 35 47 67 48 47 49 66 50 48 51 51 52 65 53 84 54 49 55
REMARK SMILES IDX 50 56 64 58 85 59 52 60 36 61 37 62 45 63 38 64 40 65 46 66
REMARK SMILES IDX 39 67 41 68 42 69 43 70 44 71 68 72 69 73 77 74 70 75 72 76
REMARK SMILES IDX 78 77 71 78 73 79 74 80 75 81 76 82 53 83 54 84 62 85 55 86
REMARK SMILES IDX 57 87 63 88 56 89 58 90 59 91 60 92 61 93
REMARK H PARENT 20 6 24 27 83 46 51 57
REMARK Flexibility Score: inf
ROOT
ATOM      1  C   UNL     1      -2.777   2.979   0.310  1.00  0.00     0.042 C 
ENDROOT
BRANCH   1   2
ATOM      2  C   UNL     1      -1.623   3.971   0.276  1.00  0.00     0.117 C 
BRANCH   2   3
ATOM      3  N   UNL     1      -0.613   3.653   1.265  1.00  0.00    -0.355 N 
ATOM      4  C   UNL     1       0.502   2.878   1.212  1.00  0.00     0.227 C 
ATOM      5  O   UNL     1       1.023   2.608   2.302  1.00  0.00    -0.274 OA
ATOM      6  H   UNL     1      -0.763   4.078   2.140  1.00  0.00     0.163 HD
BRANCH   4   7
ATOM      7  C   UNL     1       1.141   2.327  -0.084  1.00  0.00     0.113 C 
BRANCH   7   8
ATOM      8  C   UNL     1       0.625   0.911  -0.409  1.00  0.00    -0.032 A 
ATOM      9  C   UNL     1       2.783  -0.309   0.331  1.00  0.00     0.044 C 
ATOM     10  C   UNL     1       1.334  -0.266  -0.077  1.00  0.00    -0.047 A 
ATOM     11  C   UNL     1       0.666  -1.509  -0.113  1.00  0.00     0.004 A 
ATOM     12  C   UNL     1      -0.656  -1.612  -0.531  1.00  0.00     0.000 A 
ATOM     13  C   UNL     1      -0.663   0.757  -0.954  1.00  0.00     0.005 A 
ATOM     14  C   UNL     1      -1.310  -0.480  -0.988  1.00  0.00     0.000 A 
ENDBRANCH   7   8
BRANCH   7  15
ATOM     15  C   UNL     1       1.287   3.267  -1.308  1.00  0.00     0.057 C 
BRANCH  15  16
ATOM     16  C   UNL     1       1.454   4.773  -1.115  1.00  0.00    -0.010 A 
ATOM     17  C   UNL     1       0.785   5.675  -1.979  1.00  0.00     0.045 A 
ATOM     18  C   UNL     1       2.275   5.354  -0.126  1.00  0.00     0.045 A 
ATOM     19  Cl  UNL     1      -0.102   5.149  -3.374  1.00  0.00    -0.084 Cl
ATOM     20  C   UNL     1       0.823   7.061  -1.774  1.00  0.00     0.021 A 
ATOM     21  C   UNL     1       2.280   6.740   0.098  1.00  0.00     0.021 A 
ATOM     22  Cl  UNL     1       3.416   4.455   0.809  1.00  0.00    -0.084 Cl
ATOM     23  C   UNL     1       1.541   7.593  -0.712  1.00  0.00     0.003 A 
ENDBRANCH  15  16
ENDBRANCH   7  15
ENDBRANCH   4   7
ENDBRANCH   2   3
ENDBRANCH   1   2
BRANCH   1  24
ATOM     24  C   UNL     1      -3.827   3.284   1.364  1.00  0.00     0.118 C 
BRANCH  24  25
ATOM     25  N   UNL     1      -5.158   3.446   0.780  1.00  0.00    -0.352 N 
ATOM     26  C   UNL     1      -6.378   3.541   1.421  1.00  0.00     0.251 C 
ATOM     27  H   UNL     1      -5.188   3.494  -0.203  1.00  0.00     0.163 HD
ATOM     28  O   UNL     1      -7.411   3.644   0.765  1.00  0.00    -0.269 OA
BRANCH  26  29
ATOM     29  C   UNL     1      -6.381   3.631   2.894  1.00  0.00     0.039 A 
ATOM     30  C   UNL     1      -6.847   4.816   3.471  1.00  0.00     0.014 A 
ATOM     31  C   UNL     1      -5.646   2.710   3.637  1.00  0.00     0.014 A 
ATOM     32  C   UNL     1      -6.358   5.201   4.715  1.00  0.00     0.010 A 
ATOM     33  C   UNL     1      -5.084   3.133   4.823  1.00  0.00     0.010 A 
ATOM     34  C   UNL     1      -5.384   4.409   5.321  1.00  0.00    -0.014 A 
BRANCH  34  35
ATOM     35  C   UNL     1      -4.541   4.863   6.417  1.00  0.00     0.031 A 
ATOM     36  C   UNL     1      -4.804   4.407   7.795  1.00  0.00     0.074 A 
ATOM     37  C   UNL     1      -3.458   5.628   6.155  1.00  0.00     0.049 A 
ATOM     38  N   UNL     1      -4.329   4.980   8.849  1.00  0.00    -0.248 NA
ATOM     39  C   UNL     1      -5.713   3.307   8.089  1.00  0.00     0.031 C 
ATOM     40  C   UNL     1      -2.319   5.866   7.034  1.00  0.00     0.029 A 
ATOM     41  N   UNL     1      -3.294   6.554   5.119  1.00  0.00    -0.354 N 
ATOM     42  C   UNL     1      -4.618   4.167   9.921  1.00  0.00     0.074 A 
ATOM     43  C   UNL     1      -5.596   3.237   9.417  1.00  0.00     0.031 C 
ATOM     44  C   UNL     1      -1.747   7.028   6.687  1.00  0.00     0.029 A 
ATOM     45  C   UNL     1      -2.594   7.638   5.678  1.00  0.00     0.049 A 
ATOM     46  H   UNL     1      -3.606   6.465   4.189  1.00  0.00     0.167 HD
ATOM     47  C   UNL     1      -3.872   4.288  11.055  1.00  0.00     0.034 A 
ATOM     48  C   UNL     1      -3.051   8.922   5.696  1.00  0.00     0.034 A 
ATOM     49  C   UNL     1      -3.059   5.514  11.020  1.00  0.00     0.049 A 
ATOM     50  C   UNL     1      -3.096   9.533   7.083  1.00  0.00     0.074 A 
ATOM     51  C   UNL     1      -1.717   5.764  10.786  1.00  0.00     0.029 A 
ATOM     52  N   UNL     1      -3.694   6.752  11.014  1.00  0.00    -0.354 N 
ATOM     53  N   UNL     1      -2.874   8.871   8.185  1.00  0.00    -0.248 NA
ATOM     54  C   UNL     1      -3.436  10.930   7.342  1.00  0.00     0.031 C 
ATOM     55  C   UNL     1      -1.565   7.158  10.551  1.00  0.00     0.029 A 
ATOM     56  C   UNL     1      -2.807   7.760  10.672  1.00  0.00     0.049 A 
ATOM     57  H   UNL     1      -4.646   6.893  11.225  1.00  0.00     0.167 HD
ATOM     58  C   UNL     1      -3.183   9.656   9.268  1.00  0.00     0.074 A 
ATOM     59  C   UNL     1      -3.437  10.963   8.687  1.00  0.00     0.031 C 
ATOM     60  C   UNL     1      -3.275   9.137  10.533  1.00  0.00     0.034 A 
BRANCH  47  61
ATOM     61  C   UNL     1      -3.651   3.193  12.099  1.00  0.00     0.023 A 
ATOM     62  C   UNL     1      -2.645   3.423  13.067  1.00  0.00     0.012 A 
ATOM     63  C   UNL     1      -4.249   1.910  12.141  1.00  0.00     0.148 A 
ATOM     64  C   UNL     1      -2.210   2.432  13.958  1.00  0.00     0.002 A 
ATOM     65  C   UNL     1      -3.821   0.919  13.030  1.00  0.00     0.091 A 
ATOM     66  F   UNL     1      -5.245   1.601  11.317  1.00  0.00    -0.205 F 
ATOM     67  C   UNL     1      -2.788   1.172  13.931  1.00  0.00     0.022 A 
BRANCH  65  68
ATOM     68  S   UNL     1      -4.529  -0.742  13.039  1.00  0.00     0.127 S 
ATOM     69  O   UNL     1      -3.366  -1.571  12.720  1.00  0.00    -0.237 OA
ATOM     70  O   UNL     1      -5.009  -0.869  14.414  1.00  0.00    -0.237 OA
ATOM     71  O   UNL     1      -5.577  -0.757  12.025  1.00  0.00    -0.744 OA
ENDBRANCH  65  68
ENDBRANCH  47  61
BRANCH  48  72
ATOM     72  C   UNL     1      -3.972   9.258   4.574  1.00  0.00     0.023 A 
ATOM     73  C   UNL     1      -3.429   9.215   3.267  1.00  0.00     0.012 A 
ATOM     74  C   UNL     1      -5.369   9.248   4.728  1.00  0.00     0.148 A 
ATOM     75  C   UNL     1      -4.250   9.051   2.151  1.00  0.00     0.002 A 
ATOM     76  C   UNL     1      -6.183   9.083   3.608  1.00  0.00     0.091 A 
ATOM     77  F   UNL     1      -5.878   9.318   5.965  1.00  0.00    -0.205 F 
ATOM     78  C   UNL     1      -5.625   8.954   2.325  1.00  0.00     0.022 A 
BRANCH  76  79
ATOM     79  S   UNL     1      -7.963   8.881   3.759  1.00  0.00     0.127 S 
ATOM     80  O   UNL     1      -8.432  10.243   3.529  1.00  0.00    -0.237 OA
ATOM     81  O   UNL     1      -8.262   7.935   2.683  1.00  0.00    -0.237 OA
ATOM     82  O   UNL     1      -8.161   8.341   5.096  1.00  0.00    -0.744 OA
ENDBRANCH  76  79
ENDBRANCH  48  72
BRANCH  60  83
ATOM     83  C   UNL     1      -3.841   9.854  11.751  1.00  0.00     0.023 A 
ATOM     84  C   UNL     1      -4.699  10.966  11.646  1.00  0.00     0.012 A 
ATOM     85  C   UNL     1      -3.645   9.333  13.058  1.00  0.00     0.148 A 
ATOM     86  C   UNL     1      -5.286  11.565  12.769  1.00  0.00     0.002 A 
ATOM     87  C   UNL     1      -4.315   9.868  14.160  1.00  0.00     0.091 A 
ATOM     88  F   UNL     1      -2.791   8.318  13.254  1.00  0.00    -0.205 F 
ATOM     89  C   UNL     1      -5.114  11.003  14.025  1.00  0.00     0.022 A 
BRANCH  87  90
ATOM     90  S   UNL     1      -4.289   9.015  15.744  1.00  0.00     0.127 S 
ATOM     91  O   UNL     1      -3.076   9.544  16.361  1.00  0.00    -0.237 OA
ATOM     92  O   UNL     1      -5.534   9.463  16.373  1.00  0.00    -0.237 OA
ATOM     93  O   UNL     1      -4.278   7.600  15.395  1.00  0.00    -0.744 OA
ENDBRANCH  87  90
ENDBRANCH  60  83
ENDBRANCH  34  35
ENDBRANCH  26  29
ENDBRANCH  24  25
ENDBRANCH   1  24
TORSDOF 16
