REMARK SMILES CC[C@@H](C)N(CC)c1cc(C(=O)NCCCNC(=O)c2ccc(-c3c4nc(c(-c5cccc(S(=O)(=O)[O-])c5F)c5ccc([nH]5)c(-c5cccc(S(=O)(=O)[O-])c5F)c5nc(c(-c6cccc(S(=O)(=O)[O-])c6F)c6ccc3[nH]6)C=C5)C=C4)cc2)c2ccccc2n1
REMARK SMILES IDX 15 1 14 2 13 3 11 4 12 5 10 7 8 8 9 9 89 10 88 11 83 12
REMARK SMILES IDX 87 13 84 14 86 15 85 16 5 17 3 18 4 19 2 20 1 21 6 22 7 23
REMARK SMILES IDX 16 24 17 25 18 26 19 28 20 29 21 30 82 31 22 32 81 33 23 34
REMARK SMILES IDX 24 35 25 36 75 37 26 38 80 39 74 40 76 41 27 42 79 43 73 44
REMARK SMILES IDX 72 45 28 47 60 48 40 49 59 50 41 51 44 52 58 53 77 54 42 55
REMARK SMILES IDX 43 56 57 58 78 59 45 60 29 61 30 62 38 63 31 64 33 65 39 66
REMARK SMILES IDX 32 67 34 68 35 69 36 70 37 71 61 72 62 73 70 74 63 75 65 76
REMARK SMILES IDX 71 77 64 78 66 79 67 80 68 81 69 82 46 83 47 84 55 85 48 86
REMARK SMILES IDX 50 87 56 88 49 89 51 90 52 91 53 92 54 93
REMARK H PARENT 13 6 17 27 76 46 44 57
REMARK Flexibility Score: inf
ROOT
ATOM      1  C   UNL     1      -6.796   0.355  -6.971  1.00  0.00     0.042 C 
ENDROOT
BRANCH   1   2
ATOM      2  C   UNL     1      -5.900  -0.800  -6.511  1.00  0.00     0.118 C 
BRANCH   2   3
ATOM      3  N   UNL     1      -4.602  -0.683  -7.147  1.00  0.00    -0.352 N 
ATOM      4  C   UNL     1      -3.382  -0.192  -6.767  1.00  0.00     0.252 C 
ATOM      5  O   UNL     1      -2.545  -0.119  -7.673  1.00  0.00    -0.269 OA
ATOM      6  H   UNL     1      -4.597  -1.038  -8.066  1.00  0.00     0.163 HD
BRANCH   4   7
ATOM      7  C   UNL     1      -2.937   0.114  -5.372  1.00  0.00     0.052 A 
ATOM      8  C   UNL     1      -0.974  -0.039  -3.942  1.00  0.00     0.130 A 
ATOM      9  C   UNL     1      -1.589  -0.232  -5.163  1.00  0.00     0.061 A 
ATOM     10  N   UNL     1      -1.717   0.348  -2.900  1.00  0.00    -0.231 NA
ATOM     11  C   UNL     1      -2.982   0.742  -3.064  1.00  0.00     0.073 A 
ATOM     12  C   UNL     1      -3.643   0.721  -4.306  1.00  0.00     0.013 A 
ATOM     13  C   UNL     1      -3.628   1.232  -1.936  1.00  0.00     0.029 A 
ATOM     14  C   UNL     1      -4.906   1.356  -4.354  1.00  0.00     0.011 A 
ATOM     15  C   UNL     1      -4.917   1.752  -1.990  1.00  0.00     0.002 A 
ATOM     16  C   UNL     1      -5.554   1.834  -3.214  1.00  0.00     0.001 A 
BRANCH   8  17
ATOM     17  N   UNL     1       0.390  -0.234  -3.769  1.00  0.00    -0.354 N 
BRANCH  17  18
ATOM     18  C   UNL     1       0.923  -0.656  -2.454  1.00  0.00     0.080 C 
ATOM     19  C   UNL     1       0.401  -2.055  -2.117  1.00  0.00     0.031 C 
BRANCH  18  20
ATOM     20  C   UNL     1       0.706   0.380  -1.330  1.00  0.00     0.021 C 
ATOM     21  C   UNL     1       1.430   0.041  -0.033  1.00  0.00     0.006 C 
ENDBRANCH  18  20
ENDBRANCH  17  18
BRANCH  17  22
ATOM     22  C   UNL     1       1.301   0.479  -4.678  1.00  0.00     0.115 C 
ATOM     23  C   UNL     1       1.638  -0.333  -5.922  1.00  0.00     0.027 C 
ENDBRANCH  17  22
ENDBRANCH   8  17
ENDBRANCH   4   7
ENDBRANCH   2   3
ENDBRANCH   1   2
BRANCH   1  24
ATOM     24  C   UNL     1      -7.458   0.127  -8.323  1.00  0.00     0.118 C 
BRANCH  24  25
ATOM     25  N   UNL     1      -8.649  -0.698  -8.204  1.00  0.00    -0.352 N 
ATOM     26  C   UNL     1      -9.976  -0.340  -8.202  1.00  0.00     0.251 C 
ATOM     27  H   UNL     1      -8.478  -1.663  -8.111  1.00  0.00     0.163 HD
ATOM     28  O   UNL     1     -10.807  -1.155  -7.805  1.00  0.00    -0.269 OA
BRANCH  26  29
ATOM     29  C   UNL     1     -10.422   1.002  -8.654  1.00  0.00     0.039 A 
ATOM     30  C   UNL     1     -11.492   1.615  -7.992  1.00  0.00     0.014 A 
ATOM     31  C   UNL     1      -9.847   1.637  -9.758  1.00  0.00     0.014 A 
ATOM     32  C   UNL     1     -11.941   2.877  -8.397  1.00  0.00     0.010 A 
ATOM     33  C   UNL     1     -10.240   2.929 -10.110  1.00  0.00     0.010 A 
ATOM     34  C   UNL     1     -11.296   3.562  -9.439  1.00  0.00    -0.014 A 
BRANCH  34  35
ATOM     35  C   UNL     1     -11.694   4.943  -9.828  1.00  0.00     0.031 A 
ATOM     36  C   UNL     1     -12.206   5.232 -11.216  1.00  0.00     0.074 A 
ATOM     37  C   UNL     1     -11.499   5.958  -8.961  1.00  0.00     0.049 A 
ATOM     38  N   UNL     1     -12.520   6.382 -11.756  1.00  0.00    -0.248 NA
ATOM     39  C   UNL     1     -12.364   4.085 -12.126  1.00  0.00     0.031 C 
ATOM     40  C   UNL     1     -10.933   5.823  -7.616  1.00  0.00     0.029 A 
ATOM     41  N   UNL     1     -11.719   7.307  -9.092  1.00  0.00    -0.354 N 
ATOM     42  C   UNL     1     -12.867   6.105 -13.074  1.00  0.00     0.074 A 
ATOM     43  C   UNL     1     -12.708   4.680 -13.260  1.00  0.00     0.031 C 
ATOM     44  C   UNL     1     -10.843   7.037  -7.051  1.00  0.00     0.029 A 
ATOM     45  C   UNL     1     -11.314   8.041  -8.000  1.00  0.00     0.049 A 
ATOM     46  H   UNL     1     -12.127   7.712  -9.891  1.00  0.00     0.167 HD
ATOM     47  C   UNL     1     -13.303   6.956 -14.034  1.00  0.00     0.034 A 
ATOM     48  C   UNL     1     -11.305   9.373  -7.790  1.00  0.00     0.034 A 
ATOM     49  C   UNL     1     -13.518   8.363 -13.829  1.00  0.00     0.049 A 
ATOM     50  C   UNL     1     -11.839  10.286  -8.860  1.00  0.00     0.074 A 
ATOM     51  C   UNL     1     -14.070   9.284 -14.703  1.00  0.00     0.029 A 
ATOM     52  N   UNL     1     -13.185   9.056 -12.677  1.00  0.00    -0.354 N 
ATOM     53  N   UNL     1     -12.335   9.979 -10.033  1.00  0.00    -0.248 NA
ATOM     54  C   UNL     1     -11.842  11.726  -8.564  1.00  0.00     0.031 C 
ATOM     55  C   UNL     1     -14.050  10.539 -14.087  1.00  0.00     0.029 A 
ATOM     56  C   UNL     1     -13.502  10.396 -12.823  1.00  0.00     0.049 A 
ATOM     57  H   UNL     1     -12.783   8.655 -11.873  1.00  0.00     0.167 HD
ATOM     58  C   UNL     1     -12.732  11.182 -10.605  1.00  0.00     0.074 A 
ATOM     59  C   UNL     1     -12.449  12.220  -9.635  1.00  0.00     0.031 C 
ATOM     60  C   UNL     1     -13.262  11.411 -11.831  1.00  0.00     0.034 A 
BRANCH  47  61
ATOM     61  C   UNL     1     -13.643   6.386 -15.387  1.00  0.00     0.023 A 
ATOM     62  C   UNL     1     -14.825   5.633 -15.544  1.00  0.00     0.012 A 
ATOM     63  C   UNL     1     -12.852   6.676 -16.516  1.00  0.00     0.148 A 
ATOM     64  C   UNL     1     -15.203   5.159 -16.799  1.00  0.00     0.002 A 
ATOM     65  C   UNL     1     -13.257   6.234 -17.771  1.00  0.00     0.091 A 
ATOM     66  F   UNL     1     -11.725   7.380 -16.343  1.00  0.00    -0.205 F 
ATOM     67  C   UNL     1     -14.427   5.469 -17.913  1.00  0.00     0.022 A 
BRANCH  65  68
ATOM     68  S   UNL     1     -12.370   6.641 -19.280  1.00  0.00     0.127 S 
ATOM     69  O   UNL     1     -11.851   5.333 -19.678  1.00  0.00    -0.237 OA
ATOM     70  O   UNL     1     -13.440   7.157 -20.134  1.00  0.00    -0.237 OA
ATOM     71  O   UNL     1     -11.363   7.622 -18.904  1.00  0.00    -0.744 OA
ENDBRANCH  65  68
ENDBRANCH  47  61
BRANCH  48  72
ATOM     72  C   UNL     1     -10.817   9.922  -6.492  1.00  0.00     0.023 A 
ATOM     73  C   UNL     1     -11.735  10.513  -5.602  1.00  0.00     0.012 A 
ATOM     74  C   UNL     1      -9.459   9.851  -6.128  1.00  0.00     0.148 A 
ATOM     75  C   UNL     1     -11.305  11.053  -4.390  1.00  0.00     0.002 A 
ATOM     76  C   UNL     1      -9.046  10.339  -4.893  1.00  0.00     0.091 A 
ATOM     77  F   UNL     1      -8.594   9.304  -6.994  1.00  0.00    -0.205 F 
ATOM     78  C   UNL     1      -9.964  10.957  -4.030  1.00  0.00     0.022 A 
BRANCH  76  79
ATOM     79  S   UNL     1      -7.364  10.121  -4.300  1.00  0.00     0.127 S 
ATOM     80  O   UNL     1      -6.795  11.450  -4.521  1.00  0.00    -0.237 OA
ATOM     81  O   UNL     1      -7.578   9.771  -2.893  1.00  0.00    -0.237 OA
ATOM     82  O   UNL     1      -6.810   9.044  -5.103  1.00  0.00    -0.744 OA
ENDBRANCH  76  79
ENDBRANCH  48  72
BRANCH  60  83
ATOM     83  C   UNL     1     -13.587  12.836 -12.195  1.00  0.00     0.023 A 
ATOM     84  C   UNL     1     -12.541  13.733 -12.488  1.00  0.00     0.012 A 
ATOM     85  C   UNL     1     -14.923  13.265 -12.318  1.00  0.00     0.148 A 
ATOM     86  C   UNL     1     -12.818  15.046 -12.867  1.00  0.00     0.002 A 
ATOM     87  C   UNL     1     -15.192  14.561 -12.742  1.00  0.00     0.091 A 
ATOM     88  F   UNL     1     -15.903  12.402 -12.018  1.00  0.00    -0.205 F 
ATOM     89  C   UNL     1     -14.142  15.456 -13.006  1.00  0.00     0.022 A 
BRANCH  87  90
ATOM     90  S   UNL     1     -16.864  15.150 -13.038  1.00  0.00     0.127 S 
ATOM     91  O   UNL     1     -17.070  16.045 -11.901  1.00  0.00    -0.237 OA
ATOM     92  O   UNL     1     -16.733  15.824 -14.330  1.00  0.00    -0.237 OA
ATOM     93  O   UNL     1     -17.708  13.963 -13.060  1.00  0.00    -0.744 OA
ENDBRANCH  87  90
ENDBRANCH  60  83
ENDBRANCH  34  35
ENDBRANCH  26  29
ENDBRANCH  24  25
ENDBRANCH   1  24
TORSDOF 17
