REMARK SMILES C[C@@H](C(=O)NCCCNC(=O)c1ccc(-c2c3nc(c(-c4cccc(S(=O)(=O)[O-])c4F)c4ccc([nH]4)c(-c4cccc(S(=O)(=O)[O-])c4F)c4nc(c(-c5cccc(S(=O)(=O)[O-])c5F)c5ccc2[nH]5)C=C4)C=C3)cc1)[C@@H](C)c1ccc(OC(F)(F)F)cc1
REMARK SMILES IDX 6 1 5 2 3 3 4 4 2 6 1 7 75 8 76 9 77 10 78 11 87 12 79 13
REMARK SMILES IDX 86 14 80 15 81 16 82 17 83 18 84 19 85 20 7 21 8 22 9 23
REMARK SMILES IDX 10 24 11 26 12 27 13 28 74 29 14 30 73 31 15 32 16 33 17 34
REMARK SMILES IDX 67 35 18 36 72 37 66 38 68 39 19 40 71 41 65 42 64 43 20 45
REMARK SMILES IDX 52 46 32 47 51 48 33 49 36 50 50 51 69 52 34 53 35 54 49 56
REMARK SMILES IDX 70 57 37 58 21 59 22 60 30 61 23 62 25 63 31 64 24 65 26 66
REMARK SMILES IDX 27 67 28 68 29 69 53 70 54 71 62 72 55 73 57 74 63 75 56 76
REMARK SMILES IDX 58 77 59 78 60 79 61 80 38 81 39 82 47 83 40 84 42 85 48 86
REMARK SMILES IDX 41 87 43 88 44 89 45 90 46 91
REMARK H PARENT 5 5 9 25 68 44 36 55
REMARK Flexibility Score: inf
ROOT
ATOM      1  C   UNL     1       3.491   1.006   1.734  1.00  0.00     0.117 C 
ENDROOT
BRANCH   1   2
ATOM      2  N   UNL     1       2.429   1.993   1.681  1.00  0.00    -0.356 N 
ATOM      3  C   UNL     1       1.141   1.859   1.256  1.00  0.00     0.223 C 
ATOM      4  O   UNL     1       0.541   2.888   0.944  1.00  0.00    -0.275 OA
ATOM      5  H   UNL     1       2.675   2.891   2.000  1.00  0.00     0.163 HD
BRANCH   3   6
ATOM      6  C   UNL     1       0.514   0.467   1.156  1.00  0.00     0.082 C 
ATOM      7  C   UNL     1       0.893  -0.124  -0.206  1.00  0.00     0.018 C 
BRANCH   6   8
ATOM      8  C   UNL     1      -1.033   0.526   1.361  1.00  0.00     0.028 C 
ATOM      9  C   UNL     1      -1.713  -0.808   1.004  1.00  0.00     0.013 C 
BRANCH   8  10
ATOM     10  C   UNL     1      -1.407   0.979   2.776  1.00  0.00    -0.044 A 
ATOM     11  C   UNL     1      -1.589   2.345   3.035  1.00  0.00     0.008 A 
ATOM     12  C   UNL     1      -1.567   0.087   3.846  1.00  0.00     0.008 A 
ATOM     13  C   UNL     1      -1.887   2.806   4.319  1.00  0.00     0.047 A 
ATOM     14  C   UNL     1      -1.902   0.547   5.129  1.00  0.00     0.047 A 
ATOM     15  C   UNL     1      -2.054   1.911   5.374  1.00  0.00     0.129 A 
BRANCH  15  16
ATOM     16  O   UNL     1      -2.344   2.500   6.570  1.00  0.00    -0.406 OA
BRANCH  16  17
ATOM     17  C   UNL     1      -2.686   1.658   7.653  1.00  0.00     0.573 C 
ATOM     18  F   UNL     1      -3.779   0.916   7.370  1.00  0.00    -0.132 F 
ATOM     19  F   UNL     1      -1.663   0.844   7.990  1.00  0.00    -0.132 F 
ATOM     20  F   UNL     1      -2.973   2.429   8.727  1.00  0.00    -0.132 F 
ENDBRANCH  16  17
ENDBRANCH  15  16
ENDBRANCH   8  10
ENDBRANCH   6   8
ENDBRANCH   3   6
ENDBRANCH   1   2
BRANCH   1  21
ATOM     21  C   UNL     1       4.420   1.141   0.528  1.00  0.00     0.042 C 
BRANCH  21  22
ATOM     22  C   UNL     1       5.162   2.472   0.460  1.00  0.00     0.118 C 
BRANCH  22  23
ATOM     23  N   UNL     1       6.112   2.637   1.551  1.00  0.00    -0.352 N 
ATOM     24  C   UNL     1       7.469   2.839   1.503  1.00  0.00     0.251 C 
ATOM     25  H   UNL     1       5.725   2.598   2.455  1.00  0.00     0.163 HD
ATOM     26  O   UNL     1       8.130   2.758   2.538  1.00  0.00    -0.269 OA
BRANCH  24  27
ATOM     27  C   UNL     1       8.138   3.132   0.217  1.00  0.00     0.039 A 
ATOM     28  C   UNL     1       9.347   2.496  -0.076  1.00  0.00     0.014 A 
ATOM     29  C   UNL     1       7.587   4.040  -0.693  1.00  0.00     0.014 A 
ATOM     30  C   UNL     1       9.970   2.722  -1.306  1.00  0.00     0.010 A 
ATOM     31  C   UNL     1       8.167   4.202  -1.948  1.00  0.00     0.010 A 
ATOM     32  C   UNL     1       9.367   3.550  -2.268  1.00  0.00    -0.014 A 
BRANCH  32  33
ATOM     33  C   UNL     1       9.968   3.733  -3.615  1.00  0.00     0.031 A 
ATOM     34  C   UNL     1      10.406   5.098  -4.074  1.00  0.00     0.074 A 
ATOM     35  C   UNL     1      10.034   2.686  -4.461  1.00  0.00     0.049 A 
ATOM     36  N   UNL     1      10.884   5.462  -5.236  1.00  0.00    -0.248 NA
ATOM     37  C   UNL     1      10.263   6.203  -3.112  1.00  0.00     0.031 C 
ATOM     38  C   UNL     1       9.570   1.330  -4.165  1.00  0.00     0.029 A 
ATOM     39  N   UNL     1      10.486   2.606  -5.755  1.00  0.00    -0.354 N 
ATOM     40  C   UNL     1      11.063   6.838  -5.159  1.00  0.00     0.074 A 
ATOM     41  C   UNL     1      10.611   7.249  -3.848  1.00  0.00     0.031 C 
ATOM     42  C   UNL     1       9.756   0.555  -5.244  1.00  0.00     0.029 A 
ATOM     43  C   UNL     1      10.316   1.364  -6.322  1.00  0.00     0.049 A 
ATOM     44  H   UNL     1      10.893   3.365  -6.232  1.00  0.00     0.167 HD
ATOM     45  C   UNL     1      11.580   7.682  -6.085  1.00  0.00     0.034 A 
ATOM     46  C   UNL     1      10.563   0.928  -7.573  1.00  0.00     0.034 A 
ATOM     47  C   UNL     1      12.056   7.265  -7.377  1.00  0.00     0.049 A 
ATOM     48  C   UNL     1      11.162   1.877  -8.575  1.00  0.00     0.074 A 
ATOM     49  C   UNL     1      12.680   8.027  -8.350  1.00  0.00     0.029 A 
ATOM     50  N   UNL     1      11.946   5.980  -7.886  1.00  0.00    -0.354 N 
ATOM     51  N   UNL     1      11.475   3.141  -8.428  1.00  0.00    -0.248 NA
ATOM     52  C   UNL     1      11.475   1.331  -9.904  1.00  0.00     0.031 C 
ATOM     53  C   UNL     1      12.912   7.210  -9.461  1.00  0.00     0.029 A 
ATOM     54  C   UNL     1      12.473   5.930  -9.165  1.00  0.00     0.049 A 
ATOM     55  H   UNL     1      11.551   5.216  -7.407  1.00  0.00     0.167 HD
ATOM     56  C   UNL     1      12.053   3.533  -9.631  1.00  0.00     0.074 A 
ATOM     57  C   UNL     1      12.064   2.366 -10.488  1.00  0.00     0.031 C 
ATOM     58  C   UNL     1      12.522   4.752  -9.994  1.00  0.00     0.034 A 
BRANCH  45  59
ATOM     59  C   UNL     1      11.691   9.140  -5.719  1.00  0.00     0.023 A 
ATOM     60  C   UNL     1      12.621   9.548  -4.740  1.00  0.00     0.012 A 
ATOM     61  C   UNL     1      10.912  10.113  -6.376  1.00  0.00     0.148 A 
ATOM     62  C   UNL     1      12.743  10.891  -4.389  1.00  0.00     0.002 A 
ATOM     63  C   UNL     1      11.075  11.456  -6.056  1.00  0.00     0.091 A 
ATOM     64  F   UNL     1      10.020   9.708  -7.291  1.00  0.00    -0.205 F 
ATOM     65  C   UNL     1      11.978  11.845  -5.054  1.00  0.00     0.022 A 
BRANCH  63  66
ATOM     66  S   UNL     1      10.198  12.769  -6.913  1.00  0.00     0.127 S 
ATOM     67  O   UNL     1       9.266  13.223  -5.882  1.00  0.00    -0.237 OA
ATOM     68  O   UNL     1      11.277  13.711  -7.218  1.00  0.00    -0.237 OA
ATOM     69  O   UNL     1       9.587  12.149  -8.080  1.00  0.00    -0.744 OA
ENDBRANCH  63  66
ENDBRANCH  45  59
BRANCH  46  70
ATOM     70  C   UNL     1      10.280  -0.490  -7.932  1.00  0.00     0.023 A 
ATOM     71  C   UNL     1      11.348  -1.375  -8.173  1.00  0.00     0.012 A 
ATOM     72  C   UNL     1       8.959  -0.974  -8.002  1.00  0.00     0.148 A 
ATOM     73  C   UNL     1      11.106  -2.708  -8.509  1.00  0.00     0.002 A 
ATOM     74  C   UNL     1       8.726  -2.315  -8.279  1.00  0.00     0.091 A 
ATOM     75  F   UNL     1       7.956  -0.113  -7.777  1.00  0.00    -0.205 F 
ATOM     76  C   UNL     1       9.797  -3.180  -8.552  1.00  0.00     0.022 A 
BRANCH  74  77
ATOM     77  S   UNL     1       7.084  -3.041  -8.219  1.00  0.00     0.127 S 
ATOM     78  O   UNL     1       6.846  -3.359  -9.625  1.00  0.00    -0.237 OA
ATOM     79  O   UNL     1       7.299  -4.199  -7.352  1.00  0.00    -0.237 OA
ATOM     80  O   UNL     1       6.219  -2.017  -7.648  1.00  0.00    -0.744 OA
ENDBRANCH  74  77
ENDBRANCH  46  70
BRANCH  58  81
ATOM     81  C   UNL     1      13.130   4.891 -11.366  1.00  0.00     0.023 A 
ATOM     82  C   UNL     1      12.308   4.863 -12.509  1.00  0.00     0.012 A 
ATOM     83  C   UNL     1      14.511   5.129 -11.513  1.00  0.00     0.148 A 
ATOM     84  C   UNL     1      12.856   5.040 -13.780  1.00  0.00     0.002 A 
ATOM     85  C   UNL     1      15.042   5.356 -12.777  1.00  0.00     0.091 A 
ATOM     86  F   UNL     1      15.280   5.134 -10.414  1.00  0.00    -0.205 F 
ATOM     87  C   UNL     1      14.218   5.299 -13.912  1.00  0.00     0.022 A 
BRANCH  85  88
ATOM     88  S   UNL     1      16.764   5.795 -13.036  1.00  0.00     0.127 S 
ATOM     89  O   UNL     1      17.281   4.596 -13.694  1.00  0.00    -0.237 OA
ATOM     90  O   UNL     1      16.656   6.968 -13.904  1.00  0.00    -0.237 OA
ATOM     91  O   UNL     1      17.315   6.067 -11.716  1.00  0.00    -0.744 OA
ENDBRANCH  85  88
ENDBRANCH  58  81
ENDBRANCH  32  33
ENDBRANCH  24  27
ENDBRANCH  22  23
ENDBRANCH  21  22
ENDBRANCH   1  21
TORSDOF 17
