REMARK SMILES C[NH2+][C@@]1(C(=O)NCCCNC(=O)c2ccc(-c3c4nc(c(-c5cccc(S(=O)(=O)[O-])c5F)c5ccc([nH]5)c(-c5cccc(S(=O)(=O)[O-])c5F)c5nc(c(-c6cccc(S(=O)(=O)[O-])c6F)c6ccc3[nH]6)C=C5)C=C4)cc2)CCC[C@H]1CCSc1nccc(=O)[nH]1
REMARK SMILES IDX 7 1 6 2 4 3 5 4 3 6 76 7 79 8 77 9 78 10 2 11 1 12 80 15
REMARK SMILES IDX 81 16 82 17 83 18 84 19 89 20 85 21 87 22 86 24 88 25 8 26
REMARK SMILES IDX 9 27 10 28 11 29 12 31 13 32 14 33 75 34 15 35 74 36 16 37
REMARK SMILES IDX 17 38 18 39 68 40 19 41 73 42 67 43 69 44 20 45 72 46 66 47
REMARK SMILES IDX 65 48 21 50 53 51 33 52 52 53 34 54 37 55 51 56 70 57 35 58
REMARK SMILES IDX 36 59 50 61 71 62 38 63 22 64 23 65 31 66 24 67 26 68 32 69
REMARK SMILES IDX 25 70 27 71 28 72 29 73 30 74 54 75 55 76 63 77 56 78 58 79
REMARK SMILES IDX 64 80 57 81 59 82 60 83 61 84 62 85 39 86 40 87 48 88 41 89
REMARK SMILES IDX 43 90 49 91 42 92 44 93 45 94 46 95 47 96
REMARK H PARENT 6 5 2 13 2 14 89 23 10 30 69 49 37 60
REMARK Flexibility Score: inf
ROOT
ATOM      1  C   UNL     1      -3.858   1.578   1.517  1.00  0.00     0.118 C 
ENDROOT
BRANCH   1   2
ATOM      2  N   UNL     1      -2.556   1.682   2.126  1.00  0.00    -0.351 N 
ATOM      3  C   UNL     1      -1.318   1.921   1.619  1.00  0.00     0.281 C 
ATOM      4  O   UNL     1      -0.552   2.414   2.464  1.00  0.00    -0.268 OA
ATOM      5  H   UNL     1      -2.564   1.554   3.102  1.00  0.00     0.163 HD
BRANCH   3   6
ATOM      6  C   UNL     1      -0.849   1.710   0.103  1.00  0.00     0.178 C 
ATOM      7  C   UNL     1      -1.361   2.910  -0.738  1.00  0.00     0.079 C 
ATOM      8  C   UNL     1      -1.413   0.444  -0.641  1.00  0.00     0.061 C 
ATOM      9  C   UNL     1      -2.579   2.481  -1.525  1.00  0.00     0.008 C 
ATOM     10  C   UNL     1      -2.592   0.965  -1.521  1.00  0.00     0.011 C 
BRANCH   6  11
ATOM     11  N   UNL     1       0.645   1.902   0.036  1.00  0.00    -0.336 N 
ATOM     12  C   UNL     1       1.486   1.127   0.939  1.00  0.00     0.331 C 
ATOM     13  H   UNL     1       0.936   1.675  -0.915  1.00  0.00     0.346 HD
ATOM     14  H   UNL     1       0.787   2.868   0.330  1.00  0.00     0.346 HD
ENDBRANCH   6  11
BRANCH   8  15
ATOM     15  C   UNL     1      -0.507  -0.348  -1.624  1.00  0.00     0.022 C 
BRANCH  15  16
ATOM     16  C   UNL     1       0.515  -1.386  -1.152  1.00  0.00     0.079 C 
BRANCH  16  17
ATOM     17  S   UNL     1      -0.117  -2.897  -0.372  1.00  0.00    -0.088 SA
BRANCH  17  18
ATOM     18  C   UNL     1      -0.611  -2.451   1.226  1.00  0.00     0.168 A 
ATOM     19  N   UNL     1      -0.282  -1.359   1.825  1.00  0.00    -0.233 NA
ATOM     20  N   UNL     1      -1.402  -3.406   1.782  1.00  0.00    -0.301 N 
ATOM     21  C   UNL     1      -0.799  -1.162   3.080  1.00  0.00     0.120 A 
ATOM     22  C   UNL     1      -1.954  -3.259   3.015  1.00  0.00     0.251 A 
ATOM     23  H   UNL     1      -1.581  -4.231   1.276  1.00  0.00     0.172 HD
ATOM     24  C   UNL     1      -1.619  -2.008   3.709  1.00  0.00     0.091 A 
ATOM     25  O   UNL     1      -2.693  -4.088   3.535  1.00  0.00    -0.269 OA
ENDBRANCH  17  18
ENDBRANCH  16  17
ENDBRANCH  15  16
ENDBRANCH   8  15
ENDBRANCH   3   6
ENDBRANCH   1   2
BRANCH   1  26
ATOM     26  C   UNL     1      -4.542   0.238   1.722  1.00  0.00     0.042 C 
BRANCH  26  27
ATOM     27  C   UNL     1      -5.160   0.074   3.105  1.00  0.00     0.118 C 
BRANCH  27  28
ATOM     28  N   UNL     1      -6.154   1.104   3.403  1.00  0.00    -0.352 N 
ATOM     29  C   UNL     1      -7.521   1.038   3.517  1.00  0.00     0.251 C 
ATOM     30  H   UNL     1      -5.777   2.002   3.548  1.00  0.00     0.163 HD
ATOM     31  O   UNL     1      -8.167   2.083   3.536  1.00  0.00    -0.269 OA
BRANCH  29  32
ATOM     32  C   UNL     1      -8.216  -0.262   3.618  1.00  0.00     0.039 A 
ATOM     33  C   UNL     1      -9.467  -0.416   3.013  1.00  0.00     0.014 A 
ATOM     34  C   UNL     1      -7.661  -1.318   4.341  1.00  0.00     0.014 A 
ATOM     35  C   UNL     1     -10.126  -1.646   3.082  1.00  0.00     0.010 A 
ATOM     36  C   UNL     1      -8.264  -2.570   4.317  1.00  0.00     0.010 A 
ATOM     37  C   UNL     1      -9.511  -2.745   3.703  1.00  0.00    -0.014 A 
BRANCH  37  38
ATOM     38  C   UNL     1     -10.150  -4.085   3.727  1.00  0.00     0.031 A 
ATOM     39  C   UNL     1     -10.474  -4.747   5.041  1.00  0.00     0.074 A 
ATOM     40  C   UNL     1     -10.351  -4.746   2.569  1.00  0.00     0.049 A 
ATOM     41  N   UNL     1     -10.966  -5.937   5.266  1.00  0.00    -0.248 NA
ATOM     42  C   UNL     1     -10.178  -3.983   6.266  1.00  0.00     0.031 C 
ATOM     43  C   UNL     1     -10.002  -4.245   1.238  1.00  0.00     0.029 A 
ATOM     44  N   UNL     1     -10.870  -5.993   2.328  1.00  0.00    -0.354 N 
ATOM     45  C   UNL     1     -10.997  -6.082   6.648  1.00  0.00     0.074 A 
ATOM     46  C   UNL     1     -10.439  -4.873   7.212  1.00  0.00     0.031 C 
ATOM     47  C   UNL     1     -10.325  -5.169   0.320  1.00  0.00     0.029 A 
ATOM     48  C   UNL     1     -10.867  -6.343   0.997  1.00  0.00     0.049 A 
ATOM     49  H   UNL     1     -11.213  -6.581   3.039  1.00  0.00     0.167 HD
ATOM     50  C   UNL     1     -11.473  -7.114   7.384  1.00  0.00     0.034 A 
ATOM     51  C   UNL     1     -11.245  -7.485   0.392  1.00  0.00     0.034 A 
ATOM     52  C   UNL     1     -12.062  -8.296   6.817  1.00  0.00     0.049 A 
ATOM     53  C   UNL     1     -11.802  -8.603   1.230  1.00  0.00     0.074 A 
ATOM     54  C   UNL     1     -12.659  -9.358   7.473  1.00  0.00     0.029 A 
ATOM     55  N   UNL     1     -12.115  -8.581   5.462  1.00  0.00    -0.354 N 
ATOM     56  N   UNL     1     -11.973  -8.655   2.529  1.00  0.00    -0.248 NA
ATOM     57  C   UNL     1     -12.252  -9.807   0.517  1.00  0.00     0.031 C 
ATOM     58  C   UNL     1     -13.041 -10.302   6.514  1.00  0.00     0.029 A 
ATOM     59  C   UNL     1     -12.720  -9.809   5.260  1.00  0.00     0.049 A 
ATOM     60  H   UNL     1     -11.772  -7.997   4.748  1.00  0.00     0.167 HD
ATOM     61  C   UNL     1     -12.582  -9.878   2.785  1.00  0.00     0.074 A 
ATOM     62  C   UNL     1     -12.770 -10.526   1.503  1.00  0.00     0.031 C 
ATOM     63  C   UNL     1     -12.942 -10.421   3.974  1.00  0.00     0.034 A 
BRANCH  50  64
ATOM     64  C   UNL     1     -11.415  -6.990   8.886  1.00  0.00     0.023 A 
ATOM     65  C   UNL     1     -12.241  -6.055   9.544  1.00  0.00     0.012 A 
ATOM     66  C   UNL     1     -10.582  -7.831   9.650  1.00  0.00     0.148 A 
ATOM     67  C   UNL     1     -12.208  -5.929  10.932  1.00  0.00     0.002 A 
ATOM     68  C   UNL     1     -10.592  -7.735  11.036  1.00  0.00     0.091 A 
ATOM     69  F   UNL     1      -9.789  -8.701   9.008  1.00  0.00    -0.205 F 
ATOM     70  C   UNL     1     -11.393  -6.776  11.678  1.00  0.00     0.022 A 
BRANCH  68  71
ATOM     71  S   UNL     1      -9.643  -8.834  12.093  1.00  0.00     0.127 S 
ATOM     72  O   UNL     1      -8.636  -7.924  12.637  1.00  0.00    -0.237 OA
ATOM     73  O   UNL     1     -10.650  -9.276  13.058  1.00  0.00    -0.237 OA
ATOM     74  O   UNL     1      -9.130  -9.884  11.225  1.00  0.00    -0.744 OA
ENDBRANCH  68  71
ENDBRANCH  50  64
BRANCH  51  75
ATOM     75  C   UNL     1     -11.163  -7.604  -1.092  1.00  0.00     0.023 A 
ATOM     76  C   UNL     1     -12.350  -7.646  -1.849  1.00  0.00     0.012 A 
ATOM     77  C   UNL     1      -9.923  -7.649  -1.756  1.00  0.00     0.148 A 
ATOM     78  C   UNL     1     -12.304  -7.766  -3.239  1.00  0.00     0.002 A 
ATOM     79  C   UNL     1      -9.883  -7.710  -3.144  1.00  0.00     0.091 A 
ATOM     80  F   UNL     1      -8.805  -7.614  -1.017  1.00  0.00    -0.205 F 
ATOM     81  C   UNL     1     -11.072  -7.788  -3.886  1.00  0.00     0.022 A 
BRANCH  79  82
ATOM     82  S   UNL     1      -8.348  -7.609  -4.071  1.00  0.00     0.127 S 
ATOM     83  O   UNL     1      -8.251  -8.952  -4.638  1.00  0.00    -0.237 OA
ATOM     84  O   UNL     1      -8.649  -6.552  -5.038  1.00  0.00    -0.237 OA
ATOM     85  O   UNL     1      -7.321  -7.258  -3.099  1.00  0.00    -0.744 OA
ENDBRANCH  79  82
ENDBRANCH  51  75
BRANCH  63  86
ATOM     86  C   UNL     1     -13.617 -11.768   3.951  1.00  0.00     0.023 A 
ATOM     87  C   UNL     1     -12.876 -12.923   3.630  1.00  0.00     0.012 A 
ATOM     88  C   UNL     1     -14.971 -11.894   4.319  1.00  0.00     0.148 A 
ATOM     89  C   UNL     1     -13.483 -14.178   3.641  1.00  0.00     0.002 A 
ATOM     90  C   UNL     1     -15.554 -13.153   4.381  1.00  0.00     0.091 A 
ATOM     91  F   UNL     1     -15.662 -10.781   4.605  1.00  0.00    -0.205 F 
ATOM     92  C   UNL     1     -14.816 -14.295   4.028  1.00  0.00     0.022 A 
BRANCH  90  93
ATOM     93  S   UNL     1     -17.233 -13.411   4.965  1.00  0.00     0.127 S 
ATOM     94  O   UNL     1     -17.919 -13.798   3.733  1.00  0.00    -0.237 OA
ATOM     95  O   UNL     1     -17.060 -14.494   5.933  1.00  0.00    -0.237 OA
ATOM     96  O   UNL     1     -17.658 -12.143   5.543  1.00  0.00    -0.744 OA
ENDBRANCH  90  93
ENDBRANCH  63  86
ENDBRANCH  37  38
ENDBRANCH  29  32
ENDBRANCH  27  28
ENDBRANCH  26  27
ENDBRANCH   1  26
TORSDOF 18
