REMARK SMILES C[C@@H](NC(=O)[C@@H]1CC[C@@H]2CCCC[C@@H]2[NH2+]1)C(=O)NCCCNC(=O)c1ccc(-c2c3nc(c(-c4cccc(S(=O)(=O)[O-])c4F)c4ccc([nH]4)c(-c4cccc(S(=O)(=O)[O-])c4F)c4nc(c(-c5cccc(S(=O)(=O)[O-])c5F)c5ccc2[nH]5)C=C4)C=C3)cc1
REMARK SMILES IDX 20 1 19 2 18 3 16 4 17 5 2 7 1 8 3 9 4 10 5 12 6 13 7 14
REMARK SMILES IDX 15 15 8 16 14 17 9 20 13 21 10 22 12 23 11 24 21 25 22 26
REMARK SMILES IDX 23 27 24 29 25 30 26 31 87 32 27 33 86 34 28 35 29 36 30 37
REMARK SMILES IDX 80 38 31 39 85 40 79 41 81 42 32 43 84 44 78 45 77 46 33 48
REMARK SMILES IDX 65 49 45 50 64 51 46 52 49 53 63 54 82 55 47 56 48 57 62 59
REMARK SMILES IDX 83 60 50 61 34 62 35 63 43 64 36 65 38 66 44 67 37 68 39 69
REMARK SMILES IDX 40 70 41 71 42 72 66 73 67 74 75 75 68 76 70 77 76 78 69 79
REMARK SMILES IDX 71 80 72 81 73 82 74 83 51 84 52 85 60 86 53 87 55 88 61 89
REMARK SMILES IDX 54 90 56 91 57 92 58 93 59 94
REMARK H PARENT 18 6 3 11 15 18 15 19 22 28 81 47 49 58
REMARK Flexibility Score: inf
ROOT
ATOM      1  C   UNL     1      -1.776   2.566   1.389  1.00  0.00     0.042 C 
ENDROOT
BRANCH   1   2
ATOM      2  C   UNL     1      -0.798   1.464   0.934  1.00  0.00     0.117 C 
BRANCH   2   3
ATOM      3  N   UNL     1      -1.346   0.495   0.003  1.00  0.00    -0.354 N 
ATOM      4  C   UNL     1      -1.002  -0.812  -0.197  1.00  0.00     0.242 C 
ATOM      5  O   UNL     1      -1.737  -1.493  -0.918  1.00  0.00    -0.273 OA
ATOM      6  H   UNL     1      -2.073   0.829  -0.571  1.00  0.00     0.163 HD
BRANCH   4   7
ATOM      7  C   UNL     1       0.289  -1.427   0.393  1.00  0.00     0.168 C 
ATOM      8  C   UNL     1       1.490  -0.651  -0.167  1.00  0.00     0.041 C 
BRANCH   7   9
ATOM      9  N   UNL     1       0.448  -1.602   1.849  1.00  0.00    -0.339 N 
ATOM     10  C   UNL     1      -0.136  -2.607   2.579  1.00  0.00     0.278 C 
ATOM     11  H   UNL     1       1.010  -0.953   2.330  1.00  0.00     0.164 HD
ATOM     12  O   UNL     1       0.587  -3.546   2.934  1.00  0.00    -0.268 OA
BRANCH  10  13
ATOM     13  C   UNL     1      -1.610  -2.507   3.070  1.00  0.00     0.272 C 
ATOM     14  C   UNL     1      -2.276  -1.155   2.898  1.00  0.00     0.076 C 
ATOM     15  N   UNL     1      -1.713  -2.936   4.505  1.00  0.00    -0.333 N 
ATOM     16  C   UNL     1      -1.634  -0.150   3.838  1.00  0.00     0.016 C 
ATOM     17  C   UNL     1      -1.395  -1.918   5.543  1.00  0.00     0.186 C 
ATOM     18  H   UNL     1      -1.074  -3.720   4.637  1.00  0.00     0.347 HD
ATOM     19  H   UNL     1      -2.700  -3.154   4.644  1.00  0.00     0.347 HD
ATOM     20  C   UNL     1      -2.015  -0.546   5.252  1.00  0.00     0.048 C 
ATOM     21  C   UNL     1       0.117  -1.852   5.842  1.00  0.00     0.065 C 
ATOM     22  C   UNL     1      -1.589   0.521   6.258  1.00  0.00     0.010 C 
ATOM     23  C   UNL     1       0.641  -0.603   6.562  1.00  0.00     0.006 C 
ATOM     24  C   UNL     1      -0.083   0.705   6.275  1.00  0.00     0.001 C 
ENDBRANCH  10  13
ENDBRANCH   7   9
ENDBRANCH   4   7
ENDBRANCH   2   3
ENDBRANCH   1   2
BRANCH   1  25
ATOM     25  C   UNL     1      -3.280   2.246   1.447  1.00  0.00     0.118 C 
BRANCH  25  26
ATOM     26  N   UNL     1      -3.825   1.882   2.756  1.00  0.00    -0.352 N 
ATOM     27  C   UNL     1      -4.266   2.631   3.818  1.00  0.00     0.251 C 
ATOM     28  H   UNL     1      -3.888   0.910   2.903  1.00  0.00     0.163 HD
ATOM     29  O   UNL     1      -4.486   2.092   4.907  1.00  0.00    -0.269 OA
BRANCH  27  30
ATOM     30  C   UNL     1      -4.499   4.072   3.663  1.00  0.00     0.039 A 
ATOM     31  C   UNL     1      -4.112   4.969   4.664  1.00  0.00     0.014 A 
ATOM     32  C   UNL     1      -5.145   4.530   2.519  1.00  0.00     0.014 A 
ATOM     33  C   UNL     1      -4.285   6.340   4.459  1.00  0.00     0.010 A 
ATOM     34  C   UNL     1      -5.207   5.887   2.266  1.00  0.00     0.010 A 
ATOM     35  C   UNL     1      -4.783   6.808   3.233  1.00  0.00    -0.014 A 
BRANCH  35  36
ATOM     36  C   UNL     1      -4.865   8.247   2.890  1.00  0.00     0.031 A 
ATOM     37  C   UNL     1      -6.190   8.838   2.491  1.00  0.00     0.074 A 
ATOM     38  C   UNL     1      -3.727   8.955   2.760  1.00  0.00     0.049 A 
ATOM     39  N   UNL     1      -6.446   9.996   1.946  1.00  0.00    -0.248 NA
ATOM     40  C   UNL     1      -7.381   7.989   2.683  1.00  0.00     0.031 C 
ATOM     41  C   UNL     1      -2.378   8.452   3.035  1.00  0.00     0.029 A 
ATOM     42  N   UNL     1      -3.517  10.234   2.311  1.00  0.00    -0.354 N 
ATOM     43  C   UNL     1      -7.810   9.994   1.678  1.00  0.00     0.074 A 
ATOM     44  C   UNL     1      -8.322   8.705   2.087  1.00  0.00     0.031 C 
ATOM     45  C   UNL     1      -1.483   9.408   2.743  1.00  0.00     0.029 A 
ATOM     46  C   UNL     1      -2.187  10.571   2.216  1.00  0.00     0.049 A 
ATOM     47  H   UNL     1      -4.248  10.851   2.078  1.00  0.00     0.167 HD
ATOM     48  C   UNL     1      -8.572  10.986   1.160  1.00  0.00     0.034 A 
ATOM     49  C   UNL     1      -1.599  11.682   1.732  1.00  0.00     0.034 A 
ATOM     50  C   UNL     1      -8.054  12.279   0.803  1.00  0.00     0.049 A 
ATOM     51  C   UNL     1      -2.473  12.788   1.208  1.00  0.00     0.074 A 
ATOM     52  C   UNL     1      -8.748  13.395   0.372  1.00  0.00     0.029 A 
ATOM     53  N   UNL     1      -6.712  12.626   0.828  1.00  0.00    -0.354 N 
ATOM     54  N   UNL     1      -3.779  12.830   1.108  1.00  0.00    -0.248 NA
ATOM     55  C   UNL     1      -1.795  14.012   0.760  1.00  0.00     0.031 C 
ATOM     56  C   UNL     1      -7.820  14.407   0.106  1.00  0.00     0.029 A 
ATOM     57  C   UNL     1      -6.552  13.933   0.406  1.00  0.00     0.049 A 
ATOM     58  H   UNL     1      -5.979  12.029   1.106  1.00  0.00     0.167 HD
ATOM     59  C   UNL     1      -4.083  14.093   0.615  1.00  0.00     0.074 A 
ATOM     60  C   UNL     1      -2.824  14.793   0.462  1.00  0.00     0.031 C 
ATOM     61  C   UNL     1      -5.292  14.623   0.301  1.00  0.00     0.034 A 
BRANCH  48  62
ATOM     62  C   UNL     1     -10.048  10.729   0.995  1.00  0.00     0.023 A 
ATOM     63  C   UNL     1     -10.868  10.600   2.135  1.00  0.00     0.012 A 
ATOM     64  C   UNL     1     -10.633  10.663  -0.285  1.00  0.00     0.148 A 
ATOM     65  C   UNL     1     -12.237  10.369   2.006  1.00  0.00     0.002 A 
ATOM     66  C   UNL     1     -12.006  10.483  -0.406  1.00  0.00     0.091 A 
ATOM     67  F   UNL     1      -9.837  10.766  -1.359  1.00  0.00    -0.205 F 
ATOM     68  C   UNL     1     -12.807  10.322   0.737  1.00  0.00     0.022 A 
BRANCH  66  69
ATOM     69  S   UNL     1     -12.852  10.490  -1.990  1.00  0.00     0.127 S 
ATOM     70  O   UNL     1     -13.283   9.097  -2.101  1.00  0.00    -0.237 OA
ATOM     71  O   UNL     1     -13.935  11.446  -1.755  1.00  0.00    -0.237 OA
ATOM     72  O   UNL     1     -11.865  10.917  -2.972  1.00  0.00    -0.744 OA
ENDBRANCH  66  69
ENDBRANCH  48  62
BRANCH  49  73
ATOM     73  C   UNL     1      -0.116  11.821   1.775  1.00  0.00     0.023 A 
ATOM     74  C   UNL     1       0.463  12.744   2.667  1.00  0.00     0.012 A 
ATOM     75  C   UNL     1       0.723  11.023   0.973  1.00  0.00     0.148 A 
ATOM     76  C   UNL     1       1.848  12.896   2.736  1.00  0.00     0.002 A 
ATOM     77  C   UNL     1       2.103  11.138   1.087  1.00  0.00     0.091 A 
ATOM     78  F   UNL     1       0.153  10.153   0.127  1.00  0.00    -0.205 F 
ATOM     79  C   UNL     1       2.668  12.087   1.954  1.00  0.00     0.022 A 
BRANCH  77  80
ATOM     80  S   UNL     1       3.237  10.044   0.224  1.00  0.00     0.127 S 
ATOM     81  O   UNL     1       3.850  10.950  -0.743  1.00  0.00    -0.237 OA
ATOM     82  O   UNL     1       4.119   9.608   1.307  1.00  0.00    -0.237 OA
ATOM     83  O   UNL     1       2.411   8.983  -0.338  1.00  0.00    -0.744 OA
ENDBRANCH  77  80
ENDBRANCH  49  73
BRANCH  61  84
ATOM     84  C   UNL     1      -5.315  16.038  -0.211  1.00  0.00     0.023 A 
ATOM     85  C   UNL     1      -4.840  16.324  -1.506  1.00  0.00     0.012 A 
ATOM     86  C   UNL     1      -5.873  17.071   0.567  1.00  0.00     0.148 A 
ATOM     87  C   UNL     1      -4.887  17.624  -2.006  1.00  0.00     0.002 A 
ATOM     88  C   UNL     1      -5.967  18.353   0.042  1.00  0.00     0.091 A 
ATOM     89  F   UNL     1      -6.304  16.779   1.803  1.00  0.00    -0.205 F 
ATOM     90  C   UNL     1      -5.461  18.635  -1.238  1.00  0.00     0.022 A 
BRANCH  88  91
ATOM     91  S   UNL     1      -6.779  19.696   0.916  1.00  0.00     0.127 S 
ATOM     92  O   UNL     1      -5.647  20.556   1.257  1.00  0.00    -0.237 OA
ATOM     93  O   UNL     1      -7.669  20.238  -0.111  1.00  0.00    -0.237 OA
ATOM     94  O   UNL     1      -7.461  19.085   2.048  1.00  0.00    -0.744 OA
ENDBRANCH  88  91
ENDBRANCH  61  84
ENDBRANCH  35  36
ENDBRANCH  27  30
ENDBRANCH  25  26
ENDBRANCH   1  25
TORSDOF 15
