REMARK SMILES C/C(=N\[NH+]=C1\NC(=O)[C@H](CC(=O)NCCCNC(=O)c2ccc(-c3c4nc(c(-c5cccc(S(=O)(=O)[O-])c5F)c5ccc([nH]5)c(-c5cccc(S(=O)(=O)[O-])c5F)c5nc(c(-c6cccc(S(=O)(=O)[O-])c6F)c6ccc3[nH]6)C=C5)C=C4)cc2)S1)c1ccc([N+](=O)[O-])cc1
REMARK SMILES IDX 14 1 13 2 11 3 12 4 10 6 9 7 4 8 5 9 6 11 83 12 7 13 8 15
REMARK SMILES IDX 3 16 1 17 2 18 84 19 85 20 92 21 86 22 91 23 87 24 88 25
REMARK SMILES IDX 89 26 90 27 15 28 16 29 17 30 18 31 19 33 20 34 21 35 82 36
REMARK SMILES IDX 22 37 81 38 23 39 24 40 25 41 75 42 26 43 80 44 74 45 76 46
REMARK SMILES IDX 27 47 79 48 73 49 72 50 28 52 60 53 40 54 59 55 41 56 44 57
REMARK SMILES IDX 58 58 77 59 42 60 43 61 57 63 78 64 45 65 29 66 30 67 38 68
REMARK SMILES IDX 31 69 33 70 39 71 32 72 34 73 35 74 36 75 37 76 61 77 62 78
REMARK SMILES IDX 70 79 63 80 65 81 71 82 64 83 66 84 67 85 68 86 69 87 46 88
REMARK SMILES IDX 47 89 55 90 48 91 50 92 56 93 49 94 51 95 52 96 53 97 54 98
REMARK H PARENT 13 5 4 10 6 14 17 32 76 51 44 62
REMARK Flexibility Score: inf
ROOT
ATOM      1  C   UNL     1      -3.935   0.101   4.778  1.00  0.00     0.117 C 
ENDROOT
BRANCH   1   2
ATOM      2  N   UNL     1      -3.700   1.539   4.766  1.00  0.00    -0.356 N 
ATOM      3  C   UNL     1      -3.407   2.382   3.738  1.00  0.00     0.221 C 
ATOM      4  O   UNL     1      -3.223   3.576   3.968  1.00  0.00    -0.275 OA
ATOM      5  H   UNL     1      -3.764   1.973   5.648  1.00  0.00     0.163 HD
BRANCH   3   6
ATOM      6  C   UNL     1      -3.315   1.845   2.332  1.00  0.00     0.127 C 
BRANCH   6   7
ATOM      7  C   UNL     1      -1.884   1.511   1.953  1.00  0.00     0.183 C 
ATOM      8  N   UNL     1      -0.589  -1.885   0.704  1.00  0.00    -0.142 N 
ATOM      9  C   UNL     1      -1.155  -0.847   1.217  1.00  0.00     0.337 C 
ATOM     10  H   UNL     1      -0.311  -2.654   1.252  1.00  0.00     0.343 HD
ATOM     11  N   UNL     1      -1.066  -0.650   2.548  1.00  0.00    -0.202 N 
ATOM     12  S   UNL     1      -1.877   0.521   0.418  1.00  0.00    -0.020 SA
ATOM     13  C   UNL     1      -1.174   0.639   2.961  1.00  0.00     0.322 C 
ATOM     14  H   UNL     1      -0.931  -1.393   3.180  1.00  0.00     0.316 HD
ATOM     15  O   UNL     1      -0.681   1.053   4.007  1.00  0.00    -0.246 OA
BRANCH   8  16
ATOM     16  N   UNL     1      -0.396  -1.849  -0.673  1.00  0.00    -0.090 NA
ATOM     17  C   UNL     1       1.607  -0.461  -0.089  1.00  0.00     0.071 C 
ATOM     18  C   UNL     1       0.691  -1.224  -1.045  1.00  0.00     0.088 C 
BRANCH  18  19
ATOM     19  C   UNL     1       1.014  -1.161  -2.504  1.00  0.00    -0.000 A 
ATOM     20  C   UNL     1       0.004  -1.429  -3.441  1.00  0.00     0.017 A 
ATOM     21  C   UNL     1       2.303  -0.845  -2.955  1.00  0.00     0.017 A 
ATOM     22  C   UNL     1       0.277  -1.383  -4.811  1.00  0.00     0.086 A 
ATOM     23  C   UNL     1       2.586  -0.801  -4.322  1.00  0.00     0.086 A 
ATOM     24  C   UNL     1       1.571  -1.072  -5.246  1.00  0.00     0.269 A 
BRANCH  24  25
ATOM     25  N   UNL     1       1.871  -1.030  -6.681  1.00  0.00     0.062 N 
ATOM     26  O   UNL     1       0.953  -1.292  -7.471  1.00  0.00    -0.258 OA
ATOM     27  O   UNL     1       3.024  -0.728  -7.021  1.00  0.00    -0.258 OA
ENDBRANCH  24  25
ENDBRANCH  18  19
ENDBRANCH   8  16
ENDBRANCH   6   7
ENDBRANCH   3   6
ENDBRANCH   1   2
BRANCH   1  28
ATOM     28  C   UNL     1      -2.941  -0.659   5.652  1.00  0.00     0.042 C 
BRANCH  28  29
ATOM     29  C   UNL     1      -3.002  -0.292   7.126  1.00  0.00     0.118 C 
BRANCH  29  30
ATOM     30  N   UNL     1      -4.164  -0.878   7.773  1.00  0.00    -0.352 N 
ATOM     31  C   UNL     1      -4.213  -1.841   8.753  1.00  0.00     0.251 C 
ATOM     32  H   UNL     1      -5.036  -0.539   7.468  1.00  0.00     0.163 HD
ATOM     33  O   UNL     1      -5.278  -2.404   8.991  1.00  0.00    -0.269 OA
BRANCH  31  34
ATOM     34  C   UNL     1      -2.991  -2.204   9.508  1.00  0.00     0.039 A 
ATOM     35  C   UNL     1      -2.765  -3.546   9.825  1.00  0.00     0.014 A 
ATOM     36  C   UNL     1      -2.085  -1.227   9.930  1.00  0.00     0.014 A 
ATOM     37  C   UNL     1      -1.613  -3.908  10.529  1.00  0.00     0.010 A 
ATOM     38  C   UNL     1      -0.893  -1.600  10.546  1.00  0.00     0.010 A 
ATOM     39  C   UNL     1      -0.654  -2.942  10.876  1.00  0.00    -0.014 A 
BRANCH  39  40
ATOM     40  C   UNL     1       0.591  -3.314  11.596  1.00  0.00     0.031 A 
ATOM     41  C   UNL     1       0.876  -2.756  12.966  1.00  0.00     0.074 A 
ATOM     42  C   UNL     1       1.502  -4.101  10.991  1.00  0.00     0.049 A 
ATOM     43  N   UNL     1       1.909  -2.960  13.742  1.00  0.00    -0.248 NA
ATOM     44  C   UNL     1      -0.117  -1.825  13.526  1.00  0.00     0.031 C 
ATOM     45  C   UNL     1       1.382  -4.647   9.638  1.00  0.00     0.029 A 
ATOM     46  N   UNL     1       2.715  -4.568  11.431  1.00  0.00    -0.354 N 
ATOM     47  C   UNL     1       1.710  -2.157  14.860  1.00  0.00     0.074 A 
ATOM     48  C   UNL     1       0.479  -1.430  14.640  1.00  0.00     0.031 C 
ATOM     49  C   UNL     1       2.464  -5.394   9.368  1.00  0.00     0.029 A 
ATOM     50  C   UNL     1       3.369  -5.355  10.512  1.00  0.00     0.049 A 
ATOM     51  H   UNL     1       3.083  -4.359  12.320  1.00  0.00     0.167 HD
ATOM     52  C   UNL     1       2.463  -2.055  15.982  1.00  0.00     0.034 A 
ATOM     53  C   UNL     1       4.561  -5.978  10.584  1.00  0.00     0.034 A 
ATOM     54  C   UNL     1       3.669  -2.804  16.210  1.00  0.00     0.049 A 
ATOM     55  C   UNL     1       5.371  -5.869  11.847  1.00  0.00     0.074 A 
ATOM     56  C   UNL     1       4.456  -2.844  17.348  1.00  0.00     0.029 A 
ATOM     57  N   UNL     1       4.275  -3.632  15.277  1.00  0.00    -0.354 N 
ATOM     58  N   UNL     1       5.087  -5.234  12.958  1.00  0.00    -0.248 NA
ATOM     59  C   UNL     1       6.650  -6.592  11.877  1.00  0.00     0.031 C 
ATOM     60  C   UNL     1       5.557  -3.668  17.088  1.00  0.00     0.029 A 
ATOM     61  C   UNL     1       5.436  -4.172  15.802  1.00  0.00     0.049 A 
ATOM     62  H   UNL     1       3.929  -3.809  14.372  1.00  0.00     0.167 HD
ATOM     63  C   UNL     1       6.132  -5.509  13.833  1.00  0.00     0.074 A 
ATOM     64  C   UNL     1       7.046  -6.384  13.126  1.00  0.00     0.031 C 
ATOM     65  C   UNL     1       6.321  -5.071  15.103  1.00  0.00     0.034 A 
BRANCH  52  66
ATOM     66  C   UNL     1       1.975  -1.119  17.060  1.00  0.00     0.023 A 
ATOM     67  C   UNL     1       0.794  -1.423  17.771  1.00  0.00     0.012 A 
ATOM     68  C   UNL     1       2.687   0.053  17.382  1.00  0.00     0.148 A 
ATOM     69  C   UNL     1       0.299  -0.550  18.739  1.00  0.00     0.002 A 
ATOM     70  C   UNL     1       2.215   0.892  18.386  1.00  0.00     0.091 A 
ATOM     71  F   UNL     1       3.796   0.341  16.687  1.00  0.00    -0.205 F 
ATOM     72  C   UNL     1       1.014   0.603  19.052  1.00  0.00     0.022 A 
BRANCH  70  73
ATOM     73  S   UNL     1       3.111   2.356  18.919  1.00  0.00     0.127 S 
ATOM     74  O   UNL     1       2.313   3.425  18.321  1.00  0.00    -0.237 OA
ATOM     75  O   UNL     1       3.013   2.265  20.376  1.00  0.00    -0.237 OA
ATOM     76  O   UNL     1       4.461   2.208  18.395  1.00  0.00    -0.744 OA
ENDBRANCH  70  73
ENDBRANCH  52  66
BRANCH  53  77
ATOM     77  C   UNL     1       5.013  -6.836   9.453  1.00  0.00     0.023 A 
ATOM     78  C   UNL     1       5.021  -8.236   9.614  1.00  0.00     0.012 A 
ATOM     79  C   UNL     1       5.380  -6.285   8.210  1.00  0.00     0.148 A 
ATOM     80  C   UNL     1       5.408  -9.070   8.566  1.00  0.00     0.002 A 
ATOM     81  C   UNL     1       5.713  -7.124   7.153  1.00  0.00     0.091 A 
ATOM     82  F   UNL     1       5.368  -4.951   8.080  1.00  0.00    -0.205 F 
ATOM     83  C   UNL     1       5.743  -8.516   7.334  1.00  0.00     0.022 A 
BRANCH  81  84
ATOM     84  S   UNL     1       6.035  -6.514   5.495  1.00  0.00     0.127 S 
ATOM     85  O   UNL     1       7.437  -6.879   5.307  1.00  0.00    -0.237 OA
ATOM     86  O   UNL     1       5.083  -7.291   4.701  1.00  0.00    -0.237 OA
ATOM     87  O   UNL     1       5.761  -5.084   5.537  1.00  0.00    -0.744 OA
ENDBRANCH  81  84
ENDBRANCH  53  77
BRANCH  65  88
ATOM     88  C   UNL     1       7.550  -5.553  15.832  1.00  0.00     0.023 A 
ATOM     89  C   UNL     1       8.823  -5.079  15.458  1.00  0.00     0.012 A 
ATOM     90  C   UNL     1       7.435  -6.427  16.932  1.00  0.00     0.148 A 
ATOM     91  C   UNL     1       9.964  -5.495  16.142  1.00  0.00     0.002 A 
ATOM     92  C   UNL     1       8.571  -6.796  17.642  1.00  0.00     0.091 A 
ATOM     93  F   UNL     1       6.217  -6.883  17.262  1.00  0.00    -0.205 F 
ATOM     94  C   UNL     1       9.838  -6.343  17.240  1.00  0.00     0.022 A 
BRANCH  92  95
ATOM     95  S   UNL     1       8.493  -7.803  19.128  1.00  0.00     0.127 S 
ATOM     96  O   UNL     1       9.055  -9.069  18.659  1.00  0.00    -0.237 OA
ATOM     97  O   UNL     1       9.352  -7.059  20.051  1.00  0.00    -0.237 OA
ATOM     98  O   UNL     1       7.089  -7.846  19.511  1.00  0.00    -0.744 OA
ENDBRANCH  92  95
ENDBRANCH  65  88
ENDBRANCH  39  40
ENDBRANCH  31  34
ENDBRANCH  29  30
ENDBRANCH  28  29
ENDBRANCH   1  28
TORSDOF 17
