REMARK SMILES Cc1cc(OC(F)(F)F)cc2c1O[C@H](C(F)(F)F)C(C(=O)NCCCNC(=O)c1ccc(-c3c4nc(c(-c5cccc(S(=O)(=O)[O-])c5F)c5ccc([nH]5)c(-c5cccc(S(=O)(=O)[O-])c5F)c5nc(c(-c6cccc(S(=O)(=O)[O-])c6F)c6ccc3[nH]6)C=C5)C=C4)cc1)=C2
REMARK SMILES IDX 24 1 23 2 22 3 20 4 21 5 19 7 1 8 2 9 3 10 12 11 4 12 11 13
REMARK SMILES IDX 13 14 10 15 92 16 14 17 5 18 6 19 7 20 8 21 9 22 15 23 16 24
REMARK SMILES IDX 17 25 18 26 25 27 26 28 27 29 28 31 29 32 30 33 91 34 31 35
REMARK SMILES IDX 90 36 32 37 33 38 34 39 84 40 35 41 89 42 83 43 85 44 36 45
REMARK SMILES IDX 88 46 82 47 81 48 37 50 69 51 49 52 68 53 50 54 53 55 67 56
REMARK SMILES IDX 86 57 51 58 52 59 66 61 87 62 54 63 38 64 39 65 47 66 40 67
REMARK SMILES IDX 42 68 48 69 41 70 43 71 44 72 45 73 46 74 70 75 71 76 79 77
REMARK SMILES IDX 72 78 74 79 80 80 73 81 75 82 76 83 77 84 78 85 55 86 56 87
REMARK SMILES IDX 64 88 57 89 59 90 65 91 58 92 60 93 61 94 62 95 63 96
REMARK H PARENT 22 6 26 30 85 49 53 60
REMARK Flexibility Score: inf
ROOT
ATOM      1  C   UNL     1      -5.507  -0.703   3.821  1.00  0.00     0.042 C 
ENDROOT
BRANCH   1   2
ATOM      2  C   UNL     1      -5.589  -0.022   2.462  1.00  0.00     0.118 C 
BRANCH   2   3
ATOM      3  N   UNL     1      -5.442   1.423   2.565  1.00  0.00    -0.352 N 
ATOM      4  C   UNL     1      -4.502   2.351   2.272  1.00  0.00     0.251 C 
ATOM      5  O   UNL     1      -4.820   3.518   2.525  1.00  0.00    -0.270 OA
ATOM      6  H   UNL     1      -6.246   1.838   2.954  1.00  0.00     0.163 HD
BRANCH   4   7
ATOM      7  C   UNL     1      -3.167   2.063   1.674  1.00  0.00     0.067 C 
ATOM      8  C   UNL     1       1.195  -0.027  -0.034  1.00  0.00     0.048 C 
ATOM      9  C   UNL     1       0.707   1.375   0.201  1.00  0.00    -0.005 A 
ATOM     10  C   UNL     1       1.501   2.471  -0.171  1.00  0.00     0.054 A 
ATOM     11  C   UNL     1      -0.564   1.611   0.738  1.00  0.00     0.131 A 
ATOM     12  C   UNL     1       1.048   3.778   0.024  1.00  0.00     0.130 A 
ATOM     13  C   UNL     1      -1.028   2.911   0.943  1.00  0.00     0.021 A 
ATOM     14  O   UNL     1      -1.306   0.518   1.087  1.00  0.00    -0.475 OA
ATOM     15  C   UNL     1      -0.216   3.990   0.587  1.00  0.00     0.058 A 
ATOM     16  C   UNL     1      -2.337   3.116   1.553  1.00  0.00     0.025 C 
ATOM     17  C   UNL     1      -2.740   0.712   1.181  1.00  0.00     0.314 C 
BRANCH  12  18
ATOM     18  O   UNL     1       1.729   4.922  -0.285  1.00  0.00    -0.406 OA
BRANCH  18  19
ATOM     19  C   UNL     1       3.034   4.788  -0.819  1.00  0.00     0.573 C 
ATOM     20  F   UNL     1       3.853   4.142   0.037  1.00  0.00    -0.132 F 
ATOM     21  F   UNL     1       3.013   4.138  -2.002  1.00  0.00    -0.132 F 
ATOM     22  F   UNL     1       3.544   6.023  -1.033  1.00  0.00    -0.132 F 
ENDBRANCH  18  19
ENDBRANCH  12  18
BRANCH  17  23
ATOM     23  C   UNL     1      -3.386   0.347  -0.169  1.00  0.00     0.429 C 
ATOM     24  F   UNL     1      -3.265  -0.982  -0.415  1.00  0.00    -0.167 F 
ATOM     25  F   UNL     1      -4.712   0.622  -0.206  1.00  0.00    -0.167 F 
ATOM     26  F   UNL     1      -2.826   1.002  -1.212  1.00  0.00    -0.167 F 
ENDBRANCH  17  23
ENDBRANCH   4   7
ENDBRANCH   2   3
ENDBRANCH   1   2
BRANCH   1  27
ATOM     27  C   UNL     1      -6.809  -0.572   4.603  1.00  0.00     0.118 C 
BRANCH  27  28
ATOM     28  N   UNL     1      -7.894  -1.311   3.961  1.00  0.00    -0.352 N 
ATOM     29  C   UNL     1      -8.394  -2.554   4.258  1.00  0.00     0.251 C 
ATOM     30  H   UNL     1      -8.330  -0.850   3.208  1.00  0.00     0.163 HD
ATOM     31  O   UNL     1      -9.094  -3.148   3.441  1.00  0.00    -0.269 OA
BRANCH  29  32
ATOM     32  C   UNL     1      -8.083  -3.169   5.561  1.00  0.00     0.039 A 
ATOM     33  C   UNL     1      -7.694  -4.509   5.618  1.00  0.00     0.014 A 
ATOM     34  C   UNL     1      -8.190  -2.410   6.730  1.00  0.00     0.014 A 
ATOM     35  C   UNL     1      -7.352  -5.071   6.849  1.00  0.00     0.010 A 
ATOM     36  C   UNL     1      -7.774  -2.946   7.941  1.00  0.00     0.010 A 
ATOM     37  C   UNL     1      -7.366  -4.284   8.014  1.00  0.00    -0.014 A 
BRANCH  37  38
ATOM     38  C   UNL     1      -6.985  -4.852   9.326  1.00  0.00     0.031 A 
ATOM     39  C   UNL     1      -8.018  -4.985  10.410  1.00  0.00     0.074 A 
ATOM     40  C   UNL     1      -5.701  -5.185   9.560  1.00  0.00     0.049 A 
ATOM     41  N   UNL     1      -7.878  -5.455  11.620  1.00  0.00    -0.248 NA
ATOM     42  C   UNL     1      -9.380  -4.508  10.106  1.00  0.00     0.031 C 
ATOM     43  C   UNL     1      -4.598  -5.019   8.611  1.00  0.00     0.029 A 
ATOM     44  N   UNL     1      -5.104  -5.717  10.674  1.00  0.00    -0.354 N 
ATOM     45  C   UNL     1      -9.119  -5.310  12.226  1.00  0.00     0.074 A 
ATOM     46  C   UNL     1      -9.993  -4.673  11.269  1.00  0.00     0.031 C 
ATOM     47  C   UNL     1      -3.462  -5.460   9.177  1.00  0.00     0.029 A 
ATOM     48  C   UNL     1      -3.753  -5.926  10.530  1.00  0.00     0.049 A 
ATOM     49  H   UNL     1      -5.597  -5.930  11.499  1.00  0.00     0.167 HD
ATOM     50  C   UNL     1      -9.508  -5.715  13.456  1.00  0.00     0.034 A 
ATOM     51  C   UNL     1      -2.854  -6.449  11.386  1.00  0.00     0.034 A 
ATOM     52  C   UNL     1      -8.655  -6.409  14.377  1.00  0.00     0.049 A 
ATOM     53  C   UNL     1      -3.320  -6.932  12.732  1.00  0.00     0.074 A 
ATOM     54  C   UNL     1      -8.985  -6.952  15.604  1.00  0.00     0.029 A 
ATOM     55  N   UNL     1      -7.309  -6.657  14.169  1.00  0.00    -0.354 N 
ATOM     56  N   UNL     1      -4.534  -6.928  13.227  1.00  0.00    -0.248 NA
ATOM     57  C   UNL     1      -2.308  -7.517  13.624  1.00  0.00     0.031 C 
ATOM     58  C   UNL     1      -7.832  -7.527  16.144  1.00  0.00     0.029 A 
ATOM     59  C   UNL     1      -6.788  -7.341  15.250  1.00  0.00     0.049 A 
ATOM     60  H   UNL     1      -6.799  -6.386  13.372  1.00  0.00     0.167 HD
ATOM     61  C   UNL     1      -4.438  -7.527  14.477  1.00  0.00     0.074 A 
ATOM     62  C   UNL     1      -3.048  -7.893  14.661  1.00  0.00     0.031 C 
ATOM     63  C   UNL     1      -5.413  -7.742  15.392  1.00  0.00     0.034 A 
BRANCH  50  64
ATOM     64  C   UNL     1     -10.943  -5.504  13.844  1.00  0.00     0.023 A 
ATOM     65  C   UNL     1     -11.923  -6.374  13.326  1.00  0.00     0.012 A 
ATOM     66  C   UNL     1     -11.309  -4.516  14.777  1.00  0.00     0.148 A 
ATOM     67  C   UNL     1     -13.253  -6.256  13.722  1.00  0.00     0.002 A 
ATOM     68  C   UNL     1     -12.632  -4.424  15.189  1.00  0.00     0.091 A 
ATOM     69  F   UNL     1     -10.358  -3.693  15.241  1.00  0.00    -0.205 F 
ATOM     70  C   UNL     1     -13.605  -5.289  14.660  1.00  0.00     0.022 A 
BRANCH  68  71
ATOM     71  S   UNL     1     -13.188  -3.248  16.427  1.00  0.00     0.127 S 
ATOM     72  O   UNL     1     -14.095  -2.406  15.648  1.00  0.00    -0.237 OA
ATOM     73  O   UNL     1     -13.847  -4.118  17.400  1.00  0.00    -0.237 OA
ATOM     74  O   UNL     1     -11.990  -2.578  16.915  1.00  0.00    -0.744 OA
ENDBRANCH  68  71
ENDBRANCH  50  64
BRANCH  51  75
ATOM     75  C   UNL     1      -1.445  -6.630  10.945  1.00  0.00     0.023 A 
ATOM     76  C   UNL     1      -1.006  -7.916  10.577  1.00  0.00     0.012 A 
ATOM     77  C   UNL     1      -0.568  -5.536  10.813  1.00  0.00     0.148 A 
ATOM     78  C   UNL     1       0.288  -8.113  10.094  1.00  0.00     0.002 A 
ATOM     79  C   UNL     1       0.708  -5.734  10.297  1.00  0.00     0.091 A 
ATOM     80  F   UNL     1      -1.013  -4.323  11.167  1.00  0.00    -0.205 F 
ATOM     81  C   UNL     1       1.141  -7.023   9.945  1.00  0.00     0.022 A 
BRANCH  79  82
ATOM     82  S   UNL     1       1.846  -4.382   9.973  1.00  0.00     0.127 S 
ATOM     83  O   UNL     1       2.944  -4.691  10.887  1.00  0.00    -0.237 OA
ATOM     84  O   UNL     1       2.149  -4.581   8.556  1.00  0.00    -0.237 OA
ATOM     85  O   UNL     1       1.109  -3.162  10.271  1.00  0.00    -0.744 OA
ENDBRANCH  79  82
ENDBRANCH  51  75
BRANCH  63  86
ATOM     86  C   UNL     1      -5.045  -8.405  16.689  1.00  0.00     0.023 A 
ATOM     87  C   UNL     1      -4.497  -7.623  17.722  1.00  0.00     0.012 A 
ATOM     88  C   UNL     1      -5.420  -9.739  16.942  1.00  0.00     0.148 A 
ATOM     89  C   UNL     1      -4.332  -8.159  18.997  1.00  0.00     0.002 A 
ATOM     90  C   UNL     1      -5.283 -10.255  18.224  1.00  0.00     0.091 A 
ATOM     91  F   UNL     1      -5.942 -10.455  15.936  1.00  0.00    -0.205 F 
ATOM     92  C   UNL     1      -4.738  -9.467  19.252  1.00  0.00     0.022 A 
BRANCH  90  93
ATOM     93  S   UNL     1      -5.855 -11.897  18.674  1.00  0.00     0.127 S 
ATOM     94  O   UNL     1      -4.610 -12.542  19.091  1.00  0.00    -0.237 OA
ATOM     95  O   UNL     1      -6.787 -11.609  19.763  1.00  0.00    -0.237 OA
ATOM     96  O   UNL     1      -6.465 -12.458  17.477  1.00  0.00    -0.744 OA
ENDBRANCH  90  93
ENDBRANCH  63  86
ENDBRANCH  37  38
ENDBRANCH  29  32
ENDBRANCH  27  28
ENDBRANCH   1  27
TORSDOF 16
