REMARK SMILES Cc1ccc(S(=O)(=O)n2cc(C(=O)C(=O)N[C@@H](Cc3c[nH]c4ccccc34)C(=O)NCCCNC(=O)c3ccc(-c4c5nc(c(-c6cccc(S(=O)(=O)[O-])c6F)c6ccc([nH]6)c(-c6cccc(S(=O)(=O)[O-])c6F)c6nc(c(-c7cccc(S(=O)(=O)[O-])c7F)c7ccc4[nH]7)C=C6)C=C5)cc3)c3ccccc32)cc1
REMARK SMILES IDX 31 1 30 2 28 3 29 4 17 6 16 7 14 8 15 9 12 11 13 12 11 13
REMARK SMILES IDX 9 14 10 15 105 16 100 17 104 18 101 19 103 20 102 21 6 22
REMARK SMILES IDX 7 23 8 24 5 25 1 26 2 27 3 28 107 29 4 30 106 31 18 32 19 33
REMARK SMILES IDX 20 34 27 35 21 36 22 37 26 38 23 40 25 41 24 42 32 43 33 44
REMARK SMILES IDX 34 45 35 46 36 48 37 49 38 50 99 51 39 52 98 53 40 54 41 55
REMARK SMILES IDX 42 56 92 57 43 58 97 59 91 60 93 61 44 62 96 63 90 64 89 65
REMARK SMILES IDX 45 67 77 68 57 69 76 70 58 71 61 72 75 73 94 74 59 75 60 76
REMARK SMILES IDX 74 78 95 79 62 80 46 81 47 82 55 83 48 84 50 85 56 86 49 87
REMARK SMILES IDX 51 88 52 89 53 90 54 91 78 92 79 93 87 94 80 95 82 96 88 97
REMARK SMILES IDX 81 98 83 99 84 100 85 101 86 102 63 103 64 104 72 105 65 106
REMARK SMILES IDX 67 107 73 108 66 109 68 110 69 111 70 112 71 113
REMARK H PARENT 30 5 16 10 21 39 34 47 93 66 61 77
REMARK Flexibility Score: inf
ROOT
ATOM      1  C   UNL     1     -12.398   4.074  -1.412  1.00  0.00     0.117 C 
ENDROOT
BRANCH   1   2
ATOM      2  N   UNL     1     -12.077   2.713  -1.815  1.00  0.00    -0.354 N 
ATOM      3  C   UNL     1     -11.633   1.640  -1.102  1.00  0.00     0.242 C 
ATOM      4  O   UNL     1     -12.030   0.528  -1.477  1.00  0.00    -0.273 OA
ATOM      5  H   UNL     1     -12.204   2.536  -2.775  1.00  0.00     0.163 HD
BRANCH   3   6
ATOM      6  C   UNL     1     -10.774   1.739   0.184  1.00  0.00     0.176 C 
BRANCH   6   7
ATOM      7  N   UNL     1      -9.654   2.698   0.138  1.00  0.00    -0.337 N 
ATOM      8  C   UNL     1      -8.325   2.538  -0.239  1.00  0.00     0.293 C 
ATOM      9  O   UNL     1      -7.530   3.465  -0.106  1.00  0.00    -0.265 OA
ATOM     10  H   UNL     1      -9.889   3.611   0.422  1.00  0.00     0.164 HD
BRANCH   8  11
ATOM     11  C   UNL     1      -7.830   1.217  -0.838  1.00  0.00     0.252 C 
ATOM     12  O   UNL     1      -8.555   0.721  -1.699  1.00  0.00    -0.283 OA
BRANCH  11  13
ATOM     13  C   UNL     1      -6.638   0.496  -0.333  1.00  0.00     0.054 A 
ATOM     14  N   UNL     1      -4.657  -0.181   0.549  1.00  0.00    -0.240 N 
ATOM     15  C   UNL     1      -5.347   0.920   0.032  1.00  0.00     0.117 A 
ATOM     16  C   UNL     1      -5.583  -1.236   0.659  1.00  0.00     0.065 A 
ATOM     17  C   UNL     1      -6.602  -0.929  -0.234  1.00  0.00     0.012 A 
ATOM     18  C   UNL     1      -5.440  -2.533   1.194  1.00  0.00     0.028 A 
ATOM     19  C   UNL     1      -7.363  -1.987  -0.774  1.00  0.00     0.011 A 
ATOM     20  C   UNL     1      -6.141  -3.570   0.583  1.00  0.00     0.002 A 
ATOM     21  C   UNL     1      -7.058  -3.306  -0.423  1.00  0.00     0.001 A 
BRANCH  14  22
ATOM     22  S   UNL     1      -3.088  -0.806   0.112  1.00  0.00     0.268 S 
ATOM     23  O   UNL     1      -3.332  -1.378  -1.204  1.00  0.00    -0.201 OA
ATOM     24  O   UNL     1      -2.801  -1.663   1.259  1.00  0.00    -0.201 OA
BRANCH  22  25
ATOM     25  C   UNL     1      -1.529  -0.018  -0.056  1.00  0.00     0.088 A 
ATOM     26  C   UNL     1       2.722   0.798  -0.056  1.00  0.00     0.044 C 
ATOM     27  C   UNL     1       1.239   0.566  -0.114  1.00  0.00    -0.051 A 
ATOM     28  C   UNL     1       0.815  -0.735  -0.333  1.00  0.00     0.005 A 
ATOM     29  C   UNL     1       0.268   1.573   0.095  1.00  0.00     0.005 A 
ATOM     30  C   UNL     1      -0.540  -1.008  -0.318  1.00  0.00     0.022 A 
ATOM     31  C   UNL     1      -1.127   1.291   0.133  1.00  0.00     0.022 A 
ENDBRANCH  22  25
ENDBRANCH  14  22
ENDBRANCH  11  13
ENDBRANCH   8  11
ENDBRANCH   6   7
BRANCH   6  32
ATOM     32  C   UNL     1     -11.628   1.799   1.493  1.00  0.00     0.072 C 
BRANCH  32  33
ATOM     33  C   UNL     1     -12.405   3.056   1.812  1.00  0.00    -0.020 A 
ATOM     34  C   UNL     1     -13.789   3.165   1.832  1.00  0.00     0.087 A 
ATOM     35  C   UNL     1     -11.901   4.369   2.118  1.00  0.00     0.003 A 
ATOM     36  N   UNL     1     -14.124   4.488   1.977  1.00  0.00    -0.361 N 
ATOM     37  C   UNL     1     -12.985   5.251   2.067  1.00  0.00     0.046 A 
ATOM     38  C   UNL     1     -10.614   4.916   2.307  1.00  0.00     0.010 A 
ATOM     39  H   UNL     1     -15.044   4.838   2.010  1.00  0.00     0.166 HD
ATOM     40  C   UNL     1     -12.834   6.644   2.063  1.00  0.00     0.026 A 
ATOM     41  C   UNL     1     -10.440   6.304   2.247  1.00  0.00     0.001 A 
ATOM     42  C   UNL     1     -11.533   7.152   2.098  1.00  0.00     0.002 A 
ENDBRANCH  32  33
ENDBRANCH   6  32
ENDBRANCH   3   6
ENDBRANCH   1   2
BRANCH   1  43
ATOM     43  C   UNL     1     -11.221   5.040  -1.351  1.00  0.00     0.042 C 
BRANCH  43  44
ATOM     44  C   UNL     1     -11.480   6.418  -1.948  1.00  0.00     0.118 C 
BRANCH  44  45
ATOM     45  N   UNL     1     -12.637   7.118  -1.357  1.00  0.00    -0.352 N 
ATOM     46  C   UNL     1     -13.589   7.993  -1.869  1.00  0.00     0.251 C 
ATOM     47  H   UNL     1     -12.762   6.924  -0.400  1.00  0.00     0.163 HD
ATOM     48  O   UNL     1     -14.193   8.722  -1.081  1.00  0.00    -0.269 OA
BRANCH  46  49
ATOM     49  C   UNL     1     -13.889   8.011  -3.317  1.00  0.00     0.039 A 
ATOM     50  C   UNL     1     -14.814   8.821  -3.976  1.00  0.00     0.014 A 
ATOM     51  C   UNL     1     -13.325   6.988  -4.042  1.00  0.00     0.014 A 
ATOM     52  C   UNL     1     -15.210   8.438  -5.270  1.00  0.00     0.010 A 
ATOM     53  C   UNL     1     -13.304   6.968  -5.387  1.00  0.00     0.010 A 
ATOM     54  C   UNL     1     -14.489   7.429  -5.909  1.00  0.00    -0.014 A 
BRANCH  54  55
ATOM     55  C   UNL     1     -14.903   6.529  -6.972  1.00  0.00     0.031 A 
ATOM     56  C   UNL     1     -14.572   6.861  -8.351  1.00  0.00     0.074 A 
ATOM     57  C   UNL     1     -15.064   5.224  -6.614  1.00  0.00     0.049 A 
ATOM     58  N   UNL     1     -15.047   6.235  -9.365  1.00  0.00    -0.248 NA
ATOM     59  C   UNL     1     -13.614   7.905  -8.678  1.00  0.00     0.031 C 
ATOM     60  C   UNL     1     -14.847   4.032  -7.425  1.00  0.00     0.029 A 
ATOM     61  N   UNL     1     -15.479   4.694  -5.386  1.00  0.00    -0.354 N 
ATOM     62  C   UNL     1     -14.236   6.553 -10.428  1.00  0.00     0.074 A 
ATOM     63  C   UNL     1     -13.452   7.685  -9.984  1.00  0.00     0.031 C 
ATOM     64  C   UNL     1     -15.410   2.979  -6.809  1.00  0.00     0.029 A 
ATOM     65  C   UNL     1     -16.151   3.497  -5.675  1.00  0.00     0.049 A 
ATOM     66  H   UNL     1     -15.329   5.085  -4.494  1.00  0.00     0.167 HD
ATOM     67  C   UNL     1     -14.176   5.700 -11.489  1.00  0.00     0.034 A 
ATOM     68  C   UNL     1     -17.495   3.351  -5.463  1.00  0.00     0.034 A 
ATOM     69  C   UNL     1     -14.979   4.479 -11.241  1.00  0.00     0.049 A 
ATOM     70  C   UNL     1     -18.269   3.193  -6.771  1.00  0.00     0.074 A 
ATOM     71  C   UNL     1     -14.667   3.161 -10.936  1.00  0.00     0.029 A 
ATOM     72  N   UNL     1     -16.339   4.600 -10.989  1.00  0.00    -0.354 N 
ATOM     73  N   UNL     1     -17.736   2.979  -7.944  1.00  0.00    -0.248 NA
ATOM     74  C   UNL     1     -19.714   3.385  -6.856  1.00  0.00     0.031 C 
ATOM     75  C   UNL     1     -15.857   2.503 -10.494  1.00  0.00     0.029 A 
ATOM     76  C   UNL     1     -16.901   3.407 -10.553  1.00  0.00     0.049 A 
ATOM     77  H   UNL     1     -16.847   5.436 -11.106  1.00  0.00     0.167 HD
ATOM     78  C   UNL     1     -18.663   3.245  -8.927  1.00  0.00     0.074 A 
ATOM     79  C   UNL     1     -19.900   3.442  -8.185  1.00  0.00     0.031 C 
ATOM     80  C   UNL     1     -18.334   3.380 -10.255  1.00  0.00     0.034 A 
BRANCH  67  81
ATOM     81  C   UNL     1     -13.152   5.815 -12.607  1.00  0.00     0.023 A 
ATOM     82  C   UNL     1     -12.897   4.666 -13.385  1.00  0.00     0.012 A 
ATOM     83  C   UNL     1     -12.397   6.963 -12.946  1.00  0.00     0.148 A 
ATOM     84  C   UNL     1     -11.877   4.617 -14.342  1.00  0.00     0.002 A 
ATOM     85  C   UNL     1     -11.316   6.891 -13.829  1.00  0.00     0.091 A 
ATOM     86  F   UNL     1     -12.785   8.168 -12.515  1.00  0.00    -0.205 F 
ATOM     87  C   UNL     1     -11.051   5.714 -14.529  1.00  0.00     0.022 A 
BRANCH  85  88
ATOM     88  S   UNL     1     -10.152   8.253 -14.030  1.00  0.00     0.127 S 
ATOM     89  O   UNL     1      -8.857   7.570 -13.951  1.00  0.00    -0.237 OA
ATOM     90  O   UNL     1     -10.486   8.764 -15.356  1.00  0.00    -0.237 OA
ATOM     91  O   UNL     1     -10.405   9.160 -12.916  1.00  0.00    -0.744 OA
ENDBRANCH  85  88
ENDBRANCH  67  81
BRANCH  68  92
ATOM     92  C   UNL     1     -17.955   4.125  -4.261  1.00  0.00     0.023 A 
ATOM     93  C   UNL     1     -17.396   3.739  -3.017  1.00  0.00     0.012 A 
ATOM     94  C   UNL     1     -18.470   5.426  -4.393  1.00  0.00     0.148 A 
ATOM     95  C   UNL     1     -17.162   4.687  -2.017  1.00  0.00     0.002 A 
ATOM     96  C   UNL     1     -18.246   6.361  -3.384  1.00  0.00     0.091 A 
ATOM     97  F   UNL     1     -19.081   5.772  -5.532  1.00  0.00    -0.205 F 
ATOM     98  C   UNL     1     -17.540   6.010  -2.224  1.00  0.00     0.022 A 
BRANCH  96  99
ATOM     99  S   UNL     1     -18.748   8.071  -3.613  1.00  0.00     0.127 S 
ATOM    100  O   UNL     1     -20.131   8.031  -3.149  1.00  0.00    -0.237 OA
ATOM    101  O   UNL     1     -17.830   8.801  -2.742  1.00  0.00    -0.237 OA
ATOM    102  O   UNL     1     -18.546   8.319  -5.034  1.00  0.00    -0.744 OA
ENDBRANCH  96  99
ENDBRANCH  68  92
BRANCH  80 103
ATOM    103  C   UNL     1     -19.331   3.606 -11.398  1.00  0.00     0.023 A 
ATOM    104  C   UNL     1     -20.702   3.317 -11.264  1.00  0.00     0.012 A 
ATOM    105  C   UNL     1     -18.920   4.031 -12.694  1.00  0.00     0.148 A 
ATOM    106  C   UNL     1     -21.629   3.589 -12.280  1.00  0.00     0.002 A 
ATOM    107  C   UNL     1     -19.838   4.292 -13.709  1.00  0.00     0.091 A 
ATOM    108  F   UNL     1     -17.622   4.114 -12.996  1.00  0.00    -0.205 F 
ATOM    109  C   UNL     1     -21.201   4.104 -13.493  1.00  0.00     0.022 A 
BRANCH 107 110
ATOM    110  S   UNL     1     -19.328   4.849 -15.342  1.00  0.00     0.127 S 
ATOM    111  O   UNL     1     -19.570   3.652 -16.148  1.00  0.00    -0.237 OA
ATOM    112  O   UNL     1     -20.259   5.950 -15.591  1.00  0.00    -0.237 OA
ATOM    113  O   UNL     1     -17.934   5.251 -15.220  1.00  0.00    -0.744 OA
ENDBRANCH 107 110
ENDBRANCH  80 103
ENDBRANCH  54  55
ENDBRANCH  46  49
ENDBRANCH  44  45
ENDBRANCH  43  44
ENDBRANCH   1  43
TORSDOF 20
