REMARK SMILES O=C(COc1ccc(/C=N/NC(=O)c2cc3cc([N+](=O)[O-])ccc3o2)cc1)NCCCNC(=O)c1ccc(-c2c3nc(c(-c4cccc(S(=O)(=O)[O-])c4F)c4ccc([nH]4)c(-c4cccc(S(=O)(=O)[O-])c4F)c4nc(c(-c5cccc(S(=O)(=O)[O-])c5F)c5ccc2[nH]5)C=C4)C=C3)cc1
REMARK SMILES IDX 1 1 2 2 28 3 3 5 4 6 5 7 6 8 27 9 7 10 26 11 8 12 9 13 10 14
REMARK SMILES IDX 11 15 12 16 13 18 14 19 15 20 25 21 16 22 24 23 17 24 23 25
REMARK SMILES IDX 18 26 22 27 19 28 20 29 21 30 29 31 30 32 31 33 32 34 33 35
REMARK SMILES IDX 34 37 35 38 36 39 97 40 37 41 96 42 38 43 39 44 40 45 90 46
REMARK SMILES IDX 41 47 95 48 89 49 91 50 42 51 94 52 88 53 87 54 43 56 75 57
REMARK SMILES IDX 55 58 74 59 56 60 59 61 73 62 92 63 57 64 58 65 72 67 93 68
REMARK SMILES IDX 60 69 44 70 45 71 53 72 46 73 48 74 54 75 47 76 49 77 50 78
REMARK SMILES IDX 51 79 52 80 76 81 77 82 85 83 78 84 80 85 86 86 79 87 81 88
REMARK SMILES IDX 82 89 83 90 84 91 61 92 62 93 70 94 63 95 65 96 71 97 64 98
REMARK SMILES IDX 66 99 67 100 68 101 69 102
REMARK H PARENT 28 4 11 17 32 36 91 55 59 66
REMARK Flexibility Score: inf
ROOT
ATOM      1  O   UNL     1       1.016  -0.183  -0.778  1.00  0.00    -0.271 OA
ATOM      2  C   UNL     1       2.138  -0.020  -0.309  1.00  0.00     0.257 C 
ATOM      3  N   UNL     1       2.827  -0.987   0.394  1.00  0.00    -0.353 N 
ATOM      4  H   UNL     1       3.785  -0.852   0.577  1.00  0.00     0.163 HD
ENDROOT
BRANCH   2   5
ATOM      5  C   UNL     1       2.870   1.321  -0.395  1.00  0.00     0.329 C 
BRANCH   5   6
ATOM      6  O   UNL     1       3.740   1.621   0.697  1.00  0.00    -0.484 OA
BRANCH   6   7
ATOM      7  C   UNL     1       3.127   2.066   1.839  1.00  0.00     0.120 A 
ATOM      8  C   UNL     1       3.720   3.162   2.464  1.00  0.00     0.047 A 
ATOM      9  C   UNL     1       2.058   1.417   2.464  1.00  0.00     0.047 A 
ATOM     10  C   UNL     1       3.244   3.608   3.700  1.00  0.00     0.013 A 
ATOM     11  C   UNL     1       1.595   1.839   3.713  1.00  0.00     0.013 A 
ATOM     12  C   UNL     1       2.192   2.933   4.332  1.00  0.00    -0.005 A 
BRANCH  12  13
ATOM     13  C   UNL     1       1.784   3.283   5.710  1.00  0.00     0.141 C 
ATOM     14  N   UNL     1       2.201   4.384   6.233  1.00  0.00    -0.180 NA
BRANCH  14  15
ATOM     15  N   UNL     1       2.051   4.670   7.547  1.00  0.00    -0.240 N 
ATOM     16  C   UNL     1       1.385   4.094   8.602  1.00  0.00     0.307 C 
ATOM     17  H   UNL     1       2.535   5.486   7.810  1.00  0.00     0.194 HD
ATOM     18  O   UNL     1       1.863   4.296   9.725  1.00  0.00    -0.264 OA
BRANCH  16  19
ATOM     19  C   UNL     1       0.119   3.404   8.476  1.00  0.00     0.194 A 
ATOM     20  C   UNL     1      -0.163   2.058   8.671  1.00  0.00     0.065 A 
ATOM     21  O   UNL     1      -0.990   4.144   8.815  1.00  0.00    -0.451 OA
ATOM     22  C   UNL     1      -1.319   2.026   9.509  1.00  0.00     0.028 A 
ATOM     23  C   UNL     1      -1.790   3.332   9.555  1.00  0.00     0.135 A 
ATOM     24  C   UNL     1      -1.913   1.061  10.344  1.00  0.00     0.097 A 
ATOM     25  C   UNL     1      -2.841   3.766  10.361  1.00  0.00     0.055 A 
ATOM     26  C   UNL     1      -2.884   1.505  11.265  1.00  0.00     0.270 A 
ATOM     27  C   UNL     1      -3.356   2.828  11.263  1.00  0.00     0.089 A 
BRANCH  26  28
ATOM     28  N   UNL     1      -3.325   0.589  12.328  1.00  0.00     0.062 N 
ATOM     29  O   UNL     1      -3.029  -0.608  12.216  1.00  0.00    -0.258 OA
ATOM     30  O   UNL     1      -3.945   1.075  13.285  1.00  0.00    -0.258 OA
ENDBRANCH  26  28
ENDBRANCH  16  19
ENDBRANCH  14  15
ENDBRANCH  12  13
ENDBRANCH   6   7
ENDBRANCH   5   6
ENDBRANCH   2   5
BRANCH   3  31
ATOM     31  C   UNL     1       2.188  -2.195   0.874  1.00  0.00     0.117 C 
BRANCH  31  32
ATOM     32  C   UNL     1       2.524  -3.426   0.051  1.00  0.00     0.042 C 
BRANCH  32  33
ATOM     33  C   UNL     1       4.009  -3.768   0.020  1.00  0.00     0.118 C 
BRANCH  33  34
ATOM     34  N   UNL     1       4.556  -4.101   1.331  1.00  0.00    -0.352 N 
ATOM     35  C   UNL     1       5.181  -5.247   1.764  1.00  0.00     0.251 C 
ATOM     36  H   UNL     1       4.463  -3.396   2.012  1.00  0.00     0.163 HD
ATOM     37  O   UNL     1       5.456  -5.372   2.957  1.00  0.00    -0.269 OA
BRANCH  35  38
ATOM     38  C   UNL     1       5.493  -6.336   0.814  1.00  0.00     0.039 A 
ATOM     39  C   UNL     1       5.194  -7.654   1.175  1.00  0.00     0.014 A 
ATOM     40  C   UNL     1       6.061  -6.066  -0.432  1.00  0.00     0.014 A 
ATOM     41  C   UNL     1       5.376  -8.685   0.250  1.00  0.00     0.010 A 
ATOM     42  C   UNL     1       6.170  -7.082  -1.378  1.00  0.00     0.010 A 
ATOM     43  C   UNL     1       5.818  -8.400  -1.052  1.00  0.00    -0.014 A 
BRANCH  43  44
ATOM     44  C   UNL     1       5.867  -9.449  -2.104  1.00  0.00     0.031 A 
ATOM     45  C   UNL     1       7.171  -9.821  -2.754  1.00  0.00     0.074 A 
ATOM     46  C   UNL     1       4.715  -9.985  -2.556  1.00  0.00     0.049 A 
ATOM     47  N   UNL     1       7.391 -10.640  -3.749  1.00  0.00    -0.248 NA
ATOM     48  C   UNL     1       8.384  -9.167  -2.235  1.00  0.00     0.031 C 
ATOM     49  C   UNL     1       3.376  -9.648  -2.067  1.00  0.00     0.029 A 
ATOM     50  N   UNL     1       4.481 -10.899  -3.554  1.00  0.00    -0.354 N 
ATOM     51  C   UNL     1       8.756 -10.575  -4.002  1.00  0.00     0.074 A 
ATOM     52  C   UNL     1       9.310  -9.614  -3.071  1.00  0.00     0.031 C 
ATOM     53  C   UNL     1       2.463 -10.341  -2.766  1.00  0.00     0.029 A 
ATOM     54  C   UNL     1       3.146 -11.146  -3.774  1.00  0.00     0.049 A 
ATOM     55  H   UNL     1       5.201 -11.336  -4.064  1.00  0.00     0.167 HD
ATOM     56  C   UNL     1       9.486 -11.270  -4.905  1.00  0.00     0.034 A 
ATOM     57  C   UNL     1       2.536 -11.922  -4.692  1.00  0.00     0.034 A 
ATOM     58  C   UNL     1       8.942 -12.258  -5.797  1.00  0.00     0.049 A 
ATOM     59  C   UNL     1       3.374 -12.708  -5.662  1.00  0.00     0.074 A 
ATOM     60  C   UNL     1       9.616 -13.086  -6.678  1.00  0.00     0.029 A 
ATOM     61  N   UNL     1       7.593 -12.547  -5.932  1.00  0.00    -0.354 N 
ATOM     62  N   UNL     1       4.679 -12.760  -5.770  1.00  0.00    -0.248 NA
ATOM     63  C   UNL     1       2.658 -13.567  -6.617  1.00  0.00     0.031 C 
ATOM     64  C   UNL     1       8.672 -13.863  -7.358  1.00  0.00     0.029 A 
ATOM     65  C   UNL     1       7.412 -13.531  -6.889  1.00  0.00     0.049 A 
ATOM     66  H   UNL     1       6.870 -12.117  -5.421  1.00  0.00     0.167 HD
ATOM     67  C   UNL     1       4.942 -13.676  -6.783  1.00  0.00     0.074 A 
ATOM     68  C   UNL     1       3.660 -14.174  -7.238  1.00  0.00     0.031 C 
ATOM     69  C   UNL     1       6.135 -14.056  -7.301  1.00  0.00     0.034 A 
BRANCH  56  70
ATOM     70  C   UNL     1      10.973 -11.032  -4.934  1.00  0.00     0.023 A 
ATOM     71  C   UNL     1      11.774 -11.531  -3.887  1.00  0.00     0.012 A 
ATOM     72  C   UNL     1      11.585 -10.374  -6.019  1.00  0.00     0.148 A 
ATOM     73  C   UNL     1      13.157 -11.354  -3.902  1.00  0.00     0.002 A 
ATOM     74  C   UNL     1      12.969 -10.237  -6.048  1.00  0.00     0.091 A 
ATOM     75  F   UNL     1      10.806  -9.887  -6.995  1.00  0.00    -0.205 F 
ATOM     76  C   UNL     1      13.754 -10.717  -4.986  1.00  0.00     0.022 A 
BRANCH  74  77
ATOM     77  S   UNL     1      13.839  -9.497  -7.434  1.00  0.00     0.127 S 
ATOM     78  O   UNL     1      14.250  -8.211  -6.871  1.00  0.00    -0.237 OA
ATOM     79  O   UNL     1      14.933 -10.444  -7.653  1.00  0.00    -0.237 OA
ATOM     80  O   UNL     1      12.873  -9.425  -8.521  1.00  0.00    -0.744 OA
ENDBRANCH  74  77
ENDBRANCH  56  70
BRANCH  57  81
ATOM     81  C   UNL     1       1.050 -12.039  -4.696  1.00  0.00     0.023 A 
ATOM     82  C   UNL     1       0.455 -13.247  -4.284  1.00  0.00     0.012 A 
ATOM     83  C   UNL     1       0.227 -10.960  -5.072  1.00  0.00     0.148 A 
ATOM     84  C   UNL     1      -0.933 -13.389  -4.273  1.00  0.00     0.002 A 
ATOM     85  C   UNL     1      -1.156 -11.090  -5.006  1.00  0.00     0.091 A 
ATOM     86  F   UNL     1       0.812  -9.824  -5.475  1.00  0.00    -0.205 F 
ATOM     87  C   UNL     1      -1.738 -12.308  -4.623  1.00  0.00     0.022 A 
BRANCH  85  88
ATOM     88  S   UNL     1      -2.266  -9.710  -5.311  1.00  0.00     0.127 S 
ATOM     89  O   UNL     1      -2.834 -10.064  -6.608  1.00  0.00    -0.237 OA
ATOM     90  O   UNL     1      -3.193  -9.812  -4.183  1.00  0.00    -0.237 OA
ATOM     91  O   UNL     1      -1.425  -8.521  -5.288  1.00  0.00    -0.744 OA
ENDBRANCH  85  88
ENDBRANCH  57  81
BRANCH  69  92
ATOM     92  C   UNL     1       6.122 -15.075  -8.410  1.00  0.00     0.023 A 
ATOM     93  C   UNL     1       5.698 -14.695  -9.699  1.00  0.00     0.012 A 
ATOM     94  C   UNL     1       6.599 -16.384  -8.197  1.00  0.00     0.148 A 
ATOM     95  C   UNL     1       5.720 -15.610 -10.751  1.00  0.00     0.002 A 
ATOM     96  C   UNL     1       6.661 -17.276  -9.261  1.00  0.00     0.091 A 
ATOM     97  F   UNL     1       6.980 -16.732  -6.959  1.00  0.00    -0.205 F 
ATOM     98  C   UNL     1       6.213 -16.894 -10.535  1.00  0.00     0.022 A 
BRANCH  96  99
ATOM     99  S   UNL     1       7.366 -18.921  -9.097  1.00  0.00     0.127 S 
ATOM    100  O   UNL     1       6.171 -19.762  -9.141  1.00  0.00    -0.237 OA
ATOM    101  O   UNL     1       8.220 -19.013 -10.281  1.00  0.00    -0.237 OA
ATOM    102  O   UNL     1       8.087 -18.923  -7.831  1.00  0.00    -0.744 OA
ENDBRANCH  96  99
ENDBRANCH  69  92
ENDBRANCH  43  44
ENDBRANCH  35  38
ENDBRANCH  33  34
ENDBRANCH  32  33
ENDBRANCH  31  32
ENDBRANCH   3  31
TORSDOF 19
