REMARK SMILES CC(C)(C)C[C@@H](O)[C@@H](F)C(=O)NCCCNC(=O)c1ccc(-c2c3nc(c(-c4cccc(S(=O)(=O)[O-])c4F)c4ccc([nH]4)c(-c4cccc(S(=O)(=O)[O-])c4F)c4nc(c(-c5cccc(S(=O)(=O)[O-])c5F)c5ccc2[nH]5)C=C4)C=C3)cc1
REMARK SMILES IDX 14 1 13 2 12 3 10 4 11 5 8 7 9 8 6 9 5 10 2 11 1 12 3 13
REMARK SMILES IDX 4 14 7 15 15 17 16 18 17 19 18 21 19 22 20 23 81 24 21 25
REMARK SMILES IDX 80 26 22 27 23 28 24 29 74 30 25 31 79 32 73 33 75 34 26 35
REMARK SMILES IDX 78 36 72 37 71 38 27 40 59 41 39 42 58 43 40 44 43 45 57 46
REMARK SMILES IDX 76 47 41 48 42 49 56 51 77 52 44 53 28 54 29 55 37 56 30 57
REMARK SMILES IDX 32 58 38 59 31 60 33 61 34 62 35 63 36 64 60 65 61 66 69 67
REMARK SMILES IDX 62 68 64 69 70 70 63 71 65 72 66 73 67 74 68 75 45 76 46 77
REMARK SMILES IDX 54 78 47 79 49 80 55 81 48 82 50 83 51 84 52 85 53 86
REMARK H PARENT 12 6 7 16 16 20 75 39 43 50
REMARK Flexibility Score: inf
ROOT
ATOM      1  C   UNL     1      -2.794   3.975  -0.545  1.00  0.00     0.042 C 
ENDROOT
BRANCH   1   2
ATOM      2  C   UNL     1      -1.894   4.769  -1.488  1.00  0.00     0.117 C 
BRANCH   2   3
ATOM      3  N   UNL     1      -0.831   5.470  -0.788  1.00  0.00    -0.353 N 
ATOM      4  C   UNL     1       0.519   5.252  -0.810  1.00  0.00     0.257 C 
ATOM      5  O   UNL     1       1.232   6.030  -0.169  1.00  0.00    -0.272 OA
ATOM      6  H   UNL     1      -1.127   6.211  -0.212  1.00  0.00     0.163 HD
BRANCH   4   7
ATOM      7  C   UNL     1       1.111   4.077  -1.589  1.00  0.00     0.283 C 
ATOM      8  F   UNL     1       0.640   4.058  -2.873  1.00  0.00    -0.234 F 
BRANCH   7   9
ATOM      9  C   UNL     1       0.808   2.736  -0.898  1.00  0.00     0.159 C 
BRANCH   9  10
ATOM     10  C   UNL     1       1.123   1.546  -1.823  1.00  0.00     0.041 C 
BRANCH  10  11
ATOM     11  C   UNL     1       0.540   0.162  -1.406  1.00  0.00    -0.036 C 
ATOM     12  C   UNL     1       1.004  -0.275  -0.009  1.00  0.00     0.011 C 
ATOM     13  C   UNL     1       1.032  -0.881  -2.430  1.00  0.00     0.011 C 
ATOM     14  C   UNL     1      -1.000   0.179  -1.441  1.00  0.00     0.011 C 
ENDBRANCH  10  11
ENDBRANCH   9  10
BRANCH   9  15
ATOM     15  O   UNL     1       1.617   2.618   0.277  1.00  0.00    -0.390 OA
ATOM     16  H   UNL     1       2.554   2.636   0.028  1.00  0.00     0.211 HD
ENDBRANCH   9  15
ENDBRANCH   7   9
ENDBRANCH   4   7
ENDBRANCH   2   3
ENDBRANCH   1   2
BRANCH   1  17
ATOM     17  C   UNL     1      -3.564   4.817   0.465  1.00  0.00     0.118 C 
BRANCH  17  18
ATOM     18  N   UNL     1      -4.526   5.706  -0.163  1.00  0.00    -0.352 N 
ATOM     19  C   UNL     1      -5.874   5.846   0.051  1.00  0.00     0.251 C 
ATOM     20  H   UNL     1      -4.151   6.303  -0.850  1.00  0.00     0.163 HD
ATOM     21  O   UNL     1      -6.526   6.544  -0.724  1.00  0.00    -0.269 OA
BRANCH  19  22
ATOM     22  C   UNL     1      -6.553   5.168   1.182  1.00  0.00     0.039 A 
ATOM     23  C   UNL     1      -7.852   4.687   0.985  1.00  0.00     0.014 A 
ATOM     24  C   UNL     1      -5.961   5.058   2.443  1.00  0.00     0.014 A 
ATOM     25  C   UNL     1      -8.541   4.077   2.038  1.00  0.00     0.010 A 
ATOM     26  C   UNL     1      -6.617   4.377   3.469  1.00  0.00     0.010 A 
ATOM     27  C   UNL     1      -7.924   3.904   3.287  1.00  0.00    -0.014 A 
BRANCH  27  28
ATOM     28  C   UNL     1      -8.650   3.268   4.418  1.00  0.00     0.031 A 
ATOM     29  C   UNL     1      -8.951   4.055   5.668  1.00  0.00     0.074 A 
ATOM     30  C   UNL     1      -8.990   1.966   4.349  1.00  0.00     0.049 A 
ATOM     31  N   UNL     1      -9.555   3.667   6.762  1.00  0.00    -0.248 NA
ATOM     32  C   UNL     1      -8.489   5.452   5.705  1.00  0.00     0.031 C 
ATOM     33  C   UNL     1      -8.680   1.070   3.233  1.00  0.00     0.029 A 
ATOM     34  N   UNL     1      -9.650   1.164   5.246  1.00  0.00    -0.354 N 
ATOM     35  C   UNL     1      -9.516   4.756   7.625  1.00  0.00     0.074 A 
ATOM     36  C   UNL     1      -8.791   5.807   6.945  1.00  0.00     0.031 C 
ATOM     37  C   UNL     1      -9.151  -0.157   3.511  1.00  0.00     0.029 A 
ATOM     38  C   UNL     1      -9.780  -0.140   4.829  1.00  0.00     0.049 A 
ATOM     39  H   UNL     1      -9.998   1.491   6.107  1.00  0.00     0.167 HD
ATOM     40  C   UNL     1     -10.065   4.888   8.857  1.00  0.00     0.034 A 
ATOM     41  C   UNL     1     -10.345  -1.202   5.436  1.00  0.00     0.034 A 
ATOM     42  C   UNL     1     -10.829   3.861   9.512  1.00  0.00     0.049 A 
ATOM     43  C   UNL     1     -11.012  -1.012   6.772  1.00  0.00     0.074 A 
ATOM     44  C   UNL     1     -11.491   3.921  10.726  1.00  0.00     0.029 A 
ATOM     45  N   UNL     1     -11.037   2.587   9.006  1.00  0.00    -0.354 N 
ATOM     46  N   UNL     1     -11.100   0.072   7.503  1.00  0.00    -0.248 NA
ATOM     47  C   UNL     1     -11.701  -2.179   7.343  1.00  0.00     0.031 C 
ATOM     48  C   UNL     1     -12.092   2.679  10.958  1.00  0.00     0.029 A 
ATOM     49  C   UNL     1     -11.821   1.853   9.879  1.00  0.00     0.049 A 
ATOM     50  H   UNL     1     -10.680   2.255   8.151  1.00  0.00     0.167 HD
ATOM     51  C   UNL     1     -11.882  -0.270   8.601  1.00  0.00     0.074 A 
ATOM     52  C   UNL     1     -12.262  -1.657   8.426  1.00  0.00     0.031 C 
ATOM     53  C   UNL     1     -12.240   0.491   9.665  1.00  0.00     0.034 A 
BRANCH  40  54
ATOM     54  C   UNL     1      -9.915   6.220   9.547  1.00  0.00     0.023 A 
ATOM     55  C   UNL     1     -10.627   7.336   9.059  1.00  0.00     0.012 A 
ATOM     56  C   UNL     1      -9.112   6.364  10.695  1.00  0.00     0.148 A 
ATOM     57  C   UNL     1     -10.512   8.581   9.675  1.00  0.00     0.002 A 
ATOM     58  C   UNL     1      -9.038   7.599  11.332  1.00  0.00     0.091 A 
ATOM     59  F   UNL     1      -8.425   5.300  11.135  1.00  0.00    -0.205 F 
ATOM     60  C   UNL     1      -9.726   8.710  10.817  1.00  0.00     0.022 A 
BRANCH  58  61
ATOM     61  S   UNL     1      -8.116   7.849  12.854  1.00  0.00     0.127 S 
ATOM     62  O   UNL     1      -6.960   8.607  12.377  1.00  0.00    -0.237 OA
ATOM     63  O   UNL     1      -9.059   8.621  13.664  1.00  0.00    -0.237 OA
ATOM     64  O   UNL     1      -7.826   6.518  13.368  1.00  0.00    -0.744 OA
ENDBRANCH  58  61
ENDBRANCH  40  54
BRANCH  41  65
ATOM     65  C   UNL     1     -10.374  -2.521   4.742  1.00  0.00     0.023 A 
ATOM     66  C   UNL     1     -11.594  -3.010   4.237  1.00  0.00     0.012 A 
ATOM     67  C   UNL     1      -9.198  -3.269   4.543  1.00  0.00     0.148 A 
ATOM     68  C   UNL     1     -11.648  -4.236   3.572  1.00  0.00     0.002 A 
ATOM     69  C   UNL     1      -9.250  -4.463   3.833  1.00  0.00     0.091 A 
ATOM     70  F   UNL     1      -8.049  -2.792   5.042  1.00  0.00    -0.205 F 
ATOM     71  C   UNL     1     -10.476  -4.957   3.361  1.00  0.00     0.022 A 
BRANCH  69  72
ATOM     72  S   UNL     1      -7.772  -5.385   3.394  1.00  0.00     0.127 S 
ATOM     73  O   UNL     1      -7.870  -6.545   4.275  1.00  0.00    -0.237 OA
ATOM     74  O   UNL     1      -7.998  -5.665   1.976  1.00  0.00    -0.237 OA
ATOM     75  O   UNL     1      -6.657  -4.482   3.654  1.00  0.00    -0.744 OA
ENDBRANCH  69  72
ENDBRANCH  41  65
BRANCH  53  76
ATOM     76  C   UNL     1     -13.119  -0.142  10.711  1.00  0.00     0.023 A 
ATOM     77  C   UNL     1     -12.583  -1.106  11.587  1.00  0.00     0.012 A 
ATOM     78  C   UNL     1     -14.457   0.269  10.870  1.00  0.00     0.148 A 
ATOM     79  C   UNL     1     -13.375  -1.678  12.582  1.00  0.00     0.002 A 
ATOM     80  C   UNL     1     -15.227  -0.271  11.895  1.00  0.00     0.091 A 
ATOM     81  F   UNL     1     -14.957   1.172  10.014  1.00  0.00    -0.205 F 
ATOM     82  C   UNL     1     -14.692  -1.252  12.744  1.00  0.00     0.022 A 
BRANCH  80  83
ATOM     83  S   UNL     1     -16.900   0.291  12.230  1.00  0.00     0.127 S 
ATOM     84  O   UNL     1     -17.699  -0.792  11.659  1.00  0.00    -0.237 OA
ATOM     85  O   UNL     1     -16.922   0.358  13.692  1.00  0.00    -0.237 OA
ATOM     86  O   UNL     1     -17.025   1.583  11.569  1.00  0.00    -0.744 OA
ENDBRANCH  80  83
ENDBRANCH  53  76
ENDBRANCH  27  28
ENDBRANCH  19  22
ENDBRANCH  17  18
ENDBRANCH   1  17
TORSDOF 17
