REMARK SMILES COC(=O)c1ccc([C@H]2CC(=O)Nc3c(C(=O)NCCCNC(=O)c4ccc(-c5c6nc(c(-c7cccc(S(=O)(=O)[O-])c7F)c7ccc([nH]7)c(-c7cccc(S(=O)(=O)[O-])c7F)c7nc(c(-c8cccc(S(=O)(=O)[O-])c8F)c8ccc5[nH]8)C=C7)C=C6)cc4)cn(-c4ccccc4)c32)cc1
REMARK SMILES IDX 20 1 19 2 18 3 16 4 17 5 15 7 9 8 10 9 96 10 11 11 14 12
REMARK SMILES IDX 89 13 12 14 13 15 88 16 8 18 5 19 6 20 98 21 7 22 97 23 3 24
REMARK SMILES IDX 4 25 2 26 1 27 90 28 91 29 95 30 92 31 94 32 93 33 21 34
REMARK SMILES IDX 22 35 23 36 24 38 25 39 26 40 87 41 27 42 86 43 28 44 29 45
REMARK SMILES IDX 30 46 80 47 31 48 85 49 79 50 81 51 32 52 84 53 78 54 77 55
REMARK SMILES IDX 33 57 65 58 45 59 64 60 46 61 49 62 63 63 82 64 47 65 48 66
REMARK SMILES IDX 62 68 83 69 50 70 34 71 35 72 43 73 36 74 38 75 44 76 37 77
REMARK SMILES IDX 39 78 40 79 41 80 42 81 66 82 67 83 75 84 68 85 70 86 76 87
REMARK SMILES IDX 69 88 71 89 72 90 73 91 74 92 51 93 52 94 60 95 53 96 55 97
REMARK SMILES IDX 61 98 54 99 56 100 57 101 58 102 59 103
REMARK H PARENT 18 6 13 17 22 37 81 56 49 67
REMARK Flexibility Score: inf
ROOT
ATOM      1  C   UNL     1      -6.179  -0.557   8.177  1.00  0.00     0.042 C 
ENDROOT
BRANCH   1   2
ATOM      2  C   UNL     1      -5.974   0.778   7.444  1.00  0.00     0.118 C 
BRANCH   2   3
ATOM      3  N   UNL     1      -5.316   1.771   8.253  1.00  0.00    -0.352 N 
ATOM      4  C   UNL     1      -3.999   2.045   8.497  1.00  0.00     0.254 C 
ATOM      5  O   UNL     1      -3.784   3.136   9.029  1.00  0.00    -0.269 OA
ATOM      6  H   UNL     1      -5.937   2.371   8.725  1.00  0.00     0.163 HD
BRANCH   4   7
ATOM      7  C   UNL     1      -2.876   1.147   8.186  1.00  0.00     0.081 A 
ATOM      8  C   UNL     1      -0.779  -1.872   7.520  1.00  0.00     0.078 C 
ATOM      9  C   UNL     1      -1.914  -2.900   7.426  1.00  0.00     0.115 C 
ATOM     10  C   UNL     1      -1.341  -0.497   7.780  1.00  0.00     0.055 A 
ATOM     11  C   UNL     1      -3.148  -2.363   6.757  1.00  0.00     0.225 C 
ATOM     12  C   UNL     1      -2.668  -0.153   7.632  1.00  0.00     0.076 A 
ATOM     13  N   UNL     1      -0.656   0.643   8.149  1.00  0.00    -0.317 N 
ATOM     14  O   UNL     1      -3.900  -3.082   6.101  1.00  0.00    -0.275 OA
ATOM     15  N   UNL     1      -3.480  -1.063   7.003  1.00  0.00    -0.324 N 
ATOM     16  C   UNL     1      -1.591   1.563   8.544  1.00  0.00     0.107 A 
ATOM     17  H   UNL     1      -4.367  -0.755   6.709  1.00  0.00     0.170 HD
BRANCH   8  18
ATOM     18  C   UNL     1       0.218  -2.411   8.543  1.00  0.00    -0.038 A 
ATOM     19  C   UNL     1       2.180  -3.382  10.311  1.00  0.00     0.060 A 
ATOM     20  C   UNL     1       2.012  -3.974   9.055  1.00  0.00     0.016 A 
ATOM     21  C   UNL     1       1.325  -2.353  10.709  1.00  0.00     0.016 A 
ATOM     22  C   UNL     1       1.046  -3.484   8.175  1.00  0.00     0.005 A 
ATOM     23  C   UNL     1       0.325  -1.904   9.847  1.00  0.00     0.005 A 
BRANCH  19  24
ATOM     24  C   UNL     1       3.298  -3.860  11.169  1.00  0.00     0.337 C 
ATOM     25  O   UNL     1       4.173  -4.603  10.785  1.00  0.00    -0.246 OA
BRANCH  24  26
ATOM     26  O   UNL     1       3.178  -3.331  12.415  1.00  0.00    -0.465 OA
ATOM     27  C   UNL     1       4.228  -3.696  13.307  1.00  0.00     0.282 C 
ENDBRANCH  24  26
ENDBRANCH  19  24
ENDBRANCH   8  18
BRANCH  13  28
ATOM     28  C   UNL     1       0.745   0.818   8.207  1.00  0.00     0.045 A 
ATOM     29  C   UNL     1       1.543   0.345   7.161  1.00  0.00     0.026 A 
ATOM     30  C   UNL     1       1.323   1.353   9.363  1.00  0.00     0.026 A 
ATOM     31  C   UNL     1       2.928   0.333   7.304  1.00  0.00     0.002 A 
ATOM     32  C   UNL     1       2.709   1.302   9.512  1.00  0.00     0.002 A 
ATOM     33  C   UNL     1       3.507   0.782   8.491  1.00  0.00     0.000 A 
ENDBRANCH  13  28
ENDBRANCH   4   7
ENDBRANCH   2   3
ENDBRANCH   1   2
BRANCH   1  34
ATOM     34  C   UNL     1      -7.609  -0.734   8.636  1.00  0.00     0.118 C 
BRANCH  34  35
ATOM     35  N   UNL     1      -8.521  -0.950   7.489  1.00  0.00    -0.352 N 
ATOM     36  C   UNL     1      -9.908  -0.907   7.432  1.00  0.00     0.251 C 
ATOM     37  H   UNL     1      -8.075  -1.154   6.635  1.00  0.00     0.163 HD
ATOM     38  O   UNL     1     -10.521  -1.431   6.511  1.00  0.00    -0.269 OA
BRANCH  36  39
ATOM     39  C   UNL     1     -10.623  -0.180   8.489  1.00  0.00     0.039 A 
ATOM     40  C   UNL     1     -11.849  -0.553   9.052  1.00  0.00     0.014 A 
ATOM     41  C   UNL     1      -9.951   0.903   8.991  1.00  0.00     0.014 A 
ATOM     42  C   UNL     1     -12.309   0.186  10.147  1.00  0.00     0.010 A 
ATOM     43  C   UNL     1     -10.118   1.051  10.317  1.00  0.00     0.010 A 
ATOM     44  C   UNL     1     -11.409   1.054  10.757  1.00  0.00    -0.014 A 
BRANCH  44  45
ATOM     45  C   UNL     1     -11.611   1.862  11.938  1.00  0.00     0.031 A 
ATOM     46  C   UNL     1     -11.940   1.062  13.128  1.00  0.00     0.074 A 
ATOM     47  C   UNL     1     -11.220   3.160  11.988  1.00  0.00     0.049 A 
ATOM     48  N   UNL     1     -13.119   0.827  13.596  1.00  0.00    -0.248 NA
ATOM     49  C   UNL     1     -10.883   0.222  13.716  1.00  0.00     0.031 C 
ATOM     50  C   UNL     1     -10.509   3.963  10.974  1.00  0.00     0.029 A 
ATOM     51  N   UNL     1     -11.271   4.016  13.039  1.00  0.00    -0.354 N 
ATOM     52  C   UNL     1     -12.893   0.070  14.737  1.00  0.00     0.074 A 
ATOM     53  C   UNL     1     -11.595  -0.522  14.567  1.00  0.00     0.031 C 
ATOM     54  C   UNL     1     -10.007   5.084  11.544  1.00  0.00     0.029 A 
ATOM     55  C   UNL     1     -10.501   5.168  12.903  1.00  0.00     0.049 A 
ATOM     56  H   UNL     1     -11.813   3.836  13.840  1.00  0.00     0.167 HD
ATOM     57  C   UNL     1     -13.619   0.293  15.867  1.00  0.00     0.034 A 
ATOM     58  C   UNL     1     -10.267   6.092  13.869  1.00  0.00     0.034 A 
ATOM     59  C   UNL     1     -14.734   1.174  15.599  1.00  0.00     0.049 A 
ATOM     60  C   UNL     1     -11.348   5.933  14.873  1.00  0.00     0.074 A 
ATOM     61  C   UNL     1     -15.806   1.159  14.728  1.00  0.00     0.029 A 
ATOM     62  N   UNL     1     -14.577   2.487  15.982  1.00  0.00    -0.354 N 
ATOM     63  N   UNL     1     -12.606   6.156  14.607  1.00  0.00    -0.248 NA
ATOM     64  C   UNL     1     -11.094   5.058  16.006  1.00  0.00     0.031 C 
ATOM     65  C   UNL     1     -15.926   2.507  14.271  1.00  0.00     0.029 A 
ATOM     66  C   UNL     1     -14.985   3.287  14.947  1.00  0.00     0.049 A 
ATOM     67  H   UNL     1     -14.231   2.798  16.849  1.00  0.00     0.167 HD
ATOM     68  C   UNL     1     -13.278   5.098  15.208  1.00  0.00     0.074 A 
ATOM     69  C   UNL     1     -12.312   4.522  16.145  1.00  0.00     0.031 C 
ATOM     70  C   UNL     1     -14.433   4.599  14.672  1.00  0.00     0.034 A 
BRANCH  57  71
ATOM     71  C   UNL     1     -13.116   0.090  17.278  1.00  0.00     0.023 A 
ATOM     72  C   UNL     1     -14.075   0.190  18.309  1.00  0.00     0.012 A 
ATOM     73  C   UNL     1     -11.756   0.077  17.669  1.00  0.00     0.148 A 
ATOM     74  C   UNL     1     -13.700   0.332  19.649  1.00  0.00     0.002 A 
ATOM     75  C   UNL     1     -11.390   0.139  19.008  1.00  0.00     0.091 A 
ATOM     76  F   UNL     1     -10.788   0.147  16.753  1.00  0.00    -0.205 F 
ATOM     77  C   UNL     1     -12.357   0.301  20.000  1.00  0.00     0.022 A 
BRANCH  75  78
ATOM     78  S   UNL     1      -9.668   0.063  19.516  1.00  0.00     0.127 S 
ATOM     79  O   UNL     1      -9.421   1.448  19.905  1.00  0.00    -0.237 OA
ATOM     80  O   UNL     1      -9.726  -0.893  20.622  1.00  0.00    -0.237 OA
ATOM     81  O   UNL     1      -8.936  -0.417  18.351  1.00  0.00    -0.744 OA
ENDBRANCH  75  78
ENDBRANCH  57  71
BRANCH  58  82
ATOM     82  C   UNL     1      -9.041   6.879  14.150  1.00  0.00     0.023 A 
ATOM     83  C   UNL     1      -9.116   8.039  14.947  1.00  0.00     0.012 A 
ATOM     84  C   UNL     1      -7.765   6.330  13.892  1.00  0.00     0.148 A 
ATOM     85  C   UNL     1      -7.962   8.613  15.498  1.00  0.00     0.002 A 
ATOM     86  C   UNL     1      -6.621   6.901  14.445  1.00  0.00     0.091 A 
ATOM     87  F   UNL     1      -7.686   5.197  13.181  1.00  0.00    -0.205 F 
ATOM     88  C   UNL     1      -6.717   8.037  15.258  1.00  0.00     0.022 A 
BRANCH  86  89
ATOM     89  S   UNL     1      -4.984   6.191  14.219  1.00  0.00     0.127 S 
ATOM     90  O   UNL     1      -4.225   7.341  13.726  1.00  0.00    -0.237 OA
ATOM     91  O   UNL     1      -4.646   5.773  15.577  1.00  0.00    -0.237 OA
ATOM     92  O   UNL     1      -5.149   5.113  13.254  1.00  0.00    -0.744 OA
ENDBRANCH  86  89
ENDBRANCH  58  82
BRANCH  70  93
ATOM     93  C   UNL     1     -15.073   5.368  13.536  1.00  0.00     0.023 A 
ATOM     94  C   UNL     1     -14.465   5.502  12.268  1.00  0.00     0.012 A 
ATOM     95  C   UNL     1     -16.392   5.817  13.699  1.00  0.00     0.148 A 
ATOM     96  C   UNL     1     -15.148   6.085  11.197  1.00  0.00     0.002 A 
ATOM     97  C   UNL     1     -17.084   6.360  12.622  1.00  0.00     0.091 A 
ATOM     98  F   UNL     1     -16.963   5.672  14.904  1.00  0.00    -0.205 F 
ATOM     99  C   UNL     1     -16.463   6.505  11.371  1.00  0.00     0.022 A 
BRANCH  97 100
ATOM    100  S   UNL     1     -18.814   6.812  12.748  1.00  0.00     0.127 S 
ATOM    101  O   UNL     1     -18.752   8.272  12.706  1.00  0.00    -0.237 OA
ATOM    102  O   UNL     1     -19.388   6.190  11.554  1.00  0.00    -0.237 OA
ATOM    103  O   UNL     1     -19.290   6.244  14.003  1.00  0.00    -0.744 OA
ENDBRANCH  97 100
ENDBRANCH  70  93
ENDBRANCH  44  45
ENDBRANCH  36  39
ENDBRANCH  34  35
ENDBRANCH   1  34
TORSDOF 17
