REMARK SMILES C[NH2+]C[C@H](C)C(=O)N[C@H](Cc1ccccc1)C(=O)NCCCNC(=O)c1ccc(-c2c3nc(c(-c4cccc(S(=O)(=O)[O-])c4F)c4ccc([nH]4)c(-c4cccc(S(=O)(=O)[O-])c4F)c4nc(c(-c5cccc(S(=O)(=O)[O-])c5F)c5ccc2[nH]5)C=C4)C=C3)cc1
REMARK SMILES IDX 20 1 19 2 17 3 18 4 9 6 8 7 6 8 7 9 4 11 5 12 3 13 2 14 1 15
REMARK SMILES IDX 10 18 11 19 12 20 16 21 13 22 15 23 14 24 21 25 22 26 23 27
REMARK SMILES IDX 24 28 25 30 26 31 27 32 88 33 28 34 87 35 29 36 30 37 31 38
REMARK SMILES IDX 81 39 32 40 86 41 80 42 82 43 33 44 85 45 79 46 78 47 34 49
REMARK SMILES IDX 66 50 46 51 65 52 47 53 50 54 64 55 83 56 48 57 49 58 63 60
REMARK SMILES IDX 84 61 51 62 35 63 36 64 44 65 37 66 39 67 45 68 38 69 40 70
REMARK SMILES IDX 41 71 42 72 43 73 67 74 68 75 76 76 69 77 71 78 77 79 70 80
REMARK SMILES IDX 72 81 73 82 74 83 75 84 52 85 53 86 61 87 54 88 56 89 62 90
REMARK SMILES IDX 55 91 57 92 58 93 59 94 60 95
REMARK H PARENT 19 5 8 10 2 16 2 17 23 29 82 48 50 59
REMARK Flexibility Score: inf
ROOT
ATOM      1  C   UNL     1      -5.032  -5.154  -0.722  1.00  0.00     0.117 C 
ENDROOT
BRANCH   1   2
ATOM      2  N   UNL     1      -3.851  -4.671  -1.468  1.00  0.00    -0.354 N 
ATOM      3  C   UNL     1      -2.892  -3.695  -1.311  1.00  0.00     0.242 C 
ATOM      4  O   UNL     1      -2.114  -3.554  -2.263  1.00  0.00    -0.273 OA
ATOM      5  H   UNL     1      -3.713  -5.183  -2.298  1.00  0.00     0.163 HD
BRANCH   3   6
ATOM      6  C   UNL     1      -2.794  -2.715  -0.073  1.00  0.00     0.175 C 
BRANCH   6   7
ATOM      7  N   UNL     1      -3.204  -3.618   1.019  1.00  0.00    -0.344 N 
ATOM      8  C   UNL     1      -3.627  -3.648   2.289  1.00  0.00     0.229 C 
ATOM      9  O   UNL     1      -3.655  -4.761   2.829  1.00  0.00    -0.275 OA
ATOM     10  H   UNL     1      -3.146  -4.544   0.691  1.00  0.00     0.164 HD
BRANCH   8  11
ATOM     11  C   UNL     1      -4.027  -2.441   3.064  1.00  0.00     0.130 C 
ATOM     12  C   UNL     1      -2.725  -1.673   3.328  1.00  0.00     0.024 C 
BRANCH  11  13
ATOM     13  C   UNL     1      -5.221  -1.695   2.443  1.00  0.00     0.273 C 
BRANCH  13  14
ATOM     14  N   UNL     1      -6.370  -2.394   1.878  1.00  0.00    -0.348 N 
ATOM     15  C   UNL     1      -6.874  -3.533   2.606  1.00  0.00     0.330 C 
ATOM     16  H   UNL     1      -7.131  -1.719   1.800  1.00  0.00     0.346 HD
ATOM     17  H   UNL     1      -6.036  -2.775   0.993  1.00  0.00     0.346 HD
ENDBRANCH  13  14
ENDBRANCH  11  13
ENDBRANCH   8  11
ENDBRANCH   6   7
BRANCH   6  18
ATOM     18  C   UNL     1      -3.467  -1.361  -0.503  1.00  0.00     0.070 C 
BRANCH  18  19
ATOM     19  C   UNL     1      -3.053   0.083  -0.095  1.00  0.00    -0.045 A 
ATOM     20  C   UNL     1      -3.284   0.674   1.157  1.00  0.00     0.004 A 
ATOM     21  C   UNL     1      -2.662   0.992  -1.099  1.00  0.00     0.004 A 
ATOM     22  C   UNL     1      -3.225   2.054   1.401  1.00  0.00     0.000 A 
ATOM     23  C   UNL     1      -2.588   2.382  -0.867  1.00  0.00     0.000 A 
ATOM     24  C   UNL     1      -2.894   2.918   0.378  1.00  0.00     0.000 A 
ENDBRANCH  18  19
ENDBRANCH   6  18
ENDBRANCH   3   6
ENDBRANCH   1   2
BRANCH   1  25
ATOM     25  C   UNL     1      -6.337  -4.511  -1.189  1.00  0.00     0.042 C 
BRANCH  25  26
ATOM     26  C   UNL     1      -7.254  -5.438  -1.990  1.00  0.00     0.118 C 
BRANCH  26  27
ATOM     27  N   UNL     1      -8.082  -6.301  -1.149  1.00  0.00    -0.352 N 
ATOM     28  C   UNL     1      -9.454  -6.451  -1.097  1.00  0.00     0.251 C 
ATOM     29  H   UNL     1      -7.581  -6.865  -0.517  1.00  0.00     0.163 HD
ATOM     30  O   UNL     1      -9.943  -7.141  -0.204  1.00  0.00    -0.269 OA
BRANCH  28  31
ATOM     31  C   UNL     1     -10.350  -5.785  -2.079  1.00  0.00     0.039 A 
ATOM     32  C   UNL     1     -11.575  -5.265  -1.639  1.00  0.00     0.014 A 
ATOM     33  C   UNL     1     -10.016  -5.688  -3.431  1.00  0.00     0.014 A 
ATOM     34  C   UNL     1     -12.411  -4.576  -2.530  1.00  0.00     0.010 A 
ATOM     35  C   UNL     1     -10.808  -4.933  -4.297  1.00  0.00     0.010 A 
ATOM     36  C   UNL     1     -12.013  -4.362  -3.859  1.00  0.00    -0.014 A 
BRANCH  36  37
ATOM     37  C   UNL     1     -12.808  -3.519  -4.797  1.00  0.00     0.031 A 
ATOM     38  C   UNL     1     -13.349  -4.103  -6.078  1.00  0.00     0.074 A 
ATOM     39  C   UNL     1     -12.936  -2.197  -4.560  1.00  0.00     0.049 A 
ATOM     40  N   UNL     1     -13.956  -3.500  -7.068  1.00  0.00    -0.248 NA
ATOM     41  C   UNL     1     -13.161  -5.549  -6.288  1.00  0.00     0.031 C 
ATOM     42  C   UNL     1     -12.398  -1.489  -3.396  1.00  0.00     0.029 A 
ATOM     43  N   UNL     1     -13.524  -1.201  -5.305  1.00  0.00    -0.354 N 
ATOM     44  C   UNL     1     -14.172  -4.474  -8.037  1.00  0.00     0.074 A 
ATOM     45  C   UNL     1     -13.622  -5.709  -7.521  1.00  0.00     0.031 C 
ATOM     46  C   UNL     1     -12.674  -0.179  -3.506  1.00  0.00     0.029 A 
ATOM     47  C   UNL     1     -13.372   0.057  -4.765  1.00  0.00     0.049 A 
ATOM     48  H   UNL     1     -14.008  -1.372  -6.145  1.00  0.00     0.167 HD
ATOM     49  C   UNL     1     -14.787  -4.356  -9.238  1.00  0.00     0.034 A 
ATOM     50  C   UNL     1     -13.732   1.268  -5.238  1.00  0.00     0.034 A 
ATOM     51  C   UNL     1     -15.392  -3.144  -9.720  1.00  0.00     0.049 A 
ATOM     52  C   UNL     1     -14.441   1.357  -6.564  1.00  0.00     0.074 A 
ATOM     53  C   UNL     1     -16.157  -2.962 -10.860  1.00  0.00     0.029 A 
ATOM     54  N   UNL     1     -15.289  -1.907  -9.106  1.00  0.00    -0.354 N 
ATOM     55  N   UNL     1     -14.805   0.392  -7.372  1.00  0.00    -0.248 NA
ATOM     56  C   UNL     1     -14.811   2.702  -7.032  1.00  0.00     0.031 C 
ATOM     57  C   UNL     1     -16.484  -1.607 -10.955  1.00  0.00     0.029 A 
ATOM     58  C   UNL     1     -15.947  -0.950  -9.860  1.00  0.00     0.049 A 
ATOM     59  H   UNL     1     -14.817  -1.734  -8.260  1.00  0.00     0.167 HD
ATOM     60  C   UNL     1     -15.471   1.009  -8.426  1.00  0.00     0.074 A 
ATOM     61  C   UNL     1     -15.486   2.428  -8.140  1.00  0.00     0.031 C 
ATOM     62  C   UNL     1     -16.004   0.452  -9.540  1.00  0.00     0.034 A 
BRANCH  49  63
ATOM     63  C   UNL     1     -14.889  -5.578 -10.113  1.00  0.00     0.023 A 
ATOM     64  C   UNL     1     -15.795  -6.604  -9.778  1.00  0.00     0.012 A 
ATOM     65  C   UNL     1     -14.169  -5.658 -11.322  1.00  0.00     0.148 A 
ATOM     66  C   UNL     1     -15.968  -7.701 -10.621  1.00  0.00     0.002 A 
ATOM     67  C   UNL     1     -14.378  -6.733 -12.178  1.00  0.00     0.091 A 
ATOM     68  F   UNL     1     -13.301  -4.679 -11.614  1.00  0.00    -0.205 F 
ATOM     69  C   UNL     1     -15.270  -7.759 -11.825  1.00  0.00     0.022 A 
BRANCH  67  70
ATOM     70  S   UNL     1     -13.589  -6.864 -13.786  1.00  0.00     0.127 S 
ATOM     71  O   UNL     1     -12.706  -8.013 -13.589  1.00  0.00    -0.237 OA
ATOM     72  O   UNL     1     -14.729  -7.116 -14.667  1.00  0.00    -0.237 OA
ATOM     73  O   UNL     1     -12.913  -5.594 -14.010  1.00  0.00    -0.744 OA
ENDBRANCH  67  70
ENDBRANCH  49  63
BRANCH  50  74
ATOM     74  C   UNL     1     -13.467   2.501  -4.441  1.00  0.00     0.023 A 
ATOM     75  C   UNL     1     -14.553   3.216  -3.898  1.00  0.00     0.012 A 
ATOM     76  C   UNL     1     -12.158   2.973  -4.223  1.00  0.00     0.148 A 
ATOM     77  C   UNL     1     -14.343   4.399  -3.187  1.00  0.00     0.002 A 
ATOM     78  C   UNL     1     -11.953   4.122  -3.466  1.00  0.00     0.091 A 
ATOM     79  F   UNL     1     -11.137   2.292  -4.762  1.00  0.00    -0.205 F 
ATOM     80  C   UNL     1     -13.044   4.847  -2.963  1.00  0.00     0.022 A 
BRANCH  78  81
ATOM     81  S   UNL     1     -10.308   4.693  -3.024  1.00  0.00     0.127 S 
ATOM     82  O   UNL     1     -10.147   5.850  -3.907  1.00  0.00    -0.237 OA
ATOM     83  O   UNL     1     -10.472   5.025  -1.605  1.00  0.00    -0.237 OA
ATOM     84  O   UNL     1      -9.424   3.571  -3.277  1.00  0.00    -0.744 OA
ENDBRANCH  78  81
ENDBRANCH  50  74
BRANCH  62  85
ATOM     85  C   UNL     1     -16.674   1.366 -10.533  1.00  0.00     0.023 A 
ATOM     86  C   UNL     1     -15.888   2.209 -11.343  1.00  0.00     0.012 A 
ATOM     87  C   UNL     1     -18.069   1.325 -10.724  1.00  0.00     0.148 A 
ATOM     88  C   UNL     1     -16.483   3.017 -12.311  1.00  0.00     0.002 A 
ATOM     89  C   UNL     1     -18.650   2.096 -11.723  1.00  0.00     0.091 A 
ATOM     90  F   UNL     1     -18.799   0.526  -9.932  1.00  0.00    -0.205 F 
ATOM     91  C   UNL     1     -17.860   2.951 -12.510  1.00  0.00     0.022 A 
BRANCH  89  92
ATOM     92  S   UNL     1     -20.400   2.008 -12.120  1.00  0.00     0.127 S 
ATOM     93  O   UNL     1     -20.870   3.324 -11.690  1.00  0.00    -0.237 OA
ATOM     94  O   UNL     1     -20.378   1.811 -13.569  1.00  0.00    -0.237 OA
ATOM     95  O   UNL     1     -20.929   0.881 -11.363  1.00  0.00    -0.744 OA
ENDBRANCH  89  92
ENDBRANCH  62  85
ENDBRANCH  36  37
ENDBRANCH  28  31
ENDBRANCH  26  27
ENDBRANCH  25  26
ENDBRANCH   1  25
TORSDOF 19
