REMARK SMILES C[C@@H]1[C@H](C(=O)NCCCNC(=O)c2ccc(-c3c4nc(c(-c5cccc(S(=O)(=O)[O-])c5F)c5ccc([nH]5)c(-c5cccc(S(=O)(=O)[O-])c5F)c5nc(c(-c6cccc(S(=O)(=O)[O-])c6F)c6ccc3[nH]6)C=C5)C=C4)cc2)CC[N@@H+]1Cc1cnn(-c2ccccc2)c1
REMARK SMILES IDX 8 1 7 2 6 3 4 4 5 5 3 7 1 8 2 9 78 10 76 11 77 12 79 14
REMARK SMILES IDX 80 15 81 16 90 17 82 18 83 19 84 20 85 21 89 22 86 23 88 24
REMARK SMILES IDX 87 25 9 26 10 27 11 28 12 30 13 31 14 32 75 33 15 34 74 35
REMARK SMILES IDX 16 36 17 37 18 38 68 39 19 40 73 41 67 42 69 43 20 44 72 45
REMARK SMILES IDX 66 46 65 47 21 49 53 50 33 51 52 52 34 53 37 54 51 55 70 56
REMARK SMILES IDX 35 57 36 58 50 60 71 61 38 62 22 63 23 64 31 65 24 66 26 67
REMARK SMILES IDX 32 68 25 69 27 70 28 71 29 72 30 73 54 74 55 75 63 76 56 77
REMARK SMILES IDX 58 78 64 79 57 80 59 81 60 82 61 83 62 84 39 85 40 86 48 87
REMARK SMILES IDX 41 88 43 89 49 90 42 91 44 92 45 93 46 94 47 95
REMARK H PARENT 6 6 78 13 10 29 69 48 37 59
REMARK Flexibility Score: inf
ROOT
ATOM      1  C   UNL     1       2.673   1.682   2.490  1.00  0.00     0.042 C 
ENDROOT
BRANCH   1   2
ATOM      2  C   UNL     1       1.245   2.063   2.126  1.00  0.00     0.117 C 
BRANCH   2   3
ATOM      3  N   UNL     1       1.180   2.776   0.864  1.00  0.00    -0.356 N 
ATOM      4  C   UNL     1       0.671   2.439  -0.346  1.00  0.00     0.229 C 
ATOM      5  O   UNL     1       0.850   3.256  -1.258  1.00  0.00    -0.275 OA
ATOM      6  H   UNL     1       1.581   3.675   0.892  1.00  0.00     0.163 HD
BRANCH   4   7
ATOM      7  C   UNL     1      -0.113   1.165  -0.638  1.00  0.00     0.142 C 
ATOM      8  C   UNL     1       2.063  -0.278  -0.346  1.00  0.00     0.076 C 
ATOM      9  C   UNL     1       0.604  -0.194  -0.758  1.00  0.00     0.193 C 
ATOM     10  N   UNL     1      -0.332  -1.157  -0.172  1.00  0.00    -0.328 N 
ATOM     11  C   UNL     1      -1.354   0.916   0.213  1.00  0.00     0.081 C 
ATOM     12  C   UNL     1      -1.641  -0.559  -0.007  1.00  0.00     0.263 C 
ATOM     13  H   UNL     1      -0.356  -1.885  -0.886  1.00  0.00     0.348 HD
BRANCH  10  14
ATOM     14  C   UNL     1       0.068  -2.248   0.694  1.00  0.00     0.302 C 
BRANCH  14  15
ATOM     15  C   UNL     1       0.307  -1.852   2.113  1.00  0.00     0.045 A 
ATOM     16  C   UNL     1      -0.625  -1.474   3.103  1.00  0.00     0.145 A 
ATOM     17  C   UNL     1       1.500  -1.884   2.807  1.00  0.00     0.124 A 
ATOM     18  N   UNL     1      -0.075  -1.270   4.300  1.00  0.00    -0.176 NA
ATOM     19  N   UNL     1       1.249  -1.498   4.106  1.00  0.00    -0.240 N 
BRANCH  19  20
ATOM     20  C   UNL     1       2.192  -1.290   5.144  1.00  0.00     0.065 A 
ATOM     21  C   UNL     1       1.763  -1.175   6.474  1.00  0.00     0.028 A 
ATOM     22  C   UNL     1       3.548  -1.157   4.840  1.00  0.00     0.028 A 
ATOM     23  C   UNL     1       2.692  -0.957   7.495  1.00  0.00     0.002 A 
ATOM     24  C   UNL     1       4.453  -0.889   5.859  1.00  0.00     0.002 A 
ATOM     25  C   UNL     1       4.040  -0.812   7.186  1.00  0.00     0.000 A 
ENDBRANCH  19  20
ENDBRANCH  14  15
ENDBRANCH  10  14
ENDBRANCH   4   7
ENDBRANCH   2   3
ENDBRANCH   1   2
BRANCH   1  26
ATOM     26  C   UNL     1       3.567   2.796   3.002  1.00  0.00     0.118 C 
BRANCH  26  27
ATOM     27  N   UNL     1       3.266   3.232   4.355  1.00  0.00    -0.352 N 
ATOM     28  C   UNL     1       4.027   3.250   5.503  1.00  0.00     0.251 C 
ATOM     29  H   UNL     1       2.352   3.579   4.472  1.00  0.00     0.163 HD
ATOM     30  O   UNL     1       3.506   3.665   6.539  1.00  0.00    -0.269 OA
BRANCH  28  31
ATOM     31  C   UNL     1       5.426   2.741   5.547  1.00  0.00     0.039 A 
ATOM     32  C   UNL     1       5.868   2.116   6.722  1.00  0.00     0.014 A 
ATOM     33  C   UNL     1       6.317   2.863   4.481  1.00  0.00     0.014 A 
ATOM     34  C   UNL     1       7.132   1.513   6.781  1.00  0.00     0.010 A 
ATOM     35  C   UNL     1       7.541   2.193   4.504  1.00  0.00     0.010 A 
ATOM     36  C   UNL     1       7.962   1.511   5.654  1.00  0.00    -0.014 A 
BRANCH  36  37
ATOM     37  C   UNL     1       9.317   0.905   5.682  1.00  0.00     0.031 A 
ATOM     38  C   UNL     1      10.513   1.811   5.673  1.00  0.00     0.074 A 
ATOM     39  C   UNL     1       9.487  -0.432   5.636  1.00  0.00     0.049 A 
ATOM     40  N   UNL     1      11.780   1.499   5.654  1.00  0.00    -0.248 NA
ATOM     41  C   UNL     1      10.247   3.260   5.664  1.00  0.00     0.031 C 
ATOM     42  C   UNL     1       8.412  -1.415   5.590  1.00  0.00     0.029 A 
ATOM     43  N   UNL     1      10.626  -1.198   5.585  1.00  0.00    -0.354 N 
ATOM     44  C   UNL     1      12.463   2.706   5.615  1.00  0.00     0.074 A 
ATOM     45  C   UNL     1      11.470   3.756   5.565  1.00  0.00     0.031 C 
ATOM     46  C   UNL     1       8.928  -2.650   5.499  1.00  0.00     0.029 A 
ATOM     47  C   UNL     1      10.380  -2.549   5.464  1.00  0.00     0.049 A 
ATOM     48  H   UNL     1      11.533  -0.818   5.630  1.00  0.00     0.167 HD
ATOM     49  C   UNL     1      13.797   2.923   5.649  1.00  0.00     0.034 A 
ATOM     50  C   UNL     1      11.226  -3.589   5.335  1.00  0.00     0.034 A 
ATOM     51  C   UNL     1      14.778   1.877   5.706  1.00  0.00     0.049 A 
ATOM     52  C   UNL     1      12.706  -3.320   5.366  1.00  0.00     0.074 A 
ATOM     53  C   UNL     1      16.153   1.993   5.804  1.00  0.00     0.029 A 
ATOM     54  N   UNL     1      14.492   0.521   5.650  1.00  0.00    -0.354 N 
ATOM     55  N   UNL     1      13.331  -2.175   5.492  1.00  0.00    -0.248 NA
ATOM     56  C   UNL     1      13.596  -4.486   5.282  1.00  0.00     0.031 C 
ATOM     57  C   UNL     1      16.701   0.707   5.774  1.00  0.00     0.029 A 
ATOM     58  C   UNL     1      15.665  -0.211   5.696  1.00  0.00     0.049 A 
ATOM     59  H   UNL     1      13.588   0.137   5.586  1.00  0.00     0.167 HD
ATOM     60  C   UNL     1      14.684  -2.484   5.549  1.00  0.00     0.074 A 
ATOM     61  C   UNL     1      14.786  -3.927   5.458  1.00  0.00     0.031 C 
ATOM     62  C   UNL     1      15.746  -1.649   5.658  1.00  0.00     0.034 A 
BRANCH  49  63
ATOM     63  C   UNL     1      14.260   4.354   5.660  1.00  0.00     0.023 A 
ATOM     64  C   UNL     1      14.047   5.145   6.808  1.00  0.00     0.012 A 
ATOM     65  C   UNL     1      14.928   4.906   4.552  1.00  0.00     0.148 A 
ATOM     66  C   UNL     1      14.457   6.477   6.838  1.00  0.00     0.002 A 
ATOM     67  C   UNL     1      15.376   6.220   4.607  1.00  0.00     0.091 A 
ATOM     68  F   UNL     1      15.095   4.144   3.462  1.00  0.00    -0.205 F 
ATOM     69  C   UNL     1      15.129   7.010   5.742  1.00  0.00     0.022 A 
BRANCH  67  70
ATOM     70  S   UNL     1      16.317   6.976   3.279  1.00  0.00     0.127 S 
ATOM     71  O   UNL     1      15.366   7.964   2.770  1.00  0.00    -0.237 OA
ATOM     72  O   UNL     1      17.458   7.543   3.999  1.00  0.00    -0.237 OA
ATOM     73  O   UNL     1      16.652   5.901   2.358  1.00  0.00    -0.744 OA
ENDBRANCH  67  70
ENDBRANCH  49  63
BRANCH  50  74
ATOM     74  C   UNL     1      10.704  -4.983   5.236  1.00  0.00     0.023 A 
ATOM     75  C   UNL     1      10.906  -5.876   6.307  1.00  0.00     0.012 A 
ATOM     76  C   UNL     1      10.008  -5.428   4.095  1.00  0.00     0.148 A 
ATOM     77  C   UNL     1      10.464  -7.197   6.227  1.00  0.00     0.002 A 
ATOM     78  C   UNL     1       9.525  -6.732   4.043  1.00  0.00     0.091 A 
ATOM     79  F   UNL     1       9.828  -4.566   3.084  1.00  0.00    -0.205 F 
ATOM     80  C   UNL     1       9.768  -7.623   5.099  1.00  0.00     0.022 A 
BRANCH  78  81
ATOM     81  S   UNL     1       8.518  -7.336   2.682  1.00  0.00     0.127 S 
ATOM     82  O   UNL     1       9.419  -8.294   2.046  1.00  0.00    -0.237 OA
ATOM     83  O   UNL     1       7.383  -7.932   3.389  1.00  0.00    -0.237 OA
ATOM     84  O   UNL     1       8.181  -6.162   1.889  1.00  0.00    -0.744 OA
ENDBRANCH  78  81
ENDBRANCH  50  74
BRANCH  62  85
ATOM     85  C   UNL     1      17.116  -2.269   5.735  1.00  0.00     0.023 A 
ATOM     86  C   UNL     1      17.690  -2.857   4.591  1.00  0.00     0.012 A 
ATOM     87  C   UNL     1      17.865  -2.190   6.925  1.00  0.00     0.148 A 
ATOM     88  C   UNL     1      18.978  -3.387   4.641  1.00  0.00     0.002 A 
ATOM     89  C   UNL     1      19.168  -2.670   6.951  1.00  0.00     0.091 A 
ATOM     90  F   UNL     1      17.292  -1.643   8.007  1.00  0.00    -0.205 F 
ATOM     91  C   UNL     1      19.721  -3.281   5.814  1.00  0.00     0.022 A 
BRANCH  89  92
ATOM     92  S   UNL     1      20.234  -2.482   8.384  1.00  0.00     0.127 S 
ATOM     93  O   UNL     1      20.326  -3.859   8.868  1.00  0.00    -0.237 OA
ATOM     94  O   UNL     1      21.464  -1.962   7.787  1.00  0.00    -0.237 OA
ATOM     95  O   UNL     1      19.553  -1.552   9.274  1.00  0.00    -0.744 OA
ENDBRANCH  89  92
ENDBRANCH  62  85
ENDBRANCH  36  37
ENDBRANCH  28  31
ENDBRANCH  26  27
ENDBRANCH   1  26
TORSDOF 16
