REMARK SMILES Cc1cc(C)nc(N2CCCC[C@H]2C(=O)NCCCNC(=O)c2ccc(-c3c4nc(c(-c5cccc(S(=O)(=O)[O-])c5F)c5ccc([nH]5)c(-c5cccc(S(=O)(=O)[O-])c5F)c5nc(c(-c6cccc(S(=O)(=O)[O-])c6F)c6ccc3[nH]6)C=C5)C=C4)cc2)n1
REMARK SMILES IDX 19 1 18 2 17 3 16 4 14 5 15 6 13 8 8 9 9 10 10 11 12 12
REMARK SMILES IDX 11 13 7 14 1 15 2 16 3 17 86 18 4 19 5 20 6 21 20 22 21 23
REMARK SMILES IDX 22 25 23 26 24 27 85 28 25 29 84 30 26 31 27 32 28 33 78 34
REMARK SMILES IDX 29 35 83 36 77 37 79 38 30 39 82 40 76 41 75 42 31 44 63 45
REMARK SMILES IDX 43 46 62 47 44 48 47 49 61 50 80 51 45 52 46 53 60 55 81 56
REMARK SMILES IDX 48 57 32 58 33 59 41 60 34 61 36 62 42 63 35 64 37 65 38 66
REMARK SMILES IDX 39 67 40 68 64 69 65 70 73 71 66 72 68 73 74 74 67 75 69 76
REMARK SMILES IDX 70 77 71 78 72 79 49 80 50 81 58 82 51 83 53 84 59 85 52 86
REMARK SMILES IDX 54 87 55 88 56 89 57 90
REMARK H PARENT 16 7 20 24 79 43 47 54
REMARK Flexibility Score: inf
ROOT
ATOM      1  C   UNL     1       5.252  -0.530   1.017  1.00  0.00     0.118 C 
ENDROOT
BRANCH   1   2
ATOM      2  C   UNL     1       3.880  -0.555   1.659  1.00  0.00     0.042 C 
BRANCH   2   3
ATOM      3  C   UNL     1       2.900  -1.437   0.931  1.00  0.00     0.117 C 
BRANCH   3   4
ATOM      4  N   UNL     1       3.131  -2.847   1.072  1.00  0.00    -0.354 N 
ATOM      5  C   UNL     1       2.167  -3.815   1.071  1.00  0.00     0.242 C 
ATOM      6  O   UNL     1       2.564  -4.980   0.983  1.00  0.00    -0.273 OA
ATOM      7  H   UNL     1       4.065  -3.142   1.178  1.00  0.00     0.163 HD
BRANCH   5   8
ATOM      8  C   UNL     1       0.659  -3.429   1.213  1.00  0.00     0.174 C 
ATOM      9  N   UNL     1       0.048  -2.998  -0.051  1.00  0.00    -0.329 N 
ATOM     10  C   UNL     1      -0.046  -3.945  -1.136  1.00  0.00     0.120 C 
ATOM     11  C   UNL     1      -0.828  -5.173  -0.659  1.00  0.00     0.022 C 
ATOM     12  C   UNL     1      -0.135  -4.644   1.729  1.00  0.00     0.035 C 
ATOM     13  C   UNL     1      -0.316  -5.736   0.667  1.00  0.00     0.004 C 
BRANCH   9  14
ATOM     14  C   UNL     1      -0.230  -1.677  -0.288  1.00  0.00     0.226 A 
ATOM     15  C   UNL     1       1.758   1.303  -1.086  1.00  0.00     0.067 C 
ATOM     16  C   UNL     1       0.566   0.440  -0.789  1.00  0.00     0.043 A 
ATOM     17  C   UNL     1      -0.624   1.014  -0.418  1.00  0.00     0.047 A 
ATOM     18  N   UNL     1       0.742  -0.900  -0.786  1.00  0.00    -0.218 NA
ATOM     19  C   UNL     1      -1.623   0.142  -0.044  1.00  0.00     0.043 A 
ATOM     20  C   UNL     1      -2.980   0.688   0.285  1.00  0.00     0.067 C 
ATOM     21  N   UNL     1      -1.429  -1.194   0.065  1.00  0.00    -0.218 NA
ENDBRANCH   9  14
ENDBRANCH   5   8
ENDBRANCH   3   4
ENDBRANCH   2   3
ENDBRANCH   1   2
BRANCH   1  22
ATOM     22  N   UNL     1       5.256  -0.012  -0.352  1.00  0.00    -0.352 N 
ATOM     23  C   UNL     1       5.793   1.133  -0.890  1.00  0.00     0.251 C 
ATOM     24  H   UNL     1       4.792  -0.586  -1.004  1.00  0.00     0.163 HD
ATOM     25  O   UNL     1       5.530   1.437  -2.053  1.00  0.00    -0.269 OA
BRANCH  23  26
ATOM     26  C   UNL     1       6.654   2.017  -0.074  1.00  0.00     0.039 A 
ATOM     27  C   UNL     1       6.616   3.400  -0.273  1.00  0.00     0.014 A 
ATOM     28  C   UNL     1       7.495   1.486   0.900  1.00  0.00     0.014 A 
ATOM     29  C   UNL     1       7.366   4.237   0.557  1.00  0.00     0.010 A 
ATOM     30  C   UNL     1       8.084   2.319   1.834  1.00  0.00     0.010 A 
ATOM     31  C   UNL     1       8.075   3.704   1.645  1.00  0.00    -0.014 A 
BRANCH  31  32
ATOM     32  C   UNL     1       8.868   4.553   2.569  1.00  0.00     0.031 A 
ATOM     33  C   UNL     1      10.334   4.263   2.781  1.00  0.00     0.074 A 
ATOM     34  C   UNL     1       8.255   5.506   3.297  1.00  0.00     0.049 A 
ATOM     35  N   UNL     1      11.177   4.829   3.604  1.00  0.00    -0.248 NA
ATOM     36  C   UNL     1      10.918   3.151   2.008  1.00  0.00     0.031 C 
ATOM     37  C   UNL     1       6.821   5.801   3.274  1.00  0.00     0.029 A 
ATOM     38  N   UNL     1       8.760   6.383   4.223  1.00  0.00    -0.354 N 
ATOM     39  C   UNL     1      12.360   4.106   3.490  1.00  0.00     0.074 A 
ATOM     40  C   UNL     1      12.108   3.022   2.571  1.00  0.00     0.031 C 
ATOM     41  C   UNL     1       6.563   6.798   4.135  1.00  0.00     0.029 A 
ATOM     42  C   UNL     1       7.804   7.190   4.794  1.00  0.00     0.049 A 
ATOM     43  H   UNL     1       9.715   6.431   4.456  1.00  0.00     0.167 HD
ATOM     44  C   UNL     1      13.563   4.345   4.062  1.00  0.00     0.034 A 
ATOM     45  C   UNL     1       7.915   8.134   5.748  1.00  0.00     0.034 A 
ATOM     46  C   UNL     1      13.822   5.465   4.923  1.00  0.00     0.049 A 
ATOM     47  C   UNL     1       9.277   8.452   6.298  1.00  0.00     0.074 A 
ATOM     48  C   UNL     1      15.027   5.880   5.458  1.00  0.00     0.029 A 
ATOM     49  N   UNL     1      12.853   6.344   5.381  1.00  0.00    -0.354 N 
ATOM     50  N   UNL     1      10.425   7.873   6.041  1.00  0.00    -0.248 NA
ATOM     51  C   UNL     1       9.368   9.582   7.232  1.00  0.00     0.031 C 
ATOM     52  C   UNL     1      14.780   6.992   6.270  1.00  0.00     0.029 A 
ATOM     53  C   UNL     1      13.428   7.295   6.205  1.00  0.00     0.049 A 
ATOM     54  H   UNL     1      11.896   6.299   5.153  1.00  0.00     0.167 HD
ATOM     55  C   UNL     1      11.381   8.585   6.755  1.00  0.00     0.074 A 
ATOM     56  C   UNL     1      10.677   9.653   7.438  1.00  0.00     0.031 C 
ATOM     57  C   UNL     1      12.717   8.372   6.846  1.00  0.00     0.034 A 
BRANCH  44  58
ATOM     58  C   UNL     1      14.690   3.398   3.733  1.00  0.00     0.023 A 
ATOM     59  C   UNL     1      15.203   3.338   2.419  1.00  0.00     0.012 A 
ATOM     60  C   UNL     1      15.250   2.571   4.726  1.00  0.00     0.148 A 
ATOM     61  C   UNL     1      16.207   2.431   2.085  1.00  0.00     0.002 A 
ATOM     62  C   UNL     1      16.291   1.710   4.398  1.00  0.00     0.091 A 
ATOM     63  F   UNL     1      14.739   2.619   5.964  1.00  0.00    -0.205 F 
ATOM     64  C   UNL     1      16.758   1.624   3.076  1.00  0.00     0.022 A 
BRANCH  62  65
ATOM     65  S   UNL     1      17.127   0.697   5.623  1.00  0.00     0.127 S 
ATOM     66  O   UNL     1      16.624  -0.636   5.297  1.00  0.00    -0.237 OA
ATOM     67  O   UNL     1      18.536   0.915   5.292  1.00  0.00    -0.237 OA
ATOM     68  O   UNL     1      16.722   1.222   6.919  1.00  0.00    -0.744 OA
ENDBRANCH  62  65
ENDBRANCH  44  58
BRANCH  45  69
ATOM     69  C   UNL     1       6.703   8.884   6.179  1.00  0.00     0.023 A 
ATOM     70  C   UNL     1       6.536  10.227   5.788  1.00  0.00     0.012 A 
ATOM     71  C   UNL     1       5.683   8.249   6.913  1.00  0.00     0.148 A 
ATOM     72  C   UNL     1       5.385  10.931   6.143  1.00  0.00     0.002 A 
ATOM     73  C   UNL     1       4.514   8.937   7.212  1.00  0.00     0.091 A 
ATOM     74  F   UNL     1       5.866   6.971   7.275  1.00  0.00    -0.205 F 
ATOM     75  C   UNL     1       4.370  10.284   6.843  1.00  0.00     0.022 A 
BRANCH  73  76
ATOM     76  S   UNL     1       3.097   8.145   7.980  1.00  0.00     0.127 S 
ATOM     77  O   UNL     1       3.033   8.831   9.268  1.00  0.00    -0.237 OA
ATOM     78  O   UNL     1       2.023   8.485   7.046  1.00  0.00    -0.237 OA
ATOM     79  O   UNL     1       3.419   6.726   8.037  1.00  0.00    -0.744 OA
ENDBRANCH  73  76
ENDBRANCH  45  69
BRANCH  57  80
ATOM     80  C   UNL     1      13.520   9.332   7.684  1.00  0.00     0.023 A 
ATOM     81  C   UNL     1      13.398   9.320   9.087  1.00  0.00     0.012 A 
ATOM     82  C   UNL     1      14.444  10.205   7.076  1.00  0.00     0.148 A 
ATOM     83  C   UNL     1      14.155  10.191   9.870  1.00  0.00     0.002 A 
ATOM     84  C   UNL     1      15.234  11.030   7.866  1.00  0.00     0.091 A 
ATOM     85  F   UNL     1      14.532  10.214   5.738  1.00  0.00    -0.205 F 
ATOM     86  C   UNL     1      15.080  11.036   9.262  1.00  0.00     0.022 A 
BRANCH  84  87
ATOM     87  S   UNL     1      16.522  12.072   7.174  1.00  0.00     0.127 S 
ATOM     88  O   UNL     1      15.925  13.401   7.293  1.00  0.00    -0.237 OA
ATOM     89  O   UNL     1      17.644  11.823   8.080  1.00  0.00    -0.237 OA
ATOM     90  O   UNL     1      16.732  11.599   5.812  1.00  0.00    -0.744 OA
ENDBRANCH  84  87
ENDBRANCH  57  80
ENDBRANCH  31  32
ENDBRANCH  23  26
ENDBRANCH   1  22
TORSDOF 14
