REMARK SMILES Cc1ccc(O)c(C(=O)CCCC(=O)NCCCNC(=O)c2ccc(-c3c4nc(c(-c5cccc(S(=O)(=O)[O-])c5F)c5ccc([nH]5)c(-c5cccc(S(=O)(=O)[O-])c5F)c5nc(c(-c6cccc(S(=O)(=O)[O-])c6F)c6ccc3[nH]6)C=C5)C=C4)cc2)c1
REMARK SMILES IDX 16 1 15 2 13 3 14 4 12 6 11 7 10 8 8 9 9 10 7 11 1 12 2 13
REMARK SMILES IDX 3 14 85 15 4 16 5 17 6 18 17 20 18 21 19 22 20 23 21 25
REMARK SMILES IDX 22 26 23 27 84 28 24 29 83 30 25 31 26 32 27 33 77 34 28 35
REMARK SMILES IDX 82 36 76 37 78 38 29 39 81 40 75 41 74 42 30 44 62 45 42 46
REMARK SMILES IDX 61 47 43 48 46 49 60 50 79 51 44 52 45 53 59 55 80 56 47 57
REMARK SMILES IDX 31 58 32 59 40 60 33 61 35 62 41 63 34 64 36 65 37 66 38 67
REMARK SMILES IDX 39 68 63 69 64 70 72 71 65 72 67 73 73 74 66 75 68 76 69 77
REMARK SMILES IDX 70 78 71 79 48 80 49 81 57 82 50 83 52 84 58 85 51 86 53 87
REMARK SMILES IDX 54 88 55 89 56 90
REMARK H PARENT 15 5 6 19 19 24 78 43 46 54
REMARK Flexibility Score: inf
ROOT
ATOM      1  C   UNL     1       0.996  -2.955   1.668  1.00  0.00     0.117 C 
ENDROOT
BRANCH   1   2
ATOM      2  N   UNL     1       2.134  -3.609   1.062  1.00  0.00    -0.356 N 
ATOM      3  C   UNL     1       2.500  -3.910  -0.203  1.00  0.00     0.220 C 
ATOM      4  O   UNL     1       3.614  -4.441  -0.310  1.00  0.00    -0.275 OA
ATOM      5  H   UNL     1       2.798  -3.904   1.727  1.00  0.00     0.163 HD
BRANCH   3   6
ATOM      6  C   UNL     1       1.757  -3.530  -1.484  1.00  0.00     0.100 C 
BRANCH   6   7
ATOM      7  C   UNL     1       0.295  -3.849  -1.795  1.00  0.00     0.018 C 
BRANCH   7   8
ATOM      8  C   UNL     1      -0.905  -3.354  -0.995  1.00  0.00     0.082 C 
BRANCH   8   9
ATOM      9  C   UNL     1      -1.542  -1.957  -1.099  1.00  0.00     0.166 C 
ATOM     10  O   UNL     1      -2.748  -1.884  -1.373  1.00  0.00    -0.294 OA
BRANCH   9  11
ATOM     11  C   UNL     1      -0.883  -0.654  -0.729  1.00  0.00     0.060 A 
ATOM     12  C   UNL     1       2.591   0.780  -0.028  1.00  0.00     0.044 C 
ATOM     13  C   UNL     1       1.101   0.707  -0.206  1.00  0.00    -0.050 A 
ATOM     14  C   UNL     1       0.299   1.827  -0.018  1.00  0.00     0.007 A 
ATOM     15  C   UNL     1       0.494  -0.501  -0.583  1.00  0.00     0.019 A 
ATOM     16  C   UNL     1      -1.083   1.714  -0.155  1.00  0.00     0.047 A 
ATOM     17  C   UNL     1      -1.666   0.488  -0.492  1.00  0.00     0.126 A 
BRANCH  17  18
ATOM     18  O   UNL     1      -3.036   0.488  -0.546  1.00  0.00    -0.507 OA
ATOM     19  H   UNL     1      -3.511   1.278  -0.379  1.00  0.00     0.293 HD
ENDBRANCH  17  18
ENDBRANCH   9  11
ENDBRANCH   8   9
ENDBRANCH   7   8
ENDBRANCH   6   7
ENDBRANCH   3   6
ENDBRANCH   1   2
BRANCH   1  20
ATOM     20  C   UNL     1       0.052  -3.939   2.340  1.00  0.00     0.042 C 
BRANCH  20  21
ATOM     21  C   UNL     1       0.388  -4.158   3.799  1.00  0.00     0.118 C 
BRANCH  21  22
ATOM     22  N   UNL     1       0.009  -3.020   4.630  1.00  0.00    -0.352 N 
ATOM     23  C   UNL     1      -0.719  -3.003   5.797  1.00  0.00     0.251 C 
ATOM     24  H   UNL     1       0.319  -2.142   4.312  1.00  0.00     0.163 HD
ATOM     25  O   UNL     1      -1.068  -1.928   6.280  1.00  0.00    -0.269 OA
BRANCH  23  26
ATOM     26  C   UNL     1      -1.101  -4.276   6.448  1.00  0.00     0.039 A 
ATOM     27  C   UNL     1      -2.365  -4.399   7.028  1.00  0.00     0.014 A 
ATOM     28  C   UNL     1      -0.216  -5.356   6.468  1.00  0.00     0.014 A 
ATOM     29  C   UNL     1      -2.753  -5.621   7.585  1.00  0.00     0.010 A 
ATOM     30  C   UNL     1      -0.653  -6.601   6.894  1.00  0.00     0.010 A 
ATOM     31  C   UNL     1      -1.907  -6.740   7.500  1.00  0.00    -0.014 A 
BRANCH  31  32
ATOM     32  C   UNL     1      -2.275  -8.048   8.097  1.00  0.00     0.031 A 
ATOM     33  C   UNL     1      -1.391  -8.655   9.158  1.00  0.00     0.074 A 
ATOM     34  C   UNL     1      -3.345  -8.724   7.635  1.00  0.00     0.049 A 
ATOM     35  N   UNL     1      -1.497  -9.811   9.761  1.00  0.00    -0.248 NA
ATOM     36  C   UNL     1      -0.201  -7.884   9.563  1.00  0.00     0.031 C 
ATOM     37  C   UNL     1      -4.219  -8.291   6.543  1.00  0.00     0.029 A 
ATOM     38  N   UNL     1      -3.867  -9.934   8.016  1.00  0.00    -0.354 N 
ATOM     39  C   UNL     1      -0.371  -9.922  10.568  1.00  0.00     0.074 A 
ATOM     40  C   UNL     1       0.437  -8.748  10.336  1.00  0.00     0.031 C 
ATOM     41  C   UNL     1      -5.181  -9.210   6.357  1.00  0.00     0.029 A 
ATOM     42  C   UNL     1      -4.979 -10.307   7.297  1.00  0.00     0.049 A 
ATOM     43  H   UNL     1      -3.482 -10.484   8.736  1.00  0.00     0.167 HD
ATOM     44  C   UNL     1      -0.055 -10.890  11.461  1.00  0.00     0.034 A 
ATOM     45  C   UNL     1      -5.751 -11.406   7.395  1.00  0.00     0.034 A 
ATOM     46  C   UNL     1      -0.901 -12.015  11.744  1.00  0.00     0.049 A 
ATOM     47  C   UNL     1      -5.433 -12.421   8.461  1.00  0.00     0.074 A 
ATOM     48  C   UNL     1      -0.732 -13.003  12.697  1.00  0.00     0.029 A 
ATOM     49  N   UNL     1      -2.084 -12.296  11.079  1.00  0.00    -0.354 N 
ATOM     50  N   UNL     1      -4.447 -12.430   9.326  1.00  0.00    -0.248 NA
ATOM     51  C   UNL     1      -6.361 -13.552   8.596  1.00  0.00     0.031 C 
ATOM     52  C   UNL     1      -1.808 -13.891  12.597  1.00  0.00     0.029 A 
ATOM     53  C   UNL     1      -2.660 -13.440  11.601  1.00  0.00     0.049 A 
ATOM     54  H   UNL     1      -2.459 -11.760  10.343  1.00  0.00     0.167 HD
ATOM     55  C   UNL     1      -4.658 -13.541  10.134  1.00  0.00     0.074 A 
ATOM     56  C   UNL     1      -5.880 -14.167   9.668  1.00  0.00     0.031 C 
ATOM     57  C   UNL     1      -3.905 -14.012  11.159  1.00  0.00     0.034 A 
BRANCH  44  58
ATOM     58  C   UNL     1       1.225 -10.730  12.241  1.00  0.00     0.023 A 
ATOM     59  C   UNL     1       1.333  -9.704  13.204  1.00  0.00     0.012 A 
ATOM     60  C   UNL     1       2.308 -11.609  12.048  1.00  0.00     0.148 A 
ATOM     61  C   UNL     1       2.511  -9.526  13.928  1.00  0.00     0.002 A 
ATOM     62  C   UNL     1       3.462 -11.457  12.810  1.00  0.00     0.091 A 
ATOM     63  F   UNL     1       2.200 -12.564  11.113  1.00  0.00    -0.205 F 
ATOM     64  C   UNL     1       3.570 -10.408  13.738  1.00  0.00     0.022 A 
BRANCH  62  65
ATOM     65  S   UNL     1       4.851 -12.590  12.703  1.00  0.00     0.127 S 
ATOM     66  O   UNL     1       5.864 -11.755  12.057  1.00  0.00    -0.237 OA
ATOM     67  O   UNL     1       5.114 -12.887  14.111  1.00  0.00    -0.237 OA
ATOM     68  O   UNL     1       4.385 -13.725  11.919  1.00  0.00    -0.744 OA
ENDBRANCH  62  65
ENDBRANCH  44  58
BRANCH  45  69
ATOM     69  C   UNL     1      -6.953 -11.556   6.527  1.00  0.00     0.023 A 
ATOM     70  C   UNL     1      -8.236 -11.440   7.097  1.00  0.00     0.012 A 
ATOM     71  C   UNL     1      -6.837 -11.785   5.143  1.00  0.00     0.148 A 
ATOM     72  C   UNL     1      -9.381 -11.588   6.314  1.00  0.00     0.002 A 
ATOM     73  C   UNL     1      -7.981 -11.878   4.358  1.00  0.00     0.091 A 
ATOM     74  F   UNL     1      -5.608 -11.900   4.619  1.00  0.00    -0.205 F 
ATOM     75  C   UNL     1      -9.254 -11.798   4.944  1.00  0.00     0.022 A 
BRANCH  73  76
ATOM     76  S   UNL     1      -7.913 -12.019   2.568  1.00  0.00     0.127 S 
ATOM     77  O   UNL     1      -8.348 -13.397   2.360  1.00  0.00    -0.237 OA
ATOM     78  O   UNL     1      -8.873 -10.998   2.148  1.00  0.00    -0.237 OA
ATOM     79  O   UNL     1      -6.532 -11.729   2.205  1.00  0.00    -0.744 OA
ENDBRANCH  73  76
ENDBRANCH  45  69
BRANCH  57  80
ATOM     80  C   UNL     1      -4.402 -15.238  11.878  1.00  0.00     0.023 A 
ATOM     81  C   UNL     1      -4.357 -16.494  11.243  1.00  0.00     0.012 A 
ATOM     82  C   UNL     1      -4.859 -15.150  13.208  1.00  0.00     0.148 A 
ATOM     83  C   UNL     1      -4.801 -17.638  11.904  1.00  0.00     0.002 A 
ATOM     84  C   UNL     1      -5.250 -16.302  13.879  1.00  0.00     0.091 A 
ATOM     85  F   UNL     1      -4.913 -13.943  13.790  1.00  0.00    -0.205 F 
ATOM     86  C   UNL     1      -5.236 -17.544  13.224  1.00  0.00     0.022 A 
BRANCH  84  87
ATOM     87  S   UNL     1      -5.724 -16.282  15.611  1.00  0.00     0.127 S 
ATOM     88  O   UNL     1      -7.181 -16.367  15.522  1.00  0.00    -0.237 OA
ATOM     89  O   UNL     1      -5.073 -17.486  16.128  1.00  0.00    -0.237 OA
ATOM     90  O   UNL     1      -5.197 -15.036  16.152  1.00  0.00    -0.744 OA
ENDBRANCH  84  87
ENDBRANCH  57  80
ENDBRANCH  31  32
ENDBRANCH  23  26
ENDBRANCH  21  22
ENDBRANCH  20  21
ENDBRANCH   1  20
TORSDOF 18
