REMARK SMILES CC[C@](C)([NH2+]C[C@H]1Cc2ccccc2S1)C(=O)NCCCNC(=O)c1ccc(-c2c3nc(c(-c4cccc(S(=O)(=O)[O-])c4F)c4ccc([nH]4)c(-c4cccc(S(=O)(=O)[O-])c4F)c4nc(c(-c5cccc(S(=O)(=O)[O-])c5F)c5ccc2[nH]5)C=C4)C=C3)cc1
REMARK SMILES IDX 20 1 19 2 18 3 16 4 17 5 3 7 4 8 2 9 1 10 5 11 6 14 7 15
REMARK SMILES IDX 8 16 15 17 9 18 14 19 10 20 13 21 11 22 12 23 21 24 22 25
REMARK SMILES IDX 23 26 24 28 25 29 26 30 87 31 27 32 86 33 28 34 29 35 30 36
REMARK SMILES IDX 80 37 31 38 85 39 79 40 81 41 32 42 84 43 78 44 77 45 33 47
REMARK SMILES IDX 65 48 45 49 64 50 46 51 49 52 63 53 82 54 47 55 48 56 62 58
REMARK SMILES IDX 83 59 50 60 34 61 35 62 43 63 36 64 38 65 44 66 37 67 39 68
REMARK SMILES IDX 40 69 41 70 42 71 66 72 67 73 75 74 68 75 70 76 76 77 69 78
REMARK SMILES IDX 71 79 72 80 73 81 74 82 51 83 52 84 60 85 53 86 55 87 61 88
REMARK SMILES IDX 54 89 56 90 57 91 58 92 59 93
REMARK H PARENT 18 6 5 12 5 13 22 27 81 46 49 57
REMARK Flexibility Score: inf
ROOT
ATOM      1  C   UNL     1       3.423   1.247   5.547  1.00  0.00     0.042 C 
ENDROOT
BRANCH   1   2
ATOM      2  C   UNL     1       3.194   1.670   4.099  1.00  0.00     0.118 C 
BRANCH   2   3
ATOM      3  N   UNL     1       3.386   0.576   3.186  1.00  0.00    -0.351 N 
ATOM      4  C   UNL     1       2.541  -0.187   2.454  1.00  0.00     0.281 C 
ATOM      5  O   UNL     1       3.158  -0.994   1.735  1.00  0.00    -0.268 OA
ATOM      6  H   UNL     1       4.332   0.329   3.068  1.00  0.00     0.163 HD
BRANCH   4   7
ATOM      7  C   UNL     1       0.967  -0.046   2.323  1.00  0.00     0.172 C 
ATOM      8  C   UNL     1       0.592  -1.324   1.486  1.00  0.00     0.090 C 
BRANCH   7   9
ATOM      9  C   UNL     1       0.580   1.183   1.472  1.00  0.00     0.075 C 
ATOM     10  C   UNL     1      -0.763   1.098   0.743  1.00  0.00     0.011 C 
ENDBRANCH   7   9
BRANCH   7  11
ATOM     11  N   UNL     1       0.135  -0.230   3.542  1.00  0.00    -0.333 N 
ATOM     12  H   UNL     1       0.335  -1.182   3.849  1.00  0.00     0.347 HD
ATOM     13  H   UNL     1      -0.759   0.085   3.164  1.00  0.00     0.347 HD
BRANCH  11  14
ATOM     14  C   UNL     1       0.142   0.561   4.769  1.00  0.00     0.276 C 
BRANCH  14  15
ATOM     15  C   UNL     1      -0.600   1.924   4.988  1.00  0.00     0.111 C 
ATOM     16  C   UNL     1      -0.586   2.299   6.504  1.00  0.00     0.057 C 
ATOM     17  S   UNL     1       0.030   3.412   4.114  1.00  0.00    -0.116 SA
ATOM     18  C   UNL     1      -0.406   3.782   6.671  1.00  0.00    -0.033 A 
ATOM     19  C   UNL     1       0.015   4.448   5.528  1.00  0.00     0.011 A 
ATOM     20  C   UNL     1      -0.542   4.484   7.865  1.00  0.00     0.005 A 
ATOM     21  C   UNL     1       0.359   5.794   5.553  1.00  0.00     0.015 A 
ATOM     22  C   UNL     1      -0.237   5.850   7.896  1.00  0.00     0.000 A 
ATOM     23  C   UNL     1       0.230   6.499   6.747  1.00  0.00     0.001 A 
ENDBRANCH  14  15
ENDBRANCH  11  14
ENDBRANCH   7  11
ENDBRANCH   4   7
ENDBRANCH   2   3
ENDBRANCH   1   2
BRANCH   1  24
ATOM     24  C   UNL     1       4.875   1.296   5.987  1.00  0.00     0.118 C 
BRANCH  24  25
ATOM     25  N   UNL     1       5.354   2.656   6.190  1.00  0.00    -0.352 N 
ATOM     26  C   UNL     1       5.809   3.290   7.324  1.00  0.00     0.251 C 
ATOM     27  H   UNL     1       5.353   3.216   5.381  1.00  0.00     0.163 HD
ATOM     28  O   UNL     1       6.010   4.503   7.284  1.00  0.00    -0.269 OA
BRANCH  26  29
ATOM     29  C   UNL     1       6.020   2.545   8.589  1.00  0.00     0.039 A 
ATOM     30  C   UNL     1       6.497   1.236   8.591  1.00  0.00     0.014 A 
ATOM     31  C   UNL     1       5.741   3.173   9.809  1.00  0.00     0.014 A 
ATOM     32  C   UNL     1       6.483   0.492   9.765  1.00  0.00     0.010 A 
ATOM     33  C   UNL     1       5.858   2.460  11.009  1.00  0.00     0.010 A 
ATOM     34  C   UNL     1       6.177   1.095  10.995  1.00  0.00    -0.014 A 
BRANCH  34  35
ATOM     35  C   UNL     1       6.231   0.279  12.239  1.00  0.00     0.031 A 
ATOM     36  C   UNL     1       5.017   0.112  13.118  1.00  0.00     0.074 A 
ATOM     37  C   UNL     1       7.379  -0.354  12.558  1.00  0.00     0.049 A 
ATOM     38  N   UNL     1       4.897  -0.577  14.225  1.00  0.00    -0.248 NA
ATOM     39  C   UNL     1       3.782   0.805  12.714  1.00  0.00     0.031 C 
ATOM     40  C   UNL     1       8.633  -0.256  11.803  1.00  0.00     0.029 A 
ATOM     41  N   UNL     1       7.680  -1.216  13.582  1.00  0.00    -0.354 N 
ATOM     42  C   UNL     1       3.599  -0.363  14.672  1.00  0.00     0.074 A 
ATOM     43  C   UNL     1       2.965   0.522  13.721  1.00  0.00     0.031 C 
ATOM     44  C   UNL     1       9.546  -1.067  12.355  1.00  0.00     0.029 A 
ATOM     45  C   UNL     1       8.972  -1.687  13.543  1.00  0.00     0.049 A 
ATOM     46  H   UNL     1       7.034  -1.472  14.279  1.00  0.00     0.167 HD
ATOM     47  C   UNL     1       2.985  -0.873  15.765  1.00  0.00     0.034 A 
ATOM     48  C   UNL     1       9.636  -2.513  14.374  1.00  0.00     0.034 A 
ATOM     49  C   UNL     1       3.595  -1.801  16.679  1.00  0.00     0.049 A 
ATOM     50  C   UNL     1       8.929  -3.069  15.572  1.00  0.00     0.074 A 
ATOM     51  C   UNL     1       3.026  -2.413  17.782  1.00  0.00     0.029 A 
ATOM     52  N   UNL     1       4.902  -2.252  16.598  1.00  0.00    -0.354 N 
ATOM     53  N   UNL     1       7.679  -2.909  15.932  1.00  0.00    -0.248 NA
ATOM     54  C   UNL     1       9.713  -3.924  16.474  1.00  0.00     0.031 C 
ATOM     55  C   UNL     1       3.995  -3.225  18.378  1.00  0.00     0.029 A 
ATOM     56  C   UNL     1       5.161  -3.129  17.636  1.00  0.00     0.049 A 
ATOM     57  H   UNL     1       5.550  -1.988  15.905  1.00  0.00     0.167 HD
ATOM     58  C   UNL     1       7.523  -3.649  17.096  1.00  0.00     0.074 A 
ATOM     59  C   UNL     1       8.800  -4.276  17.371  1.00  0.00     0.031 C 
ATOM     60  C   UNL     1       6.423  -3.779  17.875  1.00  0.00     0.034 A 
BRANCH  47  61
ATOM     61  C   UNL     1       1.554  -0.487  16.026  1.00  0.00     0.023 A 
ATOM     62  C   UNL     1       0.526  -1.116  15.297  1.00  0.00     0.012 A 
ATOM     63  C   UNL     1       1.225   0.401  17.069  1.00  0.00     0.148 A 
ATOM     64  C   UNL     1      -0.812  -0.862  15.597  1.00  0.00     0.002 A 
ATOM     65  C   UNL     1      -0.111   0.627  17.381  1.00  0.00     0.091 A 
ATOM     66  F   UNL     1       2.222   0.991  17.742  1.00  0.00    -0.205 F 
ATOM     67  C   UNL     1      -1.129  -0.000  16.644  1.00  0.00     0.022 A 
BRANCH  65  68
ATOM     68  S   UNL     1      -0.630   1.677  18.744  1.00  0.00     0.127 S 
ATOM     69  O   UNL     1      -1.337   2.745  18.037  1.00  0.00    -0.237 OA
ATOM     70  O   UNL     1      -1.493   0.778  19.510  1.00  0.00    -0.237 OA
ATOM     71  O   UNL     1       0.588   2.089  19.425  1.00  0.00    -0.744 OA
ENDBRANCH  65  68
ENDBRANCH  47  61
BRANCH  48  72
ATOM     72  C   UNL     1      11.045  -2.874  14.064  1.00  0.00     0.023 A 
ATOM     73  C   UNL     1      11.334  -4.155  13.561  1.00  0.00     0.012 A 
ATOM     74  C   UNL     1      12.080  -1.925  14.181  1.00  0.00     0.148 A 
ATOM     75  C   UNL     1      12.634  -4.488  13.179  1.00  0.00     0.002 A 
ATOM     76  C   UNL     1      13.363  -2.249  13.758  1.00  0.00     0.091 A 
ATOM     77  F   UNL     1      11.775  -0.713  14.664  1.00  0.00    -0.205 F 
ATOM     78  C   UNL     1      13.645  -3.533  13.266  1.00  0.00     0.022 A 
BRANCH  76  79
ATOM     79  S   UNL     1      14.703  -1.054  13.728  1.00  0.00     0.127 S 
ATOM     80  O   UNL     1      15.642  -1.635  14.685  1.00  0.00    -0.237 OA
ATOM     81  O   UNL     1      15.128  -1.119  12.330  1.00  0.00    -0.237 OA
ATOM     82  O   UNL     1      14.113   0.217  14.125  1.00  0.00    -0.744 OA
ENDBRANCH  76  79
ENDBRANCH  48  72
BRANCH  60  83
ATOM     83  C   UNL     1       6.526  -4.636  19.104  1.00  0.00     0.023 A 
ATOM     84  C   UNL     1       7.134  -4.111  20.260  1.00  0.00     0.012 A 
ATOM     85  C   UNL     1       5.903  -5.898  19.153  1.00  0.00     0.148 A 
ATOM     86  C   UNL     1       7.125  -4.835  21.451  1.00  0.00     0.002 A 
ATOM     87  C   UNL     1       5.868  -6.598  20.352  1.00  0.00     0.091 A 
ATOM     88  F   UNL     1       5.337  -6.373  18.035  1.00  0.00    -0.205 F 
ATOM     89  C   UNL     1       6.482  -6.070  21.500  1.00  0.00     0.022 A 
BRANCH  87  90
ATOM     90  S   UNL     1       5.002  -8.161  20.537  1.00  0.00     0.127 S 
ATOM     91  O   UNL     1       6.104  -9.079  20.823  1.00  0.00    -0.237 OA
ATOM     92  O   UNL     1       4.120  -7.891  21.672  1.00  0.00    -0.237 OA
ATOM     93  O   UNL     1       4.316  -8.396  19.273  1.00  0.00    -0.744 OA
ENDBRANCH  87  90
ENDBRANCH  60  83
ENDBRANCH  34  35
ENDBRANCH  26  29
ENDBRANCH  24  25
ENDBRANCH   1  24
TORSDOF 17
