REMARK SMILES Cc1cc(C)c2c(C(=O)NCCCNC(=O)c3ccc(-c4c5nc(c(-c6cccc(S(=O)(=O)[O-])c6F)c6ccc([nH]6)c(-c6cccc(S(=O)(=O)[O-])c6F)c6nc(c(-c7cccc(S(=O)(=O)[O-])c7F)c7ccc4[nH]7)C=C6)C=C5)cc3)cc(-c3ccco3)nc2c1
REMARK SMILES IDX 13 1 12 2 11 3 10 4 8 5 9 6 7 8 1 9 2 10 3 11 89 12 4 13
REMARK SMILES IDX 88 14 5 15 6 16 87 17 81 18 80 19 82 20 83 21 86 22 84 23
REMARK SMILES IDX 85 24 14 25 15 26 16 28 17 29 18 30 79 31 19 32 78 33 20 34
REMARK SMILES IDX 21 35 22 36 72 37 23 38 77 39 71 40 73 41 24 42 76 43 70 44
REMARK SMILES IDX 69 45 25 47 57 48 37 49 56 50 38 51 41 52 55 53 74 54 39 55
REMARK SMILES IDX 40 56 54 58 75 59 42 60 26 61 27 62 35 63 28 64 30 65 36 66
REMARK SMILES IDX 29 67 31 68 32 69 33 70 34 71 58 72 59 73 67 74 60 75 62 76
REMARK SMILES IDX 68 77 61 78 63 79 64 80 65 81 66 82 43 83 44 84 52 85 45 86
REMARK SMILES IDX 47 87 53 88 46 89 48 90 49 91 50 92 51 93
REMARK H PARENT 10 7 14 27 73 46 41 57
REMARK Flexibility Score: inf
ROOT
ATOM      1  C   UNL     1       2.563   6.578  -2.841  1.00  0.00     0.118 C 
ENDROOT
BRANCH   1   2
ATOM      2  C   UNL     1       1.403   5.596  -2.691  1.00  0.00     0.042 C 
BRANCH   2   3
ATOM      3  C   UNL     1       1.091   5.203  -1.253  1.00  0.00     0.118 C 
BRANCH   3   4
ATOM      4  N   UNL     1       0.830   6.328  -0.361  1.00  0.00    -0.352 N 
ATOM      5  C   UNL     1       0.218   6.381   0.869  1.00  0.00     0.252 C 
ATOM      6  O   UNL     1       0.190   7.457   1.466  1.00  0.00    -0.269 OA
ATOM      7  H   UNL     1       1.147   7.197  -0.697  1.00  0.00     0.163 HD
BRANCH   5   8
ATOM      8  C   UNL     1      -0.503   5.221   1.449  1.00  0.00     0.051 A 
ATOM      9  C   UNL     1       0.693  -0.202   0.307  1.00  0.00     0.044 C 
ATOM     10  C   UNL     1       0.491   1.182   0.845  1.00  0.00    -0.049 A 
ATOM     11  C   UNL     1       1.547   2.080   0.946  1.00  0.00     0.007 A 
ATOM     12  C   UNL     1      -0.779   1.601   1.253  1.00  0.00     0.032 A 
ATOM     13  C   UNL     1       1.310   3.417   1.299  1.00  0.00    -0.041 A 
ATOM     14  C   UNL     1      -1.047   2.916   1.604  1.00  0.00     0.072 A 
ATOM     15  C   UNL     1       2.515   4.255   1.655  1.00  0.00     0.045 C 
ATOM     16  C   UNL     1      -0.035   3.881   1.447  1.00  0.00     0.016 A 
ATOM     17  N   UNL     1      -2.276   3.202   2.064  1.00  0.00    -0.244 NA
ATOM     18  C   UNL     1      -2.594   4.489   2.304  1.00  0.00     0.107 A 
ATOM     19  C   UNL     1      -1.780   5.530   1.927  1.00  0.00     0.046 A 
BRANCH  18  20
ATOM     20  C   UNL     1      -3.837   4.719   3.019  1.00  0.00     0.152 A 
ATOM     21  C   UNL     1      -4.949   5.511   2.811  1.00  0.00     0.052 A 
ATOM     22  O   UNL     1      -3.938   4.099   4.235  1.00  0.00    -0.463 OA
ATOM     23  C   UNL     1      -5.772   5.361   3.956  1.00  0.00     0.043 A 
ATOM     24  C   UNL     1      -5.108   4.497   4.794  1.00  0.00     0.196 A 
ENDBRANCH  18  20
ENDBRANCH   5   8
ENDBRANCH   3   4
ENDBRANCH   2   3
ENDBRANCH   1   2
BRANCH   1  25
ATOM     25  N   UNL     1       3.854   6.056  -2.406  1.00  0.00    -0.352 N 
ATOM     26  C   UNL     1       4.875   5.450  -3.107  1.00  0.00     0.251 C 
ATOM     27  H   UNL     1       4.027   6.154  -1.442  1.00  0.00     0.163 HD
ATOM     28  O   UNL     1       5.835   4.991  -2.501  1.00  0.00    -0.269 OA
BRANCH  26  29
ATOM     29  C   UNL     1       4.795   5.308  -4.578  1.00  0.00     0.039 A 
ATOM     30  C   UNL     1       5.142   4.085  -5.160  1.00  0.00     0.014 A 
ATOM     31  C   UNL     1       4.381   6.367  -5.384  1.00  0.00     0.014 A 
ATOM     32  C   UNL     1       4.969   3.895  -6.535  1.00  0.00     0.010 A 
ATOM     33  C   UNL     1       4.109   6.146  -6.729  1.00  0.00     0.010 A 
ATOM     34  C   UNL     1       4.401   4.909  -7.321  1.00  0.00    -0.014 A 
BRANCH  34  35
ATOM     35  C   UNL     1       4.110   4.722  -8.765  1.00  0.00     0.031 A 
ATOM     36  C   UNL     1       4.766   5.619  -9.780  1.00  0.00     0.074 A 
ATOM     37  C   UNL     1       3.179   3.828  -9.154  1.00  0.00     0.049 A 
ATOM     38  N   UNL     1       4.537   5.716 -11.063  1.00  0.00    -0.248 NA
ATOM     39  C   UNL     1       5.788   6.557  -9.282  1.00  0.00     0.031 C 
ATOM     40  C   UNL     1       2.419   2.949  -8.261  1.00  0.00     0.029 A 
ATOM     41  N   UNL     1       2.692   3.529 -10.402  1.00  0.00    -0.354 N 
ATOM     42  C   UNL     1       5.343   6.754 -11.513  1.00  0.00     0.074 A 
ATOM     43  C   UNL     1       6.047   7.277 -10.364  1.00  0.00     0.031 C 
ATOM     44  C   UNL     1       1.577   2.200  -8.991  1.00  0.00     0.029 A 
ATOM     45  C   UNL     1       1.712   2.565 -10.398  1.00  0.00     0.049 A 
ATOM     46  H   UNL     1       3.015   3.965 -11.224  1.00  0.00     0.167 HD
ATOM     47  C   UNL     1       5.514   7.207 -12.776  1.00  0.00     0.034 A 
ATOM     48  C   UNL     1       1.002   2.033 -11.413  1.00  0.00     0.034 A 
ATOM     49  C   UNL     1       4.884   6.629 -13.929  1.00  0.00     0.049 A 
ATOM     50  C   UNL     1       1.260   2.505 -12.816  1.00  0.00     0.074 A 
ATOM     51  C   UNL     1       5.066   6.957 -15.260  1.00  0.00     0.029 A 
ATOM     52  N   UNL     1       3.967   5.592 -13.889  1.00  0.00    -0.354 N 
ATOM     53  N   UNL     1       2.107   3.415 -13.233  1.00  0.00    -0.248 NA
ATOM     54  C   UNL     1       0.489   1.864 -13.892  1.00  0.00     0.031 C 
ATOM     55  C   UNL     1       4.263   6.111 -16.028  1.00  0.00     0.029 A 
ATOM     56  C   UNL     1       3.582   5.258 -15.173  1.00  0.00     0.049 A 
ATOM     57  H   UNL     1       3.639   5.158 -13.069  1.00  0.00     0.167 HD
ATOM     58  C   UNL     1       1.990   3.439 -14.617  1.00  0.00     0.074 A 
ATOM     59  C   UNL     1       0.998   2.445 -14.972  1.00  0.00     0.031 C 
ATOM     60  C   UNL     1       2.636   4.226 -15.510  1.00  0.00     0.034 A 
BRANCH  47  61
ATOM     61  C   UNL     1       6.492   8.327 -12.990  1.00  0.00     0.023 A 
ATOM     62  C   UNL     1       7.872   8.044 -12.959  1.00  0.00     0.012 A 
ATOM     63  C   UNL     1       6.055   9.632 -13.285  1.00  0.00     0.148 A 
ATOM     64  C   UNL     1       8.807   9.049 -13.197  1.00  0.00     0.002 A 
ATOM     65  C   UNL     1       6.993  10.623 -13.554  1.00  0.00     0.091 A 
ATOM     66  F   UNL     1       4.737   9.878 -13.295  1.00  0.00    -0.205 F 
ATOM     67  C   UNL     1       8.368  10.334 -13.503  1.00  0.00     0.022 A 
BRANCH  65  68
ATOM     68  S   UNL     1       6.538  12.300 -14.008  1.00  0.00     0.127 S 
ATOM     69  O   UNL     1       7.068  13.064 -12.878  1.00  0.00    -0.237 OA
ATOM     70  O   UNL     1       7.265  12.484 -15.263  1.00  0.00    -0.237 OA
ATOM     71  O   UNL     1       5.088  12.307 -14.131  1.00  0.00    -0.744 OA
ENDBRANCH  65  68
ENDBRANCH  47  61
BRANCH  48  72
ATOM     72  C   UNL     1       0.050   0.922 -11.139  1.00  0.00     0.023 A 
ATOM     73  C   UNL     1       0.435  -0.395 -11.457  1.00  0.00     0.012 A 
ATOM     74  C   UNL     1      -1.192   1.146 -10.514  1.00  0.00     0.148 A 
ATOM     75  C   UNL     1      -0.404  -1.470 -11.170  1.00  0.00     0.002 A 
ATOM     76  C   UNL     1      -2.009   0.066 -10.198  1.00  0.00     0.091 A 
ATOM     77  F   UNL     1      -1.533   2.408 -10.219  1.00  0.00    -0.205 F 
ATOM     78  C   UNL     1      -1.621  -1.242 -10.534  1.00  0.00     0.022 A 
BRANCH  76  79
ATOM     79  S   UNL     1      -3.551   0.243  -9.293  1.00  0.00     0.127 S 
ATOM     80  O   UNL     1      -4.527  -0.235 -10.270  1.00  0.00    -0.237 OA
ATOM     81  O   UNL     1      -3.331  -0.649  -8.154  1.00  0.00    -0.237 OA
ATOM     82  O   UNL     1      -3.650   1.654  -8.949  1.00  0.00    -0.744 OA
ENDBRANCH  76  79
ENDBRANCH  48  72
BRANCH  60  83
ATOM     83  C   UNL     1       2.322   4.050 -16.969  1.00  0.00     0.023 A 
ATOM     84  C   UNL     1       1.167   4.655 -17.500  1.00  0.00     0.012 A 
ATOM     85  C   UNL     1       3.243   3.423 -17.830  1.00  0.00     0.148 A 
ATOM     86  C   UNL     1       0.932   4.636 -18.873  1.00  0.00     0.002 A 
ATOM     87  C   UNL     1       3.018   3.438 -19.201  1.00  0.00     0.091 A 
ATOM     88  F   UNL     1       4.329   2.849 -17.293  1.00  0.00    -0.205 F 
ATOM     89  C   UNL     1       1.862   4.041 -19.723  1.00  0.00     0.022 A 
BRANCH  87  90
ATOM     90  S   UNL     1       4.196   2.772 -20.382  1.00  0.00     0.127 S 
ATOM     91  O   UNL     1       3.464   1.625 -20.918  1.00  0.00    -0.237 OA
ATOM     92  O   UNL     1       4.358   3.885 -21.318  1.00  0.00    -0.237 OA
ATOM     93  O   UNL     1       5.392   2.442 -19.618  1.00  0.00    -0.744 OA
ENDBRANCH  87  90
ENDBRANCH  60  83
ENDBRANCH  34  35
ENDBRANCH  26  29
ENDBRANCH   1  25
TORSDOF 14
