REMARK SMILES Cc1cccc(NC(=O)C[C@@H]2CCCCO2)c1C(=O)NCCCNC(=O)c1ccc(-c2c3nc(c(-c4cccc(S(=O)(=O)[O-])c4F)c4ccc([nH]4)c(-c4cccc(S(=O)(=O)[O-])c4F)c4nc(c(-c5cccc(S(=O)(=O)[O-])c5F)c5ccc2[nH]5)C=C4)C=C3)cc1
REMARK SMILES IDX 22 1 21 2 20 3 18 4 19 5 17 7 1 8 2 9 3 10 4 11 6 12 5 13
REMARK SMILES IDX 7 14 8 15 9 17 10 18 11 19 12 20 16 21 13 22 15 23 14 24
REMARK SMILES IDX 23 25 24 26 25 27 26 29 27 30 28 31 89 32 29 33 88 34 30 35
REMARK SMILES IDX 31 36 32 37 82 38 33 39 87 40 81 41 83 42 34 43 86 44 80 45
REMARK SMILES IDX 79 46 35 48 67 49 47 50 66 51 48 52 51 53 65 54 84 55 49 56
REMARK SMILES IDX 50 57 64 59 85 60 52 61 36 62 37 63 45 64 38 65 40 66 46 67
REMARK SMILES IDX 39 68 41 69 42 70 43 71 44 72 68 73 69 74 77 75 70 76 72 77
REMARK SMILES IDX 78 78 71 79 73 80 74 81 75 82 76 83 53 84 54 85 62 86 55 87
REMARK SMILES IDX 57 88 63 89 56 90 58 91 59 92 60 93 61 94
REMARK H PARENT 20 6 7 16 24 28 83 47 51 58
REMARK Flexibility Score: inf
ROOT
ATOM      1  C   UNL     1       4.239   0.709  -0.427  1.00  0.00     0.042 C 
ENDROOT
BRANCH   1   2
ATOM      2  C   UNL     1       3.400   1.516   0.564  1.00  0.00     0.118 C 
BRANCH   2   3
ATOM      3  N   UNL     1       2.361   2.288  -0.096  1.00  0.00    -0.352 N 
ATOM      4  C   UNL     1       0.998   2.110  -0.181  1.00  0.00     0.253 C 
ATOM      5  O   UNL     1       0.341   2.987  -0.741  1.00  0.00    -0.269 OA
ATOM      6  H   UNL     1       2.693   3.084  -0.569  1.00  0.00     0.163 HD
BRANCH   4   7
ATOM      7  C   UNL     1       0.288   0.977   0.495  1.00  0.00     0.066 A 
ATOM      8  C   UNL     1       1.549  -0.910  -0.682  1.00  0.00     0.045 C 
ATOM      9  C   UNL     1       0.714  -0.366   0.442  1.00  0.00    -0.036 A 
ATOM     10  C   UNL     1       0.157  -1.313   1.320  1.00  0.00     0.004 A 
ATOM     11  C   UNL     1      -0.904  -0.968   2.146  1.00  0.00     0.002 A 
ATOM     12  C   UNL     1      -0.969   1.219   1.098  1.00  0.00     0.054 A 
ATOM     13  C   UNL     1      -1.493   0.285   2.002  1.00  0.00     0.027 A 
BRANCH  12  14
ATOM     14  N   UNL     1      -1.754   2.313   0.658  1.00  0.00    -0.325 N 
ATOM     15  C   UNL     1      -3.055   2.333   0.204  1.00  0.00     0.227 C 
ATOM     16  H   UNL     1      -1.304   3.189   0.681  1.00  0.00     0.169 HD
ATOM     17  O   UNL     1      -3.538   3.402  -0.184  1.00  0.00    -0.275 OA
BRANCH  15  18
ATOM     18  C   UNL     1      -3.902   1.073   0.144  1.00  0.00     0.132 C 
BRANCH  18  19
ATOM     19  C   UNL     1      -4.198   0.537  -1.271  1.00  0.00     0.127 C 
ATOM     20  C   UNL     1      -4.918  -0.822  -1.206  1.00  0.00     0.033 C 
ATOM     21  O   UNL     1      -3.071   0.402  -2.139  1.00  0.00    -0.378 OA
ATOM     22  C   UNL     1      -3.985  -1.940  -0.739  1.00  0.00     0.005 C 
ATOM     23  C   UNL     1      -2.125  -0.591  -1.776  1.00  0.00     0.160 C 
ATOM     24  C   UNL     1      -2.723  -1.975  -1.589  1.00  0.00     0.029 C 
ENDBRANCH  18  19
ENDBRANCH  15  18
ENDBRANCH  12  14
ENDBRANCH   4   7
ENDBRANCH   2   3
ENDBRANCH   1   2
BRANCH   1  25
ATOM     25  C   UNL     1       5.492   1.400  -0.937  1.00  0.00     0.118 C 
BRANCH  25  26
ATOM     26  N   UNL     1       6.528   0.402  -1.236  1.00  0.00    -0.352 N 
ATOM     27  C   UNL     1       7.653   0.513  -2.036  1.00  0.00     0.251 C 
ATOM     28  H   UNL     1       6.405  -0.475  -0.805  1.00  0.00     0.163 HD
ATOM     29  O   UNL     1       8.441  -0.407  -2.157  1.00  0.00    -0.269 OA
BRANCH  27  30
ATOM     30  C   UNL     1       7.871   1.823  -2.671  1.00  0.00     0.039 A 
ATOM     31  C   UNL     1       8.788   2.673  -2.048  1.00  0.00     0.014 A 
ATOM     32  C   UNL     1       6.871   2.301  -3.515  1.00  0.00     0.014 A 
ATOM     33  C   UNL     1       8.538   4.037  -2.056  1.00  0.00     0.010 A 
ATOM     34  C   UNL     1       6.589   3.651  -3.468  1.00  0.00     0.010 A 
ATOM     35  C   UNL     1       7.372   4.495  -2.667  1.00  0.00    -0.014 A 
BRANCH  35  36
ATOM     36  C   UNL     1       6.889   5.858  -2.520  1.00  0.00     0.031 A 
ATOM     37  C   UNL     1       7.355   6.871  -3.475  1.00  0.00     0.074 A 
ATOM     38  C   UNL     1       6.038   6.205  -1.531  1.00  0.00     0.049 A 
ATOM     39  N   UNL     1       7.365   8.137  -3.241  1.00  0.00    -0.248 NA
ATOM     40  C   UNL     1       7.927   6.499  -4.759  1.00  0.00     0.031 C 
ATOM     41  C   UNL     1       5.270   7.440  -1.425  1.00  0.00     0.029 A 
ATOM     42  N   UNL     1       5.897   5.603  -0.278  1.00  0.00    -0.354 N 
ATOM     43  C   UNL     1       7.675   8.764  -4.427  1.00  0.00     0.074 A 
ATOM     44  C   UNL     1       8.120   7.703  -5.299  1.00  0.00     0.031 C 
ATOM     45  C   UNL     1       4.983   7.659  -0.133  1.00  0.00     0.029 A 
ATOM     46  C   UNL     1       5.684   6.651   0.641  1.00  0.00     0.049 A 
ATOM     47  H   UNL     1       5.939   4.640  -0.078  1.00  0.00     0.167 HD
ATOM     48  C   UNL     1       7.361  10.082  -4.570  1.00  0.00     0.034 A 
ATOM     49  C   UNL     1       6.465   6.880   1.737  1.00  0.00     0.034 A 
ATOM     50  C   UNL     1       6.896  10.662  -3.296  1.00  0.00     0.049 A 
ATOM     51  C   UNL     1       7.060   8.282   1.781  1.00  0.00     0.074 A 
ATOM     52  C   UNL     1       5.650  10.967  -2.769  1.00  0.00     0.029 A 
ATOM     53  N   UNL     1       7.787  10.759  -2.236  1.00  0.00    -0.354 N 
ATOM     54  N   UNL     1       6.844   9.221   0.901  1.00  0.00    -0.248 NA
ATOM     55  C   UNL     1       8.068   8.668   2.766  1.00  0.00     0.031 C 
ATOM     56  C   UNL     1       5.804  11.237  -1.377  1.00  0.00     0.029 A 
ATOM     57  C   UNL     1       7.144  11.117  -1.059  1.00  0.00     0.049 A 
ATOM     58  H   UNL     1       8.755  10.595  -2.310  1.00  0.00     0.167 HD
ATOM     59  C   UNL     1       7.776  10.223   1.064  1.00  0.00     0.074 A 
ATOM     60  C   UNL     1       8.507   9.829   2.257  1.00  0.00     0.031 C 
ATOM     61  C   UNL     1       7.935  11.246   0.163  1.00  0.00     0.034 A 
BRANCH  48  62
ATOM     62  C   UNL     1       7.169  10.766  -5.918  1.00  0.00     0.023 A 
ATOM     63  C   UNL     1       6.366  11.928  -5.945  1.00  0.00     0.012 A 
ATOM     64  C   UNL     1       7.628  10.315  -7.177  1.00  0.00     0.148 A 
ATOM     65  C   UNL     1       5.943  12.524  -7.140  1.00  0.00     0.002 A 
ATOM     66  C   UNL     1       7.145  10.855  -8.372  1.00  0.00     0.091 A 
ATOM     67  F   UNL     1       8.620   9.426  -7.248  1.00  0.00    -0.205 F 
ATOM     68  C   UNL     1       6.295  11.961  -8.357  1.00  0.00     0.022 A 
BRANCH  66  69
ATOM     69  S   UNL     1       7.505  10.118  -9.979  1.00  0.00     0.127 S 
ATOM     70  O   UNL     1       6.165   9.949 -10.546  1.00  0.00    -0.237 OA
ATOM     71  O   UNL     1       8.312  11.151 -10.625  1.00  0.00    -0.237 OA
ATOM     72  O   UNL     1       8.195   8.863  -9.705  1.00  0.00    -0.744 OA
ENDBRANCH  66  69
ENDBRANCH  48  62
BRANCH  49  73
ATOM     73  C   UNL     1       7.161   5.651   2.228  1.00  0.00     0.023 A 
ATOM     74  C   UNL     1       6.352   4.552   2.605  1.00  0.00     0.012 A 
ATOM     75  C   UNL     1       8.516   5.424   1.941  1.00  0.00     0.148 A 
ATOM     76  C   UNL     1       6.838   3.247   2.515  1.00  0.00     0.002 A 
ATOM     77  C   UNL     1       8.997   4.122   1.874  1.00  0.00     0.091 A 
ATOM     78  F   UNL     1       9.308   6.465   1.655  1.00  0.00    -0.205 F 
ATOM     79  C   UNL     1       8.149   3.030   2.105  1.00  0.00     0.022 A 
BRANCH  77  80
ATOM     80  S   UNL     1      10.692   3.820   1.367  1.00  0.00     0.127 S 
ATOM     81  O   UNL     1      11.405   3.967   2.631  1.00  0.00    -0.237 OA
ATOM     82  O   UNL     1      10.631   2.455   0.847  1.00  0.00    -0.237 OA
ATOM     83  O   UNL     1      10.942   4.833   0.351  1.00  0.00    -0.744 OA
ENDBRANCH  77  80
ENDBRANCH  49  73
BRANCH  61  84
ATOM     84  C   UNL     1       8.910  12.418   0.311  1.00  0.00     0.023 A 
ATOM     85  C   UNL     1       9.488  12.763   1.548  1.00  0.00     0.012 A 
ATOM     86  C   UNL     1       9.226  13.281  -0.776  1.00  0.00     0.148 A 
ATOM     87  C   UNL     1      10.442  13.781   1.677  1.00  0.00     0.002 A 
ATOM     88  C   UNL     1      10.149  14.318  -0.642  1.00  0.00     0.091 A 
ATOM     89  F   UNL     1       8.591  13.143  -1.944  1.00  0.00    -0.205 F 
ATOM     90  C   UNL     1      10.789  14.546   0.576  1.00  0.00     0.022 A 
BRANCH  88  91
ATOM     91  S   UNL     1      10.546  15.443  -1.990  1.00  0.00     0.127 S 
ATOM     92  O   UNL     1       9.918  16.682  -1.530  1.00  0.00    -0.237 OA
ATOM     93  O   UNL     1      12.008  15.453  -1.956  1.00  0.00    -0.237 OA
ATOM     94  O   UNL     1       9.969  14.859  -3.192  1.00  0.00    -0.744 OA
ENDBRANCH  88  91
ENDBRANCH  61  84
ENDBRANCH  35  36
ENDBRANCH  27  30
ENDBRANCH  25  26
ENDBRANCH   1  25
TORSDOF 16
