REMARK SMILES Cc1ccc([C@H](CC(=O)NCCCNC(=O)c2ccc(-c3c4nc(c(-c5cccc(S(=O)(=O)[O-])c5F)c5ccc([nH]5)c(-c5cccc(S(=O)(=O)[O-])c5F)c5nc(c(-c6cccc(S(=O)(=O)[O-])c6F)c6ccc3[nH]6)C=C5)C=C4)cc2)NC(=O)C(F)(F)F)cc1
REMARK SMILES IDX 12 1 11 2 10 3 8 4 9 5 7 7 6 8 5 9 1 10 2 11 3 12 88 13 4 14
REMARK SMILES IDX 87 15 80 16 81 17 82 19 83 20 84 21 85 22 86 23 13 24 14 25
REMARK SMILES IDX 15 26 16 28 17 29 18 30 79 31 19 32 78 33 20 34 21 35 22 36
REMARK SMILES IDX 72 37 23 38 77 39 71 40 73 41 24 42 76 43 70 44 69 45 25 47
REMARK SMILES IDX 57 48 37 49 56 50 38 51 41 52 55 53 74 54 39 55 40 56 54 58
REMARK SMILES IDX 75 59 42 60 26 61 27 62 35 63 28 64 30 65 36 66 29 67 31 68
REMARK SMILES IDX 32 69 33 70 34 71 58 72 59 73 67 74 60 75 62 76 68 77 61 78
REMARK SMILES IDX 63 79 64 80 65 81 66 82 43 83 44 84 52 85 45 86 47 87 53 88
REMARK SMILES IDX 46 89 48 90 49 91 50 92 51 93
REMARK H PARENT 10 6 80 18 14 27 73 46 41 57
REMARK Flexibility Score: inf
ROOT
ATOM      1  C   UNL     1      -3.273   3.079  -1.408  1.00  0.00     0.042 C 
ENDROOT
BRANCH   1   2
ATOM      2  C   UNL     1      -1.832   2.603  -1.263  1.00  0.00     0.117 C 
BRANCH   2   3
ATOM      3  N   UNL     1      -1.461   2.287   0.111  1.00  0.00    -0.356 N 
ATOM      4  C   UNL     1      -1.399   1.088   0.759  1.00  0.00     0.222 C 
ATOM      5  O   UNL     1      -0.984   1.046   1.917  1.00  0.00    -0.275 OA
ATOM      6  H   UNL     1      -1.215   3.066   0.660  1.00  0.00     0.163 HD
BRANCH   4   7
ATOM      7  C   UNL     1      -1.838  -0.177   0.061  1.00  0.00     0.129 C 
BRANCH   7   8
ATOM      8  C   UNL     1      -3.366  -0.300   0.041  1.00  0.00     0.122 C 
BRANCH   8   9
ATOM      9  C   UNL     1      -3.808  -1.031  -1.217  1.00  0.00    -0.025 A 
ATOM     10  C   UNL     1      -4.667  -2.889  -5.024  1.00  0.00     0.044 C 
ATOM     11  C   UNL     1      -4.403  -2.267  -3.686  1.00  0.00    -0.051 A 
ATOM     12  C   UNL     1      -4.679  -0.913  -3.490  1.00  0.00     0.004 A 
ATOM     13  C   UNL     1      -3.853  -3.007  -2.633  1.00  0.00     0.004 A 
ATOM     14  C   UNL     1      -4.398  -0.308  -2.266  1.00  0.00     0.006 A 
ATOM     15  C   UNL     1      -3.554  -2.395  -1.411  1.00  0.00     0.006 A 
ENDBRANCH   8   9
BRANCH   8  16
ATOM     16  N   UNL     1      -3.899  -0.933   1.241  1.00  0.00    -0.341 N 
ATOM     17  C   UNL     1      -4.716  -0.363   2.198  1.00  0.00     0.326 C 
ATOM     18  H   UNL     1      -3.647  -1.874   1.386  1.00  0.00     0.164 HD
ATOM     19  O   UNL     1      -5.081  -1.097   3.124  1.00  0.00    -0.265 OA
BRANCH  17  20
ATOM     20  C   UNL     1      -5.164   1.116   2.055  1.00  0.00     0.471 C 
ATOM     21  F   UNL     1      -4.110   1.976   1.972  1.00  0.00    -0.162 F 
ATOM     22  F   UNL     1      -5.886   1.311   0.910  1.00  0.00    -0.162 F 
ATOM     23  F   UNL     1      -5.946   1.550   3.077  1.00  0.00    -0.162 F 
ENDBRANCH  17  20
ENDBRANCH   8  16
ENDBRANCH   7   8
ENDBRANCH   4   7
ENDBRANCH   2   3
ENDBRANCH   1   2
BRANCH   1  24
ATOM     24  C   UNL     1      -3.547   4.444  -0.810  1.00  0.00     0.118 C 
BRANCH  24  25
ATOM     25  N   UNL     1      -3.623   5.503  -1.797  1.00  0.00    -0.352 N 
ATOM     26  C   UNL     1      -3.978   6.834  -1.636  1.00  0.00     0.251 C 
ATOM     27  H   UNL     1      -3.389   5.239  -2.716  1.00  0.00     0.163 HD
ATOM     28  O   UNL     1      -4.185   7.503  -2.633  1.00  0.00    -0.269 OA
BRANCH  26  29
ATOM     29  C   UNL     1      -3.940   7.449  -0.281  1.00  0.00     0.039 A 
ATOM     30  C   UNL     1      -3.355   8.718  -0.167  1.00  0.00     0.014 A 
ATOM     31  C   UNL     1      -4.227   6.718   0.865  1.00  0.00     0.014 A 
ATOM     32  C   UNL     1      -2.820   9.125   1.054  1.00  0.00     0.010 A 
ATOM     33  C   UNL     1      -3.602   7.058   2.041  1.00  0.00     0.010 A 
ATOM     34  C   UNL     1      -2.842   8.230   2.115  1.00  0.00    -0.014 A 
BRANCH  34  35
ATOM     35  C   UNL     1      -2.140   8.384   3.375  1.00  0.00     0.031 A 
ATOM     36  C   UNL     1      -2.894   8.812   4.566  1.00  0.00     0.074 A 
ATOM     37  C   UNL     1      -0.913   7.830   3.497  1.00  0.00     0.049 A 
ATOM     38  N   UNL     1      -2.366   8.991   5.725  1.00  0.00    -0.248 NA
ATOM     39  C   UNL     1      -4.320   9.104   4.523  1.00  0.00     0.031 C 
ATOM     40  C   UNL     1      -0.271   7.369   4.722  1.00  0.00     0.029 A 
ATOM     41  N   UNL     1       0.105   7.779   2.540  1.00  0.00    -0.354 N 
ATOM     42  C   UNL     1      -3.390   9.165   6.629  1.00  0.00     0.074 A 
ATOM     43  C   UNL     1      -4.571   9.327   5.816  1.00  0.00     0.031 C 
ATOM     44  C   UNL     1       1.056   7.355   4.534  1.00  0.00     0.029 A 
ATOM     45  C   UNL     1       1.304   7.987   3.251  1.00  0.00     0.049 A 
ATOM     46  H   UNL     1       0.005   7.629   1.572  1.00  0.00     0.167 HD
ATOM     47  C   UNL     1      -3.104   9.034   7.954  1.00  0.00     0.034 A 
ATOM     48  C   UNL     1       2.126   9.059   3.046  1.00  0.00     0.034 A 
ATOM     49  C   UNL     1      -1.648   8.964   8.167  1.00  0.00     0.049 A 
ATOM     50  C   UNL     1       2.339   9.920   4.286  1.00  0.00     0.074 A 
ATOM     51  C   UNL     1      -0.729   7.960   8.419  1.00  0.00     0.029 A 
ATOM     52  N   UNL     1      -0.906  10.089   7.864  1.00  0.00    -0.354 N 
ATOM     53  N   UNL     1       1.851   9.660   5.468  1.00  0.00    -0.248 NA
ATOM     54  C   UNL     1       3.044  11.204   4.253  1.00  0.00     0.031 C 
ATOM     55  C   UNL     1       0.580   8.500   8.212  1.00  0.00     0.029 A 
ATOM     56  C   UNL     1       0.451   9.833   7.863  1.00  0.00     0.049 A 
ATOM     57  H   UNL     1      -1.299  10.971   7.672  1.00  0.00     0.167 HD
ATOM     58  C   UNL     1       1.982  10.770   6.264  1.00  0.00     0.074 A 
ATOM     59  C   UNL     1       2.793  11.686   5.482  1.00  0.00     0.031 C 
ATOM     60  C   UNL     1       1.349  10.910   7.467  1.00  0.00     0.034 A 
BRANCH  47  61
ATOM     61  C   UNL     1      -4.093   8.824   9.089  1.00  0.00     0.023 A 
ATOM     62  C   UNL     1      -3.547   8.500  10.354  1.00  0.00     0.012 A 
ATOM     63  C   UNL     1      -5.505   8.835   9.019  1.00  0.00     0.148 A 
ATOM     64  C   UNL     1      -4.340   8.152  11.454  1.00  0.00     0.002 A 
ATOM     65  C   UNL     1      -6.301   8.480  10.112  1.00  0.00     0.091 A 
ATOM     66  F   UNL     1      -6.122   9.184   7.895  1.00  0.00    -0.205 F 
ATOM     67  C   UNL     1      -5.719   8.129  11.331  1.00  0.00     0.022 A 
BRANCH  65  68
ATOM     68  S   UNL     1      -8.102   8.405  10.018  1.00  0.00     0.127 S 
ATOM     69  O   UNL     1      -8.358   6.987  10.273  1.00  0.00    -0.237 OA
ATOM     70  O   UNL     1      -8.511   9.300  11.099  1.00  0.00    -0.237 OA
ATOM     71  O   UNL     1      -8.471   8.854   8.681  1.00  0.00    -0.744 OA
ENDBRANCH  65  68
ENDBRANCH  47  61
BRANCH  48  72
ATOM     72  C   UNL     1       2.066   9.581   1.649  1.00  0.00     0.023 A 
ATOM     73  C   UNL     1       2.522   8.722   0.621  1.00  0.00     0.012 A 
ATOM     74  C   UNL     1       1.223  10.656   1.315  1.00  0.00     0.148 A 
ATOM     75  C   UNL     1       2.041   8.850  -0.682  1.00  0.00     0.002 A 
ATOM     76  C   UNL     1       0.747  10.775   0.012  1.00  0.00     0.091 A 
ATOM     77  F   UNL     1       0.823  11.483   2.288  1.00  0.00    -0.205 F 
ATOM     78  C   UNL     1       1.125   9.854  -0.977  1.00  0.00     0.022 A 
BRANCH  76  79
ATOM     79  S   UNL     1      -0.486  12.007  -0.428  1.00  0.00     0.127 S 
ATOM     80  O   UNL     1       0.344  13.050  -1.022  1.00  0.00    -0.237 OA
ATOM     81  O   UNL     1      -1.330  11.274  -1.372  1.00  0.00    -0.237 OA
ATOM     82  O   UNL     1      -1.147  12.339   0.825  1.00  0.00    -0.744 OA
ENDBRANCH  76  79
ENDBRANCH  48  72
BRANCH  60  83
ATOM     83  C   UNL     1       1.526  12.114   8.367  1.00  0.00     0.023 A 
ATOM     84  C   UNL     1       2.812  12.643   8.596  1.00  0.00     0.012 A 
ATOM     85  C   UNL     1       0.462  12.647   9.137  1.00  0.00     0.148 A 
ATOM     86  C   UNL     1       3.027  13.668   9.524  1.00  0.00     0.002 A 
ATOM     87  C   UNL     1       0.698  13.588  10.133  1.00  0.00     0.091 A 
ATOM     88  F   UNL     1      -0.798  12.284   8.868  1.00  0.00    -0.205 F 
ATOM     89  C   UNL     1       1.976  14.121  10.312  1.00  0.00     0.022 A 
BRANCH  87  90
ATOM     90  S   UNL     1      -0.568  14.062  11.321  1.00  0.00     0.127 S 
ATOM     91  O   UNL     1       0.149  13.925  12.591  1.00  0.00    -0.237 OA
ATOM     92  O   UNL     1      -0.850  15.439  10.926  1.00  0.00    -0.237 OA
ATOM     93  O   UNL     1      -1.655  13.111  11.142  1.00  0.00    -0.744 OA
ENDBRANCH  87  90
ENDBRANCH  60  83
ENDBRANCH  34  35
ENDBRANCH  26  29
ENDBRANCH  24  25
ENDBRANCH   1  24
TORSDOF 17
