REMARK SMILES C[C@@H](CNc1cccc(F)c1C(=O)NCCCNC(=O)c1ccc(-c2c3nc(c(-c4cccc(S(=O)(=O)[O-])c4F)c4ccc([nH]4)c(-c4cccc(S(=O)(=O)[O-])c4F)c4nc(c(-c5cccc(S(=O)(=O)[O-])c5F)c5ccc2[nH]5)C=C4)C=C3)cc1)[NH+]1CCCCC1
REMARK SMILES IDX 15 1 14 2 12 3 13 4 11 6 5 7 6 8 7 9 9 10 8 11 10 12 4 13
REMARK SMILES IDX 3 15 2 16 1 17 84 18 85 19 89 20 86 22 88 23 87 24 16 25
REMARK SMILES IDX 17 26 18 27 19 28 20 30 21 31 22 32 83 33 23 34 82 35 24 36
REMARK SMILES IDX 25 37 26 38 76 39 27 40 81 41 75 42 77 43 28 44 80 45 74 46
REMARK SMILES IDX 73 47 29 49 61 50 41 51 60 52 42 53 45 54 59 55 78 56 43 57
REMARK SMILES IDX 44 58 58 60 79 61 46 62 30 63 31 64 39 65 32 66 34 67 40 68
REMARK SMILES IDX 33 69 35 70 36 71 37 72 38 73 62 74 63 75 71 76 64 77 66 78
REMARK SMILES IDX 72 79 65 80 67 81 68 82 69 83 70 84 47 85 48 86 56 87 49 88
REMARK SMILES IDX 51 89 57 90 50 91 52 92 53 93 54 94 55 95
REMARK H PARENT 14 5 4 14 84 21 18 29 77 48 45 59
REMARK Flexibility Score: inf
ROOT
ATOM      1  C   UNL     1      -3.775   4.689   1.170  1.00  0.00     0.118 C 
ENDROOT
BRANCH   1   2
ATOM      2  N   UNL     1      -2.479   4.302   0.642  1.00  0.00    -0.352 N 
ATOM      3  C   UNL     1      -1.248   4.127   1.225  1.00  0.00     0.256 C 
ATOM      4  O   UNL     1      -0.304   3.948   0.449  1.00  0.00    -0.269 OA
ATOM      5  H   UNL     1      -2.483   4.131  -0.328  1.00  0.00     0.163 HD
BRANCH   3   6
ATOM      6  C   UNL     1      -1.024   3.982   2.693  1.00  0.00     0.098 A 
ATOM      7  C   UNL     1      -0.112   2.983   3.143  1.00  0.00     0.050 A 
ATOM      8  C   UNL     1       0.082   2.828   4.526  1.00  0.00     0.027 A 
ATOM      9  C   UNL     1      -0.598   3.616   5.453  1.00  0.00     0.005 A 
ATOM     10  C   UNL     1      -1.658   4.791   3.639  1.00  0.00     0.138 A 
ATOM     11  C   UNL     1      -1.472   4.596   5.006  1.00  0.00     0.040 A 
ATOM     12  F   UNL     1      -2.451   5.808   3.281  1.00  0.00    -0.206 F 
BRANCH   7  13
ATOM     13  N   UNL     1       0.533   2.135   2.246  1.00  0.00    -0.378 N 
ATOM     14  H   UNL     1       0.795   2.507   1.373  1.00  0.00     0.160 HD
BRANCH  13  15
ATOM     15  C   UNL     1       0.847   0.738   2.506  1.00  0.00     0.177 C 
BRANCH  15  16
ATOM     16  C   UNL     1       0.363  -0.253   1.393  1.00  0.00     0.200 C 
ATOM     17  C   UNL     1       1.067   0.022   0.055  1.00  0.00     0.077 C 
BRANCH  16  18
ATOM     18  N   UNL     1      -1.118  -0.405   1.318  1.00  0.00    -0.331 N 
ATOM     19  C   UNL     1      -1.795   0.701   0.629  1.00  0.00     0.262 C 
ATOM     20  C   UNL     1      -1.524  -1.690   0.735  1.00  0.00     0.262 C 
ATOM     21  H   UNL     1      -1.423  -0.381   2.291  1.00  0.00     0.348 HD
ATOM     22  C   UNL     1      -3.315   0.592   0.721  1.00  0.00     0.062 C 
ATOM     23  C   UNL     1      -3.043  -1.883   0.820  1.00  0.00     0.062 C 
ATOM     24  C   UNL     1      -3.795  -0.734   0.158  1.00  0.00     0.012 C 
ENDBRANCH  16  18
ENDBRANCH  15  16
ENDBRANCH  13  15
ENDBRANCH   7  13
ENDBRANCH   3   6
ENDBRANCH   1   2
BRANCH   1  25
ATOM     25  C   UNL     1      -3.985   6.187   0.954  1.00  0.00     0.042 C 
BRANCH  25  26
ATOM     26  C   UNL     1      -4.316   6.531  -0.495  1.00  0.00     0.118 C 
BRANCH  26  27
ATOM     27  N   UNL     1      -5.693   6.192  -0.830  1.00  0.00    -0.352 N 
ATOM     28  C   UNL     1      -6.688   7.008  -1.315  1.00  0.00     0.251 C 
ATOM     29  H   UNL     1      -5.945   5.250  -0.691  1.00  0.00     0.163 HD
ATOM     30  O   UNL     1      -7.850   6.619  -1.326  1.00  0.00    -0.269 OA
BRANCH  28  31
ATOM     31  C   UNL     1      -6.347   8.358  -1.814  1.00  0.00     0.039 A 
ATOM     32  C   UNL     1      -7.148   9.444  -1.453  1.00  0.00     0.014 A 
ATOM     33  C   UNL     1      -5.238   8.545  -2.644  1.00  0.00     0.014 A 
ATOM     34  C   UNL     1      -6.806  10.729  -1.885  1.00  0.00     0.010 A 
ATOM     35  C   UNL     1      -4.855   9.831  -3.004  1.00  0.00     0.010 A 
ATOM     36  C   UNL     1      -5.642  10.935  -2.642  1.00  0.00    -0.014 A 
BRANCH  36  37
ATOM     37  C   UNL     1      -5.224  12.289  -3.087  1.00  0.00     0.031 A 
ATOM     38  C   UNL     1      -5.113  12.591  -4.557  1.00  0.00     0.074 A 
ATOM     39  C   UNL     1      -4.843  13.206  -2.178  1.00  0.00     0.049 A 
ATOM     40  N   UNL     1      -4.645  13.659  -5.147  1.00  0.00    -0.248 NA
ATOM     41  C   UNL     1      -5.555  11.537  -5.486  1.00  0.00     0.031 C 
ATOM     42  C   UNL     1      -4.846  13.012  -0.728  1.00  0.00     0.029 A 
ATOM     43  N   UNL     1      -4.346  14.476  -2.343  1.00  0.00    -0.354 N 
ATOM     44  C   UNL     1      -4.694  13.390  -6.510  1.00  0.00     0.074 A 
ATOM     45  C   UNL     1      -5.201  12.044  -6.657  1.00  0.00     0.031 C 
ATOM     46  C   UNL     1      -4.380  14.122  -0.135  1.00  0.00     0.029 A 
ATOM     47  C   UNL     1      -4.004  15.090  -1.161  1.00  0.00     0.049 A 
ATOM     48  H   UNL     1      -4.245  14.905  -3.223  1.00  0.00     0.167 HD
ATOM     49  C   UNL     1      -4.374  14.200  -7.547  1.00  0.00     0.034 A 
ATOM     50  C   UNL     1      -3.438  16.291  -0.929  1.00  0.00     0.034 A 
ATOM     51  C   UNL     1      -3.911  15.553  -7.394  1.00  0.00     0.049 A 
ATOM     52  C   UNL     1      -3.114  17.185  -2.094  1.00  0.00     0.074 A 
ATOM     53  C   UNL     1      -3.640  16.484  -8.380  1.00  0.00     0.029 A 
ATOM     54  N   UNL     1      -3.643  16.167  -6.179  1.00  0.00    -0.354 N 
ATOM     55  N   UNL     1      -3.289  16.966  -3.375  1.00  0.00    -0.248 NA
ATOM     56  C   UNL     1      -2.543  18.503  -1.782  1.00  0.00     0.031 C 
ATOM     57  C   UNL     1      -3.176  17.650  -7.763  1.00  0.00     0.029 A 
ATOM     58  C   UNL     1      -3.195  17.460  -6.390  1.00  0.00     0.049 A 
ATOM     59  H   UNL     1      -3.754  15.745  -5.297  1.00  0.00     0.167 HD
ATOM     60  C   UNL     1      -2.871  18.124  -4.022  1.00  0.00     0.074 A 
ATOM     61  C   UNL     1      -2.460  19.052  -2.987  1.00  0.00     0.031 C 
ATOM     62  C   UNL     1      -2.817  18.387  -5.352  1.00  0.00     0.034 A 
BRANCH  49  63
ATOM     63  C   UNL     1      -4.560  13.659  -8.942  1.00  0.00     0.023 A 
ATOM     64  C   UNL     1      -5.862  13.427  -9.433  1.00  0.00     0.012 A 
ATOM     65  C   UNL     1      -3.456  13.433  -9.787  1.00  0.00     0.148 A 
ATOM     66  C   UNL     1      -6.061  12.940 -10.724  1.00  0.00     0.002 A 
ATOM     67  C   UNL     1      -3.664  13.000 -11.092  1.00  0.00     0.091 A 
ATOM     68  F   UNL     1      -2.224  13.638  -9.300  1.00  0.00    -0.205 F 
ATOM     69  C   UNL     1      -4.964  12.739 -11.556  1.00  0.00     0.022 A 
BRANCH  67  70
ATOM     70  S   UNL     1      -2.327  12.797 -12.274  1.00  0.00     0.127 S 
ATOM     71  O   UNL     1      -2.297  11.344 -12.439  1.00  0.00    -0.237 OA
ATOM     72  O   UNL     1      -2.831  13.531 -13.435  1.00  0.00    -0.237 OA
ATOM     73  O   UNL     1      -1.147  13.379 -11.651  1.00  0.00    -0.744 OA
ENDBRANCH  67  70
ENDBRANCH  49  63
BRANCH  50  74
ATOM     74  C   UNL     1      -3.217  16.733   0.477  1.00  0.00     0.023 A 
ATOM     75  C   UNL     1      -4.040  17.740   1.016  1.00  0.00     0.012 A 
ATOM     76  C   UNL     1      -2.262  16.108   1.303  1.00  0.00     0.148 A 
ATOM     77  C   UNL     1      -3.909  18.126   2.351  1.00  0.00     0.002 A 
ATOM     78  C   UNL     1      -2.176  16.457   2.645  1.00  0.00     0.091 A 
ATOM     79  F   UNL     1      -1.488  15.154   0.766  1.00  0.00    -0.205 F 
ATOM     80  C   UNL     1      -2.988  17.476   3.168  1.00  0.00     0.022 A 
BRANCH  78  81
ATOM     81  S   UNL     1      -1.122  15.585   3.810  1.00  0.00     0.127 S 
ATOM     82  O   UNL     1      -0.217  16.645   4.247  1.00  0.00    -0.237 OA
ATOM     83  O   UNL     1      -2.091  15.148   4.816  1.00  0.00    -0.237 OA
ATOM     84  O   UNL     1      -0.503  14.505   3.055  1.00  0.00    -0.744 OA
ENDBRANCH  78  81
ENDBRANCH  50  74
BRANCH  62  85
ATOM     85  C   UNL     1      -2.302  19.738  -5.781  1.00  0.00     0.023 A 
ATOM     86  C   UNL     1      -0.933  20.041  -5.642  1.00  0.00     0.012 A 
ATOM     87  C   UNL     1      -3.155  20.671  -6.408  1.00  0.00     0.148 A 
ATOM     88  C   UNL     1      -0.426  21.260  -6.090  1.00  0.00     0.002 A 
ATOM     89  C   UNL     1      -2.632  21.860  -6.901  1.00  0.00     0.091 A 
ATOM     90  F   UNL     1      -4.457  20.373  -6.518  1.00  0.00    -0.205 F 
ATOM     91  C   UNL     1      -1.271  22.162  -6.731  1.00  0.00     0.022 A 
BRANCH  89  92
ATOM     92  S   UNL     1      -3.620  23.035  -7.835  1.00  0.00     0.127 S 
ATOM     93  O   UNL     1      -3.731  24.147  -6.891  1.00  0.00    -0.237 OA
ATOM     94  O   UNL     1      -2.768  23.303  -8.995  1.00  0.00    -0.237 OA
ATOM     95  O   UNL     1      -4.869  22.354  -8.146  1.00  0.00    -0.744 OA
ENDBRANCH  89  92
ENDBRANCH  62  85
ENDBRANCH  36  37
ENDBRANCH  28  31
ENDBRANCH  26  27
ENDBRANCH  25  26
ENDBRANCH   1  25
TORSDOF 17
