REMARK SMILES CCCCOc1ccc(-c2nc(C)c(C(=O)NCCCNC(=O)c3ccc(-c4c5nc(c(-c6cccc(S(=O)(=O)[O-])c6F)c6ccc([nH]6)c(-c6cccc(S(=O)(=O)[O-])c6F)c6nc(c(-c7cccc(S(=O)(=O)[O-])c7F)c7ccc4[nH]7)C=C6)C=C5)cc3)s2)cc1
REMARK SMILES IDX 18 1 17 2 15 3 16 4 14 6 10 7 11 8 87 9 12 10 13 11 9 12
REMARK SMILES IDX 6 13 7 14 89 15 8 16 88 17 5 18 4 19 3 20 2 21 1 22 19 23
REMARK SMILES IDX 20 24 21 25 22 26 23 28 24 29 25 30 86 31 26 32 85 33 27 34
REMARK SMILES IDX 28 35 29 36 79 37 30 38 84 39 78 40 80 41 31 42 83 43 77 44
REMARK SMILES IDX 76 45 32 47 64 48 44 49 63 50 45 51 48 52 62 53 81 54 46 55
REMARK SMILES IDX 47 56 61 58 82 59 49 60 33 61 34 62 42 63 35 64 37 65 43 66
REMARK SMILES IDX 36 67 38 68 39 69 40 70 41 71 65 72 66 73 74 74 67 75 69 76
REMARK SMILES IDX 75 77 68 78 70 79 71 80 72 81 73 82 50 83 51 84 59 85 52 86
REMARK SMILES IDX 54 87 60 88 53 89 55 90 56 91 57 92 58 93
REMARK H PARENT 17 5 21 27 80 46 48 57
REMARK Flexibility Score: inf
ROOT
ATOM      1  C   UNL     1      -6.729   6.060   1.444  1.00  0.00     0.118 C 
ENDROOT
BRANCH   1   2
ATOM      2  N   UNL     1      -6.385   5.930   0.048  1.00  0.00    -0.351 N 
ATOM      3  C   UNL     1      -5.672   4.997  -0.657  1.00  0.00     0.263 C 
ATOM      4  O   UNL     1      -5.616   5.239  -1.869  1.00  0.00    -0.268 OA
ATOM      5  H   UNL     1      -6.733   6.661  -0.511  1.00  0.00     0.163 HD
BRANCH   3   6
ATOM      6  C   UNL     1      -5.087   3.798  -0.073  1.00  0.00     0.115 A 
ATOM      7  C   UNL     1      -4.096   1.550  -0.003  1.00  0.00     0.124 A 
ATOM      8  N   UNL     1      -4.073   2.100   1.187  1.00  0.00    -0.241 NA
ATOM      9  S   UNL     1      -4.909   2.468  -1.185  1.00  0.00    -0.108 S 
ATOM     10  C   UNL     1      -4.543   3.408   1.148  1.00  0.00     0.062 A 
ATOM     11  C   UNL     1      -4.298   4.155   2.408  1.00  0.00     0.068 C 
BRANCH   7  12
ATOM     12  C   UNL     1      -3.450   0.268  -0.308  1.00  0.00     0.011 A 
ATOM     13  C   UNL     1      -1.904  -2.027  -0.699  1.00  0.00     0.119 A 
ATOM     14  C   UNL     1      -2.537  -1.832   0.523  1.00  0.00     0.047 A 
ATOM     15  C   UNL     1      -2.122  -1.155  -1.760  1.00  0.00     0.047 A 
ATOM     16  C   UNL     1      -3.303  -0.682   0.718  1.00  0.00     0.015 A 
ATOM     17  C   UNL     1      -2.868   0.005  -1.558  1.00  0.00     0.015 A 
BRANCH  13  18
ATOM     18  O   UNL     1      -1.052  -3.074  -0.899  1.00  0.00    -0.494 OA
BRANCH  18  19
ATOM     19  C   UNL     1       0.220  -2.846  -0.267  1.00  0.00     0.229 C 
BRANCH  19  20
ATOM     20  C   UNL     1       1.210  -2.129  -1.196  1.00  0.00     0.041 C 
BRANCH  20  21
ATOM     21  C   UNL     1       1.221  -0.595  -1.142  1.00  0.00     0.000 C 
ATOM     22  C   UNL     1       1.493  -0.015   0.237  1.00  0.00     0.004 C 
ENDBRANCH  20  21
ENDBRANCH  19  20
ENDBRANCH  18  19
ENDBRANCH  13  18
ENDBRANCH   7  12
ENDBRANCH   3   6
ENDBRANCH   1   2
BRANCH   1  23
ATOM     23  C   UNL     1      -5.833   7.097   2.117  1.00  0.00     0.042 C 
BRANCH  23  24
ATOM     24  C   UNL     1      -6.302   8.531   1.905  1.00  0.00     0.118 C 
BRANCH  24  25
ATOM     25  N   UNL     1      -7.491   8.827   2.689  1.00  0.00    -0.352 N 
ATOM     26  C   UNL     1      -7.667   9.727   3.711  1.00  0.00     0.251 C 
ATOM     27  H   UNL     1      -8.290   8.303   2.451  1.00  0.00     0.163 HD
ATOM     28  O   UNL     1      -8.672   9.642   4.413  1.00  0.00    -0.269 OA
BRANCH  26  29
ATOM     29  C   UNL     1      -6.665  10.786   3.974  1.00  0.00     0.039 A 
ATOM     30  C   UNL     1      -6.401  11.151   5.299  1.00  0.00     0.014 A 
ATOM     31  C   UNL     1      -6.028  11.461   2.929  1.00  0.00     0.014 A 
ATOM     32  C   UNL     1      -5.474  12.160   5.573  1.00  0.00     0.010 A 
ATOM     33  C   UNL     1      -5.044  12.407   3.206  1.00  0.00     0.010 A 
ATOM     34  C   UNL     1      -4.771  12.782   4.529  1.00  0.00    -0.014 A 
BRANCH  34  35
ATOM     35  C   UNL     1      -3.766  13.845   4.793  1.00  0.00     0.031 A 
ATOM     36  C   UNL     1      -3.988  15.238   4.263  1.00  0.00     0.074 A 
ATOM     37  C   UNL     1      -2.624  13.539   5.439  1.00  0.00     0.049 A 
ATOM     38  N   UNL     1      -3.196  16.278   4.317  1.00  0.00    -0.248 NA
ATOM     39  C   UNL     1      -5.256  15.490   3.556  1.00  0.00     0.031 C 
ATOM     40  C   UNL     1      -2.264  12.212   5.943  1.00  0.00     0.029 A 
ATOM     41  N   UNL     1      -1.541  14.319   5.761  1.00  0.00    -0.354 N 
ATOM     42  C   UNL     1      -3.851  17.292   3.627  1.00  0.00     0.074 A 
ATOM     43  C   UNL     1      -5.088  16.733   3.128  1.00  0.00     0.031 C 
ATOM     44  C   UNL     1      -1.051  12.271   6.515  1.00  0.00     0.029 A 
ATOM     45  C   UNL     1      -0.532  13.629   6.393  1.00  0.00     0.049 A 
ATOM     46  H   UNL     1      -1.492  15.281   5.560  1.00  0.00     0.167 HD
ATOM     47  C   UNL     1      -3.477  18.582   3.454  1.00  0.00     0.034 A 
ATOM     48  C   UNL     1       0.677  14.045   6.819  1.00  0.00     0.034 A 
ATOM     49  C   UNL     1      -2.270  19.147   3.994  1.00  0.00     0.049 A 
ATOM     50  C   UNL     1       1.053  15.492   6.640  1.00  0.00     0.074 A 
ATOM     51  C   UNL     1      -1.828  20.456   3.929  1.00  0.00     0.029 A 
ATOM     52  N   UNL     1      -1.316  18.436   4.705  1.00  0.00    -0.354 N 
ATOM     53  N   UNL     1       0.359  16.466   6.102  1.00  0.00    -0.248 NA
ATOM     54  C   UNL     1       2.365  15.906   7.159  1.00  0.00     0.031 C 
ATOM     55  C   UNL     1      -0.599  20.535   4.594  1.00  0.00     0.029 A 
ATOM     56  C   UNL     1      -0.287  19.279   5.089  1.00  0.00     0.049 A 
ATOM     57  H   UNL     1      -1.362  17.474   4.908  1.00  0.00     0.167 HD
ATOM     58  C   UNL     1       1.128  17.613   6.258  1.00  0.00     0.074 A 
ATOM     59  C   UNL     1       2.333  17.216   6.957  1.00  0.00     0.031 C 
ATOM     60  C   UNL     1       0.871  18.878   5.845  1.00  0.00     0.034 A 
BRANCH  47  61
ATOM     61  C   UNL     1      -4.419  19.492   2.708  1.00  0.00     0.023 A 
ATOM     62  C   UNL     1      -5.624  19.891   3.323  1.00  0.00     0.012 A 
ATOM     63  C   UNL     1      -4.092  20.002   1.436  1.00  0.00     0.148 A 
ATOM     64  C   UNL     1      -6.504  20.754   2.673  1.00  0.00     0.002 A 
ATOM     65  C   UNL     1      -4.955  20.897   0.812  1.00  0.00     0.091 A 
ATOM     66  F   UNL     1      -2.952  19.598   0.859  1.00  0.00    -0.205 F 
ATOM     67  C   UNL     1      -6.165  21.265   1.423  1.00  0.00     0.022 A 
BRANCH  65  68
ATOM     68  S   UNL     1      -4.577  21.672  -0.765  1.00  0.00     0.127 S 
ATOM     69  O   UNL     1      -5.557  21.038  -1.647  1.00  0.00    -0.237 OA
ATOM     70  O   UNL     1      -4.837  23.084  -0.482  1.00  0.00    -0.237 OA
ATOM     71  O   UNL     1      -3.186  21.354  -1.047  1.00  0.00    -0.744 OA
ENDBRANCH  65  68
ENDBRANCH  47  61
BRANCH  48  72
ATOM     72  C   UNL     1       1.591  13.103   7.526  1.00  0.00     0.023 A 
ATOM     73  C   UNL     1       1.838  13.286   8.901  1.00  0.00     0.012 A 
ATOM     74  C   UNL     1       2.209  12.030   6.856  1.00  0.00     0.148 A 
ATOM     75  C   UNL     1       2.715  12.444   9.586  1.00  0.00     0.002 A 
ATOM     76  C   UNL     1       3.038  11.161   7.558  1.00  0.00     0.091 A 
ATOM     77  F   UNL     1       1.975  11.877   5.545  1.00  0.00    -0.205 F 
ATOM     78  C   UNL     1       3.307  11.377   8.918  1.00  0.00     0.022 A 
BRANCH  76  79
ATOM     79  S   UNL     1       3.735   9.687   6.802  1.00  0.00     0.127 S 
ATOM     80  O   UNL     1       5.126  10.086   6.597  1.00  0.00    -0.237 OA
ATOM     81  O   UNL     1       3.531   8.682   7.848  1.00  0.00    -0.237 OA
ATOM     82  O   UNL     1       2.951   9.461   5.598  1.00  0.00    -0.744 OA
ENDBRANCH  76  79
ENDBRANCH  48  72
BRANCH  60  83
ATOM     83  C   UNL     1       1.883  19.941   6.180  1.00  0.00     0.023 A 
ATOM     84  C   UNL     1       3.111  19.981   5.491  1.00  0.00     0.012 A 
ATOM     85  C   UNL     1       1.585  20.943   7.124  1.00  0.00     0.148 A 
ATOM     86  C   UNL     1       4.041  20.984   5.761  1.00  0.00     0.002 A 
ATOM     87  C   UNL     1       2.495  21.968   7.351  1.00  0.00     0.091 A 
ATOM     88  F   UNL     1       0.418  20.876   7.782  1.00  0.00    -0.205 F 
ATOM     89  C   UNL     1       3.729  21.983   6.680  1.00  0.00     0.022 A 
BRANCH  87  90
ATOM     90  S   UNL     1       2.138  23.347   8.445  1.00  0.00     0.127 S 
ATOM     91  O   UNL     1       2.988  23.043   9.595  1.00  0.00    -0.237 OA
ATOM     92  O   UNL     1       2.574  24.495   7.650  1.00  0.00    -0.237 OA
ATOM     93  O   UNL     1       0.704  23.297   8.696  1.00  0.00    -0.744 OA
ENDBRANCH  87  90
ENDBRANCH  60  83
ENDBRANCH  34  35
ENDBRANCH  26  29
ENDBRANCH  24  25
ENDBRANCH  23  24
ENDBRANCH   1  23
TORSDOF 18
