REMARK SMILES O=C(NCCCNC(=O)[C@H]1C[C@H]1c1ccc(C2CC2)cc1)c1ccc(-c2c3nc(c(-c4cccc(S(=O)(=O)[O-])c4F)c4ccc([nH]4)c(-c4cccc(S(=O)(=O)[O-])c4F)c4nc(c(-c5cccc(S(=O)(=O)[O-])c5F)c5ccc2[nH]5)C=C4)C=C3)cc1
REMARK SMILES IDX 4 1 3 2 1 3 2 4 22 6 23 7 84 8 24 9 83 10 25 11 26 12 27 13
REMARK SMILES IDX 77 14 28 15 82 16 76 17 78 18 29 19 81 20 75 21 74 22 30 24
REMARK SMILES IDX 62 25 42 26 61 27 43 28 46 29 60 30 79 31 44 32 45 33 59 35
REMARK SMILES IDX 80 36 47 37 31 38 32 39 40 40 33 41 35 42 41 43 34 44 36 45
REMARK SMILES IDX 37 46 38 47 39 48 63 49 64 50 72 51 65 52 67 53 73 54 66 55
REMARK SMILES IDX 68 56 69 57 70 58 71 59 48 60 49 61 57 62 50 63 52 64 58 65
REMARK SMILES IDX 51 66 53 67 54 68 55 69 56 70 5 71 6 72 7 73 8 74 9 76 10 77
REMARK SMILES IDX 11 78 12 79 13 80 14 81 21 82 15 83 20 84 16 85 17 86 18 87
REMARK SMILES IDX 19 88
REMARK H PARENT 3 5 78 23 46 34 7 75
REMARK Flexibility Score: inf
ROOT
ATOM      1  C   UNL     1       8.301   8.787  -3.439  1.00  0.00     0.118 C 
ENDROOT
BRANCH   1   2
ATOM      2  N   UNL     1       8.780   9.602  -4.547  1.00  0.00    -0.352 N 
ATOM      3  O   UNL     1       9.347  11.445  -5.695  1.00  0.00    -0.269 OA
ATOM      4  C   UNL     1       9.101  10.939  -4.603  1.00  0.00     0.251 C 
ATOM      5  H   UNL     1       8.892   9.117  -5.396  1.00  0.00     0.163 HD
BRANCH   4   6
ATOM      6  C   UNL     1       9.124  11.771  -3.376  1.00  0.00     0.039 A 
ATOM      7  C   UNL     1       9.630  11.276  -2.175  1.00  0.00     0.014 A 
ATOM      8  C   UNL     1       8.661  13.091  -3.436  1.00  0.00     0.014 A 
ATOM      9  C   UNL     1       9.515  12.027  -1.009  1.00  0.00     0.010 A 
ATOM     10  C   UNL     1       8.641  13.883  -2.281  1.00  0.00     0.010 A 
ATOM     11  C   UNL     1       9.033  13.346  -1.047  1.00  0.00    -0.014 A 
BRANCH  11  12
ATOM     12  C   UNL     1       9.034  14.146   0.208  1.00  0.00     0.031 A 
ATOM     13  C   UNL     1       7.760  14.659   0.824  1.00  0.00     0.074 A 
ATOM     14  C   UNL     1      10.214  14.376   0.819  1.00  0.00     0.049 A 
ATOM     15  N   UNL     1       7.595  15.284   1.963  1.00  0.00    -0.248 NA
ATOM     16  C   UNL     1       6.512  14.457   0.070  1.00  0.00     0.031 C 
ATOM     17  C   UNL     1      11.524  13.987   0.288  1.00  0.00     0.029 A 
ATOM     18  N   UNL     1      10.508  14.975   2.017  1.00  0.00    -0.354 N 
ATOM     19  C   UNL     1       6.238  15.571   2.054  1.00  0.00     0.074 A 
ATOM     20  C   UNL     1       5.622  15.067   0.845  1.00  0.00     0.031 C 
ATOM     21  C   UNL     1      12.475  14.320   1.171  1.00  0.00     0.029 A 
ATOM     22  C   UNL     1      11.853  14.986   2.309  1.00  0.00     0.049 A 
ATOM     23  H   UNL     1       9.824  15.360   2.610  1.00  0.00     0.167 HD
ATOM     24  C   UNL     1       5.564  16.176   3.062  1.00  0.00     0.034 A 
ATOM     25  C   UNL     1      12.517  15.480   3.371  1.00  0.00     0.034 A 
ATOM     26  C   UNL     1       6.173  16.649   4.279  1.00  0.00     0.049 A 
ATOM     27  C   UNL     1      11.736  16.105   4.491  1.00  0.00     0.074 A 
ATOM     28  C   UNL     1       5.563  17.232   5.377  1.00  0.00     0.029 A 
ATOM     29  N   UNL     1       7.530  16.596   4.561  1.00  0.00    -0.354 N 
ATOM     30  N   UNL     1      10.438  16.240   4.614  1.00  0.00    -0.248 NA
ATOM     31  C   UNL     1      12.507  16.618   5.631  1.00  0.00     0.031 C 
ATOM     32  C   UNL     1       6.552  17.542   6.317  1.00  0.00     0.029 A 
ATOM     33  C   UNL     1       7.777  17.138   5.812  1.00  0.00     0.049 A 
ATOM     34  H   UNL     1       8.217  16.228   3.960  1.00  0.00     0.167 HD
ATOM     35  C   UNL     1      10.236  16.841   5.850  1.00  0.00     0.074 A 
ATOM     36  C   UNL     1      11.542  17.002   6.455  1.00  0.00     0.031 C 
ATOM     37  C   UNL     1       9.076  17.252   6.420  1.00  0.00     0.034 A 
BRANCH  24  38
ATOM     38  C   UNL     1       4.068  16.314   2.931  1.00  0.00     0.023 A 
ATOM     39  C   UNL     1       3.254  15.178   3.118  1.00  0.00     0.012 A 
ATOM     40  C   UNL     1       3.464  17.571   2.726  1.00  0.00     0.148 A 
ATOM     41  C   UNL     1       1.864  15.286   3.086  1.00  0.00     0.002 A 
ATOM     42  C   UNL     1       2.077  17.677   2.732  1.00  0.00     0.091 A 
ATOM     43  F   UNL     1       4.254  18.636   2.535  1.00  0.00    -0.205 F 
ATOM     44  C   UNL     1       1.276  16.535   2.905  1.00  0.00     0.022 A 
BRANCH  42  45
ATOM     45  S   UNL     1       1.219  19.248   2.579  1.00  0.00     0.127 S 
ATOM     46  O   UNL     1       0.601  19.119   1.260  1.00  0.00    -0.237 OA
ATOM     47  O   UNL     1       0.278  19.196   3.699  1.00  0.00    -0.237 OA
ATOM     48  O   UNL     1       2.242  20.278   2.690  1.00  0.00    -0.744 OA
ENDBRANCH  42  45
ENDBRANCH  24  38
BRANCH  25  49
ATOM     49  C   UNL     1      14.000  15.359   3.439  1.00  0.00     0.023 A 
ATOM     50  C   UNL     1      14.588  14.508   4.395  1.00  0.00     0.012 A 
ATOM     51  C   UNL     1      14.828  16.053   2.537  1.00  0.00     0.148 A 
ATOM     52  C   UNL     1      15.976  14.376   4.468  1.00  0.00     0.002 A 
ATOM     53  C   UNL     1      16.204  15.867   2.574  1.00  0.00     0.091 A 
ATOM     54  F   UNL     1      14.254  16.877   1.648  1.00  0.00    -0.205 F 
ATOM     55  C   UNL     1      16.783  15.043   3.550  1.00  0.00     0.022 A 
BRANCH  53  56
ATOM     56  S   UNL     1      17.282  16.573   1.323  1.00  0.00     0.127 S 
ATOM     57  O   UNL     1      17.788  17.764   1.998  1.00  0.00    -0.237 OA
ATOM     58  O   UNL     1      18.269  15.509   1.126  1.00  0.00    -0.237 OA
ATOM     59  O   UNL     1      16.422  16.802   0.168  1.00  0.00    -0.744 OA
ENDBRANCH  53  56
ENDBRANCH  25  49
BRANCH  37  60
ATOM     60  C   UNL     1       9.172  17.911   7.771  1.00  0.00     0.023 A 
ATOM     61  C   UNL     1       9.702  19.214   7.869  1.00  0.00     0.012 A 
ATOM     62  C   UNL     1       8.710  17.263   8.931  1.00  0.00     0.148 A 
ATOM     63  C   UNL     1       9.806  19.845   9.107  1.00  0.00     0.002 A 
ATOM     64  C   UNL     1       8.776  17.917  10.157  1.00  0.00     0.091 A 
ATOM     65  F   UNL     1       8.230  16.015   8.822  1.00  0.00    -0.205 F 
ATOM     66  C   UNL     1       9.335  19.202  10.249  1.00  0.00     0.022 A 
BRANCH  64  67
ATOM     67  S   UNL     1       8.114  17.193  11.662  1.00  0.00     0.127 S 
ATOM     68  O   UNL     1       9.329  16.725  12.327  1.00  0.00    -0.237 OA
ATOM     69  O   UNL     1       7.470  18.339  12.305  1.00  0.00    -0.237 OA
ATOM     70  O   UNL     1       7.192  16.153  11.228  1.00  0.00    -0.744 OA
ENDBRANCH  64  67
ENDBRANCH  37  60
ENDBRANCH  11  12
ENDBRANCH   4   6
ENDBRANCH   1   2
BRANCH   1  71
ATOM     71  C   UNL     1       6.948   8.138  -3.710  1.00  0.00     0.042 C 
BRANCH  71  72
ATOM     72  C   UNL     1       6.953   7.116  -4.840  1.00  0.00     0.117 C 
BRANCH  72  73
ATOM     73  N   UNL     1       7.798   5.970  -4.555  1.00  0.00    -0.356 N 
ATOM     74  C   UNL     1       7.446   4.699  -4.186  1.00  0.00     0.223 C 
ATOM     75  H   UNL     1       8.766   6.130  -4.639  1.00  0.00     0.163 HD
ATOM     76  O   UNL     1       8.312   3.897  -3.852  1.00  0.00    -0.275 OA
BRANCH  74  77
ATOM     77  C   UNL     1       6.010   4.348  -4.097  1.00  0.00     0.086 C 
ATOM     78  C   UNL     1       5.091   4.461  -5.286  1.00  0.00     0.023 C 
ATOM     79  C   UNL     1       5.411   3.099  -4.728  1.00  0.00     0.032 C 
BRANCH  79  80
ATOM     80  C   UNL     1       6.162   2.115  -5.597  1.00  0.00    -0.044 A 
ATOM     81  C   UNL     1       5.821   1.915  -6.942  1.00  0.00     0.004 A 
ATOM     82  C   UNL     1       7.171   1.294  -5.081  1.00  0.00     0.004 A 
ATOM     83  C   UNL     1       6.469   0.956  -7.732  1.00  0.00     0.004 A 
ATOM     84  C   UNL     1       7.824   0.337  -5.873  1.00  0.00     0.004 A 
ATOM     85  C   UNL     1       7.490   0.140  -7.220  1.00  0.00    -0.045 A 
BRANCH  85  86
ATOM     86  C   UNL     1       8.155  -0.879  -8.125  1.00  0.00     0.019 C 
ATOM     87  C   UNL     1       9.309  -1.753  -7.701  1.00  0.00     0.009 C 
ATOM     88  C   UNL     1       7.941  -2.350  -7.850  1.00  0.00     0.009 C 
ENDBRANCH  85  86
ENDBRANCH  79  80
ENDBRANCH  74  77
ENDBRANCH  72  73
ENDBRANCH  71  72
ENDBRANCH   1  71
TORSDOF 15
