REMARK SMILES Cc1ccc(S(=O)(=O)n2cc(C(=O)C(=O)NCC(=O)N[C@@H](Cc3c[nH]c4ccccc34)C(=O)NCCCNC(=O)c3ccc(-c4c5nc(c(-c6cccc(S(=O)(=O)[O-])c6F)c6ccc([nH]6)c(-c6cccc(S(=O)(=O)[O-])c6F)c6nc(c(-c7cccc(S(=O)(=O)[O-])c7F)c7ccc4[nH]7)C=C6)C=C5)cc3)c3ccccc32)cc1
REMARK SMILES IDX 32 1 33 2 34 3 21 5 20 6 18 7 19 8 17 10 16 11 14 12 15 13
REMARK SMILES IDX 12 15 13 16 11 17 9 18 10 19 109 20 104 21 108 22 105 23
REMARK SMILES IDX 107 24 106 25 6 26 7 27 8 28 5 29 1 30 2 31 3 32 111 33 4 34
REMARK SMILES IDX 110 35 22 36 23 37 24 38 31 39 25 40 26 41 30 42 27 44 29 45
REMARK SMILES IDX 28 46 35 47 36 48 37 49 38 50 39 51 40 53 41 54 42 55 103 56
REMARK SMILES IDX 43 57 102 58 44 59 45 60 46 61 96 62 47 63 101 64 95 65
REMARK SMILES IDX 97 66 48 67 100 68 94 69 93 70 49 72 81 73 61 74 80 75 62 76
REMARK SMILES IDX 65 77 79 78 98 79 63 80 64 81 78 83 99 84 66 85 50 86 51 87
REMARK SMILES IDX 59 88 52 89 54 90 60 91 53 92 55 93 56 94 57 95 58 96 82 97
REMARK SMILES IDX 83 98 91 99 84 100 86 101 92 102 85 103 87 104 88 105 89 106
REMARK SMILES IDX 90 107 67 108 68 109 76 110 69 111 71 112 77 113 70 114
REMARK SMILES IDX 72 115 73 116 74 117 75 118
REMARK H PARENT 34 4 20 9 16 14 25 43 38 52 97 71 65 82
REMARK Flexibility Score: inf
ROOT
ATOM      1  C   UNL     1      -9.664   0.561   3.204  1.00  0.00     0.242 C 
ATOM      2  O   UNL     1      -8.735  -0.218   2.976  1.00  0.00    -0.273 OA
ATOM      3  N   UNL     1     -10.690   0.143   4.012  1.00  0.00    -0.354 N 
ATOM      4  H   UNL     1     -10.925  -0.812   3.978  1.00  0.00     0.163 HD
ENDROOT
BRANCH   1   5
ATOM      5  C   UNL     1      -9.625   1.991   2.622  1.00  0.00     0.175 C 
BRANCH   5   6
ATOM      6  N   UNL     1     -10.957   2.442   2.193  1.00  0.00    -0.342 N 
ATOM      7  C   UNL     1     -11.534   2.257   0.963  1.00  0.00     0.240 C 
ATOM      8  O   UNL     1     -12.763   2.268   0.886  1.00  0.00    -0.273 OA
ATOM      9  H   UNL     1     -11.493   2.929   2.861  1.00  0.00     0.164 HD
BRANCH   7  10
ATOM     10  C   UNL     1     -10.647   1.973  -0.265  1.00  0.00     0.216 C 
BRANCH  10  11
ATOM     11  N   UNL     1      -9.566   2.964  -0.348  1.00  0.00    -0.340 N 
ATOM     12  C   UNL     1      -8.220   2.768  -0.615  1.00  0.00     0.292 C 
ATOM     13  O   UNL     1      -7.414   3.679  -0.462  1.00  0.00    -0.265 OA
ATOM     14  H   UNL     1      -9.835   3.898  -0.193  1.00  0.00     0.164 HD
BRANCH  12  15
ATOM     15  C   UNL     1      -7.742   1.399  -1.115  1.00  0.00     0.252 C 
ATOM     16  O   UNL     1      -8.430   0.893  -2.004  1.00  0.00    -0.283 OA
BRANCH  15  17
ATOM     17  C   UNL     1      -6.618   0.674  -0.494  1.00  0.00     0.054 A 
ATOM     18  N   UNL     1      -4.707   0.013   0.537  1.00  0.00    -0.240 N 
ATOM     19  C   UNL     1      -5.364   1.107  -0.034  1.00  0.00     0.117 A 
ATOM     20  C   UNL     1      -5.650  -1.032   0.622  1.00  0.00     0.065 A 
ATOM     21  C   UNL     1      -6.603  -0.746  -0.351  1.00  0.00     0.012 A 
ATOM     22  C   UNL     1      -5.532  -2.320   1.183  1.00  0.00     0.028 A 
ATOM     23  C   UNL     1      -7.322  -1.819  -0.920  1.00  0.00     0.011 A 
ATOM     24  C   UNL     1      -6.155  -3.373   0.517  1.00  0.00     0.002 A 
ATOM     25  C   UNL     1      -7.011  -3.130  -0.546  1.00  0.00     0.001 A 
BRANCH  18  26
ATOM     26  S   UNL     1      -3.152  -0.656   0.102  1.00  0.00     0.268 S 
ATOM     27  O   UNL     1      -3.406  -1.194  -1.227  1.00  0.00    -0.201 OA
ATOM     28  O   UNL     1      -2.901  -1.532   1.241  1.00  0.00    -0.201 OA
BRANCH  26  29
ATOM     29  C   UNL     1      -1.558   0.058  -0.053  1.00  0.00     0.088 A 
ATOM     30  C   UNL     1       2.731   0.611  -0.044  1.00  0.00     0.044 C 
ATOM     31  C   UNL     1       1.238   0.475  -0.110  1.00  0.00    -0.051 A 
ATOM     32  C   UNL     1       0.741  -0.803  -0.291  1.00  0.00     0.005 A 
ATOM     33  C   UNL     1       0.326   1.546   0.058  1.00  0.00     0.005 A 
ATOM     34  C   UNL     1      -0.625  -0.994  -0.279  1.00  0.00     0.022 A 
ATOM     35  C   UNL     1      -1.085   1.347   0.096  1.00  0.00     0.022 A 
ENDBRANCH  26  29
ENDBRANCH  18  26
ENDBRANCH  15  17
ENDBRANCH  12  15
ENDBRANCH  10  11
ENDBRANCH   7  10
ENDBRANCH   5   6
BRANCH   5  36
ATOM     36  C   UNL     1      -8.790   3.036   3.399  1.00  0.00     0.072 C 
BRANCH  36  37
ATOM     37  C   UNL     1      -9.142   3.289   4.836  1.00  0.00    -0.020 A 
ATOM     38  C   UNL     1      -8.903   2.426   5.893  1.00  0.00     0.087 A 
ATOM     39  C   UNL     1      -9.765   4.451   5.405  1.00  0.00     0.003 A 
ATOM     40  N   UNL     1      -9.559   2.903   6.999  1.00  0.00    -0.361 N 
ATOM     41  C   UNL     1     -10.092   4.141   6.727  1.00  0.00     0.046 A 
ATOM     42  C   UNL     1     -10.115   5.729   4.919  1.00  0.00     0.010 A 
ATOM     43  H   UNL     1      -9.637   2.430   7.859  1.00  0.00     0.166 HD
ATOM     44  C   UNL     1     -10.826   4.998   7.554  1.00  0.00     0.026 A 
ATOM     45  C   UNL     1     -10.778   6.632   5.762  1.00  0.00     0.001 A 
ATOM     46  C   UNL     1     -11.152   6.259   7.051  1.00  0.00     0.002 A 
ENDBRANCH  36  37
ENDBRANCH   5  36
ENDBRANCH   1   5
BRANCH   3  47
ATOM     47  C   UNL     1     -11.460   0.979   4.911  1.00  0.00     0.117 C 
BRANCH  47  48
ATOM     48  C   UNL     1     -12.976   0.902   4.809  1.00  0.00     0.042 C 
BRANCH  48  49
ATOM     49  C   UNL     1     -13.582   0.140   5.973  1.00  0.00     0.118 C 
BRANCH  49  50
ATOM     50  N   UNL     1     -13.247   0.765   7.271  1.00  0.00    -0.352 N 
ATOM     51  C   UNL     1     -13.353   0.250   8.553  1.00  0.00     0.251 C 
ATOM     52  H   UNL     1     -12.898   1.684   7.216  1.00  0.00     0.163 HD
ATOM     53  O   UNL     1     -13.548   1.031   9.492  1.00  0.00    -0.269 OA
BRANCH  51  54
ATOM     54  C   UNL     1     -13.151  -1.192   8.757  1.00  0.00     0.039 A 
ATOM     55  C   UNL     1     -13.484  -1.921   9.903  1.00  0.00     0.014 A 
ATOM     56  C   UNL     1     -12.448  -1.816   7.744  1.00  0.00     0.014 A 
ATOM     57  C   UNL     1     -13.010  -3.232  10.011  1.00  0.00     0.010 A 
ATOM     58  C   UNL     1     -12.407  -3.156   7.665  1.00  0.00     0.010 A 
ATOM     59  C   UNL     1     -12.421  -3.799   8.886  1.00  0.00    -0.014 A 
BRANCH  59  60
ATOM     60  C   UNL     1     -11.674  -5.029   8.779  1.00  0.00     0.031 A 
ATOM     61  C   UNL     1     -12.427  -6.272   8.682  1.00  0.00     0.074 A 
ATOM     62  C   UNL     1     -10.412  -4.875   8.301  1.00  0.00     0.049 A 
ATOM     63  N   UNL     1     -11.899  -7.435   8.776  1.00  0.00    -0.248 NA
ATOM     64  C   UNL     1     -13.869  -6.287   8.457  1.00  0.00     0.031 C 
ATOM     65  C   UNL     1      -9.666  -5.748   7.405  1.00  0.00     0.029 A 
ATOM     66  N   UNL     1      -9.563  -3.782   8.405  1.00  0.00    -0.354 N 
ATOM     67  C   UNL     1     -12.836  -8.320   8.293  1.00  0.00     0.074 A 
ATOM     68  C   UNL     1     -14.081  -7.590   8.261  1.00  0.00     0.031 C 
ATOM     69  C   UNL     1      -8.407  -5.278   7.281  1.00  0.00     0.029 A 
ATOM     70  C   UNL     1      -8.247  -4.181   8.223  1.00  0.00     0.049 A 
ATOM     71  H   UNL     1      -9.853  -2.858   8.582  1.00  0.00     0.167 HD
ATOM     72  C   UNL     1     -12.404  -9.494   7.757  1.00  0.00     0.034 A 
ATOM     73  C   UNL     1      -7.399  -4.197   9.300  1.00  0.00     0.034 A 
ATOM     74  C   UNL     1     -10.927  -9.526   7.742  1.00  0.00     0.049 A 
ATOM     75  C   UNL     1      -7.142  -5.609   9.807  1.00  0.00     0.074 A 
ATOM     76  C   UNL     1      -9.994  -9.257   6.751  1.00  0.00     0.029 A 
ATOM     77  N   UNL     1     -10.227  -9.483   8.945  1.00  0.00    -0.354 N 
ATOM     78  N   UNL     1      -7.720  -6.680   9.333  1.00  0.00    -0.248 NA
ATOM     79  C   UNL     1      -6.191  -5.934  10.865  1.00  0.00     0.031 C 
ATOM     80  C   UNL     1      -8.744  -8.984   7.380  1.00  0.00     0.029 A 
ATOM     81  C   UNL     1      -8.903  -9.110   8.750  1.00  0.00     0.049 A 
ATOM     82  H   UNL     1     -10.621  -9.691   9.823  1.00  0.00     0.167 HD
ATOM     83  C   UNL     1      -7.368  -7.783  10.060  1.00  0.00     0.074 A 
ATOM     84  C   UNL     1      -6.334  -7.270  10.948  1.00  0.00     0.031 C 
ATOM     85  C   UNL     1      -7.993  -8.995   9.895  1.00  0.00     0.034 A 
BRANCH  72  86
ATOM     86  C   UNL     1     -13.278 -10.422   6.934  1.00  0.00     0.023 A 
ATOM     87  C   UNL     1     -12.630 -11.274   6.014  1.00  0.00     0.012 A 
ATOM     88  C   UNL     1     -14.691 -10.520   6.981  1.00  0.00     0.148 A 
ATOM     89  C   UNL     1     -13.331 -12.101   5.132  1.00  0.00     0.002 A 
ATOM     90  C   UNL     1     -15.397 -11.290   6.050  1.00  0.00     0.091 A 
ATOM     91  F   UNL     1     -15.366  -9.945   7.983  1.00  0.00    -0.205 F 
ATOM     92  C   UNL     1     -14.717 -12.084   5.124  1.00  0.00     0.022 A 
BRANCH  90  93
ATOM     93  S   UNL     1     -17.195 -11.255   5.926  1.00  0.00     0.127 S 
ATOM     94  O   UNL     1     -17.406 -11.109   4.483  1.00  0.00    -0.237 OA
ATOM     95  O   UNL     1     -17.575 -12.559   6.464  1.00  0.00    -0.237 OA
ATOM     96  O   UNL     1     -17.627 -10.098   6.702  1.00  0.00    -0.744 OA
ENDBRANCH  90  93
ENDBRANCH  72  86
BRANCH  73  97
ATOM     97  C   UNL     1      -7.553  -2.959  10.139  1.00  0.00     0.023 A 
ATOM     98  C   UNL     1      -7.155  -1.744   9.524  1.00  0.00     0.012 A 
ATOM     99  C   UNL     1      -8.492  -2.909  11.187  1.00  0.00     0.148 A 
ATOM    100  C   UNL     1      -7.815  -0.546   9.805  1.00  0.00     0.002 A 
ATOM    101  C   UNL     1      -9.161  -1.713  11.447  1.00  0.00     0.091 A 
ATOM    102  F   UNL     1      -8.779  -4.039  11.845  1.00  0.00    -0.205 F 
ATOM    103  C   UNL     1      -8.855  -0.544  10.727  1.00  0.00     0.022 A 
BRANCH 101 104
ATOM    104  S   UNL     1     -10.563  -1.631  12.571  1.00  0.00     0.127 S 
ATOM    105  O   UNL     1      -9.947  -1.067  13.769  1.00  0.00    -0.237 OA
ATOM    106  O   UNL     1     -11.465  -0.719  11.868  1.00  0.00    -0.237 OA
ATOM    107  O   UNL     1     -11.052  -2.996  12.684  1.00  0.00    -0.744 OA
ENDBRANCH 101 104
ENDBRANCH  73  97
BRANCH  85 108
ATOM    108  C   UNL     1      -7.821 -10.211  10.798  1.00  0.00     0.023 A 
ATOM    109  C   UNL     1      -7.232 -10.137  12.072  1.00  0.00     0.012 A 
ATOM    110  C   UNL     1      -8.370 -11.474  10.437  1.00  0.00     0.148 A 
ATOM    111  C   UNL     1      -7.123 -11.252  12.910  1.00  0.00     0.002 A 
ATOM    112  C   UNL     1      -8.390 -12.538  11.332  1.00  0.00     0.091 A 
ATOM    113  F   UNL     1      -8.849 -11.676   9.202  1.00  0.00    -0.205 F 
ATOM    114  C   UNL     1      -7.728 -12.447  12.554  1.00  0.00     0.022 A 
BRANCH 112 115
ATOM    115  S   UNL     1      -9.398 -13.997  11.027  1.00  0.00     0.127 S 
ATOM    116  O   UNL     1      -8.408 -14.946  10.525  1.00  0.00    -0.237 OA
ATOM    117  O   UNL     1      -9.912 -14.301  12.364  1.00  0.00    -0.237 OA
ATOM    118  O   UNL     1     -10.418 -13.570  10.079  1.00  0.00    -0.744 OA
ENDBRANCH 112 115
ENDBRANCH  85 108
ENDBRANCH  59  60
ENDBRANCH  51  54
ENDBRANCH  49  50
ENDBRANCH  48  49
ENDBRANCH  47  48
ENDBRANCH   3  47
TORSDOF 22
