REMARK SMILES C[C@H](CNS(=O)(=O)CCC(=O)NCCCNC(=O)c1ccc(-c2c3nc(c(-c4cccc(S(=O)(=O)[O-])c4F)c4ccc([nH]4)c(-c4cccc(S(=O)(=O)[O-])c4F)c4nc(c(-c5cccc(S(=O)(=O)[O-])c5F)c5ccc2[nH]5)C=C4)C=C3)cc1)c1ccccc1
REMARK SMILES IDX 10 1 11 2 12 3 9 5 8 6 5 7 6 8 7 9 4 10 3 12 2 13 1 14 82 15
REMARK SMILES IDX 83 16 87 17 84 18 86 19 85 20 13 21 14 22 15 23 16 24 17 25
REMARK SMILES IDX 18 27 19 28 20 29 81 30 21 31 80 32 22 33 23 34 24 35 74 36
REMARK SMILES IDX 25 37 79 38 73 39 75 40 26 41 78 42 72 43 71 44 27 46 59 47
REMARK SMILES IDX 39 48 58 49 40 50 43 51 57 52 76 53 41 54 42 55 56 57 77 58
REMARK SMILES IDX 44 59 28 60 29 61 37 62 30 63 32 64 38 65 31 66 33 67 34 68
REMARK SMILES IDX 35 69 36 70 60 71 61 72 69 73 62 74 64 75 70 76 63 77 65 78
REMARK SMILES IDX 66 79 67 80 68 81 45 82 46 83 54 84 47 85 49 86 55 87 48 88
REMARK SMILES IDX 50 89 51 90 52 91 53 92
REMARK H PARENT 12 4 4 11 16 26 75 45 43 56
REMARK Flexibility Score: inf
ROOT
ATOM      1  C   UNL     1       4.213   1.158  -0.357  1.00  0.00     0.221 C 
ATOM      2  O   UNL     1       4.212   1.837   0.672  1.00  0.00    -0.275 OA
ATOM      3  N   UNL     1       3.496   1.606  -1.431  1.00  0.00    -0.356 N 
ATOM      4  H   UNL     1       2.821   2.289  -1.210  1.00  0.00     0.163 HD
ENDROOT
BRANCH   1   5
ATOM      5  C   UNL     1       4.898  -0.181  -0.358  1.00  0.00     0.117 C 
BRANCH   5   6
ATOM      6  C   UNL     1       4.118  -1.185   0.481  1.00  0.00     0.164 C 
BRANCH   6   7
ATOM      7  S   UNL     1       2.595  -1.728  -0.279  1.00  0.00     0.212 S 
ATOM      8  O   UNL     1       2.008  -2.728   0.575  1.00  0.00    -0.212 OA
ATOM      9  O   UNL     1       2.922  -2.014  -1.661  1.00  0.00    -0.212 OA
BRANCH   7  10
ATOM     10  N   UNL     1       1.596  -0.359  -0.251  1.00  0.00    -0.215 NA
ATOM     11  H   UNL     1       2.133   0.419  -0.636  1.00  0.00     0.141 HD
BRANCH  10  12
ATOM     12  C   UNL     1       1.068   0.072   1.067  1.00  0.00     0.106 C 
BRANCH  12  13
ATOM     13  C   UNL     1       0.244   1.400   1.063  1.00  0.00     0.031 C 
ATOM     14  C   UNL     1       0.966   2.560   0.364  1.00  0.00     0.014 C 
BRANCH  13  15
ATOM     15  C   UNL     1      -1.245   1.354   0.726  1.00  0.00    -0.044 A 
ATOM     16  C   UNL     1      -2.004   2.541   0.839  1.00  0.00     0.004 A 
ATOM     17  C   UNL     1      -1.942   0.167   0.470  1.00  0.00     0.004 A 
ATOM     18  C   UNL     1      -3.395   2.542   0.728  1.00  0.00     0.000 A 
ATOM     19  C   UNL     1      -3.342   0.163   0.394  1.00  0.00     0.000 A 
ATOM     20  C   UNL     1      -4.068   1.346   0.530  1.00  0.00     0.000 A 
ENDBRANCH  13  15
ENDBRANCH  12  13
ENDBRANCH  10  12
ENDBRANCH   7  10
ENDBRANCH   6   7
ENDBRANCH   5   6
ENDBRANCH   1   5
BRANCH   3  21
ATOM     21  C   UNL     1       3.553   1.253  -2.846  1.00  0.00     0.117 C 
BRANCH  21  22
ATOM     22  C   UNL     1       2.329   0.575  -3.484  1.00  0.00     0.042 C 
BRANCH  22  23
ATOM     23  C   UNL     1       0.923   1.151  -3.312  1.00  0.00     0.118 C 
BRANCH  23  24
ATOM     24  N   UNL     1       0.744   2.458  -3.910  1.00  0.00    -0.352 N 
ATOM     25  C   UNL     1      -0.387   2.937  -4.533  1.00  0.00     0.251 C 
ATOM     26  H   UNL     1       1.514   3.070  -3.866  1.00  0.00     0.163 HD
ATOM     27  O   UNL     1      -0.342   3.997  -5.151  1.00  0.00    -0.269 OA
BRANCH  25  28
ATOM     28  C   UNL     1      -1.654   2.171  -4.467  1.00  0.00     0.039 A 
ATOM     29  C   UNL     1      -2.278   1.777  -5.654  1.00  0.00     0.014 A 
ATOM     30  C   UNL     1      -2.253   1.891  -3.238  1.00  0.00     0.014 A 
ATOM     31  C   UNL     1      -3.496   1.086  -5.608  1.00  0.00     0.010 A 
ATOM     32  C   UNL     1      -3.454   1.174  -3.199  1.00  0.00     0.010 A 
ATOM     33  C   UNL     1      -4.098   0.773  -4.378  1.00  0.00    -0.014 A 
BRANCH  33  34
ATOM     34  C   UNL     1      -5.377   0.009  -4.321  1.00  0.00     0.031 A 
ATOM     35  C   UNL     1      -6.641   0.638  -3.795  1.00  0.00     0.074 A 
ATOM     36  C   UNL     1      -5.393  -1.286  -4.694  1.00  0.00     0.049 A 
ATOM     37  N   UNL     1      -7.848   0.133  -3.729  1.00  0.00    -0.248 NA
ATOM     38  C   UNL     1      -6.535   2.002  -3.256  1.00  0.00     0.031 C 
ATOM     39  C   UNL     1      -4.222  -2.049  -5.126  1.00  0.00     0.029 A 
ATOM     40  N   UNL     1      -6.421  -2.196  -4.747  1.00  0.00    -0.354 N 
ATOM     41  C   UNL     1      -8.639   1.102  -3.121  1.00  0.00     0.074 A 
ATOM     42  C   UNL     1      -7.766   2.214  -2.810  1.00  0.00     0.031 C 
ATOM     43  C   UNL     1      -4.596  -3.307  -5.407  1.00  0.00     0.029 A 
ATOM     44  C   UNL     1      -6.027  -3.449  -5.152  1.00  0.00     0.049 A 
ATOM     45  H   UNL     1      -7.352  -1.971  -4.517  1.00  0.00     0.167 HD
ATOM     46  C   UNL     1      -9.971   1.080  -2.863  1.00  0.00     0.034 A 
ATOM     47  C   UNL     1      -6.731  -4.590  -5.299  1.00  0.00     0.034 A 
ATOM     48  C   UNL     1     -10.840  -0.023  -3.182  1.00  0.00     0.049 A 
ATOM     49  C   UNL     1      -8.213  -4.582  -5.046  1.00  0.00     0.074 A 
ATOM     50  C   UNL     1     -12.217  -0.100  -3.055  1.00  0.00     0.029 A 
ATOM     51  N   UNL     1     -10.417  -1.255  -3.658  1.00  0.00    -0.354 N 
ATOM     52  N   UNL     1      -8.977  -3.592  -4.653  1.00  0.00    -0.248 NA
ATOM     53  C   UNL     1      -8.939  -5.836  -5.296  1.00  0.00     0.031 C 
ATOM     54  C   UNL     1     -12.619  -1.393  -3.407  1.00  0.00     0.029 A 
ATOM     55  C   UNL     1     -11.500  -2.107  -3.804  1.00  0.00     0.049 A 
ATOM     56  H   UNL     1      -9.483  -1.490  -3.863  1.00  0.00     0.167 HD
ATOM     57  C   UNL     1     -10.274  -4.093  -4.635  1.00  0.00     0.074 A 
ATOM     58  C   UNL     1     -10.195  -5.469  -5.080  1.00  0.00     0.031 C 
ATOM     59  C   UNL     1     -11.423  -3.469  -4.274  1.00  0.00     0.034 A 
BRANCH  46  60
ATOM     60  C   UNL     1     -10.579   2.303  -2.218  1.00  0.00     0.023 A 
ATOM     61  C   UNL     1     -10.663   3.512  -2.941  1.00  0.00     0.012 A 
ATOM     62  C   UNL     1     -11.106   2.247  -0.912  1.00  0.00     0.148 A 
ATOM     63  C   UNL     1     -11.211   4.655  -2.358  1.00  0.00     0.002 A 
ATOM     64  C   UNL     1     -11.696   3.377  -0.356  1.00  0.00     0.091 A 
ATOM     65  F   UNL     1     -11.008   1.096  -0.231  1.00  0.00    -0.205 F 
ATOM     66  C   UNL     1     -11.734   4.585  -1.070  1.00  0.00     0.022 A 
BRANCH  64  67
ATOM     67  S   UNL     1     -12.472   3.366   1.264  1.00  0.00     0.127 S 
ATOM     68  O   UNL     1     -11.516   4.142   2.053  1.00  0.00    -0.237 OA
ATOM     69  O   UNL     1     -13.741   4.048   1.003  1.00  0.00    -0.237 OA
ATOM     70  O   UNL     1     -12.602   1.965   1.638  1.00  0.00    -0.744 OA
ENDBRANCH  64  67
ENDBRANCH  46  60
BRANCH  47  71
ATOM     71  C   UNL     1      -6.036  -5.824  -5.762  1.00  0.00     0.023 A 
ATOM     72  C   UNL     1      -6.266  -6.313  -7.062  1.00  0.00     0.012 A 
ATOM     73  C   UNL     1      -5.105  -6.481  -4.934  1.00  0.00     0.148 A 
ATOM     74  C   UNL     1      -5.596  -7.446  -7.524  1.00  0.00     0.002 A 
ATOM     75  C   UNL     1      -4.399  -7.575  -5.419  1.00  0.00     0.091 A 
ATOM     76  F   UNL     1      -4.910  -6.003  -3.697  1.00  0.00    -0.205 F 
ATOM     77  C   UNL     1      -4.654  -8.069  -6.708  1.00  0.00     0.022 A 
BRANCH  75  78
ATOM     78  S   UNL     1      -3.077  -8.360  -4.493  1.00  0.00     0.127 S 
ATOM     79  O   UNL     1      -3.622  -9.697  -4.270  1.00  0.00    -0.237 OA
ATOM     80  O   UNL     1      -1.969  -8.298  -5.447  1.00  0.00    -0.237 OA
ATOM     81  O   UNL     1      -2.894  -7.550  -3.298  1.00  0.00    -0.744 OA
ENDBRANCH  75  78
ENDBRANCH  47  71
BRANCH  59  82
ATOM     82  C   UNL     1     -12.708  -4.255  -4.369  1.00  0.00     0.023 A 
ATOM     83  C   UNL     1     -12.962  -5.309  -3.469  1.00  0.00     0.012 A 
ATOM     84  C   UNL     1     -13.693  -3.904  -5.314  1.00  0.00     0.148 A 
ATOM     85  C   UNL     1     -14.157  -6.026  -3.533  1.00  0.00     0.002 A 
ATOM     86  C   UNL     1     -14.904  -4.587  -5.337  1.00  0.00     0.091 A 
ATOM     87  F   UNL     1     -13.428  -2.911  -6.175  1.00  0.00    -0.205 F 
ATOM     88  C   UNL     1     -15.132  -5.657  -4.457  1.00  0.00     0.022 A 
BRANCH  86  89
ATOM     89  S   UNL     1     -16.255  -4.119  -6.425  1.00  0.00     0.127 S 
ATOM     90  O   UNL     1     -16.277  -5.235  -7.369  1.00  0.00    -0.237 OA
ATOM     91  O   UNL     1     -17.392  -4.077  -5.505  1.00  0.00    -0.237 OA
ATOM     92  O   UNL     1     -15.888  -2.829  -6.993  1.00  0.00    -0.744 OA
ENDBRANCH  86  89
ENDBRANCH  59  82
ENDBRANCH  33  34
ENDBRANCH  25  28
ENDBRANCH  23  24
ENDBRANCH  22  23
ENDBRANCH  21  22
ENDBRANCH   3  21
TORSDOF 19
