REMARK SMILES CCOc1cc2c(cc1/C=C1/C(=O)N(c3cccc(C(=O)NCCCNC(=O)c4ccc(-c5c6nc(c(-c7cccc(S(=O)(=O)[O-])c7F)c7ccc([nH]7)c(-c7cccc(S(=O)(=O)[O-])c7F)c7nc(c(-c8cccc(S(=O)(=O)[O-])c8F)c8ccc5[nH]8)C=C7)C=C6)cc4)c3)C(=S)N=C1O)OCO2
REMARK SMILES IDX 23 1 22 2 20 3 21 4 19 6 15 7 16 8 92 9 17 10 18 11 14 12
REMARK SMILES IDX 10 13 11 14 12 15 96 16 13 17 95 18 93 19 94 20 9 21 4 22
REMARK SMILES IDX 5 23 6 24 8 25 7 26 100 27 98 28 99 29 3 30 2 31 1 32 97 33
REMARK SMILES IDX 24 35 25 36 26 37 27 38 28 40 29 41 30 42 91 43 31 44 90 45
REMARK SMILES IDX 32 46 33 47 34 48 84 49 35 50 89 51 83 52 85 53 36 54 88 55
REMARK SMILES IDX 82 56 81 57 37 59 69 60 49 61 68 62 50 63 53 64 67 65 86 66
REMARK SMILES IDX 51 67 52 68 66 70 87 71 54 72 38 73 39 74 47 75 40 76 42 77
REMARK SMILES IDX 48 78 41 79 43 80 44 81 45 82 46 83 70 84 71 85 79 86 72 87
REMARK SMILES IDX 74 88 80 89 73 90 75 91 76 92 77 93 78 94 55 95 56 96 64 97
REMARK SMILES IDX 57 98 59 99 65 100 58 101 60 102 61 103 62 104 63 105
REMARK H PARENT 22 5 97 34 26 39 85 58 53 69
REMARK Flexibility Score: inf
ROOT
ATOM      1  C   UNL     1       0.204  -7.121  -6.411  1.00  0.00     0.118 C 
ENDROOT
BRANCH   1   2
ATOM      2  N   UNL     1      -0.696  -8.223  -6.736  1.00  0.00    -0.352 N 
ATOM      3  C   UNL     1      -1.030  -9.391  -6.087  1.00  0.00     0.251 C 
ATOM      4  O   UNL     1      -1.851 -10.135  -6.625  1.00  0.00    -0.269 OA
ATOM      5  H   UNL     1      -1.159  -8.108  -7.597  1.00  0.00     0.163 HD
BRANCH   3   6
ATOM      6  C   UNL     1      -0.395  -9.825  -4.812  1.00  0.00     0.041 A 
ATOM      7  C   UNL     1       1.061  -9.355  -2.929  1.00  0.00     0.052 A 
ATOM      8  C   UNL     1       1.138 -10.731  -2.668  1.00  0.00     0.027 A 
ATOM      9  C   UNL     1       0.145  -8.926  -3.893  1.00  0.00     0.040 A 
ATOM     10  C   UNL     1       0.439 -11.648  -3.457  1.00  0.00     0.003 A 
ATOM     11  C   UNL     1      -0.280 -11.197  -4.562  1.00  0.00     0.014 A 
BRANCH   7  12
ATOM     12  N   UNL     1       2.000  -8.411  -2.351  1.00  0.00    -0.251 N 
ATOM     13  C   UNL     1       2.281  -4.850  -1.503  1.00  0.00     0.031 C 
ATOM     14  C   UNL     1       2.581  -6.172  -1.522  1.00  0.00     0.103 C 
ATOM     15  C   UNL     1       1.529  -7.135  -1.984  1.00  0.00     0.270 C 
ATOM     16  C   UNL     1       3.819  -6.832  -1.122  1.00  0.00     0.226 C 
ATOM     17  O   UNL     1       0.349  -6.781  -2.009  1.00  0.00    -0.268 OA
ATOM     18  N   UNL     1       4.185  -8.010  -1.449  1.00  0.00    -0.184 NA
ATOM     19  C   UNL     1       3.384  -8.725  -2.305  1.00  0.00     0.210 C 
ATOM     20  S   UNL     1       4.165  -9.885  -3.275  1.00  0.00    -0.038 S 
BRANCH  13  21
ATOM     21  C   UNL     1       3.112  -3.708  -1.045  1.00  0.00     0.021 A 
ATOM     22  C   UNL     1       2.558  -2.666  -0.254  1.00  0.00     0.130 A 
ATOM     23  C   UNL     1       3.377  -1.762   0.434  1.00  0.00     0.097 A 
ATOM     24  C   UNL     1       4.730  -1.833   0.219  1.00  0.00     0.169 A 
ATOM     25  C   UNL     1       4.482  -3.644  -1.346  1.00  0.00     0.062 A 
ATOM     26  C   UNL     1       5.264  -2.728  -0.672  1.00  0.00     0.166 A 
ATOM     27  O   UNL     1       5.675  -1.069   0.826  1.00  0.00    -0.453 OA
ATOM     28  O   UNL     1       6.618  -2.636  -0.743  1.00  0.00    -0.454 OA
ATOM     29  C   UNL     1       6.877  -1.642   0.268  1.00  0.00     0.468 C 
BRANCH  22  30
ATOM     30  O   UNL     1       1.198  -2.547  -0.081  1.00  0.00    -0.493 OA
BRANCH  30  31
ATOM     31  C   UNL     1       0.658  -1.488  -0.898  1.00  0.00     0.226 C 
ATOM     32  C   UNL     1       0.694  -0.129  -0.207  1.00  0.00     0.049 C 
ENDBRANCH  30  31
ENDBRANCH  22  30
ENDBRANCH  13  21
BRANCH  16  33
ATOM     33  O   UNL     1       4.629  -6.184  -0.287  1.00  0.00    -0.493 OA
ATOM     34  H   UNL     1       4.416  -5.315  -0.009  1.00  0.00     0.295 HD
ENDBRANCH  16  33
ENDBRANCH   7  12
ENDBRANCH   3   6
ENDBRANCH   1   2
BRANCH   1  35
ATOM     35  C   UNL     1       1.238  -6.811  -7.476  1.00  0.00     0.042 C 
BRANCH  35  36
ATOM     36  C   UNL     1       0.672  -6.255  -8.767  1.00  0.00     0.118 C 
BRANCH  36  37
ATOM     37  N   UNL     1      -0.022  -4.986  -8.582  1.00  0.00    -0.352 N 
ATOM     38  C   UNL     1       0.327  -3.705  -8.945  1.00  0.00     0.251 C 
ATOM     39  H   UNL     1      -0.888  -5.057  -8.118  1.00  0.00     0.163 HD
ATOM     40  O   UNL     1      -0.319  -2.760  -8.506  1.00  0.00    -0.269 OA
BRANCH  38  41
ATOM     41  C   UNL     1       1.482  -3.460  -9.839  1.00  0.00     0.039 A 
ATOM     42  C   UNL     1       2.299  -2.349  -9.610  1.00  0.00     0.014 A 
ATOM     43  C   UNL     1       1.754  -4.306 -10.914  1.00  0.00     0.014 A 
ATOM     44  C   UNL     1       3.426  -2.138 -10.409  1.00  0.00     0.010 A 
ATOM     45  C   UNL     1       2.936  -4.164 -11.630  1.00  0.00     0.010 A 
ATOM     46  C   UNL     1       3.779  -3.069 -11.399  1.00  0.00    -0.014 A 
BRANCH  46  47
ATOM     47  C   UNL     1       5.016  -2.921 -12.210  1.00  0.00     0.031 A 
ATOM     48  C   UNL     1       4.928  -2.825 -13.711  1.00  0.00     0.074 A 
ATOM     49  C   UNL     1       6.220  -2.974 -11.606  1.00  0.00     0.049 A 
ATOM     50  N   UNL     1       5.893  -2.776 -14.592  1.00  0.00    -0.248 NA
ATOM     51  C   UNL     1       3.579  -2.819 -14.305  1.00  0.00     0.031 C 
ATOM     52  C   UNL     1       6.439  -3.150 -10.168  1.00  0.00     0.029 A 
ATOM     53  N   UNL     1       7.488  -2.914 -12.128  1.00  0.00    -0.354 N 
ATOM     54  C   UNL     1       5.273  -2.776 -15.836  1.00  0.00     0.074 A 
ATOM     55  C   UNL     1       3.850  -2.872 -15.600  1.00  0.00     0.031 C 
ATOM     56  C   UNL     1       7.759  -3.173  -9.923  1.00  0.00     0.029 A 
ATOM     57  C   UNL     1       8.480  -3.055 -11.185  1.00  0.00     0.049 A 
ATOM     58  H   UNL     1       7.670  -2.783 -13.086  1.00  0.00     0.167 HD
ATOM     59  C   UNL     1       5.833  -2.673 -17.065  1.00  0.00     0.034 A 
ATOM     60  C   UNL     1       9.820  -3.096 -11.323  1.00  0.00     0.034 A 
ATOM     61  C   UNL     1       7.245  -2.533 -17.293  1.00  0.00     0.049 A 
ATOM     62  C   UNL     1      10.416  -2.943 -12.696  1.00  0.00     0.074 A 
ATOM     63  C   UNL     1       7.906  -2.329 -18.491  1.00  0.00     0.029 A 
ATOM     64  N   UNL     1       8.215  -2.594 -16.305  1.00  0.00    -0.354 N 
ATOM     65  N   UNL     1       9.808  -2.786 -13.846  1.00  0.00    -0.248 NA
ATOM     66  C   UNL     1      11.883  -2.938 -12.786  1.00  0.00     0.031 C 
ATOM     67  C   UNL     1       9.280  -2.300 -18.230  1.00  0.00     0.029 A 
ATOM     68  C   UNL     1       9.471  -2.444 -16.865  1.00  0.00     0.049 A 
ATOM     69  H   UNL     1       8.036  -2.724 -15.345  1.00  0.00     0.167 HD
ATOM     70  C   UNL     1      10.815  -2.624 -14.791  1.00  0.00     0.074 A 
ATOM     71  C   UNL     1      12.072  -2.682 -14.073  1.00  0.00     0.031 C 
ATOM     72  C   UNL     1      10.710  -2.454 -16.132  1.00  0.00     0.034 A 
BRANCH  59  73
ATOM     73  C   UNL     1       4.911  -2.662 -18.258  1.00  0.00     0.023 A 
ATOM     74  C   UNL     1       4.071  -1.551 -18.484  1.00  0.00     0.012 A 
ATOM     75  C   UNL     1       4.915  -3.722 -19.186  1.00  0.00     0.148 A 
ATOM     76  C   UNL     1       3.223  -1.513 -19.589  1.00  0.00     0.002 A 
ATOM     77  C   UNL     1       4.104  -3.654 -20.312  1.00  0.00     0.091 A 
ATOM     78  F   UNL     1       5.705  -4.779 -18.946  1.00  0.00    -0.205 F 
ATOM     79  C   UNL     1       3.247  -2.558 -20.508  1.00  0.00     0.022 A 
BRANCH  77  80
ATOM     80  S   UNL     1       4.122  -4.907 -21.599  1.00  0.00     0.127 S 
ATOM     81  O   UNL     1       2.803  -5.518 -21.435  1.00  0.00    -0.237 OA
ATOM     82  O   UNL     1       4.274  -4.100 -22.810  1.00  0.00    -0.237 OA
ATOM     83  O   UNL     1       5.252  -5.776 -21.300  1.00  0.00    -0.744 OA
ENDBRANCH  77  80
ENDBRANCH  59  73
BRANCH  60  84
ATOM     84  C   UNL     1      10.691  -3.232 -10.120  1.00  0.00     0.023 A 
ATOM     85  C   UNL     1      11.486  -2.142  -9.713  1.00  0.00     0.012 A 
ATOM     86  C   UNL     1      10.721  -4.421  -9.367  1.00  0.00     0.148 A 
ATOM     87  C   UNL     1      12.323  -2.247  -8.602  1.00  0.00     0.002 A 
ATOM     88  C   UNL     1      11.513  -4.499  -8.227  1.00  0.00     0.091 A 
ATOM     89  F   UNL     1       9.964  -5.450  -9.774  1.00  0.00    -0.205 F 
ATOM     90  C   UNL     1      12.329  -3.420  -7.854  1.00  0.00     0.022 A 
BRANCH  88  91
ATOM     91  S   UNL     1      11.484  -5.919  -7.127  1.00  0.00     0.127 S 
ATOM     92  O   UNL     1      12.814  -6.485  -7.335  1.00  0.00    -0.237 OA
ATOM     93  O   UNL     1      11.280  -5.284  -5.824  1.00  0.00    -0.237 OA
ATOM     94  O   UNL     1      10.369  -6.741  -7.576  1.00  0.00    -0.744 OA
ENDBRANCH  88  91
ENDBRANCH  60  84
BRANCH  72  95
ATOM     95  C   UNL     1      11.984  -2.269 -16.915  1.00  0.00     0.023 A 
ATOM     96  C   UNL     1      12.857  -3.357 -17.112  1.00  0.00     0.012 A 
ATOM     97  C   UNL     1      12.274  -1.030 -17.520  1.00  0.00     0.148 A 
ATOM     98  C   UNL     1      14.018  -3.204 -17.869  1.00  0.00     0.002 A 
ATOM     99  C   UNL     1      13.404  -0.900 -18.317  1.00  0.00     0.091 A 
ATOM    100  F   UNL     1      11.439  -0.003 -17.306  1.00  0.00    -0.205 F 
ATOM    101  C   UNL     1      14.284  -1.982 -18.481  1.00  0.00     0.022 A 
BRANCH  99 102
ATOM    102  S   UNL     1      13.775   0.604 -19.226  1.00  0.00     0.127 S 
ATOM    103  O   UNL     1      14.941   1.108 -18.503  1.00  0.00    -0.237 OA
ATOM    104  O   UNL     1      14.062   0.092 -20.566  1.00  0.00    -0.237 OA
ATOM    105  O   UNL     1      12.581   1.433 -19.137  1.00  0.00    -0.744 OA
ENDBRANCH  99 102
ENDBRANCH  72  95
ENDBRANCH  46  47
ENDBRANCH  38  41
ENDBRANCH  36  37
ENDBRANCH  35  36
ENDBRANCH   1  35
TORSDOF 18
