REMARK SMILES O=CN[C@H](C(=O)NCCCNC(=O)c1ccc(-c2c3nc(c(-c4cccc(S(=O)(=O)[O-])c4F)c4ccc([nH]4)c(-c4cccc(S(=O)(=O)[O-])c4F)c4nc(c(-c5cccc(S(=O)(=O)[O-])c5F)c5ccc2[nH]5)C=C4)C=C3)cc1)[C@@H]1CCO[C@@]2(CCOC2)C1
REMARK SMILES IDX 10 1 9 2 8 3 7 4 5 5 6 6 4 8 3 9 1 10 2 11 77 13 78 14 86 15
REMARK SMILES IDX 79 16 81 17 80 18 82 19 85 20 83 21 84 22 11 23 12 24 13 26
REMARK SMILES IDX 14 27 15 28 76 29 16 30 75 31 17 32 18 33 19 34 69 35 20 36
REMARK SMILES IDX 74 37 68 38 70 39 21 40 73 41 67 42 66 43 22 45 54 46 34 47
REMARK SMILES IDX 53 48 35 49 38 50 52 51 71 52 36 53 37 54 51 56 72 57 39 58
REMARK SMILES IDX 23 59 24 60 32 61 25 62 27 63 33 64 26 65 28 66 29 67 30 68
REMARK SMILES IDX 31 69 55 70 56 71 64 72 57 73 59 74 65 75 58 76 60 77 61 78
REMARK SMILES IDX 62 79 63 80 40 81 41 82 49 83 42 84 44 85 50 86 43 87 45 88
REMARK SMILES IDX 46 89 47 90 48 91
REMARK H PARENT 7 7 3 12 11 25 70 44 38 55
REMARK Flexibility Score: inf
ROOT
ATOM      1  C   UNL     1       0.818   4.571  -2.343  1.00  0.00     0.118 C 
ENDROOT
BRANCH   1   2
ATOM      2  C   UNL     1       2.309   4.422  -2.092  1.00  0.00     0.042 C 
BRANCH   2   3
ATOM      3  C   UNL     1       2.637   3.997  -0.670  1.00  0.00     0.117 C 
BRANCH   3   4
ATOM      4  N   UNL     1       2.255   2.625  -0.411  1.00  0.00    -0.354 N 
ATOM      5  C   UNL     1       3.005   1.492  -0.400  1.00  0.00     0.242 C 
ATOM      6  O   UNL     1       2.430   0.429  -0.141  1.00  0.00    -0.273 OA
ATOM      7  H   UNL     1       1.300   2.492  -0.210  1.00  0.00     0.163 HD
BRANCH   5   8
ATOM      8  C   UNL     1       4.534   1.512  -0.624  1.00  0.00     0.174 C 
BRANCH   8   9
ATOM      9  N   UNL     1       4.901   1.867  -1.993  1.00  0.00    -0.347 N 
ATOM     10  O   UNL     1       5.498   3.148  -3.742  1.00  0.00    -0.279 OA
ATOM     11  C   UNL     1       5.249   3.050  -2.554  1.00  0.00     0.337 C 
ATOM     12  H   UNL     1       4.893   1.109  -2.621  1.00  0.00     0.164 HD
ENDBRANCH   8   9
BRANCH   8  13
ATOM     13  C   UNL     1       5.289   2.168   0.567  1.00  0.00     0.026 C 
ATOM     14  C   UNL     1       6.738   2.573   0.284  1.00  0.00     0.035 C 
ATOM     15  C   UNL     1       5.317   1.244   1.815  1.00  0.00     0.044 C 
ATOM     16  C   UNL     1       7.589   1.341   0.061  1.00  0.00     0.161 C 
ATOM     17  C   UNL     1       6.365   0.103   1.753  1.00  0.00     0.094 C 
ATOM     18  O   UNL     1       7.627   0.571   1.255  1.00  0.00    -0.372 OA
ATOM     19  C   UNL     1       6.671  -0.444   3.152  1.00  0.00     0.066 C 
ATOM     20  C   UNL     1       5.859  -1.158   1.018  1.00  0.00     0.195 C 
ATOM     21  C   UNL     1       5.845  -1.699   3.244  1.00  0.00     0.163 C 
ATOM     22  O   UNL     1       5.919  -2.265   1.937  1.00  0.00    -0.378 OA
ENDBRANCH   8  13
ENDBRANCH   5   8
ENDBRANCH   3   4
ENDBRANCH   2   3
ENDBRANCH   1   2
BRANCH   1  23
ATOM     23  N   UNL     1       0.224   5.604  -1.505  1.00  0.00    -0.352 N 
ATOM     24  C   UNL     1      -0.276   6.835  -1.850  1.00  0.00     0.251 C 
ATOM     25  H   UNL     1       0.172   5.386  -0.546  1.00  0.00     0.163 HD
ATOM     26  O   UNL     1      -0.485   7.668  -0.973  1.00  0.00    -0.269 OA
BRANCH  24  27
ATOM     27  C   UNL     1      -0.557   7.150  -3.266  1.00  0.00     0.039 A 
ATOM     28  C   UNL     1      -0.268   8.427  -3.751  1.00  0.00     0.014 A 
ATOM     29  C   UNL     1      -1.122   6.190  -4.110  1.00  0.00     0.014 A 
ATOM     30  C   UNL     1      -0.492   8.720  -5.098  1.00  0.00     0.010 A 
ATOM     31  C   UNL     1      -1.246   6.450  -5.468  1.00  0.00     0.010 A 
ATOM     32  C   UNL     1      -0.950   7.722  -5.975  1.00  0.00    -0.014 A 
BRANCH  32  33
ATOM     33  C   UNL     1      -1.132   7.987  -7.424  1.00  0.00     0.031 A 
ATOM     34  C   UNL     1      -2.492   7.834  -8.054  1.00  0.00     0.074 A 
ATOM     35  C   UNL     1      -0.058   8.274  -8.185  1.00  0.00     0.049 A 
ATOM     36  N   UNL     1      -2.834   7.953  -9.310  1.00  0.00    -0.248 NA
ATOM     37  C   UNL     1      -3.609   7.470  -7.164  1.00  0.00     0.031 C 
ATOM     38  C   UNL     1       1.323   8.362  -7.704  1.00  0.00     0.029 A 
ATOM     39  N   UNL     1       0.047   8.514  -9.533  1.00  0.00    -0.354 N 
ATOM     40  C   UNL     1      -4.187   7.638  -9.367  1.00  0.00     0.074 A 
ATOM     41  C   UNL     1      -4.600   7.294  -8.026  1.00  0.00     0.031 C 
ATOM     42  C   UNL     1       2.135   8.637  -8.737  1.00  0.00     0.029 A 
ATOM     43  C   UNL     1       1.341   8.708  -9.959  1.00  0.00     0.049 A 
ATOM     44  H   UNL     1      -0.730   8.543 -10.137  1.00  0.00     0.167 HD
ATOM     45  C   UNL     1      -5.016   7.660 -10.436  1.00  0.00     0.034 A 
ATOM     46  C   UNL     1       1.834   8.904 -11.198  1.00  0.00     0.034 A 
ATOM     47  C   UNL     1      -4.610   8.052 -11.758  1.00  0.00     0.049 A 
ATOM     48  C   UNL     1       0.878   8.967 -12.358  1.00  0.00     0.074 A 
ATOM     49  C   UNL     1      -5.396   8.209 -12.885  1.00  0.00     0.029 A 
ATOM     50  N   UNL     1      -3.307   8.336 -12.134  1.00  0.00    -0.354 N 
ATOM     51  N   UNL     1      -0.426   8.837 -12.362  1.00  0.00    -0.248 NA
ATOM     52  C   UNL     1       1.457   9.241 -13.682  1.00  0.00     0.031 C 
ATOM     53  C   UNL     1      -4.562   8.553 -13.953  1.00  0.00     0.029 A 
ATOM     54  C   UNL     1      -3.264   8.651 -13.480  1.00  0.00     0.049 A 
ATOM     55  H   UNL     1      -2.528   8.316 -11.532  1.00  0.00     0.167 HD
ATOM     56  C   UNL     1      -0.827   9.050 -13.675  1.00  0.00     0.074 A 
ATOM     57  C   UNL     1       0.371   9.342 -14.435  1.00  0.00     0.031 C 
ATOM     58  C   UNL     1      -2.071   8.994 -14.210  1.00  0.00     0.034 A 
BRANCH  45  59
ATOM     59  C   UNL     1      -6.461   7.295 -10.222  1.00  0.00     0.023 A 
ATOM     60  C   UNL     1      -7.311   8.179  -9.527  1.00  0.00     0.012 A 
ATOM     61  C   UNL     1      -6.998   6.123 -10.790  1.00  0.00     0.148 A 
ATOM     62  C   UNL     1      -8.667   7.891  -9.379  1.00  0.00     0.002 A 
ATOM     63  C   UNL     1      -8.359   5.866 -10.679  1.00  0.00     0.091 A 
ATOM     64  F   UNL     1      -6.169   5.286 -11.430  1.00  0.00    -0.205 F 
ATOM     65  C   UNL     1      -9.193   6.743  -9.965  1.00  0.00     0.022 A 
BRANCH  63  66
ATOM     66  S   UNL     1      -9.151   4.461 -11.469  1.00  0.00     0.127 S 
ATOM     67  O   UNL     1      -9.582   3.677 -10.311  1.00  0.00    -0.237 OA
ATOM     68  O   UNL     1     -10.237   5.100 -12.211  1.00  0.00    -0.237 OA
ATOM     69  O   UNL     1      -8.130   3.833 -12.296  1.00  0.00    -0.744 OA
ENDBRANCH  63  66
ENDBRANCH  45  59
BRANCH  46  70
ATOM     70  C   UNL     1       3.298   9.092 -11.405  1.00  0.00     0.023 A 
ATOM     71  C   UNL     1       3.787  10.346 -11.822  1.00  0.00     0.012 A 
ATOM     72  C   UNL     1       4.207   8.038 -11.194  1.00  0.00     0.148 A 
ATOM     73  C   UNL     1       5.147  10.532 -12.071  1.00  0.00     0.002 A 
ATOM     74  C   UNL     1       5.567   8.247 -11.386  1.00  0.00     0.091 A 
ATOM     75  F   UNL     1       3.722   6.849 -10.806  1.00  0.00    -0.205 F 
ATOM     76  C   UNL     1       6.038   9.486 -11.846  1.00  0.00     0.022 A 
BRANCH  74  77
ATOM     77  S   UNL     1       6.796   6.997 -10.995  1.00  0.00     0.127 S 
ATOM     78  O   UNL     1       7.235   6.584 -12.326  1.00  0.00    -0.237 OA
ATOM     79  O   UNL     1       7.779   7.769 -10.233  1.00  0.00    -0.237 OA
ATOM     80  O   UNL     1       6.092   5.987 -10.217  1.00  0.00    -0.744 OA
ENDBRANCH  74  77
ENDBRANCH  46  70
BRANCH  58  81
ATOM     81  C   UNL     1      -2.218   9.302 -15.676  1.00  0.00     0.023 A 
ATOM     82  C   UNL     1      -1.753   8.386 -16.639  1.00  0.00     0.012 A 
ATOM     83  C   UNL     1      -2.887  10.469 -16.096  1.00  0.00     0.148 A 
ATOM     84  C   UNL     1      -1.921   8.643 -17.999  1.00  0.00     0.002 A 
ATOM     85  C   UNL     1      -3.099  10.692 -17.450  1.00  0.00     0.091 A 
ATOM     86  F   UNL     1      -3.308  11.335 -15.162  1.00  0.00    -0.205 F 
ATOM     87  C   UNL     1      -2.604   9.788 -18.404  1.00  0.00     0.022 A 
BRANCH  85  88
ATOM     88  S   UNL     1      -4.056  12.084 -18.058  1.00  0.00     0.127 S 
ATOM     89  O   UNL     1      -3.021  12.907 -18.682  1.00  0.00    -0.237 OA
ATOM     90  O   UNL     1      -4.974  11.441 -18.999  1.00  0.00    -0.237 OA
ATOM     91  O   UNL     1      -4.700  12.672 -16.892  1.00  0.00    -0.744 OA
ENDBRANCH  85  88
ENDBRANCH  58  81
ENDBRANCH  32  33
ENDBRANCH  24  27
ENDBRANCH   1  23
TORSDOF 15
