REMARK SMILES O=C(Cc1csc(NC(=O)CS[C@@H]2CCS(=O)(=O)C2)n1)NCCCNC(=O)c1ccc(-c2c3nc(c(-c4cccc(S(=O)(=O)[O-])c4F)c4ccc([nH]4)c(-c4cccc(S(=O)(=O)[O-])c4F)c4nc(c(-c5cccc(S(=O)(=O)[O-])c5F)c5ccc2[nH]5)C=C4)C=C3)cc1
REMARK SMILES IDX 22 1 21 2 1 3 2 4 3 6 4 7 5 8 20 9 6 10 7 11 8 12 9 13 10 15
REMARK SMILES IDX 11 16 12 17 13 18 14 19 19 20 15 21 16 22 17 23 18 24 23 25
REMARK SMILES IDX 24 26 25 27 26 28 27 30 28 31 29 32 90 33 30 34 89 35 31 36
REMARK SMILES IDX 32 37 33 38 83 39 34 40 88 41 82 42 84 43 35 44 87 45 81 46
REMARK SMILES IDX 80 47 36 49 68 50 48 51 67 52 49 53 52 54 66 55 85 56 50 57
REMARK SMILES IDX 51 58 65 60 86 61 53 62 37 63 38 64 46 65 39 66 41 67 47 68
REMARK SMILES IDX 40 69 42 70 43 71 44 72 45 73 69 74 70 75 78 76 71 77 73 78
REMARK SMILES IDX 79 79 72 80 74 81 75 82 76 83 77 84 54 85 55 86 63 87 56 88
REMARK SMILES IDX 58 89 64 90 57 91 59 92 60 93 61 94 62 95
REMARK H PARENT 21 5 8 14 25 29 84 48 52 59
REMARK Flexibility Score: inf
ROOT
ATOM      1  C   UNL     1       2.010   2.347  -0.569  1.00  0.00     0.117 C 
ENDROOT
BRANCH   1   2
ATOM      2  N   UNL     1       2.693   1.100  -0.312  1.00  0.00    -0.356 N 
ATOM      3  O   UNL     1       0.877  -0.099   0.443  1.00  0.00    -0.275 OA
ATOM      4  C   UNL     1       2.071  -0.033   0.166  1.00  0.00     0.226 C 
ATOM      5  H   UNL     1       3.660   1.057  -0.489  1.00  0.00     0.163 HD
BRANCH   4   6
ATOM      6  C   UNL     1       3.013  -1.211   0.344  1.00  0.00     0.157 C 
BRANCH   6   7
ATOM      7  C   UNL     1       3.573  -1.622  -0.976  1.00  0.00     0.063 A 
ATOM      8  C   UNL     1       3.317  -2.797  -1.652  1.00  0.00     0.093 A 
ATOM      9  N   UNL     1       4.431  -0.748  -1.641  1.00  0.00    -0.224 NA
ATOM     10  S   UNL     1       4.041  -2.732  -3.197  1.00  0.00    -0.105 S 
ATOM     11  C   UNL     1       4.809  -1.271  -2.783  1.00  0.00     0.189 A 
BRANCH  11  12
ATOM     12  N   UNL     1       5.689  -0.608  -3.593  1.00  0.00    -0.301 N 
ATOM     13  C   UNL     1       6.486  -1.010  -4.617  1.00  0.00     0.236 C 
ATOM     14  H   UNL     1       5.760   0.354  -3.394  1.00  0.00     0.172 HD
ATOM     15  O   UNL     1       7.176  -0.148  -5.178  1.00  0.00    -0.274 OA
BRANCH  13  16
ATOM     16  C   UNL     1       6.605  -2.444  -5.079  1.00  0.00     0.170 C 
BRANCH  16  17
ATOM     17  S   UNL     1       7.306  -3.538  -3.802  1.00  0.00    -0.148 SA
BRANCH  17  18
ATOM     18  C   UNL     1       9.039  -2.950  -3.631  1.00  0.00     0.063 C 
ATOM     19  C   UNL     1       9.823  -2.882  -4.947  1.00  0.00     0.031 C 
ATOM     20  C   UNL     1       9.795  -3.991  -2.792  1.00  0.00     0.151 C 
ATOM     21  C   UNL     1       9.994  -4.316  -5.439  1.00  0.00     0.138 C 
ATOM     22  S   UNL     1      10.264  -5.277  -3.953  1.00  0.00     0.151 S 
ATOM     23  O   UNL     1       9.290  -6.351  -3.911  1.00  0.00    -0.229 OA
ATOM     24  O   UNL     1      11.681  -5.531  -3.820  1.00  0.00    -0.229 OA
ENDBRANCH  17  18
ENDBRANCH  16  17
ENDBRANCH  13  16
ENDBRANCH  11  12
ENDBRANCH   6   7
ENDBRANCH   4   6
ENDBRANCH   1   2
BRANCH   1  25
ATOM     25  C   UNL     1       2.353   3.411   0.466  1.00  0.00     0.042 C 
BRANCH  25  26
ATOM     26  C   UNL     1       3.839   3.744   0.566  1.00  0.00     0.118 C 
BRANCH  26  27
ATOM     27  N   UNL     1       4.388   4.302  -0.661  1.00  0.00    -0.352 N 
ATOM     28  C   UNL     1       5.084   5.466  -0.877  1.00  0.00     0.251 C 
ATOM     29  H   UNL     1       4.234   3.758  -1.467  1.00  0.00     0.163 HD
ATOM     30  O   UNL     1       5.332   5.802  -2.033  1.00  0.00    -0.269 OA
BRANCH  28  31
ATOM     31  C   UNL     1       5.524   6.322   0.251  1.00  0.00     0.039 A 
ATOM     32  C   UNL     1       5.468   7.711   0.093  1.00  0.00     0.014 A 
ATOM     33  C   UNL     1       6.033   5.783   1.435  1.00  0.00     0.014 A 
ATOM     34  C   UNL     1       5.886   8.550   1.130  1.00  0.00     0.010 A 
ATOM     35  C   UNL     1       6.364   6.621   2.501  1.00  0.00     0.010 A 
ATOM     36  C   UNL     1       6.319   8.014   2.354  1.00  0.00    -0.014 A 
BRANCH  36  37
ATOM     37  C   UNL     1       6.745   8.907   3.466  1.00  0.00     0.031 A 
ATOM     38  C   UNL     1       8.159   8.861   3.988  1.00  0.00     0.074 A 
ATOM     39  C   UNL     1       5.851   9.739   4.037  1.00  0.00     0.049 A 
ATOM     40  N   UNL     1       8.715   9.583   4.929  1.00  0.00    -0.248 NA
ATOM     41  C   UNL     1       9.062   7.861   3.396  1.00  0.00     0.031 C 
ATOM     42  C   UNL     1       4.432   9.826   3.684  1.00  0.00     0.029 A 
ATOM     43  N   UNL     1       5.999  10.663   5.042  1.00  0.00    -0.354 N 
ATOM     44  C   UNL     1      10.014   9.106   5.061  1.00  0.00     0.074 A 
ATOM     45  C   UNL     1      10.152   8.004   4.135  1.00  0.00     0.031 C 
ATOM     46  C   UNL     1       3.845  10.763   4.446  1.00  0.00     0.029 A 
ATOM     47  C   UNL     1       4.836  11.325   5.359  1.00  0.00     0.049 A 
ATOM     48  H   UNL     1       6.857  10.835   5.493  1.00  0.00     0.167 HD
ATOM     49  C   UNL     1      11.014   9.560   5.855  1.00  0.00     0.034 A 
ATOM     50  C   UNL     1       4.592  12.279   6.279  1.00  0.00     0.034 A 
ATOM     51  C   UNL     1      10.887  10.675   6.754  1.00  0.00     0.049 A 
ATOM     52  C   UNL     1       5.731  12.797   7.117  1.00  0.00     0.074 A 
ATOM     53  C   UNL     1      11.861  11.259   7.545  1.00  0.00     0.029 A 
ATOM     54  N   UNL     1       9.712  11.371   6.992  1.00  0.00    -0.354 N 
ATOM     55  N   UNL     1       6.990  12.433   7.117  1.00  0.00    -0.248 NA
ATOM     56  C   UNL     1       5.422  13.891   8.048  1.00  0.00     0.031 C 
ATOM     57  C   UNL     1      11.266  12.286   8.286  1.00  0.00     0.029 A 
ATOM     58  C   UNL     1       9.933  12.374   7.920  1.00  0.00     0.049 A 
ATOM     59  H   UNL     1       8.846  11.180   6.563  1.00  0.00     0.167 HD
ATOM     60  C   UNL     1       7.632  13.284   8.009  1.00  0.00     0.074 A 
ATOM     61  C   UNL     1       6.625  14.193   8.515  1.00  0.00     0.031 C 
ATOM     62  C   UNL     1       8.936  13.306   8.382  1.00  0.00     0.034 A 
BRANCH  49  63
ATOM     63  C   UNL     1      12.353   8.872   5.757  1.00  0.00     0.023 A 
ATOM     64  C   UNL     1      13.131   9.016   4.589  1.00  0.00     0.012 A 
ATOM     65  C   UNL     1      12.867   8.129   6.838  1.00  0.00     0.148 A 
ATOM     66  C   UNL     1      14.377   8.399   4.482  1.00  0.00     0.002 A 
ATOM     67  C   UNL     1      14.131   7.559   6.744  1.00  0.00     0.091 A 
ATOM     68  F   UNL     1      12.107   7.986   7.934  1.00  0.00    -0.205 F 
ATOM     69  C   UNL     1      14.881   7.680   5.562  1.00  0.00     0.022 A 
BRANCH  67  70
ATOM     70  S   UNL     1      14.906   6.685   8.109  1.00  0.00     0.127 S 
ATOM     71  O   UNL     1      14.911   5.310   7.612  1.00  0.00    -0.237 OA
ATOM     72  O   UNL     1      16.225   7.317   8.167  1.00  0.00    -0.237 OA
ATOM     73  O   UNL     1      14.064   6.925   9.271  1.00  0.00    -0.744 OA
ENDBRANCH  67  70
ENDBRANCH  49  63
BRANCH  50  74
ATOM     74  C   UNL     1       3.225  12.859   6.412  1.00  0.00     0.023 A 
ATOM     75  C   UNL     1       2.992  14.192   6.021  1.00  0.00     0.012 A 
ATOM     76  C   UNL     1       2.155  12.093   6.913  1.00  0.00     0.148 A 
ATOM     77  C   UNL     1       1.729  14.766   6.168  1.00  0.00     0.002 A 
ATOM     78  C   UNL     1       0.886  12.652   7.001  1.00  0.00     0.091 A 
ATOM     79  F   UNL     1       2.400  10.829   7.285  1.00  0.00    -0.205 F 
ATOM     80  C   UNL     1       0.675  13.995   6.649  1.00  0.00     0.022 A 
BRANCH  78  81
ATOM     81  S   UNL     1      -0.555  11.698   7.487  1.00  0.00     0.127 S 
ATOM     82  O   UNL     1      -0.885  12.292   8.780  1.00  0.00    -0.237 OA
ATOM     83  O   UNL     1      -1.495  12.006   6.408  1.00  0.00    -0.237 OA
ATOM     84  O   UNL     1      -0.115  10.310   7.523  1.00  0.00    -0.744 OA
ENDBRANCH  78  81
ENDBRANCH  50  74
BRANCH  62  85
ATOM     85  C   UNL     1       9.370  14.388   9.338  1.00  0.00     0.023 A 
ATOM     86  C   UNL     1       8.937  14.372  10.679  1.00  0.00     0.012 A 
ATOM     87  C   UNL     1      10.244  15.407   8.908  1.00  0.00     0.148 A 
ATOM     88  C   UNL     1       9.322  15.382  11.561  1.00  0.00     0.002 A 
ATOM     89  C   UNL     1      10.670  16.377   9.807  1.00  0.00     0.091 A 
ATOM     90  F   UNL     1      10.633  15.419   7.625  1.00  0.00    -0.205 F 
ATOM     91  C   UNL     1      10.196  16.377  11.129  1.00  0.00     0.022 A 
BRANCH  89  92
ATOM     92  S   UNL     1      11.874  17.633   9.362  1.00  0.00     0.127 S 
ATOM     93  O   UNL     1      11.032  18.820   9.231  1.00  0.00    -0.237 OA
ATOM     94  O   UNL     1      12.762  17.639  10.525  1.00  0.00    -0.237 OA
ATOM     95  O   UNL     1      12.500  17.168   8.131  1.00  0.00    -0.744 OA
ENDBRANCH  89  92
ENDBRANCH  62  85
ENDBRANCH  36  37
ENDBRANCH  28  31
ENDBRANCH  26  27
ENDBRANCH  25  26
ENDBRANCH   1  25
TORSDOF 18
