REMARK SMILES Cc1cscc1-c1noc(SCC(=O)NCCCNC(=O)c2ccc(-c3c4nc(c(-c5cccc(S(=O)(=O)[O-])c5F)c5ccc([nH]5)c(-c5cccc(S(=O)(=O)[O-])c5F)c5nc(c(-c6cccc(S(=O)(=O)[O-])c6F)c6ccc3[nH]6)C=C5)C=C4)cc2)n1
REMARK SMILES IDX 17 1 16 2 15 3 13 4 14 5 12 7 11 8 10 9 7 10 8 11 85 12 9 13
REMARK SMILES IDX 6 14 1 15 2 16 3 17 4 18 5 19 18 20 19 21 20 22 21 24 22 25
REMARK SMILES IDX 23 26 84 27 24 28 83 29 25 30 26 31 27 32 77 33 28 34 82 35
REMARK SMILES IDX 76 36 78 37 29 38 81 39 75 40 74 41 30 43 62 44 42 45 61 46
REMARK SMILES IDX 43 47 46 48 60 49 79 50 44 51 45 52 59 54 80 55 47 56 31 57
REMARK SMILES IDX 32 58 40 59 33 60 35 61 41 62 34 63 36 64 37 65 38 66 39 67
REMARK SMILES IDX 63 68 64 69 72 70 65 71 67 72 73 73 66 74 68 75 69 76 70 77
REMARK SMILES IDX 71 78 48 79 49 80 57 81 50 82 52 83 58 84 51 85 53 86 54 87
REMARK SMILES IDX 55 88 56 89
REMARK H PARENT 15 6 19 23 78 42 46 53
REMARK Flexibility Score: inf
ROOT
ATOM      1  C   UNL     1       6.962   3.944  -0.097  1.00  0.00     0.042 C 
ENDROOT
BRANCH   1   2
ATOM      2  C   UNL     1       6.919   3.826  -1.617  1.00  0.00     0.117 C 
BRANCH   2   3
ATOM      3  N   UNL     1       6.106   2.704  -2.054  1.00  0.00    -0.355 N 
ATOM      4  C   UNL     1       4.870   2.683  -2.629  1.00  0.00     0.230 C 
ATOM      5  O   UNL     1       4.418   1.583  -2.957  1.00  0.00    -0.274 OA
ATOM      6  H   UNL     1       6.512   1.818  -1.912  1.00  0.00     0.163 HD
BRANCH   4   7
ATOM      7  C   UNL     1       4.144   3.967  -2.979  1.00  0.00     0.179 C 
BRANCH   7   8
ATOM      8  S   UNL     1       3.727   5.008  -1.566  1.00  0.00    -0.055 SA
BRANCH   8   9
ATOM      9  C   UNL     1       2.609   4.030  -0.673  1.00  0.00     0.286 A 
ATOM     10  C   UNL     1       1.327   2.518  -0.016  1.00  0.00     0.204 A 
ATOM     11  N   UNL     1       1.092   3.504   0.856  1.00  0.00    -0.056 NA
ATOM     12  N   UNL     1       2.256   2.804  -0.983  1.00  0.00    -0.181 NA
ATOM     13  O   UNL     1       1.967   4.505   0.438  1.00  0.00    -0.327 OA
BRANCH  10  14
ATOM     14  C   UNL     1       0.583   1.259  -0.027  1.00  0.00     0.036 A 
ATOM     15  C   UNL     1       2.666  -0.309  -0.091  1.00  0.00     0.046 C 
ATOM     16  C   UNL     1       1.196  -0.040  -0.075  1.00  0.00    -0.029 A 
ATOM     17  C   UNL     1       0.229  -1.031  -0.068  1.00  0.00     0.069 A 
ATOM     18  S   UNL     1      -1.364  -0.415  -0.005  1.00  0.00    -0.151 S 
ATOM     19  C   UNL     1      -0.794   1.193   0.037  1.00  0.00     0.077 A 
ENDBRANCH  10  14
ENDBRANCH   8   9
ENDBRANCH   7   8
ENDBRANCH   4   7
ENDBRANCH   2   3
ENDBRANCH   1   2
BRANCH   1  20
ATOM     20  C   UNL     1       7.618   2.757   0.605  1.00  0.00     0.118 C 
BRANCH  20  21
ATOM     21  N   UNL     1       9.027   2.611   0.267  1.00  0.00    -0.352 N 
ATOM     22  C   UNL     1      10.131   2.586   1.082  1.00  0.00     0.251 C 
ATOM     23  H   UNL     1       9.217   2.515  -0.694  1.00  0.00     0.163 HD
ATOM     24  O   UNL     1      11.253   2.630   0.575  1.00  0.00    -0.269 OA
BRANCH  22  25
ATOM     25  C   UNL     1       9.988   2.526   2.553  1.00  0.00     0.039 A 
ATOM     26  C   UNL     1      10.828   3.315   3.345  1.00  0.00     0.014 A 
ATOM     27  C   UNL     1       9.051   1.684   3.158  1.00  0.00     0.014 A 
ATOM     28  C   UNL     1      10.684   3.308   4.734  1.00  0.00     0.010 A 
ATOM     29  C   UNL     1       8.856   1.738   4.537  1.00  0.00     0.010 A 
ATOM     30  C   UNL     1       9.672   2.546   5.342  1.00  0.00    -0.014 A 
BRANCH  30  31
ATOM     31  C   UNL     1       9.441   2.602   6.810  1.00  0.00     0.031 A 
ATOM     32  C   UNL     1       9.586   1.365   7.656  1.00  0.00     0.074 A 
ATOM     33  C   UNL     1       9.016   3.752   7.372  1.00  0.00     0.049 A 
ATOM     34  N   UNL     1       9.371   1.213   8.937  1.00  0.00    -0.248 NA
ATOM     35  C   UNL     1      10.005   0.131   6.970  1.00  0.00     0.031 C 
ATOM     36  C   UNL     1       8.761   5.001   6.651  1.00  0.00     0.029 A 
ATOM     37  N   UNL     1       8.694   4.050   8.673  1.00  0.00    -0.354 N 
ATOM     38  C   UNL     1       9.589  -0.133   9.204  1.00  0.00     0.074 A 
ATOM     39  C   UNL     1       9.925  -0.762   7.945  1.00  0.00     0.031 C 
ATOM     40  C   UNL     1       8.326   5.929   7.517  1.00  0.00     0.029 A 
ATOM     41  C   UNL     1       8.235   5.336   8.847  1.00  0.00     0.049 A 
ATOM     42  H   UNL     1       8.783   3.405   9.412  1.00  0.00     0.167 HD
ATOM     43  C   UNL     1       9.539  -0.784  10.391  1.00  0.00     0.034 A 
ATOM     44  C   UNL     1       7.777   5.964   9.948  1.00  0.00     0.034 A 
ATOM     45  C   UNL     1       9.239  -0.150  11.647  1.00  0.00     0.049 A 
ATOM     46  C   UNL     1       7.761   5.226  11.259  1.00  0.00     0.074 A 
ATOM     47  C   UNL     1       9.253  -0.705  12.915  1.00  0.00     0.029 A 
ATOM     48  N   UNL     1       8.856   1.174  11.796  1.00  0.00    -0.354 N 
ATOM     49  N   UNL     1       8.126   3.994  11.517  1.00  0.00    -0.248 NA
ATOM     50  C   UNL     1       7.305   5.976  12.439  1.00  0.00     0.031 C 
ATOM     51  C   UNL     1       8.844   0.274  13.826  1.00  0.00     0.029 A 
ATOM     52  C   UNL     1       8.616   1.451  13.131  1.00  0.00     0.049 A 
ATOM     53  H   UNL     1       8.768   1.822  11.060  1.00  0.00     0.167 HD
ATOM     54  C   UNL     1       7.979   3.832  12.890  1.00  0.00     0.074 A 
ATOM     55  C   UNL     1       7.512   5.100  13.412  1.00  0.00     0.031 C 
ATOM     56  C   UNL     1       8.200   2.729  13.648  1.00  0.00     0.034 A 
BRANCH  43  57
ATOM     57  C   UNL     1       9.857  -2.258  10.400  1.00  0.00     0.023 A 
ATOM     58  C   UNL     1      11.181  -2.688  10.172  1.00  0.00     0.012 A 
ATOM     59  C   UNL     1       8.864  -3.211  10.698  1.00  0.00     0.148 A 
ATOM     60  C   UNL     1      11.503  -4.045  10.206  1.00  0.00     0.002 A 
ATOM     61  C   UNL     1       9.202  -4.557  10.778  1.00  0.00     0.091 A 
ATOM     62  F   UNL     1       7.607  -2.785  10.894  1.00  0.00    -0.205 F 
ATOM     63  C   UNL     1      10.518  -4.976  10.519  1.00  0.00     0.022 A 
BRANCH  61  64
ATOM     64  S   UNL     1       8.026  -5.827  11.255  1.00  0.00     0.127 S 
ATOM     65  O   UNL     1       7.861  -6.562  10.002  1.00  0.00    -0.237 OA
ATOM     66  O   UNL     1       8.761  -6.551  12.293  1.00  0.00    -0.237 OA
ATOM     67  O   UNL     1       6.841  -5.124  11.726  1.00  0.00    -0.744 OA
ENDBRANCH  61  64
ENDBRANCH  43  57
BRANCH  44  68
ATOM     68  C   UNL     1       7.344   7.388   9.868  1.00  0.00     0.023 A 
ATOM     69  C   UNL     1       8.116   8.386  10.493  1.00  0.00     0.012 A 
ATOM     70  C   UNL     1       6.186   7.760   9.158  1.00  0.00     0.148 A 
ATOM     71  C   UNL     1       7.724   9.724  10.444  1.00  0.00     0.002 A 
ATOM     72  C   UNL     1       5.833   9.101   9.063  1.00  0.00     0.091 A 
ATOM     73  F   UNL     1       5.460   6.794   8.577  1.00  0.00    -0.205 F 
ATOM     74  C   UNL     1       6.589  10.082   9.721  1.00  0.00     0.022 A 
BRANCH  72  75
ATOM     75  S   UNL     1       4.467   9.668   8.044  1.00  0.00     0.127 S 
ATOM     76  O   UNL     1       3.513  10.126   9.051  1.00  0.00    -0.237 OA
ATOM     77  O   UNL     1       5.098  10.733   7.263  1.00  0.00    -0.237 OA
ATOM     78  O   UNL     1       4.054   8.513   7.260  1.00  0.00    -0.744 OA
ENDBRANCH  72  75
ENDBRANCH  44  68
BRANCH  56  79
ATOM     79  C   UNL     1       7.985   2.846  15.135  1.00  0.00     0.023 A 
ATOM     80  C   UNL     1       6.680   2.956  15.654  1.00  0.00     0.012 A 
ATOM     81  C   UNL     1       9.078   2.774  16.022  1.00  0.00     0.148 A 
ATOM     82  C   UNL     1       6.468   3.028  17.031  1.00  0.00     0.002 A 
ATOM     83  C   UNL     1       8.855   2.792  17.394  1.00  0.00     0.091 A 
ATOM     84  F   UNL     1      10.313   2.687  15.509  1.00  0.00    -0.205 F 
ATOM     85  C   UNL     1       7.553   2.933  17.900  1.00  0.00     0.022 A 
BRANCH  83  86
ATOM     86  S   UNL     1      10.180   2.577  18.588  1.00  0.00     0.127 S 
ATOM     87  O   UNL     1      10.278   3.915  19.169  1.00  0.00    -0.237 OA
ATOM     88  O   UNL     1       9.626   1.562  19.485  1.00  0.00    -0.237 OA
ATOM     89  O   UNL     1      11.343   2.141  17.827  1.00  0.00    -0.744 OA
ENDBRANCH  83  86
ENDBRANCH  56  79
ENDBRANCH  30  31
ENDBRANCH  22  25
ENDBRANCH  20  21
ENDBRANCH   1  20
TORSDOF 16
