REMARK SMILES C/C=C(\C)[C@H]1C(C)=C[C@H]2CC[C@@H](OS(=O)(=O)[O-])[C@@H](C)[C@H]2[C@H]1/C=C/C=C/C(=O)NCCCNC(=O)c1ccc(-c2c3nc(c(-c4cccc(S(=O)(=O)[O-])c4F)c4ccc([nH]4)c(-c4cccc(S(=O)(=O)[O-])c4F)c4nc(c(-c5cccc(S(=O)(=O)[O-])c5F)c5ccc2[nH]5)C=C4)C=C3)cc1
REMARK SMILES IDX 29 1 28 2 26 3 27 4 25 6 24 7 23 8 22 9 21 10 5 11 6 12 7 13
REMARK SMILES IDX 8 14 20 15 9 16 18 17 10 18 12 19 19 20 11 21 3 22 1 23 2 24
REMARK SMILES IDX 4 25 13 26 14 27 15 28 16 29 17 30 30 31 31 32 32 33 33 34
REMARK SMILES IDX 34 36 35 37 36 38 97 39 37 40 96 41 38 42 39 43 40 44 90 45
REMARK SMILES IDX 41 46 95 47 89 48 91 49 42 50 94 51 88 52 87 53 43 55 75 56
REMARK SMILES IDX 55 57 74 58 56 59 59 60 73 61 92 62 57 63 58 64 72 66 93 67
REMARK SMILES IDX 60 68 44 69 45 70 53 71 46 72 48 73 54 74 47 75 49 76 50 77
REMARK SMILES IDX 51 78 52 79 76 80 77 81 85 82 78 83 80 84 86 85 79 86 81 87
REMARK SMILES IDX 82 88 83 89 84 90 61 91 62 92 70 93 63 94 65 95 71 96 64 97
REMARK SMILES IDX 66 98 67 99 68 100 69 101
REMARK H PARENT 28 5 32 35 91 54 59 65
REMARK Flexibility Score: inf
ROOT
ATOM      1  C   UNL     1      -0.637   3.801   1.728  1.00  0.00     0.118 C 
ENDROOT
BRANCH   1   2
ATOM      2  N   UNL     1      -0.260   5.156   1.347  1.00  0.00    -0.352 N 
ATOM      3  C   UNL     1      -0.139   5.766   0.137  1.00  0.00     0.243 C 
ATOM      4  O   UNL     1       0.082   6.976   0.100  1.00  0.00    -0.270 OA
ATOM      5  H   UNL     1      -0.054   5.741   2.111  1.00  0.00     0.163 HD
BRANCH   3   6
ATOM      6  C   UNL     1      -0.364   5.043  -1.137  1.00  0.00     0.071 C 
ATOM      7  C   UNL     1      -0.011   3.774  -1.363  1.00  0.00     0.005 C 
BRANCH   7   8
ATOM      8  C   UNL     1      -0.320   3.028  -2.560  1.00  0.00    -0.004 C 
ATOM      9  C   UNL     1      -0.767   1.770  -2.414  1.00  0.00    -0.022 C 
BRANCH   9  10
ATOM     10  C   UNL     1      -1.075   0.755  -3.497  1.00  0.00     0.027 C 
ATOM     11  C   UNL     1      -0.645  -0.765  -3.183  1.00  0.00     0.047 C 
ATOM     12  C   UNL     1      -1.634  -1.814  -3.722  1.00  0.00    -0.069 C 
ATOM     13  C   UNL     1      -1.405  -3.278  -3.440  1.00  0.00     0.040 C 
ATOM     14  C   UNL     1      -2.638  -1.491  -4.561  1.00  0.00    -0.024 C 
ATOM     15  C   UNL     1      -2.535   0.964  -3.997  1.00  0.00     0.009 C 
ATOM     16  C   UNL     1      -2.908  -0.100  -5.048  1.00  0.00     0.016 C 
ATOM     17  C   UNL     1      -3.628   1.193  -2.901  1.00  0.00     0.021 C 
ATOM     18  C   UNL     1      -4.345   0.072  -5.571  1.00  0.00     0.011 C 
ATOM     19  C   UNL     1      -4.995   1.434  -3.575  1.00  0.00     0.141 C 
ATOM     20  C   UNL     1      -3.708   0.126  -1.804  1.00  0.00     0.011 C 
ATOM     21  C   UNL     1      -5.382   0.262  -4.472  1.00  0.00     0.034 C 
BRANCH  11  22
ATOM     22  C   UNL     1      -0.071  -0.999  -1.756  1.00  0.00    -0.070 C 
ATOM     23  C   UNL     1       1.696  -0.288  -0.037  1.00  0.00     0.035 C 
ATOM     24  C   UNL     1       1.058  -0.345  -1.390  1.00  0.00    -0.031 C 
ATOM     25  C   UNL     1      -0.781  -1.899  -0.779  1.00  0.00     0.040 C 
ENDBRANCH  11  22
BRANCH  19  26
ATOM     26  O   UNL     1      -5.990   1.632  -2.582  1.00  0.00    -0.276 OA
BRANCH  26  27
ATOM     27  S   UNL     1      -7.116   2.771  -2.829  1.00  0.00     0.217 S 
ATOM     28  O   UNL     1      -6.470   4.056  -2.995  1.00  0.00    -0.213 OA
ATOM     29  O   UNL     1      -8.073   2.289  -3.794  1.00  0.00    -0.213 OA
ATOM     30  O   UNL     1      -7.887   2.831  -1.418  1.00  0.00    -0.726 OA
ENDBRANCH  26  27
ENDBRANCH  19  26
ENDBRANCH   9  10
ENDBRANCH   7   8
ENDBRANCH   3   6
ENDBRANCH   1   2
BRANCH   1  31
ATOM     31  C   UNL     1       0.562   3.002   2.239  1.00  0.00     0.042 C 
BRANCH  31  32
ATOM     32  C   UNL     1       1.043   3.430   3.624  1.00  0.00     0.118 C 
BRANCH  32  33
ATOM     33  N   UNL     1       0.052   3.147   4.654  1.00  0.00    -0.352 N 
ATOM     34  C   UNL     1       0.123   2.353   5.770  1.00  0.00     0.251 C 
ATOM     35  H   UNL     1      -0.812   3.601   4.528  1.00  0.00     0.163 HD
ATOM     36  O   UNL     1      -0.919   2.065   6.356  1.00  0.00    -0.269 OA
BRANCH  34  37
ATOM     37  C   UNL     1       1.418   1.846   6.279  1.00  0.00     0.039 A 
ATOM     38  C   UNL     1       1.451   0.583   6.878  1.00  0.00     0.014 A 
ATOM     39  C   UNL     1       2.580   2.621   6.239  1.00  0.00     0.014 A 
ATOM     40  C   UNL     1       2.648   0.088   7.399  1.00  0.00     0.010 A 
ATOM     41  C   UNL     1       3.792   2.091   6.679  1.00  0.00     0.010 A 
ATOM     42  C   UNL     1       3.837   0.826   7.281  1.00  0.00    -0.014 A 
BRANCH  42  43
ATOM     43  C   UNL     1       5.126   0.269   7.771  1.00  0.00     0.031 A 
ATOM     44  C   UNL     1       5.899   0.950   8.869  1.00  0.00     0.074 A 
ATOM     45  C   UNL     1       5.626  -0.837   7.186  1.00  0.00     0.049 A 
ATOM     46  N   UNL     1       7.013   0.577   9.444  1.00  0.00    -0.248 NA
ATOM     47  C   UNL     1       5.369   2.228   9.370  1.00  0.00     0.031 C 
ATOM     48  C   UNL     1       5.017  -1.540   6.054  1.00  0.00     0.029 A 
ATOM     49  N   UNL     1       6.761  -1.560   7.452  1.00  0.00    -0.354 N 
ATOM     50  C   UNL     1       7.334   1.584  10.347  1.00  0.00     0.074 A 
ATOM     51  C   UNL     1       6.318   2.604  10.214  1.00  0.00     0.031 C 
ATOM     52  C   UNL     1       5.766  -2.609   5.745  1.00  0.00     0.029 A 
ATOM     53  C   UNL     1       6.924  -2.651   6.631  1.00  0.00     0.049 A 
ATOM     54  H   UNL     1       7.398  -1.320   8.164  1.00  0.00     0.167 HD
ATOM     55  C   UNL     1       8.364   1.643  11.227  1.00  0.00     0.034 A 
ATOM     56  C   UNL     1       7.894  -3.586   6.598  1.00  0.00     0.034 A 
ATOM     57  C   UNL     1       9.359   0.613  11.369  1.00  0.00     0.049 A 
ATOM     58  C   UNL     1       9.004  -3.522   7.609  1.00  0.00     0.074 A 
ATOM     59  C   UNL     1      10.391   0.533  12.287  1.00  0.00     0.029 A 
ATOM     60  N   UNL     1       9.459  -0.508  10.558  1.00  0.00    -0.354 N 
ATOM     61  N   UNL     1       9.200  -2.646   8.564  1.00  0.00    -0.248 NA
ATOM     62  C   UNL     1      10.004  -4.597   7.563  1.00  0.00     0.031 C 
ATOM     63  C   UNL     1      11.140  -0.615  12.004  1.00  0.00     0.029 A 
ATOM     64  C   UNL     1      10.545  -1.277  10.942  1.00  0.00     0.049 A 
ATOM     65  H   UNL     1       8.848  -0.725   9.818  1.00  0.00     0.167 HD
ATOM     66  C   UNL     1      10.321  -3.084   9.259  1.00  0.00     0.074 A 
ATOM     67  C   UNL     1      10.749  -4.314   8.623  1.00  0.00     0.031 C 
ATOM     68  C   UNL     1      10.941  -2.518  10.325  1.00  0.00     0.034 A 
BRANCH  55  69
ATOM     69  C   UNL     1       8.446   2.853  12.126  1.00  0.00     0.023 A 
ATOM     70  C   UNL     1       7.469   3.056  13.123  1.00  0.00     0.012 A 
ATOM     71  C   UNL     1       9.507   3.773  12.008  1.00  0.00     0.148 A 
ATOM     72  C   UNL     1       7.516   4.177  13.951  1.00  0.00     0.002 A 
ATOM     73  C   UNL     1       9.576   4.861  12.871  1.00  0.00     0.091 A 
ATOM     74  F   UNL     1      10.419   3.579  11.045  1.00  0.00    -0.205 F 
ATOM     75  C   UNL     1       8.573   5.074  13.831  1.00  0.00     0.022 A 
BRANCH  73  76
ATOM     76  S   UNL     1      10.945   6.024  12.854  1.00  0.00     0.127 S 
ATOM     77  O   UNL     1      10.314   7.213  12.283  1.00  0.00    -0.237 OA
ATOM     78  O   UNL     1      11.274   6.134  14.276  1.00  0.00    -0.237 OA
ATOM     79  O   UNL     1      11.982   5.411  12.038  1.00  0.00    -0.744 OA
ENDBRANCH  73  76
ENDBRANCH  55  69
BRANCH  56  80
ATOM     80  C   UNL     1       7.803  -4.707   5.621  1.00  0.00     0.023 A 
ATOM     81  C   UNL     1       7.512  -6.006   6.082  1.00  0.00     0.012 A 
ATOM     82  C   UNL     1       7.951  -4.485   4.239  1.00  0.00     0.148 A 
ATOM     83  C   UNL     1       7.396  -7.069   5.186  1.00  0.00     0.002 A 
ATOM     84  C   UNL     1       7.778  -5.537   3.347  1.00  0.00     0.091 A 
ATOM     85  F   UNL     1       8.231  -3.242   3.823  1.00  0.00    -0.205 F 
ATOM     86  C   UNL     1       7.518  -6.833   3.820  1.00  0.00     0.022 A 
BRANCH  84  87
ATOM     87  S   UNL     1       7.782  -5.305   1.567  1.00  0.00     0.127 S 
ATOM     88  O   UNL     1       8.971  -6.055   1.170  1.00  0.00    -0.237 OA
ATOM     89  O   UNL     1       6.509  -5.916   1.183  1.00  0.00    -0.237 OA
ATOM     90  O   UNL     1       7.847  -3.865   1.355  1.00  0.00    -0.744 OA
ENDBRANCH  84  87
ENDBRANCH  56  80
BRANCH  68  91
ATOM     91  C   UNL     1      12.126  -3.245  10.908  1.00  0.00     0.023 A 
ATOM     92  C   UNL     1      13.341  -3.309  10.197  1.00  0.00     0.012 A 
ATOM     93  C   UNL     1      12.047  -3.817  12.194  1.00  0.00     0.148 A 
ATOM     94  C   UNL     1      14.444  -3.969  10.738  1.00  0.00     0.002 A 
ATOM     95  C   UNL     1      13.167  -4.422  12.749  1.00  0.00     0.091 A 
ATOM     96  F   UNL     1      10.878  -3.762  12.848  1.00  0.00    -0.205 F 
ATOM     97  C   UNL     1      14.361  -4.514  12.017  1.00  0.00     0.022 A 
BRANCH  95  98
ATOM     98  S   UNL     1      13.182  -5.060  14.428  1.00  0.00     0.127 S 
ATOM     99  O   UNL     1      13.198  -6.503  14.198  1.00  0.00    -0.237 OA
ATOM    100  O   UNL     1      14.431  -4.512  14.957  1.00  0.00    -0.237 OA
ATOM    101  O   UNL     1      11.979  -4.542  15.066  1.00  0.00    -0.744 OA
ENDBRANCH  95  98
ENDBRANCH  68  91
ENDBRANCH  42  43
ENDBRANCH  34  37
ENDBRANCH  32  33
ENDBRANCH  31  32
ENDBRANCH   1  31
TORSDOF 18
